data_PCOD9237423
_publ_section_title
;
Structure prediction by ZEFSAII (Michael W. Deem and Ramdas Pophale) SiO2 
 PCOD9237423
Probable space group: P 2/C
;
_chemical_formula_sum "Si O2"
_cell_formula_units_Z 32
_cell_length_a 17.558991
_cell_length_b 11.682870
_cell_length_c 22.955958
_cell_angle_alpha 90.000000
_cell_angle_beta 19.967420
_cell_angle_gamma 90.000000
_cell_volume 1608.115027
_symmetry_space_group_name_H-M "P 2/C"
_symmetry_group_IT_number 13
_symmetry_cell_setting 'monoclinic'
loop_
_space_group_symop_operation_xyz
x,y,z
-x,y,1/2-z
-x,-y,-z
x,-y,1/2+z
loop_
_atom_site_type_symbol
_atom_site_label
_atom_site_fract_x
_atom_site_fract_y
_atom_site_fract_z
Si Si1 0.155154 0.634808 0.020450
Si Si2 0.277298 0.884693 0.943494
Si Si3 0.467140 0.837182 0.585980
Si Si4 0.261974 0.029766 0.064428
Si Si5 0.575044 0.367197 0.294615
Si Si6 0.561891 0.780130 0.390709
Si Si7 0.912140 0.983506 0.127491
Si Si8 0.686200 0.464281 0.818147
O O1 0.922206 0.566588 0.180729
O O2 0.136318 0.767931 0.055066
O O3 0.259997 0.640230 0.879620
O O4 0.341830 0.589341 0.932469
O O5 0.500000 0.848228 0.750000
O O6 0.349463 0.964558 0.944733
O O7 0.121582 0.965860 0.017701
O O8 0.652538 0.938385 0.449589
O O9 0.474384 0.753482 0.636595
O O10 0.500306 0.769054 0.502984
O O11 0.237771 0.907201 0.749632
O O12 0.000000 0.032444 0.250000
O O13 0.362258 0.153839 0.002472
O O14 0.682439 0.442060 0.269263
O O15 0.621226 0.652679 0.331086
O O16 0.763564 0.868877 0.237285
O O17 0.000000 0.000000 0.000000
O O18 0.500000 0.500000 0.000000
#
# Coordination Sequence:
#
# PCOD9237423 Si02
#       8
#     4   4   4   4   4   4   4   4
#     4  11  23  44  70  98 130 170 228 292 336 401
#     4  12  20  38  65  98 129 163 221 277 329 401
#     4  11  21  39  64  96 130 170 215 272 337 400
#     4  11  22  36  61  92 128 170 207 267 341 397
#     4  11  23  45  71 101 129 174 235 286 340 404
#     4  11  23  42  59  92 136 169 218 270 335 410
#     4  11  22  37  64  95 129 173 213 273 342 404
#     4  12  26  45  69  97 134 183 231 283 343 406
#
# _framework density 19.899073999999999
#
# number of rings (size 3 to 8) (size 9 to 14) (size 15 to 20)
#    0.000    0.750    5.000    5.625    0.000    0.500 
#    2.250    0.000    5.500    0.000    0.000    0.000 
#    0.000    0.000    0.000    0.000    0.000    0.000 
#
# Total GULP energy -178536.188434 kJ/mol
# GULP energy per Si atom -5579.255889 kJ/mol
# Density = 1.985378 g / cm^3
# Si number density = 19.899074 Si / 1000 Ang^3
#
#
#
# Elastic Constant Matrix: (Units=GPa)
#
#
# Indices 1 2 3 4 5 6 
#
# 1 76.8526 23.3227 22.6531 0.0000 -7.6286 0.0000
# 2 23.3227 83.3317 22.5667 0.0000 -10.7808 0.0000
# 3 22.6531 22.5667 94.5087 0.0000 -15.9128 0.0000
# 4 0.0000 0.0000 0.0000 2.9411 0.0000 1.2653
# 5 -7.6286 -10.7808 -15.9128 0.0000 40.2611 0.0000
# 6 0.0000 0.0000 0.0000 1.2653 0.0000 42.4985
#
#
#
# Elastic Compliance Matrix: (Units=1/GPa)
#
#
# Indices 1 2 3 4 5 6 
#
# 1 0.014887 -0.003342 -0.002620 0.000000 0.000890 0.000000
# 2 -0.003342 0.013797 -0.002119 0.000000 0.002224 0.000000
# 3 -0.002620 -0.002119 0.012358 0.000000 0.003821 0.000000
# 4 0.000000 0.000000 0.000000 0.344420 0.000000 -0.010254
# 5 0.000890 0.002224 0.003821 0.000000 0.027112 0.000000
# 6 0.000000 0.000000 0.000000 -0.010254 0.000000 0.023836
#
#
# Mechanical properties :
#
#
# Convention : Reuss Voigt Hill
#
# Bulk Modulus (GPa) = 40.19312 43.53091 41.86202
# Shear Modulus (GPa) = 10.84916 29.55017 20.19966
#
# Velocity S-wave (km/s) = 2.33751 3.85775 3.18953
# Velocity P-wave (km/s) = 5.24667 6.46269 5.88617
#
# Compressibility (1/GPa) = 0.02487988
#
# Stress axis : x y z
#
# Youngs Moduli (GPa) = 67.17361 72.47933 80.91655
#
# Poissons Ratio (x) = 0.24220 0.21204
# Poissons Ratio (y) = 0.22447 0.17147
# Poissons Ratio (z) = 0.17602 0.15359
#
# Static dielectric constant tensor:
#      x y z
#    x 1.734700 0.000000 0.032220 
#    y 0.000000 1.681090 0.000000 
#    z 0.032220 0.000000 1.702740 
# 
# From -- ./inp_files/88176.got.cif
#   From: 2010.05.17/outbox.cif.g08.bks.cpg/sg13_45_cif.got.tgz:88176.got - 2010.06.03 16:44:36.
