data_PCOD9237278
_publ_section_title
;
Structure prediction by ZEFSAII (Michael W. Deem and Ramdas Pophale) SiO2 
 PCOD9237278
Probable space group: P 2/C
;
_chemical_formula_sum "Si O2"
_cell_formula_units_Z 32
_cell_length_a 11.593666
_cell_length_b 9.612760
_cell_length_c 19.753654
_cell_angle_alpha 90.000000
_cell_angle_beta 137.442841
_cell_angle_gamma 90.000000
_cell_volume 1488.922241
_symmetry_space_group_name_H-M "P 2/C"
_symmetry_group_IT_number 13
_symmetry_cell_setting 'monoclinic'
loop_
_space_group_symop_operation_xyz
x,y,z
-x,y,1/2-z
-x,-y,-z
x,-y,1/2+z
loop_
_atom_site_type_symbol
_atom_site_label
_atom_site_fract_x
_atom_site_fract_y
_atom_site_fract_z
Si Si1 0.750659 0.671115 0.982845
Si Si2 0.706354 0.570356 0.820673
Si Si3 0.635571 0.298182 0.748535
Si Si4 0.369999 0.788275 0.808756
Si Si5 0.661059 0.893641 0.564908
Si Si6 0.754874 0.994023 0.339235
Si Si7 0.419342 0.587082 0.027346
Si Si8 0.132379 0.969001 0.463172
O O1 0.787673 0.640175 0.920446
O O2 0.560536 0.738688 0.908906
O O3 0.726821 0.519473 0.007713
O O4 0.869154 0.802316 0.051499
O O5 0.500000 0.570229 0.750000
O O6 0.763648 0.413973 0.832650
O O7 0.727952 0.654469 0.761236
O O8 0.500000 0.280268 0.750000
O O9 0.713931 0.146719 0.780486
O O10 0.545099 0.369363 0.644326
O O11 0.286525 0.865727 0.835390
O O12 0.366772 0.890181 0.743938
O O13 0.627780 0.738627 0.521657
O O14 0.792622 0.962039 0.570878
O O15 0.500000 0.000000 0.500000
O O16 0.753036 0.993875 0.420370
O O17 0.948705 0.027849 0.403089
O O18 0.500000 0.500000 0.000000
#
# Coordination Sequence:
#
# PCOD9237278 Si02
#       8
#     4   4   4   4   4   4   4   4
#     4  11  20  38  65  91 127 166 206 269 319 388
#     4   9  17  33  57  90 121 153 204 258 310 376
#     4  11  20  35  61  95 122 158 217 265 317 381
#     4  11  20  38  63  90 118 169 211 252 325 385
#     4  12  23  38  64  97 126 164 210 267 319 381
#     4  11  26  40  63  90 131 177 210 275 319 397
#     4  12  21  37  63 101 129 154 214 276 326 377
#     4  11  25  44  58  94 135 168 218 262 338 381
#
# _framework density 21.492056999999999
#
# number of rings (size 3 to 8) (size 9 to 14) (size 15 to 20)
#    0.000    1.000    7.500    1.500    1.750    0.500 
#    0.000    1.875    0.000    0.000    0.000    0.000 
#    0.000    0.000    0.000    0.000    0.000    0.000 
#
# Total GULP energy -178423.026094 kJ/mol
# GULP energy per Si atom -5575.719565 kJ/mol
# Density = 2.144314 g / cm^3
# Si number density = 21.492057 Si / 1000 Ang^3
#
#
#
# Elastic Constant Matrix: (Units=GPa)
#
#
# Indices 1 2 3 4 5 6 
#
# 1 63.6607 0.8802 24.4153 0.0000 -18.4101 0.0000
# 2 0.8802 130.0736 16.5372 0.0000 0.0909 0.0000
# 3 24.4153 16.5372 48.4588 0.0000 -21.2819 0.0000
# 4 0.0000 0.0000 0.0000 23.1953 0.0000 -16.4044
# 5 -18.4101 0.0909 -21.2819 0.0000 26.3848 0.0000
# 6 0.0000 0.0000 0.0000 -16.4044 0.0000 31.5107
#
#
#
# Elastic Compliance Matrix: (Units=1/GPa)
#
#
# Indices 1 2 3 4 5 6 
#
# 1 0.020942 0.000714 -0.006781 0.000000 0.009141 0.000000
# 2 0.000714 0.008271 -0.004609 0.000000 -0.003248 0.000000
# 3 -0.006781 -0.004609 0.036475 0.000000 0.024705 0.000000
# 4 0.000000 0.000000 0.000000 0.068235 0.000000 0.035523
# 5 0.009141 -0.003248 0.024705 0.000000 0.064217 0.000000
# 6 0.000000 0.000000 0.000000 0.035523 0.000000 0.050228
#
#
# Mechanical properties :
#
#
# Convention : Reuss Voigt Hill
#
# Bulk Modulus (GPa) = 22.55404 36.20651 29.38027
# Shear Modulus (GPa) = 17.57467 29.57553 23.57510
#
# Velocity S-wave (km/s) = 2.86270 3.71363 3.31557
# Velocity P-wave (km/s) = 4.63073 5.93894 5.32516
#
# Compressibility (1/GPa) = 0.04433796
#
# Stress axis : x y z
#
# Youngs Moduli (GPa) = 47.74992 120.89939 27.41579
#
# Poissons Ratio (x) = -0.08632 0.18590
# Poissons Ratio (y) = -0.03409 0.12635
# Poissons Ratio (z) = 0.32378 0.55720
#
# Static dielectric constant tensor:
#      x y z
#    x 1.812580 0.000000 0.024240 
#    y 0.000000 1.901360 0.000000 
#    z 0.024240 0.000000 1.836120 
# 
# From -- ./inp_files/78305.got.cif
#   From: 2010.05.17/outbox.cif.g08.bks.cpg/sg13_40_cif.got.tgz:78305.got - 2010.06.03 16:44:36.
