data_PCOD9237724
_publ_section_title
;
Structure prediction by ZEFSAII (Michael W. Deem and Ramdas Pophale) SiO2 
 PCOD9237724
Probable space group: P 2/C
;
_chemical_formula_sum "Si O2"
_cell_formula_units_Z 22
_cell_length_a 12.321102
_cell_length_b 5.290947
_cell_length_c 24.275805
_cell_angle_alpha 90.000000
_cell_angle_beta 42.697423
_cell_angle_gamma 90.000000
_cell_volume 1073.167209
_symmetry_space_group_name_H-M "P 2/C"
_symmetry_group_IT_number 13
_symmetry_cell_setting 'monoclinic'
loop_
_space_group_symop_operation_xyz
x,y,z
-x,y,1/2-z
-x,-y,-z
x,-y,1/2+z
loop_
_atom_site_type_symbol
_atom_site_label
_atom_site_fract_x
_atom_site_fract_y
_atom_site_fract_z
Si Si1 0.050023 0.251722 0.514580
Si Si2 0.407816 0.362647 0.640787
Si Si3 0.385482 0.871294 0.940386
Si Si4 0.781183 0.086306 0.880208
Si Si5 0.076101 0.352741 0.815956
Si Si6 0.000000 0.741101 0.750000
O O1 0.237291 0.210707 0.457592
O O2 0.000000 0.500000 0.500000
O O3 0.970929 0.304838 0.603779
O O4 0.000000 0.000000 0.500000
O O5 0.500283 0.626324 0.600931
O O6 0.314705 0.291925 0.618977
O O7 0.265312 0.353912 0.738222
O O8 0.526219 0.128816 0.609399
O O9 0.312746 0.938243 0.027978
O O10 0.967060 0.146578 0.824950
O O11 0.820325 0.856938 0.825178
O O12 0.017146 0.591685 0.801998
#
# Coordination Sequence:
#
# PCOD9237724 Si02
#       6
#     4   4   4   4   4   2
#     4  11  27  51  73  94 129 189 244 285 336 416
#     4  12  22  43  62 109 140 179 217 294 355 413
#     4  11  27  40  69  98 142 177 234 285 354 410
#     4  11  23  38  64 100 147 192 219 268 345 440
#     4  11  25  40  72 101 141 185 235 280 341 429
#     4  12  20  40  68 104 144 178 246 274 348 412
#
# _framework density 20.500066
#
# number of rings (size 3 to 8) (size 9 to 14) (size 15 to 20)
#    0.000    0.727    3.636    3.273   10.182    0.000 
#    0.000    5.455    0.000    0.000    0.000    0.000 
#    0.000    0.000    0.000    0.000    0.000    0.000 
#
# Total GULP energy -122600.853153 kJ/mol
# GULP energy per Si atom -5572.766052 kJ/mol
# Density = 2.045341 g / cm^3
# Si number density = 20.500066 Si / 1000 Ang^3
#
#
#
# Elastic Constant Matrix: (Units=GPa)
#
#
# Indices 1 2 3 4 5 6 
#
# 1 116.3133 46.9799 61.6302 0.0000 -2.1707 0.0000
# 2 46.9799 108.0505 42.9943 0.0000 -23.7386 0.0000
# 3 61.6302 42.9943 114.4620 0.0000 -29.0123 0.0000
# 4 0.0000 0.0000 0.0000 22.5261 0.0000 -9.0353
# 5 -2.1707 -23.7386 -29.0123 0.0000 34.4893 0.0000
# 6 0.0000 0.0000 0.0000 -9.0353 0.0000 22.5753
#
#
#
# Elastic Compliance Matrix: (Units=1/GPa)
#
#
# Indices 1 2 3 4 5 6 
#
# 1 0.015189 -0.005344 -0.008720 0.000000 -0.010057 0.000000
# 2 -0.005344 0.013532 0.000089 0.000000 0.009052 0.000000
# 3 -0.008720 0.000089 0.016872 0.000000 0.013705 0.000000
# 4 0.000000 0.000000 0.000000 0.052882 0.000000 0.021165
# 5 -0.010057 0.009052 0.013705 0.000000 0.046121 0.000000
# 6 0.000000 0.000000 0.000000 0.021165 0.000000 0.052767
#
#
# Mechanical properties :
#
#
# Convention : Reuss Voigt Hill
#
# Bulk Modulus (GPa) = 56.68090 71.33717 64.00903
# Shear Modulus (GPa) = 21.62694 28.39958 25.01326
#
# Velocity S-wave (km/s) = 3.25155 3.72605 3.49686
# Velocity P-wave (km/s) = 6.46575 7.30653 6.89896
#
# Compressibility (1/GPa) = 0.01764263
#
# Stress axis : x y z
#
# Youngs Moduli (GPa) = 65.83897 73.90021 59.26951
#
# Poissons Ratio (x) = 0.39490 0.51683
# Poissons Ratio (y) = 0.35183 -0.00527
# Poissons Ratio (z) = 0.57412 -0.00657
#
# Static dielectric constant tensor:
#      x y z
#    x 1.684090 0.000000 -0.149220 
#    y 0.000000 1.911070 0.000000 
#    z -0.149220 0.000000 1.449870 
# 
# From -- ./inp_files/85746.got.cif
#   From: 2010.05.17/outbox.cif.g08.bks.cpg/sg13_43_cif.got.tgz:85746.got - 2010.06.03 16:44:36.
