data_PCOD9237862
_publ_section_title
;
Structure prediction by ZEFSAII (Michael W. Deem and Ramdas Pophale) SiO2 
 PCOD9237862
Probable space group: P 2/C
;
_chemical_formula_sum "Si O2"
_cell_formula_units_Z 20
_cell_length_a 4.956529
_cell_length_b 17.300877
_cell_length_c 12.127747
_cell_angle_alpha 90.000000
_cell_angle_beta 52.149068
_cell_angle_gamma 90.000000
_cell_volume 821.180193
_symmetry_space_group_name_H-M "P 2/C"
_symmetry_group_IT_number 13
_symmetry_cell_setting 'monoclinic'
loop_
_space_group_symop_operation_xyz
x,y,z
-x,y,1/2-z
-x,-y,-z
x,-y,1/2+z
loop_
_atom_site_type_symbol
_atom_site_label
_atom_site_fract_x
_atom_site_fract_y
_atom_site_fract_z
Si Si1 0.215943 0.259543 0.409907
Si Si2 0.500000 0.568503 0.250000
Si Si3 0.571687 0.344368 0.501511
Si Si4 0.633323 0.042949 0.606132
Si Si5 0.633256 0.881175 0.879152
Si Si6 0.000000 0.462490 0.250000
O O1 0.500000 0.287579 0.250000
O O2 0.260077 0.307341 0.512334
O O3 0.331832 0.172441 0.408732
O O4 0.852483 0.277223 0.448818
O O5 0.479676 0.618779 0.366160
O O6 0.180684 0.513339 0.299583
O O7 0.729160 0.409155 0.381494
O O8 0.500000 0.082651 0.750000
O O9 0.595382 0.103109 0.517420
O O10 0.386552 0.968467 0.660959
O O11 0.000000 0.000000 0.500000
O O12 0.000000 0.849296 0.750000
#
# Coordination Sequence:
#
# PCOD9237862 Si02
#       6
#     4   2   4   4   4   2
#     4  12  24  45  72 100 140 187 243 282 349 423
#     4  12  26  44  72 104 144 182 230 292 368 412
#     4  12  25  45  70 106 140 182 233 295 346 427
#     4  11  23  43  68 102 143 179 244 293 352 418
#     4  11  24  41  71 102 132 192 236 297 351 418
#     4  12  22  46  72 104 136 186 238 284 350 428
#
# _framework density 24.355194000000001
#
# number of rings (size 3 to 8) (size 9 to 14) (size 15 to 20)
#    0.000    0.400    4.000    5.400    2.800    0.000 
#    1.800    2.000    0.000    0.000    0.000    0.000 
#    0.000    0.000    0.000    0.000    0.000    0.000 
#
# Total GULP energy -111984.779040 kJ/mol
# GULP energy per Si atom -5599.238952 kJ/mol
# Density = 2.429976 g / cm^3
# Si number density = 24.355194 Si / 1000 Ang^3
#
#
#
# Elastic Constant Matrix: (Units=GPa)
#
#
# Indices 1 2 3 4 5 6 
#
# 1 95.0194 14.4569 8.3853 0.0000 11.5421 0.0000
# 2 14.4569 99.6771 21.3661 0.0000 11.1468 0.0000
# 3 8.3853 21.3661 123.3145 0.0000 47.0877 0.0000
# 4 0.0000 0.0000 0.0000 37.6941 0.0000 29.7879
# 5 11.5421 11.1468 47.0877 0.0000 48.6575 0.0000
# 6 0.0000 0.0000 0.0000 29.7879 0.0000 76.9976
#
#
#
# Elastic Compliance Matrix: (Units=1/GPa)
#
#
# Indices 1 2 3 4 5 6 
#
# 1 0.011034 -0.001406 0.000586 0.000000 -0.002863 0.000000
# 2 -0.001406 0.010630 -0.001497 0.000000 -0.000653 0.000000
# 3 0.000586 -0.001497 0.013087 0.000000 -0.012461 0.000000
# 4 0.000000 0.000000 0.000000 0.038211 0.000000 -0.014783
# 5 -0.002863 -0.000653 -0.012461 0.000000 0.033440 0.000000
# 6 0.000000 0.000000 0.000000 -0.014783 0.000000 0.018706
#
#
# Mechanical properties :
#
#
# Convention : Reuss Voigt Hill
#
# Bulk Modulus (GPa) = 33.20177 45.15862 39.18019
# Shear Modulus (GPa) = 35.77025 50.92336 43.34681
#
# Velocity S-wave (km/s) = 3.83651 4.57756 4.22332
# Velocity P-wave (km/s) = 5.76949 6.82060 6.31694
#
# Compressibility (1/GPa) = 0.03011888
#
# Stress axis : x y z
#
# Youngs Moduli (GPa) = 90.62837 94.07157 76.41117
#
# Poissons Ratio (x) = 0.13226 -0.04481
# Poissons Ratio (y) = 0.12742 0.11437
# Poissons Ratio (z) = -0.05315 0.14081
#
# Static dielectric constant tensor:
#      x y z
#    x 2.031650 0.000000 0.035200 
#    y 0.000000 1.950420 0.000000 
#    z 0.035200 0.000000 1.943620 
# 
# From -- ./inp_files/26452.got.cif
#   From: 2010.05.17/outbox.cif.g08.bks.cpg/sg13_14_cif.got.tgz:26452.got - 2010.06.03 16:44:36.
