data_PCOD9237503
_publ_section_title
;
Structure prediction by ZEFSAII (Michael W. Deem and Ramdas Pophale) SiO2 
 PCOD9237503
Probable space group: P 2/C
;
_chemical_formula_sum "Si O2"
_cell_formula_units_Z 24
_cell_length_a 16.859567
_cell_length_b 7.560944
_cell_length_c 22.914874
_cell_angle_alpha 90.000000
_cell_angle_beta 19.605894
_cell_angle_gamma 90.000000
_cell_volume 980.155957
_symmetry_space_group_name_H-M "P 2/C"
_symmetry_group_IT_number 13
_symmetry_cell_setting 'monoclinic'
loop_
_space_group_symop_operation_xyz
x,y,z
-x,y,1/2-z
-x,-y,-z
x,-y,1/2+z
loop_
_atom_site_type_symbol
_atom_site_label
_atom_site_fract_x
_atom_site_fract_y
_atom_site_fract_z
Si Si1 0.041509 0.350390 0.653098
Si Si2 0.471682 0.205645 0.511718
Si Si3 0.764508 0.306685 0.540536
Si Si4 0.029166 0.283812 0.981889
Si Si5 0.527505 0.299750 0.595956
Si Si6 0.531064 0.713154 0.838701
O O1 0.097613 0.514364 0.572248
O O2 0.277012 0.228680 0.490980
O O3 0.000000 0.405289 0.750000
O O4 0.802120 0.259952 0.799545
O O5 0.596004 0.297679 0.480932
O O6 0.564196 0.248076 0.383720
O O7 0.500000 0.000000 0.500000
O O8 0.500000 0.337875 0.750000
O O9 0.908747 0.228035 0.494663
O O10 0.708285 0.214925 0.517037
O O11 0.260883 0.225385 0.785945
O O12 0.000000 0.500000 0.000000
O O13 0.768984 0.223598 0.142630
O O14 0.499986 0.500093 0.638177
#
# Coordination Sequence:
#
# PCOD9237503 Si02
#       6
#     4   4   4   4   4   4
#     4   9  18  32  51  73 105 142 181 224 272 330
#     4  11  22  36  52  76 113 154 189 228 277 333
#     4   9  17  30  53  87 115 138 176 231 285 328
#     4   9  16  29  53  84 112 136 173 231 283 327
#     4   9  18  33  55  82 112 143 181 227 275 329
#     4   9  18  34  56  80 105 139 183 233 279 331
#
# _framework density 24.485897000000001
#
# number of rings (size 3 to 8) (size 9 to 14) (size 15 to 20)
#    0.000    2.667    0.000    3.500    0.000    2.667 
#    0.000    5.833    0.000    0.000    0.000   10.500 
#    0.000    0.000    0.000    0.000    0.000    0.000 
#
# Total GULP energy -133925.313856 kJ/mol
# GULP energy per Si atom -5580.221411 kJ/mol
# Density = 2.443017 g / cm^3
# Si number density = 24.485897 Si / 1000 Ang^3
#
#
#
# Elastic Constant Matrix: (Units=GPa)
#
#
# Indices 1 2 3 4 5 6 
#
# 1 109.3900 -5.2772 -5.1633 0.0000 8.1995 0.0000
# 2 -5.2772 31.1571 -2.4027 0.0000 -9.3579 0.0000
# 3 -5.1633 -2.4027 98.2932 0.0000 -31.4060 0.0000
# 4 0.0000 0.0000 0.0000 -6.3653 0.0000 2.6652
# 5 8.1995 -9.3579 -31.4060 0.0000 19.1625 0.0000
# 6 0.0000 0.0000 0.0000 2.6652 0.0000 -13.8768
#
#
#
# Elastic Compliance Matrix: (Units=1/GPa)
#
#
# Indices 1 2 3 4 5 6 
#
# 1 0.009593 -0.000899 -0.002036 0.000000 -0.007881 0.000000
# 2 -0.000899 0.050422 0.019263 0.000000 0.056579 0.000000
# 3 -0.002036 0.019263 0.029016 0.000000 0.057834 0.000000
# 4 0.000000 0.000000 0.000000 -0.170840 0.000000 -0.032812
# 5 -0.007881 0.056579 0.057834 0.000000 0.177975 0.000000
# 6 0.000000 0.000000 0.000000 -0.032812 0.000000 -0.078365
#
#
# Mechanical properties :
#
#
# Convention : Reuss Voigt Hill
#
# Bulk Modulus (GPa) = 8.21787 23.68379 15.95083
# Shear Modulus (GPa) = 194.49480 16.56296 105.52888
#
# Velocity S-wave (km/s) = 8.92210 2.60365 6.57202
# Velocity P-wave (km/s) = 10.46431 4.32805 8.00731
#
# Compressibility (1/GPa) = 0.12168610
#
# Stress axis : x y z
#
# Youngs Moduli (GPa) = 104.24430 19.83268 34.46329
#
# Poissons Ratio (x) = 0.01784 0.07017
# Poissons Ratio (y) = 0.09375 -0.66387
# Poissons Ratio (z) = 0.21226 -0.38204
#
# Static dielectric constant tensor:
#      x y z
#    x 2.301710 0.000000 -0.092830 
#    y 0.000000 1.974480 0.000000 
#    z -0.092830 0.000000 2.042090 
# 
# From -- ./inp_files/87981.got.cif
#   From: 2010.05.17/outbox.cif.g08.bks.cpg/sg13_44_cif.got.tgz:87981.got - 2010.06.03 16:44:36.
