data_PCOD9237406
_publ_section_title
;
Structure prediction by ZEFSAII (Michael W. Deem and Ramdas Pophale) SiO2 
 PCOD9237406
Probable space group: P 2/C
;
_chemical_formula_sum "Si O2"
_cell_formula_units_Z 28
_cell_length_a 16.353736
_cell_length_b 8.973436
_cell_length_c 13.879054
_cell_angle_alpha 90.000000
_cell_angle_beta 139.795572
_cell_angle_gamma 90.000000
_cell_volume 1314.749789
_symmetry_space_group_name_H-M "P 2/C"
_symmetry_group_IT_number 13
_symmetry_cell_setting 'monoclinic'
loop_
_space_group_symop_operation_xyz
x,y,z
-x,y,1/2-z
-x,-y,-z
x,-y,1/2+z
loop_
_atom_site_type_symbol
_atom_site_label
_atom_site_fract_x
_atom_site_fract_y
_atom_site_fract_z
Si Si1 0.791089 0.124310 0.820962
Si Si2 0.985271 0.627593 0.567060
Si Si3 0.777746 0.166759 0.201650
Si Si4 0.624779 0.629422 0.699703
Si Si5 0.339046 0.636982 0.417686
Si Si6 0.230609 0.500593 0.000929
Si Si7 0.649846 0.174669 0.887428
O O1 0.701016 0.207482 0.663366
O O2 0.714382 0.104787 0.851287
O O3 0.833165 0.971544 0.810478
O O4 0.901213 0.240718 0.944911
O O5 0.903153 0.557438 0.579451
O O6 0.000000 0.500000 0.500000
O O7 0.115336 0.706565 0.714941
O O8 0.667661 0.239239 0.167653
O O9 0.718368 0.120696 0.046324
O O10 0.477092 0.641336 0.590328
O O11 0.647823 0.478051 0.659351
O O12 0.712901 0.616429 0.871613
O O13 0.239323 0.574047 0.404666
O O14 0.321074 0.646907 0.085700
O O15 0.500000 0.150288 0.750000
#
# Coordination Sequence:
#
# PCOD9237406 Si02
#       7
#     4   4   4   4   4   4   4
#     4  11  26  44  66 100 145 177 226 290 346 418
#     4  11  23  48  71  96 135 182 236 290 333 405
#     4  12  25  44  69  99 140 192 225 278 364 417
#     4  11  21  38  66  97 135 176 226 287 339 404
#     4  11  21  39  66 100 132 174 229 287 343 397
#     4  11  22  39  70 100 132 174 239 292 334 401
#     4  11  23  42  69 100 137 182 230 282 350 420
#
# _framework density 21.296828999999999
#
# number of rings (size 3 to 8) (size 9 to 14) (size 15 to 20)
#    0.000    0.857    5.714    2.571    0.000    5.714 
#    0.000    0.000    0.000    0.000    0.000    0.000 
#    0.000    0.000    0.000    0.000    0.000    0.000 
#
# Total GULP energy -156678.749379 kJ/mol
# GULP energy per Si atom -5595.669621 kJ/mol
# Density = 2.124836 g / cm^3
# Si number density = 21.296829 Si / 1000 Ang^3
#
#
#
# Elastic Constant Matrix: (Units=GPa)
#
#
# Indices 1 2 3 4 5 6 
#
# 1 122.4346 43.8462 48.7795 0.0000 -3.3266 0.0000
# 2 43.8462 57.3548 25.6719 0.0000 -1.4229 0.0000
# 3 48.7795 25.6719 99.4161 0.0000 -2.6586 0.0000
# 4 0.0000 0.0000 0.0000 24.0541 0.0000 -3.3662
# 5 -3.3266 -1.4229 -2.6586 0.0000 34.1753 0.0000
# 6 0.0000 0.0000 0.0000 -3.3662 0.0000 15.8530
#
#
#
# Elastic Compliance Matrix: (Units=1/GPa)
#
#
# Indices 1 2 3 4 5 6 
#
# 1 0.012630 -0.007772 -0.004174 0.000000 0.000581 0.000000
# 2 -0.007772 0.024503 -0.002512 0.000000 0.000068 0.000000
# 3 -0.004174 -0.002512 0.012769 0.000000 0.000482 0.000000
# 4 0.000000 0.000000 0.000000 0.042846 0.000000 0.009098
# 5 0.000581 0.000068 0.000482 0.000000 0.029358 0.000000
# 6 0.000000 0.000000 0.000000 0.009098 0.000000 0.065011
#
#
# Mechanical properties :
#
#
# Convention : Reuss Voigt Hill
#
# Bulk Modulus (GPa) = 47.65516 57.31119 52.48318
# Shear Modulus (GPa) = 22.41855 25.54366 23.98111
#
# Velocity S-wave (km/s) = 3.24801 3.46701 3.35929
# Velocity P-wave (km/s) = 6.04080 6.55713 6.30425
#
# Compressibility (1/GPa) = 0.02098408
#
# Stress axis : x y z
#
# Youngs Moduli (GPa) = 79.17644 40.81105 78.31757
#
# Poissons Ratio (x) = 0.31720 0.32693
# Poissons Ratio (y) = 0.61539 0.19673
# Poissons Ratio (z) = 0.33052 0.10252
#
# Static dielectric constant tensor:
#      x y z
#    x 1.748080 0.000000 0.006610 
#    y 0.000000 1.739520 0.000000 
#    z 0.006610 0.000000 1.794530 
# 
# From -- ./inp_files/55308.got.cif
#   From: 2010.05.17/outbox.cif.g08.bks.cpg/sg13_28_cif.got.tgz:55308.got - 2010.06.03 16:44:36.
