data_PCOD9237167
_publ_section_title
;
Structure prediction by ZEFSAII (Michael W. Deem and Ramdas Pophale) SiO2 
 PCOD9237167
Probable space group: P 2/C
;
_chemical_formula_sum "Si O2"
_cell_formula_units_Z 20
_cell_length_a 14.789611
_cell_length_b 5.299674
_cell_length_c 21.276365
_cell_angle_alpha 90.000000
_cell_angle_beta 151.277026
_cell_angle_gamma 90.000000
_cell_volume 801.428287
_symmetry_space_group_name_H-M "P 2/C"
_symmetry_group_IT_number 13
_symmetry_cell_setting 'monoclinic'
loop_
_space_group_symop_operation_xyz
x,y,z
-x,y,1/2-z
-x,-y,-z
x,-y,1/2+z
loop_
_atom_site_type_symbol
_atom_site_label
_atom_site_fract_x
_atom_site_fract_y
_atom_site_fract_z
Si Si1 0.696298 0.900358 0.592976
Si Si2 0.280321 0.425386 0.282982
Si Si3 0.814377 0.073943 0.848797
Si Si4 0.000000 0.713463 0.250000
Si Si5 0.686457 0.438514 0.982150
Si Si6 0.500000 0.738485 0.250000
O O1 0.738620 0.636731 0.654733
O O2 0.689898 0.840729 0.515066
O O3 0.500000 0.000000 0.500000
O O4 0.858011 0.101418 0.700210
O O5 0.184969 0.665172 0.191025
O O6 0.501083 0.447450 0.401619
O O7 0.215370 0.164004 0.213676
O O8 0.638130 0.106224 0.788903
O O9 0.000000 0.000000 0.000000
O O10 0.125145 0.568324 0.378452
O O11 0.638204 0.423297 0.879401
#
# Coordination Sequence:
#
# PCOD9237167 Si02
#       6
#     4   4   4   2   4   2
#     4  12  25  50  75 116 161 206 270 342 407 479
#     4  11  25  49  80 111 159 207 266 335 402 468
#     4  11  26  50  78 116 158 215 267 317 407 487
#     4  12  28  44  82 118 156 208 280 328 412 488
#     4  11  26  51  76 117 156 212 267 330 413 474
#     4  10  26  52  78 112 166 204 262 334 400 486
#
# _framework density 24.955446999999999
#
# number of rings (size 3 to 8) (size 9 to 14) (size 15 to 20)
#    0.000    0.800    2.000    4.200    2.800    6.400 
#    7.200    0.000    0.000    0.000    0.000    0.000 
#    0.000    0.000    0.000    0.000    0.000    0.000 
#
# Total GULP energy -112027.900441 kJ/mol
# GULP energy per Si atom -5601.395022 kJ/mol
# Density = 2.489865 g / cm^3
# Si number density = 24.955447 Si / 1000 Ang^3
#
#
#
# Elastic Constant Matrix: (Units=GPa)
#
#
# Indices 1 2 3 4 5 6 
#
# 1 88.3364 38.6208 51.8577 0.0000 -16.3778 0.0000
# 2 38.6208 157.5017 82.1816 0.0000 -11.9081 0.0000
# 3 51.8577 82.1816 207.3206 0.0000 -9.5664 0.0000
# 4 0.0000 0.0000 0.0000 41.5043 0.0000 16.3419
# 5 -16.3778 -11.9081 -9.5664 0.0000 52.2865 0.0000
# 6 0.0000 0.0000 0.0000 16.3419 0.0000 31.6151
#
#
#
# Elastic Compliance Matrix: (Units=1/GPa)
#
#
# Indices 1 2 3 4 5 6 
#
# 1 0.014377 -0.001846 -0.002699 0.000000 0.003589 0.000000
# 2 -0.001846 0.008324 -0.002801 0.000000 0.000805 0.000000
# 3 -0.002699 -0.002801 0.006596 0.000000 -0.000276 0.000000
# 4 0.000000 0.000000 0.000000 0.030251 0.000000 -0.015637
# 5 0.003589 0.000805 -0.000276 0.000000 0.020382 0.000000
# 6 0.000000 0.000000 0.000000 -0.015637 0.000000 0.039713
#
#
# Mechanical properties :
#
#
# Convention : Reuss Voigt Hill
#
# Bulk Modulus (GPa) = 68.46397 88.71985 78.59191
# Shear Modulus (GPa) = 35.91871 43.78109 39.84990
#
# Velocity S-wave (km/s) = 3.79794 4.19306 4.00039
# Velocity P-wave (km/s) = 6.83568 7.68576 7.27315
#
# Compressibility (1/GPa) = 0.01460622
#
# Stress axis : x y z
#
# Youngs Moduli (GPa) = 69.55459 120.13431 151.60697
#
# Poissons Ratio (x) = 0.22174 0.40917
# Poissons Ratio (y) = 0.12838 0.42462
# Poissons Ratio (z) = 0.18772 0.33647
#
# Static dielectric constant tensor:
#      x y z
#    x 2.085030 0.000000 -0.106880 
#    y 0.000000 2.038000 0.000000 
#    z -0.106880 0.000000 2.062940 
# 
# From -- ./inp_files/56405.got.cif
#   From: 2010.05.17/outbox.cif.g08.bks.cpg/sg13_29_cif.got.tgz:56405.got - 2010.06.03 16:44:36.
