data_PCOD9237481
_publ_section_title
;
Structure prediction by ZEFSAII (Michael W. Deem and Ramdas Pophale) SiO2 
 PCOD9237481
Probable space group: P 2/C
;
_chemical_formula_sum "Si O2"
_cell_formula_units_Z 18
_cell_length_a 9.365464
_cell_length_b 8.158004
_cell_length_c 14.331672
_cell_angle_alpha 90.000000
_cell_angle_beta 140.437658
_cell_angle_gamma 90.000000
_cell_volume 697.418085
_symmetry_space_group_name_H-M "P 2/C"
_symmetry_group_IT_number 13
_symmetry_cell_setting 'monoclinic'
loop_
_space_group_symop_operation_xyz
x,y,z
-x,y,1/2-z
-x,-y,-z
x,-y,1/2+z
loop_
_atom_site_type_symbol
_atom_site_label
_atom_site_fract_x
_atom_site_fract_y
_atom_site_fract_z
Si Si1 0.376610 0.643673 0.282309
Si Si2 0.167148 0.284927 0.172040
Si Si3 0.000000 0.927881 0.750000
Si Si4 0.796615 0.459085 0.071965
Si Si5 0.106647 0.806148 0.443031
O O1 0.500000 0.697485 0.250000
O O2 0.312247 0.449977 0.240529
O O3 0.561037 0.633680 0.458284
O O4 0.156330 0.750270 0.191911
O O5 0.919224 0.366694 0.048149
O O6 0.161866 0.176737 0.263226
O O7 0.185142 0.175235 0.089074
O O8 0.134090 0.040404 0.890102
O O9 0.000000 0.460244 0.250000
O O10 0.766166 0.647740 0.031884
#
# Coordination Sequence:
#
# PCOD9237481 Si02
#       5
#     4   4   2   4   4
#     4  11  21  42  78 102 126 174 238 286 343 389
#     4  11  23  43  71  98 136 185 220 287 333 402
#     4  12  26  46  60 100 154 182 220 264 348 420
#     4  11  21  43  71 102 130 166 238 290 328 391
#     4  11  23  43  71  98 136 185 220 287 333 402
#
# _framework density 25.809483
#
# number of rings (size 3 to 8) (size 9 to 14) (size 15 to 20)
#    0.000    0.889    6.667    2.000    0.000    3.556 
#    0.000    5.556    0.000    0.000    0.000    0.000 
#    0.000    0.000    0.000    0.000    0.000    0.000 
#
# Total GULP energy -100543.858051 kJ/mol
# GULP energy per Si atom -5585.769892 kJ/mol
# Density = 2.575074 g / cm^3
# Si number density = 25.809483 Si / 1000 Ang^3
#
#
#
# Elastic Constant Matrix: (Units=GPa)
#
#
# Indices 1 2 3 4 5 6 
#
# 1 99.5446 25.0092 29.0202 0.0000 -30.0327 0.0000
# 2 25.0092 95.2265 8.5520 0.0000 -28.0180 0.0000
# 3 29.0202 8.5520 129.6411 0.0000 -11.3453 0.0000
# 4 0.0000 0.0000 0.0000 17.2756 0.0000 -24.6613
# 5 -30.0327 -28.0180 -11.3453 0.0000 58.5829 0.0000
# 6 0.0000 0.0000 0.0000 -24.6613 0.0000 39.8765
#
#
#
# Elastic Compliance Matrix: (Units=1/GPa)
#
#
# Indices 1 2 3 4 5 6 
#
# 1 0.012709 -0.001567 -0.002276 0.000000 0.005326 0.000000
# 2 -0.001567 0.012426 -0.000020 0.000000 0.005136 0.000000
# 3 -0.002276 -0.000020 0.008261 0.000000 0.000424 0.000000
# 4 0.000000 0.000000 0.000000 0.494086 0.000000 0.305564
# 5 0.005326 0.005136 0.000424 0.000000 0.022338 0.000000
# 6 0.000000 0.000000 0.000000 0.305564 0.000000 0.214051
#
#
# Mechanical properties :
#
#
# Convention : Reuss Voigt Hill
#
# Bulk Modulus (GPa) = 38.95154 49.95280 44.45217
# Shear Modulus (GPa) = 6.40900 40.60238 23.50569
#
# Velocity S-wave (km/s) = 1.57753 3.97061 3.02112
# Velocity P-wave (km/s) = 4.29451 6.35747 5.42495
#
# Compressibility (1/GPa) = 0.02567292
#
# Stress axis : x y z
#
# Youngs Moduli (GPa) = 78.68139 80.47946 121.04496
#
# Poissons Ratio (x) = 0.12608 0.27545
# Poissons Ratio (y) = 0.12326 0.00237
# Poissons Ratio (z) = 0.17905 0.00157
#
# Static dielectric constant tensor:
#      x y z
#    x 2.132000 0.000000 -0.087170 
#    y 0.000000 2.021030 0.000000 
#    z -0.087170 0.000000 2.101690 
# 
# From -- ./inp_files/66347.got.cif
#   From: 2010.05.17/outbox.cif.g08.bks.cpg/sg13_34_cif.got.tgz:66347.got - 2010.06.03 16:44:36.
