data_PCOD9237522
_publ_section_title
;
Structure prediction by ZEFSAII (Michael W. Deem and Ramdas Pophale) SiO2 
 PCOD9237522
Probable space group: P 2/C
;
_chemical_formula_sum "Si O2"
_cell_formula_units_Z 20
_cell_length_a 12.712209
_cell_length_b 9.198992
_cell_length_c 9.031041
_cell_angle_alpha 90.000000
_cell_angle_beta 81.631461
_cell_angle_gamma 90.000000
_cell_volume 1044.840721
_symmetry_space_group_name_H-M "P 2/C"
_symmetry_group_IT_number 13
_symmetry_cell_setting 'monoclinic'
loop_
_space_group_symop_operation_xyz
x,y,z
-x,y,1/2-z
-x,-y,-z
x,-y,1/2+z
loop_
_atom_site_type_symbol
_atom_site_label
_atom_site_fract_x
_atom_site_fract_y
_atom_site_fract_z
Si Si1 0.507621 0.341266 0.427222
Si Si2 0.680535 0.844121 0.387806
Si Si3 0.914784 0.161463 0.872408
Si Si4 0.696962 0.163808 0.529107
Si Si5 0.931999 0.167741 0.385082
O O1 0.500000 0.343979 0.250000
O O2 0.500000 0.500000 0.500000
O O3 0.412904 0.245885 0.517317
O O4 0.617035 0.269958 0.461238
O O5 0.796918 0.778075 0.401553
O O6 0.673402 0.846158 0.210065
O O7 0.679687 0.004908 0.459814
O O8 0.000000 0.237971 0.750000
O O9 0.901820 0.992139 0.823894
O O10 0.977788 0.151121 0.010633
O O11 0.819444 0.213864 0.476622
O O12 0.000000 0.255417 0.250000
#
# Coordination Sequence:
#
# PCOD9237522 Si02
#       5
#     4   4   4   4   4
#     4  12  27  46  65  83 114 157 202 250 304 359
#     4  11  22  37  63  92 126 156 200 247 293 350
#     4   9  16  30  50  86 122 158 188 233 292 346
#     4  11  22  38  61  94 124 158 199 247 295 347
#     4   9  18  28  52  84 126 156 191 235 291 350
#
# _framework density 19.141673000000001
#
# number of rings (size 3 to 8) (size 9 to 14) (size 15 to 20)
#    0.000    1.600    2.000    3.600   11.200    0.000 
#    0.000    0.000    0.000    2.400    0.000    0.000 
#    0.000    0.000    0.000    0.000    0.000    0.000 
#
# Total GULP energy -111386.414980 kJ/mol
# GULP energy per Si atom -5569.320749 kJ/mol
# Density = 1.909811 g / cm^3
# Si number density = 19.141673 Si / 1000 Ang^3
#
#
#
# Elastic Constant Matrix: (Units=GPa)
#
#
# Indices 1 2 3 4 5 6 
#
# 1 130.4978 45.7326 68.4264 0.0000 -0.1543 0.0000
# 2 45.7326 59.9358 42.0087 0.0000 -0.6008 0.0000
# 3 68.4264 42.0087 185.6579 0.0000 -1.4376 0.0000
# 4 0.0000 0.0000 0.0000 17.4974 0.0000 5.3173
# 5 -0.1543 -0.6008 -1.4376 0.0000 33.4831 0.0000
# 6 0.0000 0.0000 0.0000 5.3173 0.0000 -6.5064
#
#
#
# Elastic Compliance Matrix: (Units=1/GPa)
#
#
# Indices 1 2 3 4 5 6 
#
# 1 0.011478 -0.006886 -0.002674 0.000000 -0.000185 0.000000
# 2 -0.006886 0.023961 -0.002882 0.000000 0.000274 0.000000
# 3 -0.002674 -0.002882 0.007026 0.000000 0.000238 0.000000
# 4 0.000000 0.000000 0.000000 0.045781 0.000000 0.037415
# 5 -0.000185 0.000274 0.000238 0.000000 0.029880 0.000000
# 6 0.000000 0.000000 0.000000 0.037415 0.000000 -0.123118
#
#
# Mechanical properties :
#
#
# Convention : Reuss Voigt Hill
#
# Bulk Modulus (GPa) = 56.87593 76.49190 66.68392
# Shear Modulus (GPa) = 194.16615 23.55640 108.86128
#
# Velocity S-wave (km/s) = 10.08249 3.51185 7.54949
# Velocity P-wave (km/s) = 12.85767 7.51610 10.53118
#
# Compressibility (1/GPa) = 0.01758213
#
# Stress axis : x y z
#
# Youngs Moduli (GPa) = 87.12490 41.73437 142.33772
#
# Poissons Ratio (x) = 0.28737 0.38056
# Poissons Ratio (y) = 0.59992 0.41017
# Poissons Ratio (z) = 0.23294 0.12027
#
# Static dielectric constant tensor:
#      x y z
#    x 1.702690 0.000000 -0.021840 
#    y 0.000000 1.672400 0.000000 
#    z -0.021840 0.000000 1.596080 
# 
# From -- ./inp_files/14831.got.cif
#   From: 2010.05.17/outbox.cif.g08.bks.cpg/sg13_8_cif.got.tgz:14831.got - 2010.06.03 16:44:36.
