data_PCOD9237785
_publ_section_title
;
Structure prediction by ZEFSAII (Michael W. Deem and Ramdas Pophale) SiO2 
 PCOD9237785
Probable space group: P 2/C
;
_chemical_formula_sum "Si O2"
_cell_formula_units_Z 20
_cell_length_a 12.178584
_cell_length_b 8.033084
_cell_length_c 26.933187
_cell_angle_alpha 90.000000
_cell_angle_beta 21.070677
_cell_angle_gamma 90.000000
_cell_volume 947.303299
_symmetry_space_group_name_H-M "P 2/C"
_symmetry_group_IT_number 13
_symmetry_cell_setting 'monoclinic'
loop_
_space_group_symop_operation_xyz
x,y,z
-x,y,1/2-z
-x,-y,-z
x,-y,1/2+z
loop_
_atom_site_type_symbol
_atom_site_label
_atom_site_fract_x
_atom_site_fract_y
_atom_site_fract_z
Si Si1 0.839139 0.665883 0.715878
Si Si2 0.387551 0.112430 0.000314
Si Si3 0.150511 0.460102 0.884501
Si Si4 0.105570 0.341790 0.757218
Si Si5 0.234500 0.801887 0.011523
O O1 0.889061 0.614060 0.637608
O O2 0.725747 0.488438 0.785627
O O3 0.149581 0.736626 0.609635
O O4 0.563348 0.785009 0.847320
O O5 0.202700 0.992684 0.040684
O O6 0.680902 0.187945 0.848247
O O7 0.500000 0.000000 0.000000
O O8 0.500000 0.433505 0.750000
O O9 0.003346 0.294326 0.922776
O O10 0.000000 0.500000 0.000000
O O11 0.000000 0.415086 0.750000
O O12 0.822167 0.290935 0.911599
#
# Coordination Sequence:
#
# PCOD9237785 Si02
#       5
#     4   4   4   4   4
#     4  11  26  43  71 102 140 186 250 283 350 440
#     4  12  26  45  67 104 152 187 230 297 361 421
#     4  11  23  48  76 103 140 190 245 301 352 419
#     4  11  23  41  66  98 138 193 236 277 348 429
#     4  11  24  42  68 103 138 186 231 299 352 417
#
# _framework density 21.112563999999999
#
# number of rings (size 3 to 8) (size 9 to 14) (size 15 to 20)
#    0.000    0.800    4.000    3.600    5.600    1.600 
#    0.000    2.000    0.000    0.000    0.000    0.000 
#    0.000    0.000    0.000    0.000    0.000    0.000 
#
# Total GULP energy -111544.472665 kJ/mol
# GULP energy per Si atom -5577.223633 kJ/mol
# Density = 2.106451 g / cm^3
# Si number density = 21.112564 Si / 1000 Ang^3
#
#
#
# Elastic Constant Matrix: (Units=GPa)
#
#
# Indices 1 2 3 4 5 6 
#
# 1 118.4043 35.8063 55.0210 0.0000 16.1511 0.0000
# 2 35.8063 80.9348 21.6328 0.0000 8.2525 0.0000
# 3 55.0210 21.6328 126.9902 0.0000 6.8803 0.0000
# 4 0.0000 0.0000 0.0000 41.8979 0.0000 -1.2092
# 5 16.1511 8.2525 6.8803 0.0000 36.8221 0.0000
# 6 0.0000 0.0000 0.0000 -1.2092 0.0000 36.8275
#
#
#
# Elastic Compliance Matrix: (Units=1/GPa)
#
#
# Indices 1 2 3 4 5 6 
#
# 1 0.012152 -0.003824 -0.004416 0.000000 -0.003648 0.000000
# 2 -0.003824 0.014383 -0.000717 0.000000 -0.001412 0.000000
# 3 -0.004416 -0.000717 0.009897 0.000000 0.000248 0.000000
# 4 0.000000 0.000000 0.000000 0.023890 0.000000 0.000784
# 5 -0.003648 -0.001412 0.000248 0.000000 0.029028 0.000000
# 6 0.000000 0.000000 0.000000 0.000784 0.000000 0.027179
#
#
# Mechanical properties :
#
#
# Convention : Reuss Voigt Hill
#
# Bulk Modulus (GPa) = 54.00149 61.24993 57.62571
# Shear Modulus (GPa) = 35.55833 37.36744 36.46289
#
# Velocity S-wave (km/s) = 4.10838 4.21160 4.16031
# Velocity P-wave (km/s) = 6.93819 7.26114 7.10150
#
# Compressibility (1/GPa) = 0.01851801
#
# Stress axis : x y z
#
# Youngs Moduli (GPa) = 82.29399 69.52709 101.04521
#
# Poissons Ratio (x) = 0.26585 0.44620
# Poissons Ratio (y) = 0.31467 0.07244
# Poissons Ratio (z) = 0.36340 0.04984
#
# Static dielectric constant tensor:
#      x y z
#    x 1.765940 0.000000 0.000210 
#    y 0.000000 1.734220 0.000000 
#    z 0.000210 0.000000 1.752640 
# 
# From -- ./inp_files/14934.got.cif
#   From: 2010.05.17/outbox.cif.g08.bks.cpg/sg13_8_cif.got.tgz:14934.got - 2010.06.03 16:44:36.
