data_PCOD9237596
_publ_section_title
;
Structure prediction by ZEFSAII (Michael W. Deem and Ramdas Pophale) SiO2 
 PCOD9237596
Probable space group: P 2/C
;
_chemical_formula_sum "Si O2"
_cell_formula_units_Z 24
_cell_length_a 20.826241
_cell_length_b 8.580956
_cell_length_c 10.187861
_cell_angle_alpha 90.000000
_cell_angle_beta 144.416880
_cell_angle_gamma 90.000000
_cell_volume 1059.413592
_symmetry_space_group_name_H-M "P 2/C"
_symmetry_group_IT_number 13
_symmetry_cell_setting 'monoclinic'
loop_
_space_group_symop_operation_xyz
x,y,z
-x,y,1/2-z
-x,-y,-z
x,-y,1/2+z
loop_
_atom_site_type_symbol
_atom_site_label
_atom_site_fract_x
_atom_site_fract_y
_atom_site_fract_z
Si Si1 0.658570 0.839644 0.580092
Si Si2 0.075956 0.487263 0.751252
Si Si3 0.673019 0.023089 0.841565
Si Si4 0.124873 0.144690 0.916617
Si Si5 0.705614 0.631773 0.310071
Si Si6 0.618140 0.494308 0.413067
O O1 0.634012 0.962452 0.424914
O O2 0.619988 0.671816 0.470180
O O3 0.616935 0.897883 0.652017
O O4 0.791942 0.833617 0.821588
O O5 0.121840 0.311506 0.840007
O O6 0.000000 0.510645 0.750000
O O7 0.000000 0.500000 0.500000
O O8 0.174430 0.609408 0.926553
O O9 0.664389 0.194348 0.764879
O O10 0.803225 0.974960 0.050195
O O11 0.000000 0.102863 0.750000
O O12 0.637886 0.510480 0.290502
O O13 0.703970 0.589848 0.153502
O O14 0.500000 0.423109 0.250000
#
# Coordination Sequence:
#
# PCOD9237596 Si02
#       6
#     4   4   4   4   4   4
#     4   9  20  41  56  84 121 157 195 253 299 361
#     4  11  23  37  60  89 123 168 200 240 306 363
#     4   9  21  35  60  83 119 157 193 245 309 345
#     4   9  20  38  58  80 125 158 198 237 295 360
#     4  11  22  41  61  91 126 152 209 259 300 368
#     4  11  23  42  66  87 117 165 206 261 317 356
#
# _framework density 22.654043000000001
#
# number of rings (size 3 to 8) (size 9 to 14) (size 15 to 20)
#    1.000    1.000    1.667    1.500    7.000    5.333 
#    0.000    4.167    0.000    0.000    0.000    0.000 
#    0.000    0.000    0.000    0.000    0.000    0.000 
#
# Total GULP energy -133898.168239 kJ/mol
# GULP energy per Si atom -5579.090343 kJ/mol
# Density = 2.260248 g / cm^3
# Si number density = 22.654043 Si / 1000 Ang^3
#
#
#
# Elastic Constant Matrix: (Units=GPa)
#
#
# Indices 1 2 3 4 5 6 
#
# 1 48.1560 9.8915 15.6294 0.0000 -13.6244 0.0000
# 2 9.8915 18.7137 -6.4786 0.0000 -4.9068 0.0000
# 3 15.6294 -6.4786 74.0444 0.0000 -5.8337 0.0000
# 4 0.0000 0.0000 0.0000 34.4227 0.0000 -8.7930
# 5 -13.6244 -4.9068 -5.8337 0.0000 35.8056 0.0000
# 6 0.0000 0.0000 0.0000 -8.7930 0.0000 24.8535
#
#
#
# Elastic Compliance Matrix: (Units=1/GPa)
#
#
# Indices 1 2 3 4 5 6 
#
# 1 0.028207 -0.015246 -0.006693 0.000000 0.007553 0.000000
# 2 -0.015246 0.065988 0.009367 0.000000 0.004768 0.000000
# 3 -0.006693 0.009367 0.015842 0.000000 0.001318 0.000000
# 4 0.000000 0.000000 0.000000 0.031937 0.000000 0.011299
# 5 0.007553 0.004768 0.001318 0.000000 0.031671 0.000000
# 6 0.000000 0.000000 0.000000 0.011299 0.000000 0.044233
#
#
# Mechanical properties :
#
#
# Convention : Reuss Voigt Hill
#
# Bulk Modulus (GPa) = 11.77930 19.88874 15.83402
# Shear Modulus (GPa) = 18.42860 27.14116 22.78488
#
# Velocity S-wave (km/s) = 2.85525 3.46507 3.17484
# Velocity P-wave (km/s) = 4.01010 4.98070 4.52152
#
# Compressibility (1/GPa) = 0.08489471
#
# Stress axis : x y z
#
# Youngs Moduli (GPa) = 35.45278 15.15417 63.12497
#
# Poissons Ratio (x) = 0.23104 0.42248
# Poissons Ratio (y) = 0.54050 -0.59132
# Poissons Ratio (z) = 0.23728 -0.14196
#
# Static dielectric constant tensor:
#      x y z
#    x 1.885250 0.000000 0.050490 
#    y 0.000000 1.824080 0.000000 
#    z 0.050490 0.000000 1.901640 
# 
# From -- ./inp_files/41628.got.cif
#   From: 2010.05.17/outbox.cif.g08.bks.cpg/sg13_21_cif.got.tgz:41628.got - 2010.06.03 16:44:36.
