data_PCOD9237674
_publ_section_title
;
Structure prediction by ZEFSAII (Michael W. Deem and Ramdas Pophale) SiO2 
 PCOD9237674
Probable space group: P 2/C
;
_chemical_formula_sum "Si O2"
_cell_formula_units_Z 24
_cell_length_a 13.749585
_cell_length_b 10.879228
_cell_length_c 19.480335
_cell_angle_alpha 90.000000
_cell_angle_beta 159.113708
_cell_angle_gamma 90.000000
_cell_volume 1038.870142
_symmetry_space_group_name_H-M "P 2/C"
_symmetry_group_IT_number 13
_symmetry_cell_setting 'monoclinic'
loop_
_space_group_symop_operation_xyz
x,y,z
-x,y,1/2-z
-x,-y,-z
x,-y,1/2+z
loop_
_atom_site_type_symbol
_atom_site_label
_atom_site_fract_x
_atom_site_fract_y
_atom_site_fract_z
Si Si1 0.959855 0.382355 0.645814
Si Si2 0.659705 0.013361 0.530188
Si Si3 0.565127 0.729821 0.672769
Si Si4 0.092748 0.360568 0.583411
Si Si5 0.161556 0.656841 0.775914
Si Si6 0.369578 0.239363 0.556957
O O1 0.649602 0.348124 0.425775
O O2 0.117963 0.341727 0.682284
O O3 0.000000 0.332046 0.750000
O O4 0.023485 0.525494 0.690498
O O5 0.553728 0.138966 0.426508
O O6 0.000000 0.011190 0.750000
O O7 0.500000 0.000000 0.500000
O O8 0.565339 0.899676 0.420418
O O9 0.612778 0.655398 0.633489
O O10 0.853065 0.727992 0.900044
O O11 0.000000 0.500000 0.500000
O O12 0.385600 0.316839 0.749732
O O13 0.920188 0.750485 0.595561
O O14 0.288298 0.699663 0.930295
#
# Coordination Sequence:
#
# PCOD9237674 Si02
#       6
#     4   4   4   4   4   4
#     4  12  25  43  74 103 144 192 253 305 369 448
#     4  12  25  48  79 109 147 202 267 320 367 453
#     4  12  26  44  70 108 149 194 245 309 386 443
#     4  12  27  45  70 110 157 190 238 318 391 454
#     4  11  22  44  71 105 137 197 253 304 369 452
#     4  11  23  44  71 103 143 196 251 301 377 448
#
# _framework density 23.10202
#
# number of rings (size 3 to 8) (size 9 to 14) (size 15 to 20)
#    0.000    0.333    6.667    3.000    2.333    2.667 
#    0.000    0.000    3.667    0.000    0.000    0.000 
#    0.000    0.000    0.000    0.000    0.000    0.000 
#
# Total GULP energy -134011.377038 kJ/mol
# GULP energy per Si atom -5583.807377 kJ/mol
# Density = 2.304944 g / cm^3
# Si number density = 23.102020 Si / 1000 Ang^3
#
#
#
# Elastic Constant Matrix: (Units=GPa)
#
#
# Indices 1 2 3 4 5 6 
#
# 1 115.4890 10.2594 24.8449 0.0000 10.9614 0.0000
# 2 10.2594 139.1014 58.8453 0.0000 10.0253 0.0000
# 3 24.8449 58.8453 136.8042 0.0000 16.6121 0.0000
# 4 0.0000 0.0000 0.0000 33.0885 0.0000 2.3345
# 5 10.9614 10.0253 16.6121 0.0000 46.5167 0.0000
# 6 0.0000 0.0000 0.0000 2.3345 0.0000 25.2759
#
#
#
# Elastic Compliance Matrix: (Units=1/GPa)
#
#
# Indices 1 2 3 4 5 6 
#
# 1 0.009128 0.000076 -0.001492 0.000000 -0.001635 0.000000
# 2 0.000076 0.008803 -0.003730 0.000000 -0.000583 0.000000
# 3 -0.001492 -0.003730 0.009455 0.000000 -0.002221 0.000000
# 4 0.000000 0.000000 0.000000 0.030420 0.000000 -0.002810
# 5 -0.001635 -0.000583 -0.002221 0.000000 0.022802 0.000000
# 6 0.000000 0.000000 0.000000 -0.002810 0.000000 0.039823
#
#
# Mechanical properties :
#
#
# Convention : Reuss Voigt Hill
#
# Bulk Modulus (GPa) = 58.49820 64.36596 61.43208
# Shear Modulus (GPa) = 36.65144 40.80591 38.72868
#
# Velocity S-wave (km/s) = 3.98742 4.20734 4.09885
# Velocity P-wave (km/s) = 6.82466 7.17805 7.00358
#
# Compressibility (1/GPa) = 0.01709454
#
# Stress axis : x y z
#
# Youngs Moduli (GPa) = 109.55079 113.59516 105.76875
#
# Poissons Ratio (x) = -0.00859 0.15779
# Poissons Ratio (y) = -0.00829 0.39447
# Poissons Ratio (z) = 0.16343 0.42366
#
# Static dielectric constant tensor:
#      x y z
#    x 2.038670 0.000000 0.041220 
#    y 0.000000 1.841350 0.000000 
#    z 0.041220 0.000000 1.914450 
# 
# From -- ./inp_files/80195.got.cif
#   From: 2010.05.17/outbox.cif.g08.bks.cpg/sg13_41_cif.got.tgz:80195.got - 2010.06.03 16:44:36.
