data_PCOD9237036
_publ_section_title
;
Structure prediction by ZEFSAII (Michael W. Deem and Ramdas Pophale) SiO2 
 PCOD9237036
Probable space group: P 2/C
;
_chemical_formula_sum "Si O2"
_cell_formula_units_Z 30
_cell_length_a 9.826148
_cell_length_b 10.490076
_cell_length_c 18.958026
_cell_angle_alpha 90.000000
_cell_angle_beta 48.295464
_cell_angle_gamma 90.000000
_cell_volume 1458.930521
_symmetry_space_group_name_H-M "P 2/C"
_symmetry_group_IT_number 13
_symmetry_cell_setting 'monoclinic'
loop_
_space_group_symop_operation_xyz
x,y,z
-x,y,1/2-z
-x,-y,-z
x,-y,1/2+z
loop_
_atom_site_type_symbol
_atom_site_label
_atom_site_fract_x
_atom_site_fract_y
_atom_site_fract_z
Si Si1 0.338716 0.196759 0.862913
Si Si2 0.135440 0.435074 0.643511
Si Si3 0.625217 0.895613 0.638723
Si Si4 0.339787 0.825599 0.619255
Si Si5 0.837142 0.072312 0.861081
Si Si6 0.934587 0.241468 0.955864
Si Si7 0.000000 0.677497 0.750000
Si Si8 0.456144 0.289507 0.572100
O O1 0.500000 0.214166 0.750000
O O2 0.415061 0.264310 0.906575
O O3 0.142824 0.251732 0.908197
O O4 0.314131 0.043467 0.879246
O O5 0.121080 0.362250 0.574210
O O6 0.069233 0.580437 0.665806
O O7 0.333510 0.415397 0.609621
O O8 0.000000 0.374563 0.750000
O O9 0.500000 0.867948 0.750000
O O10 0.488862 0.880762 0.619968
O O11 0.792569 0.798759 0.566107
O O12 0.166697 0.763859 0.716952
O O13 0.432858 0.722582 0.537855
O O14 0.264889 0.938907 0.596288
O O15 0.915406 0.125106 0.906783
O O16 0.691896 0.174144 0.881105
O O17 0.000000 0.056187 0.750000
#
# Coordination Sequence:
#
# PCOD9237036 Si02
#       8
#     4   4   4   4   4   4   2   4
#     4  11  22  34  60 102 138 161 199 253 330 400
#     4   9  20  42  64  89 119 156 221 266 308 368
#     4  11  24  38  58  92 139 168 201 254 328 401
#     4  12  22  41  62  92 128 168 213 268 318 384
#     4  11  20  34  64  95 130 164 197 252 329 397
#     4  11  21  39  62  94 131 171 203 261 325 382
#     4  10  26  40  66  92 120 164 234 272 310 360
#     4  11  20  37  66  94 122 165 210 260 322 383
#
# _framework density 20.563008
#
# number of rings (size 3 to 8) (size 9 to 14) (size 15 to 20)
#    0.400    0.800    4.667    4.800    1.867    1.600 
#    0.000    0.000    2.933    1.600    0.000    0.000 
#    0.000    0.000    0.000    0.000    0.000    0.000 
#
# Total GULP energy -167460.566442 kJ/mol
# GULP energy per Si atom -5582.018881 kJ/mol
# Density = 2.051621 g / cm^3
# Si number density = 20.563008 Si / 1000 Ang^3
#
#
#
# Elastic Constant Matrix: (Units=GPa)
#
#
# Indices 1 2 3 4 5 6 
#
# 1 129.7107 9.5615 15.2763 0.0000 -7.7802 0.0000
# 2 9.5615 47.0421 -6.7400 0.0000 -8.4689 0.0000
# 3 15.2763 -6.7400 68.4416 0.0000 -5.2911 0.0000
# 4 0.0000 0.0000 0.0000 11.5391 0.0000 -6.9632
# 5 -7.7802 -8.4689 -5.2911 0.0000 34.0312 0.0000
# 6 0.0000 0.0000 0.0000 -6.9632 0.0000 7.1882
#
#
#
# Elastic Compliance Matrix: (Units=1/GPa)
#
#
# Indices 1 2 3 4 5 6 
#
# 1 0.008128 -0.001719 -0.001896 0.000000 0.001136 0.000000
# 2 -0.001719 0.023104 0.003110 0.000000 0.005840 0.000000
# 3 -0.001896 0.003110 0.015554 0.000000 0.002759 0.000000
# 4 0.000000 0.000000 0.000000 0.208603 0.000000 0.202074
# 5 0.001136 0.005840 0.002759 0.000000 0.031527 0.000000
# 6 0.000000 0.000000 0.000000 0.202074 0.000000 0.334867
#
#
# Mechanical properties :
#
#
# Convention : Reuss Voigt Hill
#
# Bulk Modulus (GPa) = 21.84513 31.26554 26.55533
# Shear Modulus (GPa) = 7.83638 25.69147 16.76393
#
# Velocity S-wave (km/s) = 1.95427 3.53852 2.85835
# Velocity P-wave (km/s) = 3.96722 5.65090 4.88218
#
# Compressibility (1/GPa) = 0.04577680
#
# Stress axis : x y z
#
# Youngs Moduli (GPa) = 123.03831 43.28247 64.29337
#
# Poissons Ratio (x) = 0.07441 0.12187
# Poissons Ratio (y) = 0.21152 -0.19998
# Poissons Ratio (z) = 0.23323 -0.13463
#
# Static dielectric constant tensor:
#      x y z
#    x 1.714540 0.000000 -0.043130 
#    y 0.000000 1.773680 0.000000 
#    z -0.043130 0.000000 1.797870 
# 
# From -- ./inp_files/64446.got.cif
#   From: 2010.05.17/outbox.cif.g08.bks.cpg/sg13_33_cif.got.tgz:64446.got - 2010.06.03 16:44:36.
