data_PCOD9237159
_publ_section_title
;
Structure prediction by ZEFSAII (Michael W. Deem and Ramdas Pophale) SiO2 
 PCOD9237159
Probable space group: P 2/C
;
_chemical_formula_sum "Si O2"
_cell_formula_units_Z 20
_cell_length_a 13.271221
_cell_length_b 4.669271
_cell_length_c 21.279711
_cell_angle_alpha 90.000000
_cell_angle_beta 147.940928
_cell_angle_gamma 90.000000
_cell_volume 699.924405
_symmetry_space_group_name_H-M "P 2/C"
_symmetry_group_IT_number 13
_symmetry_cell_setting 'monoclinic'
loop_
_space_group_symop_operation_xyz
x,y,z
-x,y,1/2-z
-x,-y,-z
x,-y,1/2+z
loop_
_atom_site_type_symbol
_atom_site_label
_atom_site_fract_x
_atom_site_fract_y
_atom_site_fract_z
Si Si1 0.627219 0.813954 0.519695
Si Si2 0.431083 0.503278 0.804617
Si Si3 0.500000 0.015042 0.250000
Si Si4 0.876321 0.798770 0.066300
Si Si5 0.012609 0.312333 0.068928
Si Si6 0.000000 0.446030 0.750000
O O1 0.503278 0.604259 0.409858
O O2 0.808563 0.636728 0.642427
O O3 0.500000 0.000000 0.500000
O O4 0.713958 0.045788 0.518162
O O5 0.401921 0.222022 0.743981
O O6 0.228456 0.655680 0.704143
O O7 0.556195 0.741104 0.831680
O O8 0.946716 0.010728 0.544601
O O9 0.869635 0.473975 0.039981
O O10 0.027179 0.756033 0.203324
O O11 0.000000 0.500000 0.000000
#
# Coordination Sequence:
#
# PCOD9237159 Si02
#       6
#     4   4   2   4   4   2
#     4  12  32  56  91 127 178 237 302 368 450 524
#     4  11  28  49  85 125 174 226 304 350 457 521
#     4  10  26  50  82 122 172 228 282 376 424 540
#     4  12  29  55  86 123 175 230 291 371 439 532
#     4  12  29  52  89 126 174 230 293 365 452 530
#     4  12  30  58  88 128 186 228 304 374 446 534
#
# _framework density 28.574511000000001
#
# number of rings (size 3 to 8) (size 9 to 14) (size 15 to 20)
#    0.000    0.400    2.000    2.400   16.800    2.400 
#    0.000    1.000    0.000    0.000    0.000    0.000 
#    0.000    0.000    0.000    0.000    0.000    0.000 
#
# Total GULP energy -111858.246567 kJ/mol
# GULP energy per Si atom -5592.912328 kJ/mol
# Density = 2.850947 g / cm^3
# Si number density = 28.574511 Si / 1000 Ang^3
#
#
#
# Elastic Constant Matrix: (Units=GPa)
#
#
# Indices 1 2 3 4 5 6 
#
# 1 156.7854 78.0661 48.0035 0.0000 -2.6024 0.0000
# 2 78.0661 214.0157 54.4870 0.0000 2.7596 0.0000
# 3 48.0035 54.4870 135.9733 0.0000 22.2126 0.0000
# 4 0.0000 0.0000 0.0000 52.4111 0.0000 -14.9458
# 5 -2.6024 2.7596 22.2126 0.0000 40.7157 0.0000
# 6 0.0000 0.0000 0.0000 -14.9458 0.0000 69.4295
#
#
#
# Elastic Compliance Matrix: (Units=1/GPa)
#
#
# Indices 1 2 3 4 5 6 
#
# 1 0.008344 -0.002492 -0.002264 0.000000 0.001937 0.000000
# 2 -0.002492 0.005976 -0.001562 0.000000 0.000288 0.000000
# 3 -0.002264 -0.001562 0.009645 0.000000 -0.005301 0.000000
# 4 0.000000 0.000000 0.000000 0.020328 0.000000 0.004376
# 5 0.001937 0.000288 -0.005301 0.000000 0.027557 0.000000
# 6 0.000000 0.000000 0.000000 0.004376 0.000000 0.015345
#
#
# Mechanical properties :
#
#
# Convention : Reuss Voigt Hill
#
# Bulk Modulus (GPa) = 88.26145 96.43198 92.34672
# Shear Modulus (GPa) = 48.25951 54.25913 51.25932
#
# Velocity S-wave (km/s) = 4.11408 4.36232 4.24002
# Velocity P-wave (km/s) = 7.31593 7.69376 7.50722
#
# Compressibility (1/GPa) = 0.01132997
#
# Stress axis : x y z
#
# Youngs Moduli (GPa) = 119.84129 167.34770 103.67858
#
# Poissons Ratio (x) = 0.41711 0.23468
# Poissons Ratio (y) = 0.29870 0.16190
# Poissons Ratio (z) = 0.27127 0.26133
#
# Static dielectric constant tensor:
#      x y z
#    x 2.232830 0.000000 -0.007990 
#    y 0.000000 2.111840 0.000000 
#    z -0.007990 0.000000 2.579640 
# 
# From -- ./inp_files/97098.got.cif
#   From: 2010.05.17/outbox.cif.g08.bks.cpg/sg13_49_cif.got.tgz:97098.got - 2010.06.03 16:44:36.
