data_PCOD9237836
_publ_section_title
;
Structure prediction by ZEFSAII (Michael W. Deem and Ramdas Pophale) SiO2 
 PCOD9237836
Probable space group: P 2/C
;
_chemical_formula_sum "Si O2"
_cell_formula_units_Z 12
_cell_length_a 8.135102
_cell_length_b 11.145004
_cell_length_c 5.099447
_cell_angle_alpha 90.000000
_cell_angle_beta 82.251988
_cell_angle_gamma 90.000000
_cell_volume 458.124213
_symmetry_space_group_name_H-M "P 2/C"
_symmetry_group_IT_number 13
_symmetry_cell_setting 'monoclinic'
loop_
_space_group_symop_operation_xyz
x,y,z
-x,y,1/2-z
-x,-y,-z
x,-y,1/2+z
loop_
_atom_site_type_symbol
_atom_site_label
_atom_site_fract_x
_atom_site_fract_y
_atom_site_fract_z
Si Si1 0.308849 0.948870 0.858778
Si Si2 0.877400 0.613408 0.089742
Si Si3 0.318302 0.672535 0.891600
O O1 0.500000 0.985203 0.750000
O O2 0.316316 0.813679 0.958974
O O3 0.229594 0.964955 0.590932
O O4 0.000000 0.692442 0.250000
O O5 0.271960 0.599479 0.166233
O O6 0.000000 0.500000 0.000000
O O7 0.804250 0.659645 0.833536
O O8 0.500000 0.641636 0.750000
#
# Coordination Sequence:
#
# PCOD9237836 Si02
#       3
#     4   4   4
#     4   9  17  32  59  97 135 166 206 271 339 388
#     4  12  25  46  67  91 133 183 224 273 355 412
#     4  11  23  42  71 102 130 172 234 284 321 396
#
# _framework density 26.193767999999999
#
# number of rings (size 3 to 8) (size 9 to 14) (size 15 to 20)
#    0.000    1.333    0.000    7.000    0.000    5.333 
#    0.000   16.667    0.000   20.000    0.000    0.000 
#    0.000    0.000    0.000    0.000    0.000   43.333 
#
# Total GULP energy -66910.096785 kJ/mol
# GULP energy per Si atom -5575.841399 kJ/mol
# Density = 2.613415 g / cm^3
# Si number density = 26.193768 Si / 1000 Ang^3
#
#
#
# Elastic Constant Matrix: (Units=GPa)
#
#
# Indices 1 2 3 4 5 6 
#
# 1 82.2511 11.4208 29.6649 0.0000 -12.0062 0.0000
# 2 11.4208 80.4105 27.9420 0.0000 -19.1865 0.0000
# 3 29.6649 27.9420 208.6466 0.0000 -21.1467 0.0000
# 4 0.0000 0.0000 0.0000 37.5060 0.0000 2.2721
# 5 -12.0062 -19.1865 -21.1467 0.0000 60.7076 0.0000
# 6 0.0000 0.0000 0.0000 2.2721 0.0000 14.8835
#
#
#
# Elastic Compliance Matrix: (Units=1/GPa)
#
#
# Indices 1 2 3 4 5 6 
#
# 1 0.013104 -0.000897 -0.001564 0.000000 0.001763 0.000000
# 2 -0.000897 0.013931 -0.001358 0.000000 0.003752 0.000000
# 3 -0.001564 -0.001358 0.005310 0.000000 0.001111 0.000000
# 4 0.000000 0.000000 0.000000 0.026911 0.000000 -0.004108
# 5 0.001763 0.003752 0.001111 0.000000 0.018394 0.000000
# 6 0.000000 0.000000 0.000000 -0.004108 0.000000 0.067816
#
#
# Mechanical properties :
#
#
# Convention : Reuss Voigt Hill
#
# Bulk Modulus (GPa) = 40.47520 56.59595 48.53557
# Shear Modulus (GPa) = 30.99073 42.77147 36.88110
#
# Velocity S-wave (km/s) = 3.44340 4.04528 3.75642
# Velocity P-wave (km/s) = 5.59421 6.59338 6.11424
#
# Compressibility (1/GPa) = 0.02470649
#
# Stress axis : x y z
#
# Youngs Moduli (GPa) = 76.31265 71.78368 188.33667
#
# Poissons Ratio (x) = 0.06438 0.29461
# Poissons Ratio (y) = 0.06844 0.25572
# Poissons Ratio (z) = 0.11937 0.09747
#
# Static dielectric constant tensor:
#      x y z
#    x 2.210630 0.000000 0.051510 
#    y 0.000000 2.053040 0.000000 
#    z 0.051510 0.000000 2.267280 
# 
# From -- ./inp_files/884.got.cif
#   From: 2010.05.17/outbox.cif.g08.bks.cpg/sg13_1_cif.got.tgz:884.got - 2010.06.03 16:44:36.
