data_PCOD9237717
_publ_section_title
;
Structure prediction by ZEFSAII (Michael W. Deem and Ramdas Pophale) SiO2 
 PCOD9237717
Probable space group: P 2/C
;
_chemical_formula_sum "Si O2"
_cell_formula_units_Z 32
_cell_length_a 24.425991
_cell_length_b 9.440936
_cell_length_c 18.578745
_cell_angle_alpha 90.000000
_cell_angle_beta 21.540654
_cell_angle_gamma 90.000000
_cell_volume 1573.042764
_symmetry_space_group_name_H-M "P 2/C"
_symmetry_group_IT_number 13
_symmetry_cell_setting 'monoclinic'
loop_
_space_group_symop_operation_xyz
x,y,z
-x,y,1/2-z
-x,-y,-z
x,-y,1/2+z
loop_
_atom_site_type_symbol
_atom_site_label
_atom_site_fract_x
_atom_site_fract_y
_atom_site_fract_z
Si Si1 0.604205 0.335252 0.265090
Si Si2 0.811555 0.969386 0.657727
Si Si3 0.732061 0.441378 0.810658
Si Si4 0.612003 0.266641 0.424798
Si Si5 0.663831 0.089992 0.079033
Si Si6 0.835988 0.093758 0.471929
Si Si7 0.720990 0.374331 0.655124
Si Si8 0.892558 0.805188 0.178090
O O1 0.429488 0.375487 0.469908
O O2 0.623167 0.289121 0.324874
O O3 0.651438 0.214628 0.153060
O O4 0.701322 0.477625 0.138436
O O5 0.670253 0.891117 0.865895
O O6 0.942940 0.851690 0.498534
O O7 0.787018 0.022901 0.607042
O O8 0.860116 0.102942 0.645929
O O9 0.710758 0.610632 0.841810
O O10 0.749616 0.407326 0.704203
O O11 0.857457 0.358024 0.701898
O O12 0.440960 0.298143 0.651749
O O13 0.500000 0.063731 0.250000
O O14 0.776327 0.141139 0.879800
O O15 0.728464 0.953513 0.039820
O O16 0.834972 0.261501 0.485320
O O17 0.000000 0.042488 0.250000
#
# Coordination Sequence:
#
# PCOD9237717 Si02
#       8
#     4   4   4   4   4   4   4   4
#     4   9  18  37  60  89 115 149 200 254 297 360
#     4  11  23  39  59  87 126 163 205 251 305 368
#     4   9  17  36  60  88 120 147 197 253 302 349
#     4   9  19  35  63  90 110 151 206 249 292 363
#     4  12  24  38  63  93 124 162 207 255 308 368
#     4  12  24  42  61  89 128 169 201 254 312 370
#     4   9  20  37  63  88 114 154 201 246 299 366
#     4  11  23  38  58  89 126 164 198 252 314 360
#
# _framework density 20.342741
#
# number of rings (size 3 to 8) (size 9 to 14) (size 15 to 20)
#    0.000    1.750    5.000    1.500    1.750    1.000 
#    0.000    5.000    0.000    0.000    0.000    0.000 
#    0.000    0.000    0.000    0.000    0.000    0.000 
#
# Total GULP energy -178720.748426 kJ/mol
# GULP energy per Si atom -5585.023388 kJ/mol
# Density = 2.029644 g / cm^3
# Si number density = 20.342741 Si / 1000 Ang^3
#
#
#
# Elastic Constant Matrix: (Units=GPa)
#
#
# Indices 1 2 3 4 5 6 
#
# 1 43.6404 -0.7694 3.5854 0.0000 -1.6043 0.0000
# 2 -0.7694 42.4333 -7.1562 0.0000 -0.2987 0.0000
# 3 3.5854 -7.1562 29.8514 0.0000 9.6197 0.0000
# 4 0.0000 0.0000 0.0000 26.6236 0.0000 -4.6637
# 5 -1.6043 -0.2987 9.6197 0.0000 20.8613 0.0000
# 6 0.0000 0.0000 0.0000 -4.6637 0.0000 21.8297
#
#
#
# Elastic Compliance Matrix: (Units=1/GPa)
#
#
# Indices 1 2 3 4 5 6 
#
# 1 0.023377 -0.000232 -0.004042 0.000000 0.003659 0.000000
# 2 -0.000232 0.024699 0.006860 0.000000 -0.002828 0.000000
# 3 -0.004042 0.006860 0.041928 0.000000 -0.019547 0.000000
# 4 0.000000 0.000000 0.000000 0.039021 0.000000 0.008337
# 5 0.003659 -0.002828 -0.019547 0.000000 0.057190 0.000000
# 6 0.000000 0.000000 0.000000 0.008337 0.000000 0.047590
#
#
# Mechanical properties :
#
#
# Convention : Reuss Voigt Hill
#
# Bulk Modulus (GPa) = 10.50685 11.91609 11.21147
# Shear Modulus (GPa) = 19.20417 21.88061 20.54239
#
# Velocity S-wave (km/s) = 3.07584 3.28319 3.18120
# Velocity P-wave (km/s) = 4.21788 4.49920 4.36081
#
# Compressibility (1/GPa) = 0.09517601
#
# Stress axis : x y z
#
# Youngs Moduli (GPa) = 42.77698 40.48709 23.85016
#
# Poissons Ratio (x) = 0.00940 0.09641
# Poissons Ratio (y) = 0.00993 -0.16362
# Poissons Ratio (z) = 0.17292 -0.27775
#
# Static dielectric constant tensor:
#      x y z
#    x 1.697750 0.000000 -0.030330 
#    y 0.000000 1.735400 0.000000 
#    z -0.030330 0.000000 1.724730 
# 
# From -- ./inp_files/82493.got.cif
#   From: 2010.05.17/outbox.cif.g08.bks.cpg/sg13_42_cif.got.tgz:82493.got - 2010.06.03 16:44:36.
