data_PCOD9237441
_publ_section_title
;
Structure prediction by ZEFSAII (Michael W. Deem and Ramdas Pophale) SiO2 
 PCOD9237441
Probable space group: P 2/C
;
_chemical_formula_sum "Si O2"
_cell_formula_units_Z 24
_cell_length_a 12.697156
_cell_length_b 11.575065
_cell_length_c 19.639103
_cell_angle_alpha 90.000000
_cell_angle_beta 156.110569
_cell_angle_gamma 90.000000
_cell_volume 1168.900486
_symmetry_space_group_name_H-M "P 2/C"
_symmetry_group_IT_number 13
_symmetry_cell_setting 'monoclinic'
loop_
_space_group_symop_operation_xyz
x,y,z
-x,y,1/2-z
-x,-y,-z
x,-y,1/2+z
loop_
_atom_site_type_symbol
_atom_site_label
_atom_site_fract_x
_atom_site_fract_y
_atom_site_fract_z
Si Si1 0.760461 0.231494 0.054793
Si Si2 0.059752 0.649480 0.975086
Si Si3 0.362894 0.621459 0.406514
Si Si4 0.468934 0.261660 0.108117
Si Si5 0.306086 0.026366 0.949791
Si Si6 0.934041 0.617962 0.044752
O O1 0.000000 0.248031 0.250000
O O2 0.802694 0.284056 0.005065
O O3 0.715305 0.095061 0.024019
O O4 0.531072 0.296785 0.957323
O O5 0.755674 0.682768 0.783048
O O6 0.135090 0.514218 0.014127
O O7 0.091185 0.672741 0.074215
O O8 0.500000 0.500000 0.500000
O O9 0.341831 0.682543 0.465929
O O10 0.102392 0.602839 0.211668
O O11 0.440143 0.126103 0.074329
O O12 0.304716 0.301986 0.075699
O O13 0.000000 0.056862 0.750000
O O14 0.500000 0.000000 0.000000
#
# Coordination Sequence:
#
# PCOD9237441 Si02
#       6
#     4   4   4   4   4   4
#     4  11  21  40  66  94 129 171 225 272 331 398
#     4  11  24  44  63  92 133 180 211 271 344 408
#     4  12  21  37  65  98 124 162 215 279 324 388
#     4  12  22  42  67  94 129 168 225 273 333 398
#     4  11  22  40  68 102 134 176 230 294 345 394
#     4  11  25  40  64  95 133 171 216 270 341 404
#
# _framework density 20.532114
#
# number of rings (size 3 to 8) (size 9 to 14) (size 15 to 20)
#    0.000    0.667    5.000    4.000    0.000    0.667 
#    0.000    0.833    3.667    0.000    0.000    0.000 
#    0.000    0.000    0.000    0.000    0.000    0.000 
#
# Total GULP energy -133968.503174 kJ/mol
# GULP energy per Si atom -5582.020966 kJ/mol
# Density = 2.048538 g / cm^3
# Si number density = 20.532114 Si / 1000 Ang^3
#
#
#
# Elastic Constant Matrix: (Units=GPa)
#
#
# Indices 1 2 3 4 5 6 
#
# 1 120.1502 35.7232 21.2818 0.0000 -7.2781 0.0000
# 2 35.7232 106.0458 -1.8982 0.0000 -2.5912 0.0000
# 3 21.2818 -1.8982 47.0300 0.0000 -7.1457 0.0000
# 4 0.0000 0.0000 0.0000 19.6138 0.0000 6.2697
# 5 -7.2781 -2.5912 -7.1457 0.0000 33.9755 0.0000
# 6 0.0000 0.0000 0.0000 6.2697 0.0000 24.0022
#
#
#
# Elastic Compliance Matrix: (Units=1/GPa)
#
#
# Indices 1 2 3 4 5 6 
#
# 1 0.010245 -0.003511 -0.004633 0.000000 0.000952 0.000000
# 2 -0.003511 0.010662 0.002095 0.000000 0.000502 0.000000
# 3 -0.004633 0.002095 0.024087 0.000000 0.004233 0.000000
# 4 0.000000 0.000000 0.000000 0.055630 0.000000 -0.014531
# 5 0.000952 0.000502 0.004233 0.000000 0.030566 0.000000
# 6 0.000000 0.000000 0.000000 -0.014531 0.000000 0.045459
#
#
# Mechanical properties :
#
#
# Convention : Reuss Voigt Hill
#
# Bulk Modulus (GPa) = 30.39741 42.60440 36.50091
# Shear Modulus (GPa) = 25.03608 30.05958 27.54783
#
# Velocity S-wave (km/s) = 3.49573 3.83041 3.66689
# Velocity P-wave (km/s) = 5.57946 6.35279 5.97864
#
# Compressibility (1/GPa) = 0.03289754
#
# Stress axis : x y z
#
# Youngs Moduli (GPa) = 97.60763 93.78801 41.51563
#
# Poissons Ratio (x) = 0.32928 0.19234
# Poissons Ratio (y) = 0.34269 -0.08699
# Poissons Ratio (z) = 0.45222 -0.19651
#
# Static dielectric constant tensor:
#      x y z
#    x 2.130110 0.000000 -0.496140 
#    y 0.000000 1.732840 0.000000 
#    z -0.496140 0.000000 2.507420 
# 
# From -- ./inp_files/33924.got.cif
#   From: 2010.05.17/outbox.cif.g08.bks.cpg/sg13_17_cif.got.tgz:33924.got - 2010.06.03 16:44:36.
