data_PCOD9237655
_publ_section_title
;
Structure prediction by ZEFSAII (Michael W. Deem and Ramdas Pophale) SiO2 
 PCOD9237655
Probable space group: P 2/C
;
_chemical_formula_sum "Si O2"
_cell_formula_units_Z 26
_cell_length_a 15.761409
_cell_length_b 8.481222
_cell_length_c 14.956739
_cell_angle_alpha 90.000000
_cell_angle_beta 142.204776
_cell_angle_gamma 90.000000
_cell_volume 1225.288423
_symmetry_space_group_name_H-M "P 2/C"
_symmetry_group_IT_number 13
_symmetry_cell_setting 'monoclinic'
loop_
_space_group_symop_operation_xyz
x,y,z
-x,y,1/2-z
-x,-y,-z
x,-y,1/2+z
loop_
_atom_site_type_symbol
_atom_site_label
_atom_site_fract_x
_atom_site_fract_y
_atom_site_fract_z
Si Si1 0.241673 0.620107 0.712612
Si Si2 0.000000 0.157336 0.750000
Si Si3 0.336154 0.440568 0.614263
Si Si4 0.492219 0.191076 0.988521
Si Si5 0.766845 0.373479 0.642506
Si Si6 0.114965 0.075389 0.032137
Si Si7 0.618962 0.118272 0.787404
O O1 0.284271 0.525143 0.660095
O O2 0.192850 0.492139 0.744265
O O3 0.135038 0.749618 0.587865
O O4 0.372204 0.715672 0.864923
O O5 0.888197 0.262881 0.708641
O O6 0.928100 0.067270 0.607923
O O7 0.500000 0.461806 0.750000
O O8 0.276492 0.521094 0.477336
O O9 0.306016 0.254321 0.593683
O O10 0.361970 0.265121 0.932702
O O11 0.459949 0.212639 0.856940
O O12 0.500000 0.000000 0.000000
O O13 0.266223 0.993485 0.159671
O O14 0.000000 0.000000 0.000000
O O15 0.500000 0.039267 0.750000
#
# Coordination Sequence:
#
# PCOD9237655 Si02
#       7
#     4   2   4   4   4   4   4
#     4  12  24  44  76 104 137 186 232 301 357 419
#     4  12  30  46  72  98 138 200 240 282 352 426
#     4  11  22  43  72 107 139 177 231 293 360 422
#     4  12  24  42  75 108 140 178 228 296 364 425
#     4  12  26  46  71 103 141 183 245 290 352 432
#     4  12  29  49  71 105 147 192 239 297 358 429
#     4  11  25  44  72 107 141 181 232 294 360 430
#
# _framework density 21.219493
#
# number of rings (size 3 to 8) (size 9 to 14) (size 15 to 20)
#    0.000    0.308    6.154    3.231    2.154    3.692 
#    0.000    0.000    0.000    0.000    0.000    0.000 
#    0.000    0.000    0.000    0.000    0.000    0.000 
#
# Total GULP energy -145360.650256 kJ/mol
# GULP energy per Si atom -5590.794241 kJ/mol
# Density = 2.117120 g / cm^3
# Si number density = 21.219493 Si / 1000 Ang^3
#
#
#
# Elastic Constant Matrix: (Units=GPa)
#
#
# Indices 1 2 3 4 5 6 
#
# 1 144.3205 36.5140 41.1740 0.0000 -14.2173 0.0000
# 2 36.5140 77.2308 13.6367 0.0000 -2.8187 0.0000
# 3 41.1740 13.6367 72.9091 0.0000 -21.6717 0.0000
# 4 0.0000 0.0000 0.0000 34.1745 0.0000 -4.0037
# 5 -14.2173 -2.8187 -21.6717 0.0000 40.2544 0.0000
# 6 0.0000 0.0000 0.0000 -4.0037 0.0000 35.2728
#
#
#
# Elastic Compliance Matrix: (Units=1/GPa)
#
#
# Indices 1 2 3 4 5 6 
#
# 1 0.009110 -0.003526 -0.004288 0.000000 0.000662 0.000000
# 2 -0.003526 0.014763 -0.000992 0.000000 -0.000745 0.000000
# 3 -0.004288 -0.000992 0.018872 0.000000 0.008576 0.000000
# 4 0.000000 0.000000 0.000000 0.029656 0.000000 0.003366
# 5 0.000662 -0.000745 0.008576 0.000000 0.029641 0.000000
# 6 0.000000 0.000000 0.000000 0.003366 0.000000 0.028733
#
#
# Mechanical properties :
#
#
# Convention : Reuss Voigt Hill
#
# Bulk Modulus (GPa) = 39.78779 53.01221 46.40000
# Shear Modulus (GPa) = 31.89521 35.48270 33.68896
#
# Velocity S-wave (km/s) = 3.88120 4.09366 3.98885
# Velocity P-wave (km/s) = 6.23508 6.88339 6.56724
#
# Compressibility (1/GPa) = 0.02513334
#
# Stress axis : x y z
#
# Youngs Moduli (GPa) = 109.77338 67.73697 52.98807
#
# Poissons Ratio (x) = 0.23881 0.22723
# Poissons Ratio (y) = 0.38702 0.05255
# Poissons Ratio (z) = 0.47075 0.06718
#
# Static dielectric constant tensor:
#      x y z
#    x 1.734730 0.000000 0.016880 
#    y 0.000000 1.831760 0.000000 
#    z 0.016880 0.000000 1.759110 
# 
# From -- ./inp_files/53370.got.cif
#   From: 2010.05.17/outbox.cif.g08.bks.cpg/sg13_27_cif.got.tgz:53370.got - 2010.06.03 16:44:36.
