data_PCOD9237317
_publ_section_title
;
Structure prediction by ZEFSAII (Michael W. Deem and Ramdas Pophale) SiO2 
 PCOD9237317
Probable space group: P 2/C
;
_chemical_formula_sum "Si O2"
_cell_formula_units_Z 32
_cell_length_a 12.542926
_cell_length_b 10.555086
_cell_length_c 14.447021
_cell_angle_alpha 90.000000
_cell_angle_beta 42.179318
_cell_angle_gamma 90.000000
_cell_volume 1284.265004
_symmetry_space_group_name_H-M "P 2/C"
_symmetry_group_IT_number 13
_symmetry_cell_setting 'monoclinic'
loop_
_space_group_symop_operation_xyz
x,y,z
-x,y,1/2-z
-x,-y,-z
x,-y,1/2+z
loop_
_atom_site_type_symbol
_atom_site_label
_atom_site_fract_x
_atom_site_fract_y
_atom_site_fract_z
Si Si1 0.386551 0.902599 0.410870
Si Si2 0.904449 0.457093 0.971896
Si Si3 0.437136 0.326463 0.023388
Si Si4 0.072641 0.315169 0.289252
Si Si5 0.637145 0.587327 0.233500
Si Si6 0.121662 0.823299 0.449460
Si Si7 0.956946 0.179237 0.880379
Si Si8 0.414919 0.818857 0.901813
O O1 0.500000 0.886554 0.250000
O O2 0.408161 0.792594 0.471675
O O3 0.215167 0.898579 0.469162
O O4 0.439221 0.036488 0.419711
O O5 0.977604 0.330931 0.882901
O O6 0.943586 0.570874 0.877309
O O7 0.727149 0.468168 0.127144
O O8 0.000000 0.500000 0.000000
O O9 0.549363 0.419222 0.889342
O O10 0.253923 0.359746 0.166119
O O11 0.531195 0.277523 0.053171
O O12 0.000000 0.238156 0.250000
O O13 0.039125 0.233430 0.402238
O O14 0.500000 0.616452 0.250000
O O15 0.760108 0.705629 0.152034
O O16 0.064615 0.885078 0.390248
O O17 0.000000 0.138519 0.750000
O O18 0.768882 0.177379 0.006129
O O19 0.500000 0.796703 0.750000
#
# Coordination Sequence:
#
# PCOD9237317 Si02
#       8
#     4   4   4   4   4   4   4   4
#     4  11  22  43  74 102 130 182 233 290 344 405
#     4  11  24  43  68  92 139 184 223 277 350 406
#     4  12  21  43  73 103 141 171 233 290 341 411
#     4  11  21  38  68 102 130 170 223 288 343 395
#     4  11  20  39  72 102 126 174 226 284 336 407
#     4  11  20  42  71  92 134 177 229 282 336 403
#     4  12  26  47  67  96 143 188 225 284 348 412
#     4  11  28  45  64 100 146 188 220 280 358 410
#
# _framework density 24.916975999999998
#
# number of rings (size 3 to 8) (size 9 to 14) (size 15 to 20)
#    0.000    0.750    6.250    3.000    0.000    1.000 
#    2.250    0.625    0.000    0.000    0.000    0.000 
#    0.000    0.000    0.000    0.000    0.000    0.000 
#
# Total GULP energy -178751.405418 kJ/mol
# GULP energy per Si atom -5585.981419 kJ/mol
# Density = 2.486026 g / cm^3
# Si number density = 24.916976 Si / 1000 Ang^3
#
#
#
# Elastic Constant Matrix: (Units=GPa)
#
#
# Indices 1 2 3 4 5 6 
#
# 1 137.9288 4.0939 39.4153 0.0000 5.6007 0.0000
# 2 4.0939 39.3166 -0.6707 0.0000 0.7248 0.0000
# 3 39.4153 -0.6707 148.5317 0.0000 -3.4979 0.0000
# 4 0.0000 0.0000 0.0000 18.1117 0.0000 0.4556
# 5 5.6007 0.7248 -3.4979 0.0000 46.6469 0.0000
# 6 0.0000 0.0000 0.0000 0.4556 0.0000 30.3852
#
#
#
# Elastic Compliance Matrix: (Units=1/GPa)
#
#
# Indices 1 2 3 4 5 6 
#
# 1 0.007930 -0.000842 -0.002134 0.000000 -0.001099 0.000000
# 2 -0.000842 0.025533 0.000332 0.000000 -0.000271 0.000000
# 3 -0.002134 0.000332 0.007319 0.000000 0.000800 0.000000
# 4 0.000000 0.000000 0.000000 0.055234 0.000000 -0.000828
# 5 -0.001099 -0.000271 0.000800 0.000000 0.021634 0.000000
# 6 0.000000 0.000000 0.000000 -0.000828 0.000000 0.032923
#
#
# Mechanical properties :
#
#
# Convention : Reuss Voigt Hill
#
# Bulk Modulus (GPa) = 28.17324 45.71716 36.94520
# Shear Modulus (GPa) = 29.81681 37.89135 33.85408
#
# Velocity S-wave (km/s) = 3.46301 3.90385 3.69002
# Velocity P-wave (km/s) = 5.22698 6.22155 5.74582
#
# Compressibility (1/GPa) = 0.03549468
#
# Stress axis : x y z
#
# Youngs Moduli (GPa) = 126.11091 39.16525 136.62743
#
# Poissons Ratio (x) = 0.03297 0.29155
# Poissons Ratio (y) = 0.10616 -0.04540
# Poissons Ratio (z) = 0.26911 -0.01301
#
# Static dielectric constant tensor:
#      x y z
#    x 2.014850 0.000000 0.155670 
#    y 0.000000 2.177900 0.000000 
#    z 0.155670 0.000000 2.527040 
# 
# From -- ./inp_files/51464.got.cif
#   From: 2010.05.17/outbox.cif.g08.bks.cpg/sg13_26_cif.got.tgz:51464.got - 2010.06.03 16:44:36.
