data_PCOD9237938
_publ_section_title
;
Structure prediction by ZEFSAII (Michael W. Deem and Ramdas Pophale) SiO2 
 PCOD9237938
Probable space group: P 2/C
;
_chemical_formula_sum "Si O2"
_cell_formula_units_Z 24
_cell_length_a 8.406780
_cell_length_b 7.835237
_cell_length_c 30.246577
_cell_angle_alpha 90.000000
_cell_angle_beta 149.353345
_cell_angle_gamma 90.000000
_cell_volume 1015.567013
_symmetry_space_group_name_H-M "P 2/C"
_symmetry_group_IT_number 13
_symmetry_cell_setting 'monoclinic'
loop_
_space_group_symop_operation_xyz
x,y,z
-x,y,1/2-z
-x,-y,-z
x,-y,1/2+z
loop_
_atom_site_type_symbol
_atom_site_label
_atom_site_fract_x
_atom_site_fract_y
_atom_site_fract_z
Si Si1 0.237760 0.060716 0.971938
Si Si2 0.338248 0.289747 0.757639
Si Si3 0.366740 0.353146 0.575858
Si Si4 0.542879 0.908995 0.807118
Si Si5 0.644101 0.733521 0.917114
Si Si6 0.292958 0.362817 0.924045
O O1 0.155733 0.242980 0.929717
O O2 0.367897 0.113795 0.050818
O O3 0.907592 0.964933 0.897254
O O4 0.500000 0.000000 0.000000
O O5 0.500000 0.337970 0.750000
O O6 0.502933 0.319775 0.844111
O O7 0.016488 0.394309 0.678900
O O8 0.330969 0.080704 0.755071
O O9 0.453843 0.551050 0.587431
O O10 0.494916 0.266323 0.561971
O O11 0.004405 0.307176 0.491442
O O12 0.500000 0.818378 0.750000
O O13 0.472028 0.791925 0.831802
O O14 0.500000 0.500000 0.000000
#
# Coordination Sequence:
#
# PCOD9237938 Si02
#       6
#     4   4   4   4   4   4
#     4  12  24  44  69 102 137 184 239 295 356 427
#     4  11  23  45  72  99 141 185 235 293 357 427
#     4  11  24  43  72 101 143 182 232 295 358 428
#     4  11  23  46  68 101 140 188 241 285 359 429
#     4  11  24  44  70 103 138 187 234 293 362 424
#     4  12  24  45  70 104 141 181 238 292 357 428
#
# _framework density 23.63212
#
# number of rings (size 3 to 8) (size 9 to 14) (size 15 to 20)
#    0.000    0.667    6.667    2.000    4.667    0.667 
#    3.000    0.833    0.000    0.000    0.000    0.000 
#    0.000    0.000    0.000    0.000    0.000    0.000 
#
# Total GULP energy -133917.943114 kJ/mol
# GULP energy per Si atom -5579.914296 kJ/mol
# Density = 2.357833 g / cm^3
# Si number density = 23.632120 Si / 1000 Ang^3
#
#
#
# Elastic Constant Matrix: (Units=GPa)
#
#
# Indices 1 2 3 4 5 6 
#
# 1 107.3201 19.2795 17.8517 0.0000 -21.6028 0.0000
# 2 19.2795 63.7004 20.6604 0.0000 -6.3651 0.0000
# 3 17.8517 20.6604 90.2951 0.0000 -24.6868 0.0000
# 4 0.0000 0.0000 0.0000 30.2646 0.0000 -8.6752
# 5 -21.6028 -6.3651 -24.6868 0.0000 59.2672 0.0000
# 6 0.0000 0.0000 0.0000 -8.6752 0.0000 36.1406
#
#
#
# Elastic Compliance Matrix: (Units=1/GPa)
#
#
# Indices 1 2 3 4 5 6 
#
# 1 0.010563 -0.002681 -0.000565 0.000000 0.003327 0.000000
# 2 -0.002681 0.017640 -0.003674 0.000000 -0.000613 0.000000
# 3 -0.000565 -0.003674 0.013388 0.000000 0.004976 0.000000
# 4 0.000000 0.000000 0.000000 0.035483 0.000000 0.008517
# 5 0.003327 -0.000613 0.004976 0.000000 0.020092 0.000000
# 6 0.000000 0.000000 0.000000 0.008517 0.000000 0.029714
#
#
# Mechanical properties :
#
#
# Convention : Reuss Voigt Hill
#
# Bulk Modulus (GPa) = 36.03563 41.87765 38.95664
# Shear Modulus (GPa) = 33.33961 38.70276 36.02118
#
# Velocity S-wave (km/s) = 3.76010 4.05126 3.90840
# Velocity P-wave (km/s) = 5.84233 6.29625 6.07353
#
# Compressibility (1/GPa) = 0.02775032
#
# Stress axis : x y z
#
# Youngs Moduli (GPa) = 94.66725 56.68845 74.69635
#
# Poissons Ratio (x) = 0.15200 0.04223
# Poissons Ratio (y) = 0.25383 0.27442
# Poissons Ratio (z) = 0.05352 0.20826
#
# Static dielectric constant tensor:
#      x y z
#    x 1.895610 0.000000 0.025050 
#    y 0.000000 2.020890 0.000000 
#    z 0.025050 0.000000 1.946790 
# 
# From -- ./inp_files/96017.got.cif
#   From: 2010.05.17/outbox.cif.g08.bks.cpg/sg13_49_cif.got.tgz:96017.got - 2010.06.03 16:44:36.
