data_PCOD9237984
_publ_section_title
;
Structure prediction by ZEFSAII (Michael W. Deem and Ramdas Pophale) SiO2 
 PCOD9237984
Probable space group: P 2/C
;
_chemical_formula_sum "Si O2"
_cell_formula_units_Z 32
_cell_length_a 27.805930
_cell_length_b 8.117554
_cell_length_c 15.048191
_cell_angle_alpha 90.000000
_cell_angle_beta 159.464697
_cell_angle_gamma 90.000000
_cell_volume 1191.481320
_symmetry_space_group_name_H-M "P 2/C"
_symmetry_group_IT_number 13
_symmetry_cell_setting 'monoclinic'
loop_
_space_group_symop_operation_xyz
x,y,z
-x,y,1/2-z
-x,-y,-z
x,-y,1/2+z
loop_
_atom_site_type_symbol
_atom_site_label
_atom_site_fract_x
_atom_site_fract_y
_atom_site_fract_z
Si Si1 0.224757 0.697582 0.741802
Si Si2 0.551590 0.549687 0.933486
Si Si3 0.731699 0.993755 0.106219
Si Si4 0.660512 0.441625 0.800430
Si Si5 0.701147 0.820475 0.883546
Si Si6 0.995591 0.213296 0.524351
Si Si7 0.212490 0.992608 0.110242
Si Si8 0.947673 0.299797 0.253063
O O1 0.326443 0.826687 0.968769
O O2 0.098116 0.651560 0.585763
O O3 0.165213 0.827843 0.566086
O O4 0.312086 0.551099 0.855851
O O5 0.500000 0.619399 0.750000
O O6 0.429615 0.436011 0.765952
O O7 0.598718 0.644246 0.104943
O O8 0.117685 0.936735 0.667391
O O9 0.657560 0.888830 0.903879
O O10 0.744389 0.906032 0.223397
O O11 0.662271 0.638549 0.789238
O O12 0.815568 0.384973 0.068415
O O13 0.866639 0.812783 0.182780
O O14 0.670508 0.954295 0.755749
O O15 0.035607 0.266141 0.493692
O O16 0.108463 0.877393 0.878421
O O17 0.000000 0.377709 0.250000
#
# Coordination Sequence:
#
# PCOD9237984 Si02
#       8
#     4   4   4   4   4   4   4   4
#     4   8  19  38  65 101 116 170 220 276 328 380
#     4  11  23  48  73  84 127 176 235 277 331 382
#     4   8  19  33  63 100 129 164 216 268 331 376
#     4  11  28  43  66  99 128 187 223 268 334 402
#     4  12  19  39  64  97 144 163 226 267 324 413
#     4   9  21  33  62 100 130 175 207 271 332 384
#     4   9  20  35  65  93 126 173 210 269 320 386
#     4  12  24  40  60  97 148 173 214 265 337 400
#
# _framework density 26.857324999999999
#
# number of rings (size 3 to 8) (size 9 to 14) (size 15 to 20)
#    1.500    0.250    2.500    1.875    3.500    3.500 
#    0.000    0.625    5.500    0.000    0.000    0.000 
#    0.000    0.000    0.000    0.000    0.000    0.000 
#
# Total GULP energy -178308.691730 kJ/mol
# GULP energy per Si atom -5572.146617 kJ/mol
# Density = 2.679620 g / cm^3
# Si number density = 26.857325 Si / 1000 Ang^3
#
#
#
# Elastic Constant Matrix: (Units=GPa)
#
#
# Indices 1 2 3 4 5 6 
#
# 1 182.2413 11.7086 37.9288 0.0000 -28.1909 0.0000
# 2 11.7086 51.9540 3.0706 0.0000 -2.4336 0.0000
# 3 37.9288 3.0706 40.4824 0.0000 -6.4237 0.0000
# 4 0.0000 0.0000 0.0000 6.9530 0.0000 -32.2871
# 5 -28.1909 -2.4336 -6.4237 0.0000 58.6091 0.0000
# 6 0.0000 0.0000 0.0000 -32.2871 0.0000 -17.7928
#
#
#
# Elastic Compliance Matrix: (Units=1/GPa)
#
#
# Indices 1 2 3 4 5 6 
#
# 1 0.007304 -0.001143 -0.006317 0.000000 0.002774 0.000000
# 2 -0.001143 0.019538 -0.000376 0.000000 0.000220 0.000000
# 3 -0.006317 -0.000376 0.030698 0.000000 0.000311 0.000000
# 4 0.000000 0.000000 0.000000 0.015257 0.000000 -0.027686
# 5 0.002774 0.000220 0.000311 0.000000 0.018439 0.000000
# 6 0.000000 0.000000 0.000000 -0.027686 0.000000 -0.005962
#
#
# Mechanical properties :
#
#
# Convention : Reuss Voigt Hill
#
# Bulk Modulus (GPa) = 23.88420 42.23264 33.05842
# Shear Modulus (GPa) = 43.51483 24.35185 33.93334
#
# Velocity S-wave (km/s) = 4.02957 3.01443 3.55838
# Velocity P-wave (km/s) = 5.52831 5.27965 5.40541
#
# Compressibility (1/GPa) = 0.04186869
#
# Stress axis : x y z
#
# Youngs Moduli (GPa) = 136.90403 51.18258 32.57513
#
# Poissons Ratio (x) = 0.05850 0.20577
# Poissons Ratio (y) = 0.15647 0.01226
# Poissons Ratio (z) = 0.86480 0.01926
#
# Static dielectric constant tensor:
#      x y z
#    x 2.232840 0.000000 0.013750 
#    y 0.000000 2.146900 0.000000 
#    z 0.013750 0.000000 2.184880 
# 
# From -- ./inp_files/59530.got.cif
#   From: 2010.05.17/outbox.cif.g08.bks.cpg/sg13_30_cif.got.tgz:59530.got - 2010.06.03 16:44:36.
