data_PCOD9237035
_publ_section_title
;
Structure prediction by ZEFSAII (Michael W. Deem and Ramdas Pophale) SiO2 
 PCOD9237035
Probable space group: P 2/C
;
_chemical_formula_sum "Si O2"
_cell_formula_units_Z 28
_cell_length_a 8.216071
_cell_length_b 9.395106
_cell_length_c 26.089386
_cell_angle_alpha 90.000000
_cell_angle_beta 38.476466
_cell_angle_gamma 90.000000
_cell_volume 1253.011159
_symmetry_space_group_name_H-M "P 2/C"
_symmetry_group_IT_number 13
_symmetry_cell_setting 'monoclinic'
loop_
_space_group_symop_operation_xyz
x,y,z
-x,y,1/2-z
-x,-y,-z
x,-y,1/2+z
loop_
_atom_site_type_symbol
_atom_site_label
_atom_site_fract_x
_atom_site_fract_y
_atom_site_fract_z
Si Si1 0.603177 0.126694 0.620518
Si Si2 0.899038 0.466815 0.885070
Si Si3 0.500000 0.016370 0.750000
Si Si4 0.597994 0.828362 0.875308
Si Si5 0.000000 0.609038 0.750000
Si Si6 0.621759 0.697569 0.020127
Si Si7 0.089966 0.782530 0.058610
Si Si8 0.925070 0.932782 0.887309
O O1 0.460508 0.116573 0.710510
O O2 0.557609 0.260826 0.594696
O O3 0.905472 0.142278 0.562190
O O4 0.522357 0.972699 0.617845
O O5 0.978306 0.525126 0.809634
O O6 0.834914 0.590103 0.942301
O O7 0.056031 0.349917 0.879353
O O8 0.639571 0.373148 0.937298
O O9 0.763874 0.923184 0.680004
O O10 0.743343 0.708980 0.806795
O O11 0.827480 0.879496 0.856893
O O12 0.363614 0.751172 0.963502
O O13 0.742940 0.846807 0.971256
O O14 0.139000 0.902324 0.089091
#
# Coordination Sequence:
#
# PCOD9237035 Si02
#       8
#     4   4   2   4   2   4   4   4
#     4  11  25  41  71 105 147 185 238 301 360 416
#     4  11  24  44  68 104 146 188 245 297 357 448
#     4  10  26  40  62 114 148 166 232 310 360 412
#     4  12  21  41  71 105 132 186 240 309 344 428
#     4  12  26  42  70 106 148 188 250 308 378 422
#     4  11  22  45  73 101 138 195 245 289 355 440
#     4  11  23  42  71 105 144 181 244 295 353 443
#     4  11  21  43  74 106 136 182 240 304 355 419
#
# _framework density 22.346167999999999
#
# number of rings (size 3 to 8) (size 9 to 14) (size 15 to 20)
#    0.000    0.857    4.286    3.429    2.000    2.857 
#    0.000    1.429    0.000    2.571    0.000    0.000 
#    0.000    0.000    0.000    0.000    0.000    0.000 
#
# Total GULP energy -156021.976408 kJ/mol
# GULP energy per Si atom -5572.213443 kJ/mol
# Density = 2.229531 g / cm^3
# Si number density = 22.346168 Si / 1000 Ang^3
#
#
#
# Elastic Constant Matrix: (Units=GPa)
#
#
# Indices 1 2 3 4 5 6 
#
# 1 72.1130 25.2212 33.4806 0.0000 4.8940 0.0000
# 2 25.2212 104.5018 38.7031 0.0000 14.1218 0.0000
# 3 33.4806 38.7031 102.6184 0.0000 -1.1110 0.0000
# 4 0.0000 0.0000 0.0000 27.7013 0.0000 6.9910
# 5 4.8940 14.1218 -1.1110 0.0000 42.4661 0.0000
# 6 0.0000 0.0000 0.0000 6.9910 0.0000 9.3310
#
#
#
# Elastic Compliance Matrix: (Units=1/GPa)
#
#
# Indices 1 2 3 4 5 6 
#
# 1 0.016901 -0.002148 -0.004719 0.000000 -0.001357 0.000000
# 2 -0.002148 0.012048 -0.003885 0.000000 -0.003861 0.000000
# 3 -0.004719 -0.003885 0.012773 0.000000 0.002170 0.000000
# 4 0.000000 0.000000 0.000000 0.044517 0.000000 -0.033353
# 5 -0.001357 -0.003861 0.002170 0.000000 0.025045 0.000000
# 6 0.000000 0.000000 0.000000 -0.033353 0.000000 0.132158
#
#
# Mechanical properties :
#
#
# Convention : Reuss Voigt Hill
#
# Bulk Modulus (GPa) = 49.45867 52.67146 51.06506
# Shear Modulus (GPa) = 18.40359 28.02157 23.21258
#
# Velocity S-wave (km/s) = 2.87290 3.54499 3.22650
# Velocity P-wave (km/s) = 5.76071 6.35436 6.06480
#
# Compressibility (1/GPa) = 0.02021890
#
# Stress axis : x y z
#
# Youngs Moduli (GPa) = 59.16693 83.00008 78.28920
#
# Poissons Ratio (x) = 0.17829 0.36943
# Poissons Ratio (y) = 0.12709 0.30415
# Poissons Ratio (z) = 0.27920 0.32245
#
# Static dielectric constant tensor:
#      x y z
#    x 1.925750 0.000000 0.054500 
#    y 0.000000 1.884460 0.000000 
#    z 0.054500 0.000000 1.910450 
# 
# From -- ./inp_files/91431.got.cif
#   From: 2010.05.17/outbox.cif.g08.bks.cpg/sg13_46_cif.got.tgz:91431.got - 2010.06.03 16:44:36.
