data_PCOD9237610
_publ_section_title
;
Structure prediction by ZEFSAII (Michael W. Deem and Ramdas Pophale) SiO2 
 PCOD9237610
Probable space group: P 2/C
;
_chemical_formula_sum "Si O2"
_cell_formula_units_Z 32
_cell_length_a 19.211645
_cell_length_b 8.361599
_cell_length_c 24.714100
_cell_angle_alpha 90.000000
_cell_angle_beta 20.888856
_cell_angle_gamma 90.000000
_cell_volume 1415.555141
_symmetry_space_group_name_H-M "P 2/C"
_symmetry_group_IT_number 13
_symmetry_cell_setting 'monoclinic'
loop_
_space_group_symop_operation_xyz
x,y,z
-x,y,1/2-z
-x,-y,-z
x,-y,1/2+z
loop_
_atom_site_type_symbol
_atom_site_label
_atom_site_fract_x
_atom_site_fract_y
_atom_site_fract_z
Si Si1 0.805650 0.277833 0.518010
Si Si2 0.869967 0.861807 0.190802
Si Si3 0.574556 0.294933 0.580646
Si Si4 0.185305 0.611666 0.364827
Si Si5 0.719646 0.091075 0.102804
Si Si6 0.585178 0.720655 0.480071
Si Si7 0.637809 0.051090 0.283248
Si Si8 0.777250 0.385597 0.330813
O O1 0.656791 0.334728 0.579780
O O2 0.789875 0.331763 0.591447
O O3 0.017087 0.333953 0.343351
O O4 0.752632 0.090215 0.559368
O O5 0.860469 0.735914 0.149207
O O6 0.699338 0.841735 0.357713
O O7 0.810312 0.023917 0.202115
O O8 0.081286 0.832889 0.063554
O O9 0.409437 0.428647 0.686449
O O10 0.473522 0.118393 0.648568
O O11 0.738473 0.298378 0.415868
O O12 0.000000 0.500000 0.500000
O O13 0.500000 0.145651 0.250000
O O14 0.733559 0.100367 0.157489
O O15 0.735596 0.572184 0.374114
O O16 0.392557 0.663258 0.587894
O O17 0.512836 0.818460 0.584713
#
# Coordination Sequence:
#
# PCOD9237610 Si02
#       8
#     4   4   4   4   4   4   4   4
#     4  12  23  43  71  96 135 180 227 288 345 421
#     4  11  23  41  66  99 133 174 230 277 345 405
#     4  11  23  45  68 100 136 178 236 280 341 424
#     4  11  23  41  68 100 133 179 235 285 341 411
#     4  12  24  43  65 103 137 173 223 287 348 407
#     4  11  24  44  66 101 139 176 229 287 336 407
#     4  11  22  41  70 101 133 178 230 285 338 406
#     4  11  25  42  70 100 137 183 229 277 345 416
#
# _framework density 22.605972999999999
#
# number of rings (size 3 to 8) (size 9 to 14) (size 15 to 20)
#    0.000    0.750    6.250    3.000    5.250    0.000 
#    0.000    6.875    0.000    0.000    0.000    0.000 
#    0.000    0.000    0.000    0.000    0.000    0.000 
#
# Total GULP energy -178560.344783 kJ/mol
# GULP energy per Si atom -5580.010774 kJ/mol
# Density = 2.255452 g / cm^3
# Si number density = 22.605973 Si / 1000 Ang^3
#
#
#
# Elastic Constant Matrix: (Units=GPa)
#
#
# Indices 1 2 3 4 5 6 
#
# 1 44.7219 3.7273 16.4595 0.0000 -16.6758 0.0000
# 2 3.7273 16.0339 17.8832 0.0000 -3.4798 0.0000
# 3 16.4595 17.8832 142.7371 0.0000 -12.1162 0.0000
# 4 0.0000 0.0000 0.0000 30.1142 0.0000 5.6496
# 5 -16.6758 -3.4798 -12.1162 0.0000 45.4402 0.0000
# 6 0.0000 0.0000 0.0000 5.6496 0.0000 15.9490
#
#
#
# Elastic Compliance Matrix: (Units=1/GPa)
#
#
# Indices 1 2 3 4 5 6 
#
# 1 0.026669 -0.001927 -0.002062 0.000000 0.009090 0.000000
# 2 -0.001927 0.073096 -0.008718 0.000000 0.002566 0.000000
# 3 -0.002062 -0.008718 0.008405 0.000000 0.000817 0.000000
# 4 0.000000 0.000000 0.000000 0.035571 0.000000 -0.012600
# 5 0.009090 0.002566 0.000817 0.000000 0.025757 0.000000
# 6 0.000000 0.000000 0.000000 -0.012600 0.000000 0.067163
#
#
# Mechanical properties :
#
#
# Convention : Reuss Voigt Hill
#
# Bulk Modulus (GPa) = 12.08363 31.07032 21.57697
# Shear Modulus (GPa) = 17.26154 29.32888 23.29521
#
# Velocity S-wave (km/s) = 2.76630 3.60584 3.21361
# Velocity P-wave (km/s) = 3.94463 5.57766 4.83065
#
# Compressibility (1/GPa) = 0.08275662
#
# Stress axis : x y z
#
# Youngs Moduli (GPa) = 37.49616 13.68064 118.97261
#
# Poissons Ratio (x) = 0.02636 0.24537
# Poissons Ratio (y) = 0.07224 1.03721
# Poissons Ratio (z) = 0.07733 0.11927
#
# Static dielectric constant tensor:
#      x y z
#    x 1.859260 0.000000 -0.038920 
#    y 0.000000 1.854770 0.000000 
#    z -0.038920 0.000000 1.869670 
# 
# From -- ./inp_files/93560.got.cif
#   From: 2010.05.17/outbox.cif.g08.bks.cpg/sg13_47_cif.got.tgz:93560.got - 2010.06.03 16:44:36.
