data_PCOD9237261
_publ_section_title
;
Structure prediction by ZEFSAII (Michael W. Deem and Ramdas Pophale) SiO2 
 PCOD9237261
Probable space group: P 2/C
;
_chemical_formula_sum "Si O2"
_cell_formula_units_Z 24
_cell_length_a 21.037062
_cell_length_b 11.201314
_cell_length_c 21.616830
_cell_angle_alpha 90.000000
_cell_angle_beta 166.698609
_cell_angle_gamma 90.000000
_cell_volume 1171.958970
_symmetry_space_group_name_H-M "P 2/C"
_symmetry_group_IT_number 13
_symmetry_cell_setting 'monoclinic'
loop_
_space_group_symop_operation_xyz
x,y,z
-x,y,1/2-z
-x,-y,-z
x,-y,1/2+z
loop_
_atom_site_type_symbol
_atom_site_label
_atom_site_fract_x
_atom_site_fract_y
_atom_site_fract_z
Si Si1 0.319147 0.732364 0.967097
Si Si2 0.500000 0.078336 0.250000
Si Si3 0.000000 0.078313 0.250000
Si Si4 0.500000 0.556004 0.750000
Si Si5 0.097439 0.354973 0.524085
Si Si6 0.384879 0.732342 0.532833
Si Si7 0.950612 0.354980 0.523975
Si Si8 0.000000 0.443962 0.250000
O O1 0.220616 0.629050 0.919971
O O2 0.187735 0.845382 0.879185
O O3 0.166801 0.704834 0.758657
O O4 0.641729 0.710570 0.261204
O O5 0.570687 0.154643 0.379232
O O6 0.774429 0.000010 0.499993
O O7 0.380693 0.629018 0.580043
O O8 0.212941 0.499986 0.499998
O O9 0.078778 0.499997 0.500090
O O10 0.096038 0.331761 0.596046
O O11 0.649381 0.704838 0.741231
O O12 0.119194 0.710542 0.238689
#
# Coordination Sequence:
#
# PCOD9237261 Si02
#       8
#     4   2   2   2   4   4   4   2
#     4  11  22  37  59  86 116 155 200 245 300 360
#     4  11  24  43  66  88 114 155 208 271 324 352
#     4  11  24  43  66  88 114 155 208 271 324 352
#     4  11  20  31  52  82 116 145 180 237 296 358
#     4  11  22  37  59  89 127 164 193 228 286 368
#     4  11  22  37  59  86 116 155 200 245 300 360
#     4  11  22  37  59  89 127 164 193 228 286 368
#     4  11  20  31  52  82 116 145 180 237 296 358
#
# _framework density 20.478532000000001
#
# number of rings (size 3 to 8) (size 9 to 14) (size 15 to 20)
#    0.000    1.000    0.000    9.000    0.000    8.000 
#    0.000    0.000    0.000   20.000    0.000    0.000 
#    0.000    0.000    0.000    0.000    0.000    0.000 
#
# Total GULP energy -133743.783650 kJ/mol
# GULP energy per Si atom -5572.657652 kJ/mol
# Density = 2.043192 g / cm^3
# Si number density = 20.478532 Si / 1000 Ang^3
#
#
#
# Elastic Constant Matrix: (Units=GPa)
#
#
# Indices 1 2 3 4 5 6 
#
# 1 103.4489 13.3307 -5.7126 0.0000 -0.9614 0.0000
# 2 13.3307 66.3615 18.8624 0.0000 0.2105 0.0000
# 3 -5.7126 18.8624 104.8238 0.0000 1.0268 0.0000
# 4 0.0000 0.0000 0.0000 31.0019 0.0000 0.7395
# 5 -0.9614 0.2105 1.0268 0.0000 41.5453 0.0000
# 6 0.0000 0.0000 0.0000 0.7395 0.0000 11.4054
#
#
#
# Elastic Compliance Matrix: (Units=1/GPa)
#
#
# Indices 1 2 3 4 5 6 
#
# 1 0.010016 -0.002284 0.000955 0.000000 0.000220 0.000000
# 2 -0.002284 0.016402 -0.003075 0.000000 -0.000060 0.000000
# 3 0.000955 -0.003075 0.010147 0.000000 -0.000213 0.000000
# 4 0.000000 0.000000 0.000000 0.032306 0.000000 -0.002095
# 5 0.000220 -0.000060 -0.000213 0.000000 0.024081 0.000000
# 6 0.000000 0.000000 0.000000 -0.002095 0.000000 0.087814
#
#
# Mechanical properties :
#
#
# Convention : Reuss Voigt Hill
#
# Bulk Modulus (GPa) = 36.02856 36.39948 36.21402
# Shear Modulus (GPa) = 25.14751 33.33411 29.24081
#
# Velocity S-wave (km/s) = 3.50808 4.03893 3.78282
# Velocity P-wave (km/s) = 5.83441 6.28996 6.06646
#
# Compressibility (1/GPa) = 0.02775575
#
# Stress axis : x y z
#
# Youngs Moduli (GPa) = 99.84340 60.96781 98.54820
#
# Poissons Ratio (x) = 0.13925 -0.09408
# Poissons Ratio (y) = 0.22804 0.30307
# Poissons Ratio (z) = -0.09532 0.18750
#
# Static dielectric constant tensor:
#      x y z
#    x 1.750190 0.000000 0.447230 
#    y 0.000000 1.886380 0.000000 
#    z 0.447230 0.000000 13.831850 
# 
# From -- ./inp_files/89042.got.cif
#   From: 2010.05.17/outbox.cif.g08.bks.cpg/sg13_45_cif.got.tgz:89042.got - 2010.06.03 16:44:36.
