data_PCOD9237097
_publ_section_title
;
Structure prediction by ZEFSAII (Michael W. Deem and Ramdas Pophale) SiO2 
 PCOD9237097
Probable space group: P 2/C
;
_chemical_formula_sum "Si O2"
_cell_formula_units_Z 14
_cell_length_a 8.969116
_cell_length_b 7.390468
_cell_length_c 9.585094
_cell_angle_alpha 90.000000
_cell_angle_beta 113.130899
_cell_angle_gamma 90.000000
_cell_volume 584.280698
_symmetry_space_group_name_H-M "P 2/C"
_symmetry_group_IT_number 13
_symmetry_cell_setting 'monoclinic'
loop_
_space_group_symop_operation_xyz
x,y,z
-x,y,1/2-z
-x,-y,-z
x,-y,1/2+z
loop_
_atom_site_type_symbol
_atom_site_label
_atom_site_fract_x
_atom_site_fract_y
_atom_site_fract_z
Si Si1 0.819159 0.929325 0.962977
Si Si2 0.171635 0.524178 0.489725
Si Si3 0.500000 0.425837 0.250000
Si Si4 0.696258 0.212870 0.126345
O O1 0.753466 0.887731 0.785715
O O2 0.822858 0.736877 0.043941
O O3 0.709874 0.072795 0.005524
O O4 0.000000 0.000000 0.000000
O O5 0.329940 0.480866 0.646854
O O6 0.189140 0.380355 0.373343
O O7 0.000000 0.500000 0.500000
O O8 0.533855 0.307665 0.122817
#
# Coordination Sequence:
#
# PCOD9237097 Si02
#       4
#     4   4   2   4
#     4  11  24  45  75 111 148 197 262 309 387 462
#     4  11  24  46  75 105 152 203 252 319 383 455
#     4  10  26  46  76 114 156 198 266 314 390 460
#     4  11  25  47  73 112 153 199 253 319 384 459
#
# _framework density 23.961085000000001
#
# number of rings (size 3 to 8) (size 9 to 14) (size 15 to 20)
#    0.000    1.143    2.857    1.714    4.000    9.143 
#   10.286    7.143    0.000    0.000    0.000    0.000 
#    0.000    0.000    0.000    0.000    0.000    0.000 
#
# Total GULP energy -78217.760785 kJ/mol
# GULP energy per Si atom -5586.982913 kJ/mol
# Density = 2.390655 g / cm^3
# Si number density = 23.961085 Si / 1000 Ang^3
#
#
#
# Elastic Constant Matrix: (Units=GPa)
#
#
# Indices 1 2 3 4 5 6 
#
# 1 173.8737 34.5930 54.7015 0.0000 -15.6941 0.0000
# 2 34.5930 133.0724 46.5794 0.0000 -31.0110 0.0000
# 3 54.7015 46.5794 109.0162 0.0000 -21.6605 0.0000
# 4 0.0000 0.0000 0.0000 -29.8023 0.0000 19.2305
# 5 -15.6941 -31.0110 -21.6605 0.0000 53.4706 0.0000
# 6 0.0000 0.0000 0.0000 19.2305 0.0000 26.2260
#
#
#
# Elastic Compliance Matrix: (Units=1/GPa)
#
#
# Indices 1 2 3 4 5 6 
#
# 1 0.006889 -0.000604 -0.003117 0.000000 0.000409 0.000000
# 2 -0.000604 0.009711 -0.003004 0.000000 0.004238 0.000000
# 3 -0.003117 -0.003004 0.012499 0.000000 0.002406 0.000000
# 4 0.000000 0.000000 0.000000 -0.022777 0.000000 0.016702
# 5 0.000409 0.004238 0.002406 0.000000 0.022254 0.000000
# 6 0.000000 0.000000 0.000000 0.016702 0.000000 0.025883
#
#
# Mechanical properties :
#
#
# Convention : Reuss Voigt Hill
#
# Bulk Modulus (GPa) = 63.90874 76.41223 70.16049
# Shear Modulus (GPa) = 68.37517 28.65143 48.51330
#
# Velocity S-wave (km/s) = 5.34770 3.46171 4.50452
# Velocity P-wave (km/s) = 8.05359 6.92368 7.50991
#
# Compressibility (1/GPa) = 0.01564731
#
# Stress axis : x y z
#
# Youngs Moduli (GPa) = 145.15513 102.97791 80.00859
#
# Poissons Ratio (x) = 0.06225 0.24941
# Poissons Ratio (y) = 0.08774 0.24033
# Poissons Ratio (z) = 0.45250 0.30933
#
# Static dielectric constant tensor:
#      x y z
#    x 2.179380 0.000000 -0.043490 
#    y 0.000000 1.942690 0.000000 
#    z -0.043490 0.000000 1.986620 
# 
# From -- ./inp_files/10760.got.cif
#   From: 2010.05.17/outbox.cif.g08.bks.cpg/sg13_6_cif.got.tgz:10760.got - 2010.06.03 16:44:36.
