data_PCOD9237989
_publ_section_title
;
Structure prediction by ZEFSAII (Michael W. Deem and Ramdas Pophale) SiO2 
 PCOD9237989
Probable space group: P 2/C
;
_chemical_formula_sum "Si O2"
_cell_formula_units_Z 22
_cell_length_a 11.540301
_cell_length_b 6.224987
_cell_length_c 23.207009
_cell_angle_alpha 90.000000
_cell_angle_beta 144.986981
_cell_angle_gamma 90.000000
_cell_volume 956.548414
_symmetry_space_group_name_H-M "P 2/C"
_symmetry_group_IT_number 13
_symmetry_cell_setting 'monoclinic'
loop_
_space_group_symop_operation_xyz
x,y,z
-x,y,1/2-z
-x,-y,-z
x,-y,1/2+z
loop_
_atom_site_type_symbol
_atom_site_label
_atom_site_fract_x
_atom_site_fract_y
_atom_site_fract_z
Si Si1 0.619725 0.732631 0.486552
Si Si2 0.308171 0.589198 0.750193
Si Si3 0.776103 0.504554 0.154292
Si Si4 0.910634 0.529751 0.026936
Si Si5 0.500000 0.223558 0.750000
Si Si6 0.344619 0.073725 0.094551
O O1 0.400072 0.680211 0.424081
O O2 0.761008 0.675434 0.598617
O O3 0.707183 0.571922 0.472219
O O4 0.609150 0.951355 0.446407
O O5 0.278339 0.585374 0.805886
O O6 0.391293 0.375452 0.752379
O O7 0.470936 0.776176 0.808157
O O8 0.083089 0.591527 0.633472
O O9 0.000000 0.597428 0.250000
O O10 0.848799 0.780886 0.999187
O O11 0.000000 0.500000 0.000000
O O12 0.662423 0.090534 0.854252
#
# Coordination Sequence:
#
# PCOD9237989 Si02
#       6
#     4   4   4   4   2   4
#     4  11  25  47  76 107 147 195 250 310 367 449
#     4  12  25  46  73 104 149 195 240 312 378 434
#     4  11  23  50  76 102 154 197 242 310 373 432
#     4  12  25  45  73 109 152 195 239 312 378 440
#     4  12  24  46  74 108 146 196 244 312 374 446
#     4  12  25  46  75 111 148 192 255 303 373 455
#
# _framework density 22.999358000000001
#
# number of rings (size 3 to 8) (size 9 to 14) (size 15 to 20)
#    0.000    0.364    5.455    3.818    0.000    5.091 
#    0.000    0.909    0.000    0.000    0.000    0.000 
#    0.000    0.000    0.000    0.000    0.000    0.000 
#
# Total GULP energy -122560.483888 kJ/mol
# GULP energy per Si atom -5570.931086 kJ/mol
# Density = 2.294701 g / cm^3
# Si number density = 22.999358 Si / 1000 Ang^3
#
#
#
# Elastic Constant Matrix: (Units=GPa)
#
#
# Indices 1 2 3 4 5 6 
#
# 1 120.9066 37.1178 43.5401 0.0000 -14.5782 0.0000
# 2 37.1178 87.5779 29.6652 0.0000 -7.7422 0.0000
# 3 43.5401 29.6652 97.1555 0.0000 -6.9234 0.0000
# 4 0.0000 0.0000 0.0000 16.6186 0.0000 -3.7262
# 5 -14.5782 -7.7422 -6.9234 0.0000 56.2060 0.0000
# 6 0.0000 0.0000 0.0000 -3.7262 0.0000 30.5795
#
#
#
# Elastic Compliance Matrix: (Units=1/GPa)
#
#
# Indices 1 2 3 4 5 6 
#
# 1 0.010818 -0.003145 -0.003751 0.000000 0.001910 0.000000
# 2 -0.003145 0.013743 -0.002734 0.000000 0.000741 0.000000
# 3 -0.003751 -0.002734 0.012825 0.000000 0.000230 0.000000
# 4 0.000000 0.000000 0.000000 0.061864 0.000000 0.007538
# 5 0.001910 0.000741 0.000230 0.000000 0.018418 0.000000
# 6 0.000000 0.000000 0.000000 0.007538 0.000000 0.033620
#
#
# Mechanical properties :
#
#
# Convention : Reuss Voigt Hill
#
# Bulk Modulus (GPa) = 55.17354 58.47621 56.82488
# Shear Modulus (GPa) = 28.31413 33.70193 31.00803
#
# Velocity S-wave (km/s) = 3.51249 3.83213 3.67579
# Velocity P-wave (km/s) = 6.36328 6.71272 6.54034
#
# Compressibility (1/GPa) = 0.01812463
#
# Stress axis : x y z
#
# Youngs Moduli (GPa) = 92.44095 72.76452 77.97171
#
# Poissons Ratio (x) = 0.22886 0.29251
# Poissons Ratio (y) = 0.29075 0.21317
# Poissons Ratio (z) = 0.34679 0.19893
#
# Static dielectric constant tensor:
#      x y z
#    x 1.928130 0.000000 0.134880 
#    y 0.000000 1.920110 0.000000 
#    z 0.134880 0.000000 2.092790 
# 
# From -- ./inp_files/49030.got.cif
#   From: 2010.05.17/outbox.cif.g08.bks.cpg/sg13_25_cif.got.tgz:49030.got - 2010.06.03 16:44:36.
