data_PCOD9237303
_publ_section_title
;
Structure prediction by ZEFSAII (Michael W. Deem and Ramdas Pophale) SiO2 
 PCOD9237303
Probable space group: P 2/C
;
_chemical_formula_sum "Si O2"
_cell_formula_units_Z 24
_cell_length_a 10.613842
_cell_length_b 7.780119
_cell_length_c 18.647301
_cell_angle_alpha 90.000000
_cell_angle_beta 56.724349
_cell_angle_gamma 90.000000
_cell_volume 1287.366518
_symmetry_space_group_name_H-M "P 2/C"
_symmetry_group_IT_number 13
_symmetry_cell_setting 'monoclinic'
loop_
_space_group_symop_operation_xyz
x,y,z
-x,y,1/2-z
-x,-y,-z
x,-y,1/2+z
loop_
_atom_site_type_symbol
_atom_site_label
_atom_site_fract_x
_atom_site_fract_y
_atom_site_fract_z
Si Si1 0.175475 0.013334 0.277623
Si Si2 0.371111 0.149028 0.837540
Si Si3 0.647171 0.290098 0.503858
Si Si4 0.645994 0.327994 0.988759
Si Si5 0.828487 0.978630 0.383921
Si Si6 0.467073 0.782218 0.682694
O O1 0.240576 0.903402 0.323202
O O2 0.185844 0.929870 0.195420
O O3 0.998666 0.040235 0.344969
O O4 0.288936 0.176122 0.235596
O O5 0.500000 0.239138 0.750000
O O6 0.450555 0.970782 0.840110
O O7 0.325078 0.252046 0.921597
O O8 0.469657 0.291801 0.540230
O O9 0.705132 0.478679 0.465315
O O10 0.719875 0.136487 0.436308
O O11 0.773964 0.183820 0.947072
O O12 0.541652 0.312714 0.092549
O O13 0.500000 0.701009 0.750000
#
# Coordination Sequence:
#
# PCOD9237303 Si02
#       6
#     4   4   4   4   4   4
#     4   9  20  35  61  81 111 156 185 225 296 336
#     4   9  18  35  58  84 109 147 190 231 280 336
#     4  11  22  34  60  85 112 146 190 235 279 333
#     4  11  21  36  59  87 109 147 195 230 276 338
#     4  11  20  38  60  81 115 151 184 236 285 335
#     4   9  17  35  59  81 108 146 189 228 275 333
#
# _framework density 18.642710000000001
#
# number of rings (size 3 to 8) (size 9 to 14) (size 15 to 20)
#    0.000    2.333    3.333    2.500    0.000    1.333 
#    0.000    4.167    7.333    0.000    0.000    0.000 
#    0.000    0.000    0.000    0.000    0.000    0.000 
#
# Total GULP energy -133738.224499 kJ/mol
# GULP energy per Si atom -5572.426021 kJ/mol
# Density = 1.860028 g / cm^3
# Si number density = 18.642710 Si / 1000 Ang^3
#
#
#
# Elastic Constant Matrix: (Units=GPa)
#
#
# Indices 1 2 3 4 5 6 
#
# 1 57.0148 8.8491 7.3081 0.0000 15.4612 0.0000
# 2 8.8491 80.0902 17.6510 0.0000 -10.4601 0.0000
# 3 7.3081 17.6510 56.5461 0.0000 15.6008 0.0000
# 4 0.0000 0.0000 0.0000 3.8232 0.0000 6.6180
# 5 15.4612 -10.4601 15.6008 0.0000 26.2808 0.0000
# 6 0.0000 0.0000 0.0000 6.6180 0.0000 7.9113
#
#
#
# Elastic Compliance Matrix: (Units=1/GPa)
#
#
# Indices 1 2 3 4 5 6 
#
# 1 0.022797 -0.005690 0.003773 0.000000 -0.017916 0.000000
# 2 -0.005690 0.017073 -0.008840 0.000000 0.015391 0.000000
# 3 0.003773 -0.008840 0.025758 0.000000 -0.021029 0.000000
# 4 0.000000 0.000000 0.000000 -0.583786 0.000000 0.488350
# 5 -0.017916 0.015391 -0.021029 0.000000 0.067200 0.000000
# 6 0.000000 0.000000 0.000000 0.488350 0.000000 -0.282115
#
#
# Mechanical properties :
#
#
# Convention : Reuss Voigt Hill
#
# Bulk Modulus (GPa) = 22.66880 29.02974 25.84927
# Shear Modulus (GPa) = -7.17512 18.25925 5.54207
#
# Velocity S-wave (km/s) = -1.96395 3.13298 1.72605
# Velocity P-wave (km/s) = 2.65390 5.35657 4.22706
#
# Compressibility (1/GPa) = 0.04411350
#
# Stress axis : x y z
#
# Youngs Moduli (GPa) = 43.86462 58.57205 38.82256
#
# Poissons Ratio (x) = 0.33329 -0.14647
# Poissons Ratio (y) = 0.24960 0.34320
# Poissons Ratio (z) = -0.16550 0.51778
#
# Static dielectric constant tensor:
#      x y z
#    x 1.654580 0.000000 0.019500 
#    y 0.000000 1.639910 0.000000 
#    z 0.019500 0.000000 1.676130 
# 
# From -- ./inp_files/65903.got.cif
#   From: 2010.05.17/outbox.cif.g08.bks.cpg/sg13_33_cif.got.tgz:65903.got - 2010.06.03 16:44:36.
