data_PCOD9237458
_publ_section_title
;
Structure prediction by ZEFSAII (Michael W. Deem and Ramdas Pophale) SiO2 
 PCOD9237458
Probable space group: P 2/C
;
_chemical_formula_sum "Si O2"
_cell_formula_units_Z 24
_cell_length_a 18.814781
_cell_length_b 9.464414
_cell_length_c 15.802822
_cell_angle_alpha 90.000000
_cell_angle_beta 156.039058
_cell_angle_gamma 90.000000
_cell_volume 1142.813298
_symmetry_space_group_name_H-M "P 2/C"
_symmetry_group_IT_number 13
_symmetry_cell_setting 'monoclinic'
loop_
_space_group_symop_operation_xyz
x,y,z
-x,y,1/2-z
-x,-y,-z
x,-y,1/2+z
loop_
_atom_site_type_symbol
_atom_site_label
_atom_site_fract_x
_atom_site_fract_y
_atom_site_fract_z
Si Si1 0.183504 0.959189 0.661189
Si Si2 0.500000 0.096366 0.750000
Si Si3 0.390541 0.713483 0.973864
Si Si4 0.613143 0.232168 0.561470
Si Si5 0.000000 0.634045 0.250000
Si Si6 0.715575 0.136119 0.405985
Si Si7 0.129067 0.463858 0.717444
O O1 0.250954 0.815436 0.776316
O O2 0.179191 0.935118 0.556596
O O3 0.320857 0.082109 0.832069
O O4 0.000000 0.000000 0.500000
O O5 0.473194 0.195405 0.639684
O O6 0.338837 0.988167 0.589411
O O7 0.285515 0.578204 0.892082
O O8 0.531622 0.685003 0.053329
O O9 0.461454 0.200066 0.328398
O O10 0.774241 0.316780 0.697820
O O11 0.978961 0.545473 0.312989
O O12 0.168242 0.736228 0.434851
O O13 0.000000 0.500000 0.500000
#
# Coordination Sequence:
#
# PCOD9237458 Si02
#       7
#     4   2   4   4   2   4   4
#     4  11  21  41  67 100 129 178 233 285 346 410
#     4  12  22  40  64 104 140 168 232 300 352 408
#     4  11  24  41  66 100 135 177 233 281 350 416
#     4  11  21  46  72  96 133 191 235 279 350 427
#     4  12  28  46  68 108 142 192 240 290 358 426
#     4  11  23  42  69  98 137 176 237 293 343 418
#     4  12  27  48  69  99 147 187 235 289 353 425
#
# _framework density 21.000805
#
# number of rings (size 3 to 8) (size 9 to 14) (size 15 to 20)
#    0.000    0.667    3.333    6.500    2.333    2.667 
#    3.000    0.000    0.000    0.000    0.000    0.000 
#    0.000    0.000    0.000    0.000    0.000    0.000 
#
# Total GULP energy -134301.674781 kJ/mol
# GULP energy per Si atom -5595.903116 kJ/mol
# Density = 2.095301 g / cm^3
# Si number density = 21.000805 Si / 1000 Ang^3
#
#
#
# Elastic Constant Matrix: (Units=GPa)
#
#
# Indices 1 2 3 4 5 6 
#
# 1 129.4867 20.7667 26.7305 0.0000 -9.0790 0.0000
# 2 20.7667 63.5692 -4.4173 0.0000 -6.2527 0.0000
# 3 26.7305 -4.4173 59.7156 0.0000 -0.7469 0.0000
# 4 0.0000 0.0000 0.0000 33.3489 0.0000 8.7426
# 5 -9.0790 -6.2527 -0.7469 0.0000 28.5816 0.0000
# 6 0.0000 0.0000 0.0000 8.7426 0.0000 38.4951
#
#
#
# Elastic Compliance Matrix: (Units=1/GPa)
#
#
# Indices 1 2 3 4 5 6 
#
# 1 0.009273 -0.003120 -0.004355 0.000000 0.002149 0.000000
# 2 -0.003120 0.017218 0.002706 0.000000 0.002846 0.000000
# 3 -0.004355 0.002706 0.018892 0.000000 -0.000298 0.000000
# 4 0.000000 0.000000 0.000000 0.031884 0.000000 -0.007241
# 5 0.002149 0.002846 -0.000298 0.000000 0.036285 0.000000
# 6 0.000000 0.000000 0.000000 -0.007241 0.000000 0.027622
#
#
# Mechanical properties :
#
#
# Convention : Reuss Voigt Hill
#
# Bulk Modulus (GPa) = 27.89813 37.65904 32.77858
# Shear Modulus (GPa) = 30.73880 34.06456 32.40168
#
# Velocity S-wave (km/s) = 3.82998 4.03185 3.93221
# Velocity P-wave (km/s) = 5.73336 6.29647 6.02150
#
# Compressibility (1/GPa) = 0.03584470
#
# Stress axis : x y z
#
# Youngs Moduli (GPa) = 107.84093 58.07778 52.93294
#
# Poissons Ratio (x) = 0.18123 0.23051
# Poissons Ratio (y) = 0.33652 -0.14324
# Poissons Ratio (z) = 0.46962 -0.15716
#
# Static dielectric constant tensor:
#      x y z
#    x 1.775470 0.000000 0.000420 
#    y 0.000000 1.737040 0.000000 
#    z 0.000420 0.000000 1.733440 
# 
# From -- ./inp_files/55399.got.cif
#   From: 2010.05.17/outbox.cif.g08.bks.cpg/sg13_28_cif.got.tgz:55399.got - 2010.06.03 16:44:36.
