data_PCOD9237444
_publ_section_title
;
Structure prediction by ZEFSAII (Michael W. Deem and Ramdas Pophale) SiO2 
 PCOD9237444
Probable space group: P 2/C
;
_chemical_formula_sum "Si O2"
_cell_formula_units_Z 32
_cell_length_a 9.679263
_cell_length_b 11.805904
_cell_length_c 15.037755
_cell_angle_alpha 90.000000
_cell_angle_beta 70.391314
_cell_angle_gamma 90.000000
_cell_volume 1618.745159
_symmetry_space_group_name_H-M "P 2/C"
_symmetry_group_IT_number 13
_symmetry_cell_setting 'monoclinic'
loop_
_space_group_symop_operation_xyz
x,y,z
-x,y,1/2-z
-x,-y,-z
x,-y,1/2+z
loop_
_atom_site_type_symbol
_atom_site_label
_atom_site_fract_x
_atom_site_fract_y
_atom_site_fract_z
Si Si1 0.634579 0.343461 0.961246
Si Si2 0.824088 0.746525 0.067071
Si Si3 0.306737 0.009082 0.952711
Si Si4 0.702271 0.396311 0.433458
Si Si5 0.834030 0.236412 0.258972
Si Si6 0.157595 0.784376 0.946931
Si Si7 0.345458 0.779594 0.231910
Si Si8 0.353232 0.017275 0.152911
O O1 0.700847 0.468450 0.933961
O O2 0.637230 0.279304 0.866774
O O3 0.467093 0.356542 0.029200
O O4 0.725472 0.274319 0.014067
O O5 0.740947 0.863324 0.058593
O O6 0.773149 0.722391 0.178185
O O7 0.773299 0.652111 0.008255
O O8 0.995971 0.765322 0.019608
O O9 0.195215 0.917683 0.937627
O O10 0.469721 0.981654 0.881742
O O11 0.313068 0.997546 0.058199
O O12 0.784001 0.339183 0.332764
O O13 0.832480 0.262753 0.154991
O O14 0.723764 0.132299 0.300693
O O15 0.000000 0.203157 0.250000
O O16 0.500000 0.774703 0.250000
O O17 0.304176 0.910038 0.221678
#
# Coordination Sequence:
#
# PCOD9237444 Si02
#       8
#     4   4   4   4   4   4   4   4
#     4  11  26  47  71 101 129 174 238 284 322 396
#     4  12  24  43  68  97 138 184 211 278 347 396
#     4  11  21  40  67  98 140 176 215 274 339 401
#     4  11  24  48  72  96 134 180 228 279 336 393
#     4  12  25  45  68 100 141 179 218 272 345 407
#     4  12  26  43  66 103 137 173 223 280 334 402
#     4  12  23  43  70  98 135 174 223 272 339 397
#     4  11  22  38  70  99 134 177 222 273 330 408
#
# _framework density 19.768398000000001
#
# number of rings (size 3 to 8) (size 9 to 14) (size 15 to 20)
#    0.000    0.500    6.250    1.875    0.000    4.500 
#    2.250    0.000    0.000    0.000    0.000    0.000 
#    0.000    0.000    0.000    0.000    0.000    0.000 
#
# Total GULP energy -179097.669649 kJ/mol
# GULP energy per Si atom -5596.802177 kJ/mol
# Density = 1.972340 g / cm^3
# Si number density = 19.768398 Si / 1000 Ang^3
#
#
#
# Elastic Constant Matrix: (Units=GPa)
#
#
# Indices 1 2 3 4 5 6 
#
# 1 37.7365 -1.5180 -0.2714 0.0000 12.8390 0.0000
# 2 -1.5180 54.3437 -2.3481 0.0000 8.6198 0.0000
# 3 -0.2714 -2.3481 104.8122 0.0000 13.2019 0.0000
# 4 0.0000 0.0000 0.0000 8.1653 0.0000 3.0844
# 5 12.8390 8.6198 13.2019 0.0000 33.6978 0.0000
# 6 0.0000 0.0000 0.0000 3.0844 0.0000 10.7460
#
#
#
# Elastic Compliance Matrix: (Units=1/GPa)
#
#
# Indices 1 2 3 4 5 6 
#
# 1 0.031192 0.003075 0.001836 0.000000 -0.013390 0.000000
# 2 0.003075 0.019604 0.001290 0.000000 -0.006692 0.000000
# 3 0.001836 0.001290 0.010208 0.000000 -0.005029 0.000000
# 4 0.000000 0.000000 0.000000 0.137363 0.000000 -0.039427
# 5 -0.013390 -0.006692 -0.005029 0.000000 0.038459 0.000000
# 6 0.000000 0.000000 0.000000 -0.039427 0.000000 0.104375
#
#
# Mechanical properties :
#
#
# Convention : Reuss Voigt Hill
#
# Bulk Modulus (GPa) = 13.62285 20.95749 17.29017
# Shear Modulus (GPa) = 14.15354 23.92382 19.03868
#
# Velocity S-wave (km/s) = 2.67866 3.48257 3.10673
# Velocity P-wave (km/s) = 4.05871 5.17645 4.65128
#
# Compressibility (1/GPa) = 0.07340610
#
# Stress axis : x y z
#
# Youngs Moduli (GPa) = 32.05936 51.00895 97.96295
#
# Poissons Ratio (x) = -0.15683 -0.17989
# Poissons Ratio (y) = -0.09857 -0.12637
# Poissons Ratio (z) = -0.05887 -0.06580
#
# Static dielectric constant tensor:
#      x y z
#    x 1.672340 0.000000 -0.000030 
#    y 0.000000 1.666700 0.000000 
#    z -0.000030 0.000000 1.701690 
# 
# From -- ./inp_files/47193.got.cif
#   From: 2010.05.17/outbox.cif.g08.bks.cpg/sg13_24_cif.got.tgz:47193.got - 2010.06.03 16:44:36.
