data_PCOD9237893
_publ_section_title
;
Structure prediction by ZEFSAII (Michael W. Deem and Ramdas Pophale) SiO2 
 PCOD9237893
Probable space group: P 2/C
;
_chemical_formula_sum "Si O2"
_cell_formula_units_Z 20
_cell_length_a 6.868326
_cell_length_b 5.941399
_cell_length_c 22.947228
_cell_angle_alpha 90.000000
_cell_angle_beta 90.835406
_cell_angle_gamma 90.000000
_cell_volume 936.318672
_symmetry_space_group_name_H-M "P 2/C"
_symmetry_group_IT_number 13
_symmetry_cell_setting 'monoclinic'
loop_
_space_group_symop_operation_xyz
x,y,z
-x,y,1/2-z
-x,-y,-z
x,-y,1/2+z
loop_
_atom_site_type_symbol
_atom_site_label
_atom_site_fract_x
_atom_site_fract_y
_atom_site_fract_z
Si Si1 0.609057 0.244985 0.503245
Si Si2 0.135887 0.724166 0.610218
Si Si3 0.130264 0.007949 0.306518
Si Si4 0.808026 0.618134 0.119295
Si Si5 0.484162 0.325457 0.313078
O O1 0.500000 0.500000 0.500000
O O2 0.758352 0.232263 0.450004
O O3 0.721779 0.245280 0.565132
O O4 0.500000 0.000000 0.500000
O O5 0.304798 0.712648 0.659361
O O6 0.980145 0.896588 0.636792
O O7 0.007574 0.500677 0.602544
O O8 0.345235 0.110558 0.301230
O O9 0.000000 0.058696 0.250000
O O10 0.148745 0.748284 0.320872
O O11 0.636250 0.452097 0.137709
O O12 0.500000 0.441787 0.250000
#
# Coordination Sequence:
#
# PCOD9237893 Si02
#       5
#     4   4   4   4   4
#     4  12  27  50  78 107 149 194 250 304 371 439
#     4  11  25  46  73 100 145 189 242 301 368 433
#     4  11  25  42  67 106 142 189 242 299 370 440
#     4  11  27  43  72 105 140 189 248 303 369 438
#     4  11  23  44  67 100 145 186 237 303 367 440
#
# _framework density 21.360249
#
# number of rings (size 3 to 8) (size 9 to 14) (size 15 to 20)
#    0.000    0.800    4.000    1.800    8.400    3.200 
#    0.000    0.000    0.000    0.000    0.000    0.000 
#    0.000    0.000    0.000    0.000    0.000    0.000 
#
# Total GULP energy -111477.885446 kJ/mol
# GULP energy per Si atom -5573.894272 kJ/mol
# Density = 2.131163 g / cm^3
# Si number density = 21.360249 Si / 1000 Ang^3
#
#
#
# Elastic Constant Matrix: (Units=GPa)
#
#
# Indices 1 2 3 4 5 6 
#
# 1 138.0805 45.7883 44.2331 0.0000 0.9407 0.0000
# 2 45.7883 76.8792 17.1656 0.0000 2.9636 0.0000
# 3 44.2331 17.1656 106.9554 0.0000 -15.9589 0.0000
# 4 0.0000 0.0000 0.0000 29.1368 0.0000 5.3012
# 5 0.9407 2.9636 -15.9589 0.0000 37.7995 0.0000
# 6 0.0000 0.0000 0.0000 5.3012 0.0000 16.2622
#
#
#
# Elastic Compliance Matrix: (Units=1/GPa)
#
#
# Indices 1 2 3 4 5 6 
#
# 1 0.010104 -0.005173 -0.003549 0.000000 -0.001344 0.000000
# 2 -0.005173 0.016299 -0.000691 0.000000 -0.001441 0.000000
# 3 -0.003549 -0.000691 0.011686 0.000000 0.005076 0.000000
# 4 0.000000 0.000000 0.000000 0.036485 0.000000 -0.011893
# 5 -0.001344 -0.001441 0.005076 0.000000 0.028745 0.000000
# 6 0.000000 0.000000 0.000000 -0.011893 0.000000 0.065369
#
#
# Mechanical properties :
#
#
# Convention : Reuss Voigt Hill
#
# Bulk Modulus (GPa) = 51.91847 59.58769 55.75308
# Shear Modulus (GPa) = 25.78192 30.95490 28.36841
#
# Velocity S-wave (km/s) = 3.47797 3.81094 3.64826
# Velocity P-wave (km/s) = 6.36296 6.87906 6.62604
#
# Compressibility (1/GPa) = 0.01926097
#
# Stress axis : x y z
#
# Youngs Moduli (GPa) = 98.97384 61.35523 85.57458
#
# Poissons Ratio (x) = 0.31742 0.30369
# Poissons Ratio (y) = 0.51203 0.05915
# Poissons Ratio (z) = 0.35124 0.04241
#
# Static dielectric constant tensor:
#      x y z
#    x 1.780480 0.000000 0.009810 
#    y 0.000000 1.881240 0.000000 
#    z 0.009810 0.000000 1.764470 
# 
# From -- ./inp_files/89947.got.cif
#   From: 2010.05.17/outbox.cif.g08.bks.cpg/sg13_45_cif.got.tgz:89947.got - 2010.06.03 16:44:36.
