data_PCOD9237149
_publ_section_title
;
Structure prediction by ZEFSAII (Michael W. Deem and Ramdas Pophale) SiO2 
 PCOD9237149
Probable space group: P 2/C
;
_chemical_formula_sum "Si O2"
_cell_formula_units_Z 14
_cell_length_a 19.699530
_cell_length_b 4.940725
_cell_length_c 9.046751
_cell_angle_alpha 90.000000
_cell_angle_beta 140.034575
_cell_angle_gamma 90.000000
_cell_volume 565.580153
_symmetry_space_group_name_H-M "P 2/C"
_symmetry_group_IT_number 13
_symmetry_cell_setting 'monoclinic'
loop_
_space_group_symop_operation_xyz
x,y,z
-x,y,1/2-z
-x,-y,-z
x,-y,1/2+z
loop_
_atom_site_type_symbol
_atom_site_label
_atom_site_fract_x
_atom_site_fract_y
_atom_site_fract_z
Si Si1 0.890111 0.841403 0.797047
Si Si2 0.396508 0.322636 0.830398
Si Si3 0.500000 0.033422 0.750000
Si Si4 0.817834 0.654530 0.000609
O O1 0.894281 0.575317 0.699883
O O2 0.818042 0.071861 0.598638
O O3 0.850444 0.741399 0.890448
O O4 0.000000 0.000000 0.000000
O O5 0.410470 0.184810 0.695534
O O6 0.293989 0.502100 0.681583
O O7 0.500000 0.500000 0.000000
O O8 0.424951 0.124164 0.010651
#
# Coordination Sequence:
#
# PCOD9237149 Si02
#       4
#     4   4   2   4
#     4  12  29  56  85 123 165 218 287 356 418 493
#     4  11  27  46  79 116 168 217 273 335 408 505
#     4  10  26  50  74 112 178 212 278 336 410 476
#     4  12  30  52  88 121 167 224 278 341 431 496
#
# _framework density 24.753343999999998
#
# number of rings (size 3 to 8) (size 9 to 14) (size 15 to 20)
#    0.000    0.571    0.000    4.286   16.000    2.286 
#    0.000    0.000    0.000    0.000    0.000    0.000 
#    0.000    0.000    0.000    0.000    0.000    0.000 
#
# Total GULP energy -78466.624144 kJ/mol
# GULP energy per Si atom -5604.758867 kJ/mol
# Density = 2.469700 g / cm^3
# Si number density = 24.753344 Si / 1000 Ang^3
#
#
#
# Elastic Constant Matrix: (Units=GPa)
#
#
# Indices 1 2 3 4 5 6 
#
# 1 232.3767 115.3709 112.1339 0.0000 -27.6506 0.0000
# 2 115.3709 182.2159 64.2791 0.0000 -34.7206 0.0000
# 3 112.1339 64.2791 99.4430 0.0000 -18.5254 0.0000
# 4 0.0000 0.0000 0.0000 623.3118 0.0000 -441.5864
# 5 -27.6506 -34.7206 -18.5254 0.0000 48.6293 0.0000
# 6 0.0000 0.0000 0.0000 -441.5864 0.0000 415.3700
#
#
#
# Elastic Compliance Matrix: (Units=1/GPa)
#
#
# Indices 1 2 3 4 5 6 
#
# 1 0.010769 -0.003291 -0.010025 0.000000 -0.000045 0.000000
# 2 -0.003291 0.008745 -0.001213 0.000000 0.003910 0.000000
# 3 -0.010025 -0.001213 0.022520 0.000000 0.002012 0.000000
# 4 0.000000 0.000000 0.000000 0.006500 0.000000 0.006910
# 5 -0.000045 0.003910 0.002012 0.000000 0.024096 0.000000
# 6 0.000000 0.000000 0.000000 0.006910 0.000000 0.009754
#
#
# Mechanical properties :
#
#
# Convention : Reuss Voigt Hill
#
# Bulk Modulus (GPa) = 77.06875 121.95592 99.51234
# Shear Modulus (GPa) = 43.19027 232.27900 137.73463
#
# Velocity S-wave (km/s) = 4.18164 9.69748 7.46751
# Velocity P-wave (km/s) = 7.38357 13.21982 10.70702
#
# Compressibility (1/GPa) = 0.01297543
#
# Stress axis : x y z
#
# Youngs Moduli (GPa) = 92.85509 114.35532 44.40580
#
# Poissons Ratio (x) = 0.37633 0.44517
# Poissons Ratio (y) = 0.30557 0.05387
# Poissons Ratio (z) = 0.93088 0.13873
#
# Static dielectric constant tensor:
#      x y z
#    x 1.872820 0.000000 0.039960 
#    y 0.000000 1.903360 0.000000 
#    z 0.039960 0.000000 1.952460 
# 
# From -- ./inp_files/22136.got.cif
#   From: 2010.05.17/outbox.cif.g08.bks.cpg/sg13_12_cif.got.tgz:22136.got - 2010.06.03 16:44:36.
