data_PCOD9237218
_publ_section_title
;
Structure prediction by ZEFSAII (Michael W. Deem and Ramdas Pophale) SiO2 
 PCOD9237218
Probable space group: P 2/C
;
_chemical_formula_sum "Si O2"
_cell_formula_units_Z 30
_cell_length_a 21.504623
_cell_length_b 8.220120
_cell_length_c 8.252526
_cell_angle_alpha 90.000000
_cell_angle_beta 62.345658
_cell_angle_gamma 90.000000
_cell_volume 1292.155571
_symmetry_space_group_name_H-M "P 2/C"
_symmetry_group_IT_number 13
_symmetry_cell_setting 'monoclinic'
loop_
_space_group_symop_operation_xyz
x,y,z
-x,y,1/2-z
-x,-y,-z
x,-y,1/2+z
loop_
_atom_site_type_symbol
_atom_site_label
_atom_site_fract_x
_atom_site_fract_y
_atom_site_fract_z
Si Si1 0.242673 0.653282 0.878742
Si Si2 0.500000 0.885797 0.750000
Si Si3 0.402089 0.107221 0.637229
Si Si4 0.160976 0.552909 0.680391
Si Si5 0.812049 0.050254 0.852395
Si Si6 0.103441 0.846074 0.546387
Si Si7 0.033261 0.663709 0.382734
Si Si8 0.682220 0.829532 0.957786
O O1 0.177491 0.620616 0.836654
O O2 0.309097 0.685951 0.684066
O O3 0.234059 0.502226 0.009680
O O4 0.229550 0.816643 0.995096
O O5 0.551908 0.801132 0.556518
O O6 0.452898 0.000685 0.691591
O O7 0.355098 0.979117 0.592255
O O8 0.356036 0.203016 0.825567
O O9 0.119116 0.682636 0.626317
O O10 0.113133 0.393275 0.753963
O O11 0.831916 0.114840 0.652637
O O12 0.760559 0.895874 0.899893
O O13 0.885872 0.994981 0.843917
O O14 0.036774 0.804017 0.514945
O O15 0.000000 0.702719 0.250000
O O16 0.000000 0.500000 0.500000
#
# Coordination Sequence:
#
# PCOD9237218 Si02
#       8
#     4   2   4   4   4   4   4   4
#     4  12  22  38  59  89 120 159 188 235 303 371
#     4   8  16  30  48  72 128 168 204 228 284 330
#     4   9  17  30  49  83 121 168 191 242 282 342
#     4  12  23  41  64  84 116 155 195 240 294 371
#     4  12  22  38  61  89 124 156 182 237 316 375
#     4  12  23  41  64  86 117 155 191 239 303 375
#     4  12  24  42  66  84 105 147 204 247 289 347
#     4  11  19  31  56  88 122 155 188 234 299 353
#
# _framework density 23.217019000000001
#
# number of rings (size 3 to 8) (size 9 to 14) (size 15 to 20)
#    0.000    0.800    8.000    0.000    0.000    0.000 
#    0.000    0.667    0.000    0.000    0.000    0.000 
#    0.000   53.333    0.000    0.000    0.000    0.000 
#
# Total GULP energy -167476.209919 kJ/mol
# GULP energy per Si atom -5582.540331 kJ/mol
# Density = 2.316418 g / cm^3
# Si number density = 23.217019 Si / 1000 Ang^3
#
#
#
# Elastic Constant Matrix: (Units=GPa)
#
#
# Indices 1 2 3 4 5 6 
#
# 1 69.0635 -1.8458 -7.3194 0.0000 19.3919 0.0000
# 2 -1.8458 25.6461 12.0696 0.0000 4.1612 0.0000
# 3 -7.3194 12.0696 133.9611 0.0000 -8.8760 0.0000
# 4 0.0000 0.0000 0.0000 34.7736 0.0000 9.6146
# 5 19.3919 4.1612 -8.8760 0.0000 42.8436 0.0000
# 6 0.0000 0.0000 0.0000 9.6146 0.0000 13.3784
#
#
#
# Elastic Compliance Matrix: (Units=1/GPa)
#
#
# Indices 1 2 3 4 5 6 
#
# 1 0.016745 0.002379 0.000186 0.000000 -0.007772 0.000000
# 2 0.002379 0.042046 -0.004056 0.000000 -0.006001 0.000000
# 3 0.000186 -0.004056 0.007970 0.000000 0.001961 0.000000
# 4 0.000000 0.000000 0.000000 0.035889 0.000000 -0.025792
# 5 -0.007772 -0.006001 0.001961 0.000000 0.027847 0.000000
# 6 0.000000 0.000000 0.000000 -0.025792 0.000000 0.093283
#
#
# Mechanical properties :
#
#
# Convention : Reuss Voigt Hill
#
# Bulk Modulus (GPa) = 15.67931 26.05326 20.86629
# Shear Modulus (GPa) = 20.15946 33.25019 26.70482
#
# Velocity S-wave (km/s) = 2.94990 3.78848 3.39518
# Velocity P-wave (km/s) = 4.28609 5.51205 4.93727
#
# Compressibility (1/GPa) = 0.06377831
#
# Stress axis : x y z
#
# Youngs Moduli (GPa) = 59.71992 23.78352 125.46481
#
# Poissons Ratio (x) = -0.05658 -0.02329
# Poissons Ratio (y) = -0.14206 0.50887
# Poissons Ratio (z) = -0.01109 0.09646
#
# Static dielectric constant tensor:
#      x y z
#    x 1.917930 0.000000 -0.048450 
#    y 0.000000 1.855970 0.000000 
#    z -0.048450 0.000000 1.953440 
# 
# From -- ./inp_files/23940.got.cif
#   From: 2010.05.17/outbox.cif.g08.bks.cpg/sg13_12_cif.got.tgz:23940.got - 2010.06.03 16:44:36.
