data_PCOD9237899
_publ_section_title
;
Structure prediction by ZEFSAII (Michael W. Deem and Ramdas Pophale) SiO2 
 PCOD9237899
Probable space group: P 2/C
;
_chemical_formula_sum "Si O2"
_cell_formula_units_Z 28
_cell_length_a 6.576158
_cell_length_b 9.804963
_cell_length_c 21.550009
_cell_angle_alpha 90.000000
_cell_angle_beta 66.627273
_cell_angle_gamma 90.000000
_cell_volume 1275.503445
_symmetry_space_group_name_H-M "P 2/C"
_symmetry_group_IT_number 13
_symmetry_cell_setting 'monoclinic'
loop_
_space_group_symop_operation_xyz
x,y,z
-x,y,1/2-z
-x,-y,-z
x,-y,1/2+z
loop_
_atom_site_type_symbol
_atom_site_label
_atom_site_fract_x
_atom_site_fract_y
_atom_site_fract_z
Si Si1 0.517878 0.892623 0.587049
Si Si2 0.678750 0.563360 0.023759
Si Si3 0.610836 0.188371 0.945200
Si Si4 0.956441 0.785420 0.823046
Si Si5 0.116474 0.448519 0.387315
Si Si6 0.722706 0.013727 0.683935
Si Si7 0.038398 0.712485 0.319497
O O1 0.643880 0.817195 0.515638
O O2 0.305079 0.802689 0.632766
O O3 0.417006 0.033130 0.572323
O O4 0.671965 0.947172 0.623450
O O5 0.607055 0.720679 0.041584
O O6 0.689633 0.484672 0.087858
O O7 0.500000 0.500000 0.000000
O O8 0.902567 0.548521 0.957837
O O9 0.810937 0.253213 0.883066
O O10 0.090004 0.693951 0.855878
O O11 0.000000 0.725928 0.750000
O O12 0.071971 0.932973 0.811468
O O13 0.110656 0.565756 0.336136
O O14 0.500000 0.991591 0.750000
O O15 0.787836 0.172072 0.679473
O O16 0.000000 0.717180 0.250000
#
# Coordination Sequence:
#
# PCOD9237899 Si02
#       7
#     4   4   4   4   4   4   4
#     4  11  24  42  70 105 138 185 235 299 353 426
#     4  11  23  44  70  97 144 180 229 291 358 424
#     4  11  23  44  70 101 142 180 233 304 351 416
#     4  12  24  45  68 102 145 182 236 294 354 430
#     4  11  26  42  71 104 136 189 231 286 362 431
#     4  12  25  44  72 100 140 191 239 292 366 421
#     4  12  25  46  73 102 140 190 244 298 358 433
#
# _framework density 21.952114999999999
#
# number of rings (size 3 to 8) (size 9 to 14) (size 15 to 20)
#    0.000    0.571    5.714    2.571    2.000    0.571 
#    0.000    0.714    0.000    0.000    0.000    0.000 
#    0.000    0.000    0.000    0.000    0.000    0.000 
#
# Total GULP energy -156540.190717 kJ/mol
# GULP energy per Si atom -5590.721097 kJ/mol
# Density = 2.190215 g / cm^3
# Si number density = 21.952115 Si / 1000 Ang^3
#
#
#
# Elastic Constant Matrix: (Units=GPa)
#
#
# Indices 1 2 3 4 5 6 
#
# 1 63.1525 12.4956 51.8493 0.0000 14.2296 0.0000
# 2 12.4956 101.4995 32.2559 0.0000 12.0936 0.0000
# 3 51.8493 32.2559 145.2105 0.0000 21.0965 0.0000
# 4 0.0000 0.0000 0.0000 85.7091 0.0000 1.6224
# 5 14.2296 12.0936 21.0965 0.0000 27.8723 0.0000
# 6 0.0000 0.0000 0.0000 1.6224 0.0000 40.5186
#
#
#
# Elastic Compliance Matrix: (Units=1/GPa)
#
#
# Indices 1 2 3 4 5 6 
#
# 1 0.023354 0.000259 -0.007469 0.000000 -0.006382 0.000000
# 2 0.000259 0.010858 -0.002023 0.000000 -0.003312 0.000000
# 3 -0.007469 -0.002023 0.010473 0.000000 -0.003236 0.000000
# 4 0.000000 0.000000 0.000000 0.011676 0.000000 -0.000468
# 5 -0.006382 -0.003312 -0.003236 0.000000 0.043022 0.000000
# 6 0.000000 0.000000 0.000000 -0.000468 0.000000 0.024699
#
#
# Mechanical properties :
#
#
# Convention : Reuss Voigt Hill
#
# Bulk Modulus (GPa) = 38.14176 55.89602 47.01889
# Shear Modulus (GPa) = 33.04952 45.03743 39.04348
#
# Velocity S-wave (km/s) = 3.88432 4.53440 4.22189
# Velocity P-wave (km/s) = 6.12617 7.27546 6.72541
#
# Compressibility (1/GPa) = 0.02621798
#
# Stress axis : x y z
#
# Youngs Moduli (GPa) = 42.81983 92.09831 95.48322
#
# Poissons Ratio (x) = -0.02385 0.71317
# Poissons Ratio (y) = -0.01109 0.19318
# Poissons Ratio (z) = 0.31983 0.18633
#
# Static dielectric constant tensor:
#      x y z
#    x 1.808210 0.000000 0.026970 
#    y 0.000000 1.839820 0.000000 
#    z 0.026970 0.000000 1.812380 
# 
# From -- ./inp_files/73598.got.cif
#   From: 2010.05.17/outbox.cif.g08.bks.cpg/sg13_37_cif.got.tgz:73598.got - 2010.06.03 16:44:36.
