data_PCOD9237104
_publ_section_title
;
Structure prediction by ZEFSAII (Michael W. Deem and Ramdas Pophale) SiO2 
 PCOD9237104
Probable space group: P 2/C
;
_chemical_formula_sum "Si O2"
_cell_formula_units_Z 20
_cell_length_a 5.535057
_cell_length_b 7.835290
_cell_length_c 20.322519
_cell_angle_alpha 90.000000
_cell_angle_beta 97.320688
_cell_angle_gamma 90.000000
_cell_volume 874.178359
_symmetry_space_group_name_H-M "P 2/C"
_symmetry_group_IT_number 13
_symmetry_cell_setting 'monoclinic'
loop_
_space_group_symop_operation_xyz
x,y,z
-x,y,1/2-z
-x,-y,-z
x,-y,1/2+z
loop_
_atom_site_type_symbol
_atom_site_label
_atom_site_fract_x
_atom_site_fract_y
_atom_site_fract_z
Si Si1 0.093550 0.182627 0.117671
Si Si2 0.548988 0.090896 0.823973
Si Si3 0.000000 0.368953 0.250000
Si Si4 0.500000 0.575726 0.250000
Si Si5 0.720805 0.044032 0.555909
Si Si6 0.746442 0.603279 0.988997
O O1 0.001023 0.264042 0.181859
O O2 0.269432 0.313129 0.084940
O O3 0.896967 0.118477 0.057987
O O4 0.219535 0.004067 0.139895
O O5 0.500000 0.014938 0.750000
O O6 0.565450 0.292149 0.811363
O O7 0.344985 0.050779 0.869566
O O8 0.745450 0.473442 0.242811
O O9 0.783588 0.236512 0.538921
O O10 0.500000 0.000000 0.500000
O O11 0.500000 0.500000 0.000000
O O12 0.000000 0.500000 0.000000
#
# Coordination Sequence:
#
# PCOD9237104 Si02
#       6
#     4   4   2   2   4   4
#     4  12  28  49  82 108 159 207 264 316 386 484
#     4  10  26  47  80 107 152 205 267 306 392 461
#     4  12  30  50  80 120 158 200 260 326 408 442
#     4  10  30  48  78 116 160 198 258 338 382 472
#     4  12  26  50  78 113 153 212 264 313 387 473
#     4  12  30  47  76 114 157 198 255 324 390 450
#
# _framework density 22.878625
#
# number of rings (size 3 to 8) (size 9 to 14) (size 15 to 20)
#    0.600    0.000    2.000    3.000   15.400    0.000 
#    0.000    0.000    0.000    0.000    0.000    0.000 
#    0.000    0.000    0.000    0.000    0.000    0.000 
#
# Total GULP energy -111696.711683 kJ/mol
# GULP energy per Si atom -5584.835584 kJ/mol
# Density = 2.282655 g / cm^3
# Si number density = 22.878625 Si / 1000 Ang^3
#
#
#
# Elastic Constant Matrix: (Units=GPa)
#
#
# Indices 1 2 3 4 5 6 
#
# 1 165.8807 97.7146 48.1237 0.0000 -7.5568 0.0000
# 2 97.7146 148.4267 45.9509 0.0000 -5.7430 0.0000
# 3 48.1237 45.9509 119.8276 0.0000 -19.3713 0.0000
# 4 0.0000 0.0000 0.0000 30.6924 0.0000 25.9199
# 5 -7.5568 -5.7430 -19.3713 0.0000 43.0541 0.0000
# 6 0.0000 0.0000 0.0000 25.9199 0.0000 14.7653
#
#
#
# Elastic Compliance Matrix: (Units=1/GPa)
#
#
# Indices 1 2 3 4 5 6 
#
# 1 0.010151 -0.006154 -0.001684 0.000000 0.000203 0.000000
# 2 -0.006154 0.011379 -0.001964 0.000000 -0.000446 0.000000
# 3 -0.001684 -0.001964 0.010445 0.000000 0.004142 0.000000
# 4 0.000000 0.000000 0.000000 -0.067526 0.000000 0.118540
# 5 0.000203 -0.000446 0.004142 0.000000 0.025066 0.000000
# 6 0.000000 0.000000 0.000000 0.118540 0.000000 -0.140367
#
#
# Mechanical properties :
#
#
# Convention : Reuss Voigt Hill
#
# Bulk Modulus (GPa) = 80.83708 90.85705 85.84706
# Shear Modulus (GPa) = -39.33175 33.85875 -2.73650
#
# Velocity S-wave (km/s) = -4.15076 3.85116 -1.09485
# Velocity P-wave (km/s) = 3.52675 7.71842 6.00050
#
# Compressibility (1/GPa) = 0.01237056
#
# Stress axis : x y z
#
# Youngs Moduli (GPa) = 98.51081 87.87811 95.74338
#
# Poissons Ratio (x) = 0.54077 0.16125
# Poissons Ratio (y) = 0.60620 0.18809
# Poissons Ratio (z) = 0.16591 0.17264
#
# Static dielectric constant tensor:
#      x y z
#    x 1.954020 0.000000 -0.113440 
#    y 0.000000 2.113800 0.000000 
#    z -0.113440 0.000000 1.833610 
# 
# From -- ./inp_files/60730.got.cif
#   From: 2010.05.17/outbox.cif.g08.bks.cpg/sg13_31_cif.got.tgz:60730.got - 2010.06.03 16:44:36.
