data_PCOD9237355
_publ_section_title
;
Structure prediction by ZEFSAII (Michael W. Deem and Ramdas Pophale) SiO2 
 PCOD9237355
Probable space group: P 2/C
;
_chemical_formula_sum "Si O2"
_cell_formula_units_Z 28
_cell_length_a 20.075219
_cell_length_b 7.572481
_cell_length_c 25.144540
_cell_angle_alpha 90.000000
_cell_angle_beta 162.960818
_cell_angle_gamma 90.000000
_cell_volume 1120.076686
_symmetry_space_group_name_H-M "P 2/C"
_symmetry_group_IT_number 13
_symmetry_cell_setting 'monoclinic'
loop_
_space_group_symop_operation_xyz
x,y,z
-x,y,1/2-z
-x,-y,-z
x,-y,1/2+z
loop_
_atom_site_type_symbol
_atom_site_label
_atom_site_fract_x
_atom_site_fract_y
_atom_site_fract_z
Si Si1 0.038474 0.719011 0.058641
Si Si2 0.736773 0.255651 0.963429
Si Si3 0.566704 0.287940 0.152603
Si Si4 0.004336 0.055133 0.626320
Si Si5 0.392131 0.714105 0.407251
Si Si6 0.504479 0.866871 0.117050
Si Si7 0.704357 0.652543 0.948837
O O1 0.942333 0.888043 0.018754
O O2 0.168641 0.627791 0.208130
O O3 0.248370 0.777004 0.182233
O O4 0.819231 0.647835 0.862053
O O5 0.500000 0.242758 0.750000
O O6 0.672358 0.175172 0.971849
O O7 0.804910 0.459020 0.017510
O O8 0.924764 0.137311 0.079185
O O9 0.399230 0.347324 0.071448
O O10 0.549626 0.073836 0.141573
O O11 0.493631 0.356881 0.038809
O O12 0.875445 0.188476 0.567967
O O13 0.268201 0.101405 0.829820
O O14 0.555131 0.764073 0.483109
O O15 0.500000 0.676269 0.750000
#
# Coordination Sequence:
#
# PCOD9237355 Si02
#       7
#     4   4   4   4   4   4   4
#     4   8  20  35  65  88 121 164 208 252 312 367
#     4  11  21  35  65  95 127 163 211 261 313 374
#     4  12  17  36  66  86 121 169 198 258 313 363
#     4   9  18  41  59  88 127 163 203 261 308 367
#     4   8  22  35  64  91 120 165 212 250 313 371
#     4   9  20  37  57  93 129 154 210 265 299 379
#     4  11  21  34  62  96 122 162 217 250 315 376
#
# _framework density 24.998287000000001
#
# number of rings (size 3 to 8) (size 9 to 14) (size 15 to 20)
#    1.714    0.286    2.857    2.143    0.000    0.571 
#    0.000    1.429   18.857    0.000    0.000    0.000 
#    0.000    0.000    0.000    0.000    0.000    0.000 
#
# Total GULP energy -156341.640351 kJ/mol
# GULP energy per Si atom -5583.630013 kJ/mol
# Density = 2.494139 g / cm^3
# Si number density = 24.998287 Si / 1000 Ang^3
#
#
#
# Elastic Constant Matrix: (Units=GPa)
#
#
# Indices 1 2 3 4 5 6 
#
# 1 112.5693 6.9773 31.8077 0.0000 -25.5840 0.0000
# 2 6.9773 104.5294 24.0805 0.0000 -2.2615 0.0000
# 3 31.8077 24.0805 62.4241 0.0000 -33.5331 0.0000
# 4 0.0000 0.0000 0.0000 20.1350 0.0000 10.7493
# 5 -25.5840 -2.2615 -33.5331 0.0000 40.5481 0.0000
# 6 0.0000 0.0000 0.0000 10.7493 0.0000 31.1970
#
#
#
# Elastic Compliance Matrix: (Units=1/GPa)
#
#
# Indices 1 2 3 4 5 6 
#
# 1 0.010737 0.000151 -0.003393 0.000000 0.003977 0.000000
# 2 0.000151 0.011091 -0.007147 0.000000 -0.005196 0.000000
# 3 -0.003393 -0.007147 0.034441 0.000000 0.025944 0.000000
# 4 0.000000 0.000000 0.000000 0.060860 0.000000 -0.020970
# 5 0.003977 -0.005196 0.025944 0.000000 0.048337 0.000000
# 6 0.000000 0.000000 0.000000 -0.020970 0.000000 0.039280
#
#
# Mechanical properties :
#
#
# Convention : Reuss Voigt Hill
#
# Bulk Modulus (GPa) = 28.17514 45.02821 36.60168
# Shear Modulus (GPa) = 21.06571 32.81984 26.94278
#
# Velocity S-wave (km/s) = 2.90606 3.62730 3.28652
# Velocity P-wave (km/s) = 4.74926 5.96613 5.39214
#
# Compressibility (1/GPa) = 0.03549228
#
# Stress axis : x y z
#
# Youngs Moduli (GPa) = 93.13986 90.16690 29.03475
#
# Poissons Ratio (x) = -0.01361 0.09850
# Poissons Ratio (y) = -0.01406 0.20750
# Poissons Ratio (z) = 0.31598 0.64438
#
# Static dielectric constant tensor:
#      x y z
#    x 1.967560 0.000000 -0.060470 
#    y 0.000000 2.048660 0.000000 
#    z -0.060470 0.000000 2.009070 
# 
# From -- ./inp_files/93510.got.cif
#   From: 2010.05.17/outbox.cif.g08.bks.cpg/sg13_47_cif.got.tgz:93510.got - 2010.06.03 16:44:36.
