data_PCOD9237172
_publ_section_title
;
Structure prediction by ZEFSAII (Michael W. Deem and Ramdas Pophale) SiO2 
 PCOD9237172
Probable space group: P 2/C
;
_chemical_formula_sum "Si O2"
_cell_formula_units_Z 30
_cell_length_a 19.423620
_cell_length_b 6.605250
_cell_length_c 21.900915
_cell_angle_alpha 90.000000
_cell_angle_beta 154.598831
_cell_angle_gamma 90.000000
_cell_volume 1205.291164
_symmetry_space_group_name_H-M "P 2/C"
_symmetry_group_IT_number 13
_symmetry_cell_setting 'monoclinic'
loop_
_space_group_symop_operation_xyz
x,y,z
-x,y,1/2-z
-x,-y,-z
x,-y,1/2+z
loop_
_atom_site_type_symbol
_atom_site_label
_atom_site_fract_x
_atom_site_fract_y
_atom_site_fract_z
Si Si1 0.521003 0.466160 0.615352
Si Si2 0.136485 0.121268 0.111864
Si Si3 0.098066 0.246841 0.418131
Si Si4 0.000000 0.929982 0.250000
Si Si5 0.613811 0.807444 0.591588
Si Si6 0.109363 0.622529 0.059066
Si Si7 0.331463 0.095874 0.148607
Si Si8 0.251891 0.389814 0.985182
O O1 0.550153 0.639712 0.588442
O O2 0.405872 0.300362 0.489975
O O3 0.695603 0.378951 0.773051
O O4 0.423106 0.560264 0.593273
O O5 0.217044 0.122971 0.243954
O O6 0.083072 0.372977 0.057895
O O7 0.286528 0.118068 0.183116
O O8 0.078456 0.876288 0.051269
O O9 0.054627 0.370694 0.443812
O O10 0.154141 0.404610 0.412434
O O11 0.989214 0.076994 0.299582
O O12 0.245213 0.108324 0.557907
O O13 0.153452 0.782691 0.370983
O O14 0.500000 0.000000 0.500000
O O15 0.500000 0.081551 0.250000
O O16 0.260314 0.294637 0.059146
#
# Coordination Sequence:
#
# PCOD9237172 Si02
#       8
#     4   4   4   2   4   4   4   4
#     4  11  27  50  74 116 149 209 261 331 405 474
#     4  12  24  46  75 115 151 203 265 328 396 474
#     4  11  26  46  79 109 151 207 252 328 400 474
#     4  10  26  54  70 118 152 200 264 326 406 492
#     4  11  26  48  73 110 157 202 261 329 399 480
#     4  12  25  47  78 112 152 197 274 324 395 476
#     4  11  26  45  74 115 154 207 266 326 398 476
#     4  11  26  48  79 108 160 202 264 327 402 483
#
# _framework density 24.890253000000001
#
# number of rings (size 3 to 8) (size 9 to 14) (size 15 to 20)
#    0.000    0.800    2.667    2.800    3.733    5.333 
#    9.600    0.000    0.000    0.000    0.000    0.000 
#    0.000    0.000    0.000    0.000    0.000    0.000 
#
# Total GULP energy -167486.500212 kJ/mol
# GULP energy per Si atom -5582.883340 kJ/mol
# Density = 2.483360 g / cm^3
# Si number density = 24.890253 Si / 1000 Ang^3
#
#
#
# Elastic Constant Matrix: (Units=GPa)
#
#
# Indices 1 2 3 4 5 6 
#
# 1 126.1295 75.6795 67.1312 0.0000 24.0839 0.0000
# 2 75.6795 115.8592 53.9840 0.0000 -6.5334 0.0000
# 3 67.1312 53.9840 145.0413 0.0000 1.1077 0.0000
# 4 0.0000 0.0000 0.0000 49.9233 0.0000 -1.9815
# 5 24.0839 -6.5334 1.1077 0.0000 26.0515 0.0000
# 6 0.0000 0.0000 0.0000 -1.9815 0.0000 42.5385
#
#
#
# Elastic Compliance Matrix: (Units=1/GPa)
#
#
# Indices 1 2 3 4 5 6 
#
# 1 0.025541 -0.015496 -0.005846 0.000000 -0.027249 0.000000
# 2 -0.015496 0.020050 -0.000438 0.000000 0.019373 0.000000
# 3 -0.005846 -0.000438 0.009726 0.000000 0.004881 0.000000
# 4 0.000000 0.000000 0.000000 0.020068 0.000000 0.000935
# 5 -0.027249 0.019373 0.004881 0.000000 0.068227 0.000000
# 6 0.000000 0.000000 0.000000 0.000935 0.000000 0.023552
#
#
# Mechanical properties :
#
#
# Convention : Reuss Voigt Hill
#
# Bulk Modulus (GPa) = 85.05758 86.73546 85.89652
# Shear Modulus (GPa) = 23.29463 36.38502 29.83983
#
# Velocity S-wave (km/s) = 3.06256 3.82752 3.46621
# Velocity P-wave (km/s) = 6.83761 7.37943 7.11368
#
# Compressibility (1/GPa) = 0.01175674
#
# Stress axis : x y z
#
# Youngs Moduli (GPa) = 39.15345 49.87570 102.81737
#
# Poissons Ratio (x) = 0.77288 0.60102
# Poissons Ratio (y) = 0.60672 0.04506
# Poissons Ratio (z) = 0.22887 0.02186
#
# Static dielectric constant tensor:
#      x y z
#    x 1.975010 0.000000 0.028120 
#    y 0.000000 1.992300 0.000000 
#    z 0.028120 0.000000 2.033040 
# 
# From -- ./inp_files/88375.got.cif
#   From: 2010.05.17/outbox.cif.g08.bks.cpg/sg13_45_cif.got.tgz:88375.got - 2010.06.03 16:44:36.
