data_PCOD9237123
_publ_section_title
;
Structure prediction by ZEFSAII (Michael W. Deem and Ramdas Pophale) SiO2 
 PCOD9237123
Probable space group: P 2/C
;
_chemical_formula_sum "Si O2"
_cell_formula_units_Z 16
_cell_length_a 25.817175
_cell_length_b 4.569140
_cell_length_c 8.291055
_cell_angle_alpha 90.000000
_cell_angle_beta 35.503508
_cell_angle_gamma 90.000000
_cell_volume 567.994712
_symmetry_space_group_name_H-M "P 2/C"
_symmetry_group_IT_number 13
_symmetry_cell_setting 'monoclinic'
loop_
_space_group_symop_operation_xyz
x,y,z
-x,y,1/2-z
-x,-y,-z
x,-y,1/2+z
loop_
_atom_site_type_symbol
_atom_site_label
_atom_site_fract_x
_atom_site_fract_y
_atom_site_fract_z
Si Si1 0.877341 0.745296 0.330995
Si Si2 0.253779 0.237220 0.840660
Si Si3 0.000000 0.129378 0.250000
Si Si4 0.626059 0.167474 0.691374
Si Si5 0.500000 0.196521 0.750000
O O1 0.814715 0.482088 0.546373
O O2 0.932446 0.920470 0.325020
O O3 0.808737 0.980970 0.433047
O O4 0.946653 0.675484 0.013459
O O5 0.311486 0.348830 0.846440
O O6 0.315762 0.070225 0.554523
O O7 0.568511 0.343296 0.703071
O O8 0.560084 0.001604 0.980545
#
# Coordination Sequence:
#
# PCOD9237123 Si02
#       5
#     4   4   2   4   2
#     4  11  26  46  71 103 141 184 237 295 358 428
#     4  11  24  42  70 104 141 186 239 295 352 420
#     4  10  26  48  74 104 144 190 236 296 366 432
#     4   9  19  38  71 103 144 190 238 293 355 424
#     4   8  16  38  70 104 144 188 236 290 356 428
#
# _framework density 28.169277999999998
#
# number of rings (size 3 to 8) (size 9 to 14) (size 15 to 20)
#    0.000    2.000    0.000    1.500    0.000   14.000 
#    0.000    7.500    0.000  105.000    0.000    0.000 
#    0.000    0.000    0.000    0.000    0.000    0.000 
#
# Total GULP energy -89744.461300 kJ/mol
# GULP energy per Si atom -5609.028831 kJ/mol
# Density = 2.810516 g / cm^3
# Si number density = 28.169278 Si / 1000 Ang^3
#
#
#
# Elastic Constant Matrix: (Units=GPa)
#
#
# Indices 1 2 3 4 5 6 
#
# 1 223.9489 26.0935 46.2832 0.0000 -26.0948 0.0000
# 2 26.0935 73.4378 39.3216 0.0000 -12.9812 0.0000
# 3 46.2832 39.3216 220.7586 0.0000 31.4395 0.0000
# 4 0.0000 0.0000 0.0000 -78.4340 0.0000 76.3258
# 5 -26.0948 -12.9812 31.4395 0.0000 44.0491 0.0000
# 6 0.0000 0.0000 0.0000 76.3258 0.0000 -39.4218
#
#
#
# Elastic Compliance Matrix: (Units=1/GPa)
#
#
# Indices 1 2 3 4 5 6 
#
# 1 0.005344 -0.000232 -0.001692 0.000000 0.004305 0.000000
# 2 -0.000232 0.017338 -0.004172 0.000000 0.007950 0.000000
# 3 -0.001692 -0.004172 0.006618 0.000000 -0.006956 0.000000
# 4 0.000000 0.000000 0.000000 0.014421 0.000000 0.027921
# 5 0.004305 0.007950 -0.006956 0.000000 0.032560 0.000000
# 6 0.000000 0.000000 0.000000 0.027921 0.000000 0.028692
#
#
# Mechanical properties :
#
#
# Convention : Reuss Voigt Hill
#
# Bulk Modulus (GPa) = 58.44940 82.39354 70.42147
# Shear Modulus (GPa) = 40.69402 12.33512 26.51457
#
# Velocity S-wave (km/s) = 3.80494 2.09486 3.07132
# Velocity P-wave (km/s) = 6.33229 5.92994 6.13441
#
# Compressibility (1/GPa) = 0.01710882
#
# Stress axis : x y z
#
# Youngs Moduli (GPa) = 187.13807 57.67537 151.09570
#
# Poissons Ratio (x) = 0.01336 0.25568
# Poissons Ratio (y) = 0.04335 0.63037
# Poissons Ratio (z) = 0.31667 0.24062
#
# Static dielectric constant tensor:
#      x y z
#    x 2.164070 0.000000 -0.073170 
#    y 0.000000 2.126580 0.000000 
#    z -0.073170 0.000000 2.146280 
# 
# From -- ./inp_files/20609.got.cif
#   From: 2010.05.17/outbox.cif.g08.bks.cpg/sg13_11_cif.got.tgz:20609.got - 2010.06.03 16:44:36.
