data_PCOD9237340
_publ_section_title
;
Structure prediction by ZEFSAII (Michael W. Deem and Ramdas Pophale) SiO2 
 PCOD9237340
Probable space group: P 2/C
;
_chemical_formula_sum "Si O2"
_cell_formula_units_Z 20
_cell_length_a 8.935054
_cell_length_b 10.001696
_cell_length_c 15.535307
_cell_angle_alpha 90.000000
_cell_angle_beta 137.058165
_cell_angle_gamma 90.000000
_cell_volume 945.803096
_symmetry_space_group_name_H-M "P 2/C"
_symmetry_group_IT_number 13
_symmetry_cell_setting 'monoclinic'
loop_
_space_group_symop_operation_xyz
x,y,z
-x,y,1/2-z
-x,-y,-z
x,-y,1/2+z
loop_
_atom_site_type_symbol
_atom_site_label
_atom_site_fract_x
_atom_site_fract_y
_atom_site_fract_z
Si Si1 0.213109 0.738056 0.780774
Si Si2 0.173514 0.963959 0.244171
Si Si3 0.530634 0.251305 0.945013
Si Si4 0.304419 0.470419 0.732239
Si Si5 0.767319 0.783596 0.383436
O O1 0.200491 0.607090 0.717949
O O2 0.000000 0.739962 0.750000
O O3 0.234981 0.883920 0.748470
O O4 0.411893 0.724726 0.932520
O O5 0.373505 0.876100 0.366370
O O6 0.117713 0.891149 0.129687
O O7 0.000000 0.962849 0.250000
O O8 0.409786 0.381668 0.854193
O O9 0.748327 0.217809 0.978350
O O10 0.500000 0.505646 0.750000
O O11 0.840950 0.361166 0.879594
O O12 0.500000 0.793396 0.250000
#
# Coordination Sequence:
#
# PCOD9237340 Si02
#       5
#     4   4   4   4   4
#     4  11  21  32  48  77 106 126 157 207 248 280
#     4   9  18  32  51  76  98 123 165 205 241 289
#     4   9  18  36  54  69  96 136 166 193 240 298
#     4   8  17  33  51  71  95 127 167 201 239 289
#     4   7  15  33  53  69  93 132 167 194 235 296
#
# _framework density 21.146049999999999
#
# number of rings (size 3 to 8) (size 9 to 14) (size 15 to 20)
#    0.000    4.000    0.000    1.200    0.000    5.600 
#    0.000   10.000    0.000    0.000    0.000    0.000 
#    0.000    0.000    0.000    0.000    0.000    0.000 
#
# Total GULP energy -111336.832128 kJ/mol
# GULP energy per Si atom -5566.841606 kJ/mol
# Density = 2.109792 g / cm^3
# Si number density = 21.146050 Si / 1000 Ang^3
#
#
#
# Elastic Constant Matrix: (Units=GPa)
#
#
# Indices 1 2 3 4 5 6 
#
# 1 60.2493 66.8279 4.2148 0.0000 -15.9376 0.0000
# 2 66.8279 181.9641 12.4836 0.0000 -5.7829 0.0000
# 3 4.2148 12.4836 29.6097 0.0000 -5.7181 0.0000
# 4 0.0000 0.0000 0.0000 -19.4319 0.0000 19.0172
# 5 -15.9376 -5.7829 -5.7181 0.0000 18.5208 0.0000
# 6 0.0000 0.0000 0.0000 19.0172 0.0000 26.5438
#
#
#
# Elastic Compliance Matrix: (Units=1/GPa)
#
#
# Indices 1 2 3 4 5 6 
#
# 1 0.040658 -0.014347 0.006543 0.000000 0.032528 0.000000
# 2 -0.014347 0.010743 -0.004491 0.000000 -0.010378 0.000000
# 3 0.006543 -0.004491 0.037805 0.000000 0.015900 0.000000
# 4 0.000000 0.000000 0.000000 -0.030251 0.000000 0.021673
# 5 0.032528 -0.010378 0.015900 0.000000 0.083653 0.000000
# 6 0.000000 0.000000 0.000000 0.021673 0.000000 0.022146
#
#
# Mechanical properties :
#
#
# Convention : Reuss Voigt Hill
#
# Bulk Modulus (GPa) = 15.47612 48.76397 32.12004
# Shear Modulus (GPa) = 23.70974 17.67968 20.69471
#
# Velocity S-wave (km/s) = 3.35212 2.89463 3.13174
# Velocity P-wave (km/s) = 4.72407 5.85512 5.31974
#
# Compressibility (1/GPa) = 0.06461568
#
# Stress axis : x y z
#
# Youngs Moduli (GPa) = 24.59518 93.08341 26.45125
#
# Poissons Ratio (x) = 1.33549 -0.17307
# Poissons Ratio (y) = 0.35287 0.11880
# Poissons Ratio (z) = -0.16093 0.41807
#
# Static dielectric constant tensor:
#      x y z
#    x 1.772750 0.000000 -0.034290 
#    y 0.000000 1.760380 0.000000 
#    z -0.034290 0.000000 1.877820 
# 
# From -- ./inp_files/63915.got.cif
#   From: 2010.05.17/outbox.cif.g08.bks.cpg/sg13_32_cif.got.tgz:63915.got - 2010.06.03 16:44:36.
