data_PCOD9237837
_publ_section_title
;
Structure prediction by ZEFSAII (Michael W. Deem and Ramdas Pophale) SiO2 
 PCOD9237837
Probable space group: P 2/C
;
_chemical_formula_sum "Si O2"
_cell_formula_units_Z 20
_cell_length_a 11.650220
_cell_length_b 8.281939
_cell_length_c 18.038108
_cell_angle_alpha 90.000000
_cell_angle_beta 26.721080
_cell_angle_gamma 90.000000
_cell_volume 782.581303
_symmetry_space_group_name_H-M "P 2/C"
_symmetry_group_IT_number 13
_symmetry_cell_setting 'monoclinic'
loop_
_space_group_symop_operation_xyz
x,y,z
-x,y,1/2-z
-x,-y,-z
x,-y,1/2+z
loop_
_atom_site_type_symbol
_atom_site_label
_atom_site_fract_x
_atom_site_fract_y
_atom_site_fract_z
Si Si1 0.884583 0.825642 0.551569
Si Si2 0.328371 0.416139 0.785448
Si Si3 0.625886 0.863269 0.553643
Si Si4 0.710194 0.348364 0.330787
Si Si5 0.257864 0.225675 0.031527
O O1 0.841733 0.819172 0.487605
O O2 0.627183 0.839252 0.748742
O O3 0.069874 0.673509 0.459453
O O4 0.000000 0.000000 0.500000
O O5 0.500000 0.508480 0.750000
O O6 0.277841 0.513087 0.738205
O O7 0.530847 0.276316 0.648969
O O8 0.558808 0.740585 0.527854
O O9 0.679466 0.039205 0.489014
O O10 0.718602 0.355780 0.415206
O O11 0.966714 0.239432 0.172425
#
# Coordination Sequence:
#
# PCOD9237837 Si02
#       5
#     4   4   4   4   4
#     4  11  23  42  71 112 141 187 248 309 380 440
#     4  12  26  45  76 108 151 194 247 317 379 443
#     4  11  23  43  73 104 146 188 248 309 369 453
#     4  11  27  46  71 106 150 198 251 299 382 444
#     4  11  25  48  72 102 152 194 253 309 365 453
#
# _framework density 25.556448
#
# number of rings (size 3 to 8) (size 9 to 14) (size 15 to 20)
#    0.000    0.800    2.000    4.800    5.600    1.600 
#    0.000    0.000    0.000    0.000    0.000    0.000 
#    0.000    0.000    0.000    0.000    0.000    0.000 
#
# Total GULP energy -111635.726256 kJ/mol
# GULP energy per Si atom -5581.786313 kJ/mol
# Density = 2.549828 g / cm^3
# Si number density = 25.556448 Si / 1000 Ang^3
#
#
#
# Elastic Constant Matrix: (Units=GPa)
#
#
# Indices 1 2 3 4 5 6 
#
# 1 164.1901 32.1109 10.5946 0.0000 -8.6475 0.0000
# 2 32.1109 128.7323 33.8221 0.0000 -9.3416 0.0000
# 3 10.5946 33.8221 90.8728 0.0000 4.9595 0.0000
# 4 0.0000 0.0000 0.0000 30.6106 0.0000 -4.2231
# 5 -8.6475 -9.3416 4.9595 0.0000 29.9191 0.0000
# 6 0.0000 0.0000 0.0000 -4.2231 0.0000 33.4851
#
#
#
# Elastic Compliance Matrix: (Units=1/GPa)
#
#
# Indices 1 2 3 4 5 6 
#
# 1 0.006467 -0.001426 -0.000304 0.000000 0.001474 0.000000
# 2 -0.001426 0.009249 -0.003442 0.000000 0.003046 0.000000
# 3 -0.000304 -0.003442 0.012498 0.000000 -0.003234 0.000000
# 4 0.000000 0.000000 0.000000 0.033247 0.000000 0.004193
# 5 0.001474 0.003046 -0.003234 0.000000 0.035337 0.000000
# 6 0.000000 0.000000 0.000000 0.004193 0.000000 0.030393
#
#
# Mechanical properties :
#
#
# Convention : Reuss Voigt Hill
#
# Bulk Modulus (GPa) = 55.96313 59.65004 57.80658
# Shear Modulus (GPa) = 34.84537 39.28746 37.06641
#
# Velocity S-wave (km/s) = 3.69652 3.92507 3.81251
# Velocity P-wave (km/s) = 6.33754 6.62818 6.48449
#
# Compressibility (1/GPa) = 0.01786891
#
# Stress axis : x y z
#
# Youngs Moduli (GPa) = 154.63907 108.11567 80.01560
#
# Poissons Ratio (x) = 0.15421 0.02429
# Poissons Ratio (y) = 0.22057 0.27545
# Poissons Ratio (z) = 0.04693 0.37219
#
# Static dielectric constant tensor:
#      x y z
#    x 2.212920 0.000000 0.018960 
#    y 0.000000 2.034730 0.000000 
#    z 0.018960 0.000000 2.027730 
# 
# From -- ./inp_files/66238.got.cif
#   From: 2010.05.17/outbox.cif.g08.bks.cpg/sg13_34_cif.got.tgz:66238.got - 2010.06.03 16:44:36.
