data_PCOD9237531
_publ_section_title
;
Structure prediction by ZEFSAII (Michael W. Deem and Ramdas Pophale) SiO2 
 PCOD9237531
Probable space group: P 2/C
;
_chemical_formula_sum "Si O2"
_cell_formula_units_Z 18
_cell_length_a 8.721942
_cell_length_b 11.590630
_cell_length_c 8.302976
_cell_angle_alpha 90.000000
_cell_angle_beta 102.441874
_cell_angle_gamma 90.000000
_cell_volume 819.658551
_symmetry_space_group_name_H-M "P 2/C"
_symmetry_group_IT_number 13
_symmetry_cell_setting 'monoclinic'
loop_
_space_group_symop_operation_xyz
x,y,z
-x,y,1/2-z
-x,-y,-z
x,-y,1/2+z
loop_
_atom_site_type_symbol
_atom_site_label
_atom_site_fract_x
_atom_site_fract_y
_atom_site_fract_z
Si Si1 0.500000 0.572197 0.750000
Si Si2 0.118509 0.060513 0.401630
Si Si3 0.679190 0.120248 0.763358
Si Si4 0.835943 0.340765 0.764650
Si Si5 0.725601 0.562727 0.546930
O O1 0.625600 0.631627 0.659514
O O2 0.397715 0.491697 0.608762
O O3 0.237332 0.126720 0.543724
O O4 0.000000 0.122467 0.250000
O O5 0.223755 0.968395 0.325832
O O6 0.000000 0.000000 0.500000
O O7 0.500000 0.086296 0.750000
O O8 0.698284 0.249481 0.698814
O O9 0.808935 0.457018 0.657066
O O10 0.000000 0.285442 0.750000
O O11 0.841067 0.371165 0.954682
#
# Coordination Sequence:
#
# PCOD9237531 Si02
#       5
#     2   4   4   4   4
#     4   8  16  32  54  78 108 144 198 244 304 328
#     4   9  19  41  66  88 121 157 194 253 307 363
#     4  11  23  38  66  93 123 156 204 250 311 363
#     4  11  22  38  59  87 122 164 206 245 304 359
#     4   9  19  34  59  80 122 155 204 248 297 348
#
# _framework density 21.960363000000001
#
# number of rings (size 3 to 8) (size 9 to 14) (size 15 to 20)
#    0.000    2.222    0.000    3.333    9.333    0.000 
#    0.000   14.444    4.889    0.000    0.000    0.000 
#    0.000    0.000    0.000    0.000    0.000    0.000 
#
# Total GULP energy -100332.518821 kJ/mol
# GULP energy per Si atom -5574.028823 kJ/mol
# Density = 2.191038 g / cm^3
# Si number density = 21.960363 Si / 1000 Ang^3
#
#
#
# Elastic Constant Matrix: (Units=GPa)
#
#
# Indices 1 2 3 4 5 6 
#
# 1 133.7130 14.1076 44.8828 0.0000 -23.7154 0.0000
# 2 14.1076 58.6232 15.3047 0.0000 -9.7687 0.0000
# 3 44.8828 15.3047 107.6455 0.0000 -11.9368 0.0000
# 4 0.0000 0.0000 0.0000 30.9540 0.0000 -24.5144
# 5 -23.7154 -9.7687 -11.9368 0.0000 52.7261 0.0000
# 6 0.0000 0.0000 0.0000 -24.5144 0.0000 59.5439
#
#
#
# Elastic Compliance Matrix: (Units=1/GPa)
#
#
# Indices 1 2 3 4 5 6 
#
# 1 0.009280 -0.000805 -0.003394 0.000000 0.003257 0.000000
# 2 -0.000805 0.018192 -0.001967 0.000000 0.002563 0.000000
# 3 -0.003394 -0.001967 0.011052 0.000000 0.000611 0.000000
# 4 0.000000 0.000000 0.000000 0.047936 0.000000 0.019735
# 5 0.003257 0.002563 0.000611 0.000000 0.021044 0.000000
# 6 0.000000 0.000000 0.000000 0.019735 0.000000 0.024919
#
#
# Mechanical properties :
#
#
# Convention : Reuss Voigt Hill
#
# Bulk Modulus (GPa) = 38.17610 49.84131 44.00871
# Shear Modulus (GPa) = 32.57619 43.69056 38.13338
#
# Velocity S-wave (km/s) = 3.85568 4.46524 4.17161
# Velocity P-wave (km/s) = 6.10275 7.02352 6.57926
#
# Compressibility (1/GPa) = 0.02619440
#
# Stress axis : x y z
#
# Youngs Moduli (GPa) = 107.75341 54.96822 90.47917
#
# Poissons Ratio (x) = 0.04423 0.30708
# Poissons Ratio (y) = 0.08670 0.17795
# Poissons Ratio (z) = 0.36571 0.10811
#
# Static dielectric constant tensor:
#      x y z
#    x 1.891030 0.000000 -0.028930 
#    y 0.000000 1.788580 0.000000 
#    z -0.028930 0.000000 1.822170 
# 
# From -- ./inp_files/11680.got.cif
#   From: 2010.05.17/outbox.cif.g08.bks.cpg/sg13_6_cif.got.tgz:11680.got - 2010.06.03 16:44:36.
