data_PCOD9237395
_publ_section_title
;
Structure prediction by ZEFSAII (Michael W. Deem and Ramdas Pophale) SiO2 
 PCOD9237395
Probable space group: P 2/C
;
_chemical_formula_sum "Si O2"
_cell_formula_units_Z 26
_cell_length_a 8.436307
_cell_length_b 10.945155
_cell_length_c 19.522630
_cell_angle_alpha 90.000000
_cell_angle_beta 40.640327
_cell_angle_gamma 90.000000
_cell_volume 1174.084447
_symmetry_space_group_name_H-M "P 2/C"
_symmetry_group_IT_number 13
_symmetry_cell_setting 'monoclinic'
loop_
_space_group_symop_operation_xyz
x,y,z
-x,y,1/2-z
-x,-y,-z
x,-y,1/2+z
loop_
_atom_site_type_symbol
_atom_site_label
_atom_site_fract_x
_atom_site_fract_y
_atom_site_fract_z
Si Si1 0.500000 0.762412 0.750000
Si Si2 0.762959 0.352564 0.629018
Si Si3 0.966487 0.833636 0.374337
Si Si4 0.324242 0.431084 0.109260
Si Si5 0.999134 0.393646 0.090159
Si Si6 0.474173 0.825616 0.609260
Si Si7 0.000000 0.971813 0.750000
Si Si8 0.000000 0.368516 0.750000
O O1 0.252748 0.681244 0.833841
O O2 0.493303 0.842386 0.683901
O O3 0.500000 0.372304 0.750000
O O4 0.933945 0.464420 0.598391
O O5 0.858016 0.222820 0.626129
O O6 0.806508 0.355473 0.532606
O O7 0.712683 0.868389 0.491849
O O8 0.929787 0.719178 0.334780
O O9 0.056147 0.942115 0.296641
O O10 0.449514 0.320624 0.106819
O O11 0.114582 0.378529 0.127554
O O12 0.219926 0.537952 0.191531
O O13 0.500000 0.500000 0.000000
O O14 0.234675 0.889907 0.659606
#
# Coordination Sequence:
#
# PCOD9237395 Si02
#       8
#     2   4   4   4   4   4   2   2
#     4  12  24  44  70  98 148 192 226 292 358 452
#     4  11  23  39  65 101 148 185 234 285 362 432
#     4  11  24  46  70 101 141 183 246 303 349 420
#     4  12  24  39  70 107 144 183 232 289 363 441
#     4  11  23  38  64 104 147 193 222 282 363 445
#     4  12  25  49  71 105 143 186 245 299 363 424
#     4  11  27  48  80  98 133 195 250 308 348 407
#     4  11  21  38  62 100 137 181 220 286 356 423
#
# _framework density 22.144912999999999
#
# number of rings (size 3 to 8) (size 9 to 14) (size 15 to 20)
#    0.000    0.615    5.385    2.769    4.308    0.000 
#    1.385    2.308    0.000    0.000    0.000    0.000 
#    0.000    0.000    0.000    0.000    0.000    0.000 
#
# Total GULP energy -145424.164684 kJ/mol
# GULP energy per Si atom -5593.237103 kJ/mol
# Density = 2.209451 g / cm^3
# Si number density = 22.144913 Si / 1000 Ang^3
#
#
#
# Elastic Constant Matrix: (Units=GPa)
#
#
# Indices 1 2 3 4 5 6 
#
# 1 66.1648 -0.6554 18.2338 0.0000 8.4930 0.0000
# 2 -0.6554 64.0438 25.9933 0.0000 -0.6861 0.0000
# 3 18.2338 25.9933 146.5210 0.0000 2.8624 0.0000
# 4 0.0000 0.0000 0.0000 15.8541 0.0000 0.9533
# 5 8.4930 -0.6861 2.8624 0.0000 39.8526 0.0000
# 6 0.0000 0.0000 0.0000 0.9533 0.0000 26.6379
#
#
#
# Elastic Compliance Matrix: (Units=1/GPa)
#
#
# Indices 1 2 3 4 5 6 
#
# 1 0.016127 0.000990 -0.002119 0.000000 -0.003268 0.000000
# 2 0.000990 0.016897 -0.003127 0.000000 0.000304 0.000000
# 3 -0.002119 -0.003127 0.007646 0.000000 -0.000152 0.000000
# 4 0.000000 0.000000 0.000000 0.063211 0.000000 -0.002262
# 5 -0.003268 0.000304 -0.000152 0.000000 0.025805 0.000000
# 6 0.000000 0.000000 0.000000 -0.002262 0.000000 0.037621
#
#
# Mechanical properties :
#
#
# Convention : Reuss Voigt Hill
#
# Bulk Modulus (GPa) = 31.09550 40.43034 35.76292
# Shear Modulus (GPa) = 26.80416 32.01276 29.40846
#
# Velocity S-wave (km/s) = 3.48285 3.80623 3.64813
# Velocity P-wave (km/s) = 5.49964 6.13297 5.82492
#
# Compressibility (1/GPa) = 0.03215900
#
# Stress axis : x y z
#
# Youngs Moduli (GPa) = 62.00832 59.18308 130.78283
#
# Poissons Ratio (x) = -0.05859 0.27709
# Poissons Ratio (y) = -0.06138 0.40892
# Poissons Ratio (z) = 0.13138 0.18505
#
# Static dielectric constant tensor:
#      x y z
#    x 1.866930 0.000000 -0.020440 
#    y 0.000000 1.768910 0.000000 
#    z -0.020440 0.000000 1.841690 
# 
# From -- ./inp_files/76392.got.cif
#   From: 2010.05.17/outbox.cif.g08.bks.cpg/sg13_39_cif.got.tgz:76392.got - 2010.06.03 16:44:36.
