data_PCOD9237060
_publ_section_title
;
Structure prediction by ZEFSAII (Michael W. Deem and Ramdas Pophale) SiO2 
 PCOD9237060
Probable space group: P 2/C
;
_chemical_formula_sum "Si O2"
_cell_formula_units_Z 30
_cell_length_a 14.396031
_cell_length_b 8.726558
_cell_length_c 13.054211
_cell_angle_alpha 90.000000
_cell_angle_beta 130.739144
_cell_angle_gamma 90.000000
_cell_volume 1242.588023
_symmetry_space_group_name_H-M "P 2/C"
_symmetry_group_IT_number 13
_symmetry_cell_setting 'monoclinic'
loop_
_space_group_symop_operation_xyz
x,y,z
-x,y,1/2-z
-x,-y,-z
x,-y,1/2+z
loop_
_atom_site_type_symbol
_atom_site_label
_atom_site_fract_x
_atom_site_fract_y
_atom_site_fract_z
Si Si1 0.658744 0.337070 0.722526
Si Si2 0.219357 0.551391 0.848324
Si Si3 0.120366 0.171446 0.074481
Si Si4 0.139772 0.147856 0.519934
Si Si5 0.000000 0.305736 0.250000
Si Si6 0.313411 0.605515 0.614181
Si Si7 0.563925 0.165029 0.459228
Si Si8 0.316407 0.126215 0.367713
O O1 0.747779 0.421370 0.707382
O O2 0.735565 0.218742 0.846685
O O3 0.615992 0.480453 0.763259
O O4 0.574563 0.247406 0.579814
O O5 0.305846 0.699538 0.898367
O O6 0.078720 0.594352 0.729385
O O7 0.239278 0.490081 0.976222
O O8 0.208846 0.309385 0.105840
O O9 0.183336 0.099020 0.222059
O O10 0.139370 0.034159 0.009155
O O11 0.976552 0.192241 0.990851
O O12 0.101294 0.212871 0.383165
O O13 0.390176 0.725620 0.599072
O O14 0.420012 0.125058 0.352434
O O15 0.641704 0.008102 0.525829
#
# Coordination Sequence:
#
# PCOD9237060 Si02
#       8
#     4   4   4   4   2   4   4   4
#     4  11  22  44  66 100 139 167 221 279 340 397
#     4  11  25  40  67  99 135 174 215 284 336 401
#     4  11  24  43  66  98 134 177 221 279 333 399
#     4  11  24  41  69  94 134 177 217 279 335 401
#     4  12  22  38  66  96 128 176 218 266 338 402
#     4  11  24  42  67 101 133 177 227 273 337 412
#     4  10  26  44  73  95 130 185 225 282 331 393
#     4  11  22  50  68  93 137 173 228 282 334 388
#
# _framework density 24.143160999999999
#
# number of rings (size 3 to 8) (size 9 to 14) (size 15 to 20)
#    0.000    1.067    5.333    0.000    3.733    3.733 
#    4.800    0.000    0.000    0.000    0.000    0.000 
#    0.000    0.000    0.000    0.000    0.000    0.000 
#
# Total GULP energy -167601.284068 kJ/mol
# GULP energy per Si atom -5586.709469 kJ/mol
# Density = 2.408821 g / cm^3
# Si number density = 24.143161 Si / 1000 Ang^3
#
#
#
# Elastic Constant Matrix: (Units=GPa)
#
#
# Indices 1 2 3 4 5 6 
#
# 1 65.5591 3.6210 1.9986 0.0000 2.7689 0.0000
# 2 3.6210 73.7684 -2.7053 0.0000 1.1987 0.0000
# 3 1.9986 -2.7053 67.3213 0.0000 -3.4315 0.0000
# 4 0.0000 0.0000 0.0000 26.7594 0.0000 -9.7680
# 5 2.7689 1.1987 -3.4315 0.0000 34.8910 0.0000
# 6 0.0000 0.0000 0.0000 -9.7680 0.0000 37.1040
#
#
#
# Elastic Compliance Matrix: (Units=1/GPa)
#
#
# Indices 1 2 3 4 5 6 
#
# 1 0.015365 -0.000754 -0.000550 0.000000 -0.001248 0.000000
# 2 -0.000754 0.013619 0.000552 0.000000 -0.000354 0.000000
# 3 -0.000550 0.000552 0.014969 0.000000 0.001497 0.000000
# 4 0.000000 0.000000 0.000000 0.041343 0.000000 0.010884
# 5 -0.001248 -0.000354 0.001497 0.000000 0.028919 0.000000
# 6 0.000000 0.000000 0.000000 0.010884 0.000000 0.029817
#
#
# Mechanical properties :
#
#
# Convention : Reuss Voigt Hill
#
# Bulk Modulus (GPa) = 23.55855 23.60860 23.58357
# Shear Modulus (GPa) = 31.31162 33.33318 32.32240
#
# Velocity S-wave (km/s) = 3.60518 3.71974 3.66290
# Velocity P-wave (km/s) = 5.20661 5.31492 5.26104
#
# Compressibility (1/GPa) = 0.04244744
#
# Stress axis : x y z
#
# Youngs Moduli (GPa) = 65.08501 73.42723 66.80498
#
# Poissons Ratio (x) = 0.05537 0.03674
# Poissons Ratio (y) = 0.04908 -0.03685
# Poissons Ratio (z) = 0.03580 -0.04051
#
# Static dielectric constant tensor:
#      x y z
#    x 1.958610 0.000000 -0.042920 
#    y 0.000000 1.967270 0.000000 
#    z -0.042920 0.000000 1.955500 
# 
# From -- ./inp_files/53164.got.cif
#   From: 2010.05.17/outbox.cif.g08.bks.cpg/sg13_27_cif.got.tgz:53164.got - 2010.06.03 16:44:36.
