data_PCOD9237291
_publ_section_title
;
Structure prediction by ZEFSAII (Michael W. Deem and Ramdas Pophale) SiO2 
 PCOD9237291
Probable space group: P 2/C
;
_chemical_formula_sum "Si O2"
_cell_formula_units_Z 20
_cell_length_a 15.720933
_cell_length_b 5.043356
_cell_length_c 23.098523
_cell_angle_alpha 90.000000
_cell_angle_beta 149.149345
_cell_angle_gamma 90.000000
_cell_volume 939.143421
_symmetry_space_group_name_H-M "P 2/C"
_symmetry_group_IT_number 13
_symmetry_cell_setting 'monoclinic'
loop_
_space_group_symop_operation_xyz
x,y,z
-x,y,1/2-z
-x,-y,-z
x,-y,1/2+z
loop_
_atom_site_type_symbol
_atom_site_label
_atom_site_fract_x
_atom_site_fract_y
_atom_site_fract_z
Si Si1 0.307769 0.497184 0.297602
Si Si2 0.026743 0.352855 0.204730
Si Si3 0.995092 0.745341 0.455078
Si Si4 0.488836 0.993015 0.064494
Si Si5 0.155697 0.867901 0.438636
O O1 0.166749 0.655247 0.178172
O O2 0.382841 0.204770 0.331184
O O3 0.212138 0.445387 0.301886
O O4 0.458627 0.695923 0.389890
O O5 0.919709 0.617130 0.138835
O O6 0.000000 0.217640 0.250000
O O7 0.965659 0.124445 0.126021
O O8 0.000000 0.500000 0.500000
O O9 0.151894 0.765698 0.502763
O O10 0.000000 0.000000 0.500000
O O11 0.315665 0.048660 0.995658
O O12 0.500000 0.000000 0.000000
#
# Coordination Sequence:
#
# PCOD9237291 Si02
#       5
#     4   4   4   4   4
#     4  11  23  39  62  91 123 164 213 255 315 390
#     4  11  20  37  60  89 122 166 212 257 308 385
#     4  11  23  44  66  86 117 165 218 272 310 353
#     4  12  23  40  61  95 135 164 192 256 330 394
#     4  11  23  38  61  91 123 163 213 260 318 388
#
# _framework density 21.296002999999999
#
# number of rings (size 3 to 8) (size 9 to 14) (size 15 to 20)
#    0.000    0.800    0.000   10.800    0.000    0.000 
#    0.000    6.000    0.000    0.000    0.000    0.000 
#    0.000    0.000    0.000    0.000    0.000    0.000 
#
# Total GULP energy -111363.097174 kJ/mol
# GULP energy per Si atom -5568.154859 kJ/mol
# Density = 2.124753 g / cm^3
# Si number density = 21.296003 Si / 1000 Ang^3
#
#
#
# Elastic Constant Matrix: (Units=GPa)
#
#
# Indices 1 2 3 4 5 6 
#
# 1 133.5311 23.1160 25.9910 0.0000 10.5690 0.0000
# 2 23.1160 136.6061 16.3206 0.0000 6.5809 0.0000
# 3 25.9910 16.3206 40.2255 0.0000 9.9877 0.0000
# 4 0.0000 0.0000 0.0000 41.3678 0.0000 3.4018
# 5 10.5690 6.5809 9.9877 0.0000 31.9922 0.0000
# 6 0.0000 0.0000 0.0000 3.4018 0.0000 35.8999
#
#
#
# Elastic Compliance Matrix: (Units=1/GPa)
#
#
# Indices 1 2 3 4 5 6 
#
# 1 0.008695 -0.000819 -0.005002 0.000000 -0.001142 0.000000
# 2 -0.000819 0.007783 -0.002492 0.000000 -0.000553 0.000000
# 3 -0.005002 -0.002492 0.030966 0.000000 -0.007502 0.000000
# 4 0.000000 0.000000 0.000000 0.024363 0.000000 -0.002309
# 5 -0.001142 -0.000553 -0.007502 0.000000 0.034091 0.000000
# 6 0.000000 0.000000 0.000000 -0.002309 0.000000 0.028074
#
#
# Mechanical properties :
#
#
# Convention : Reuss Voigt Hill
#
# Bulk Modulus (GPa) = 32.44799 49.02419 40.73609
# Shear Modulus (GPa) = 31.08118 38.18099 34.63109
#
# Velocity S-wave (km/s) = 3.82446 4.23882 4.03696
# Velocity P-wave (km/s) = 5.89676 6.85764 6.39527
#
# Compressibility (1/GPa) = 0.03081855
#
# Stress axis : x y z
#
# Youngs Moduli (GPa) = 115.01322 128.48262 32.29397
#
# Poissons Ratio (x) = 0.10518 0.16154
# Poissons Ratio (y) = 0.09415 0.08047
# Poissons Ratio (z) = 0.57531 0.32014
#
# Static dielectric constant tensor:
#      x y z
#    x 1.850120 0.000000 -0.047100 
#    y 0.000000 1.821460 0.000000 
#    z -0.047100 0.000000 1.850370 
# 
# From -- ./inp_files/87013.got.cif
#   From: 2010.05.17/outbox.cif.g08.bks.cpg/sg13_44_cif.got.tgz:87013.got - 2010.06.03 16:44:36.
