data_PCOD9237431
_publ_section_title
;
Structure prediction by ZEFSAII (Michael W. Deem and Ramdas Pophale) SiO2 
 PCOD9237431
Probable space group: P 2/C
;
_chemical_formula_sum "Si O2"
_cell_formula_units_Z 18
_cell_length_a 11.392689
_cell_length_b 8.678220
_cell_length_c 14.050248
_cell_angle_alpha 90.000000
_cell_angle_beta 147.640342
_cell_angle_gamma 90.000000
_cell_volume 743.503636
_symmetry_space_group_name_H-M "P 2/C"
_symmetry_group_IT_number 13
_symmetry_cell_setting 'monoclinic'
loop_
_space_group_symop_operation_xyz
x,y,z
-x,y,1/2-z
-x,-y,-z
x,-y,1/2+z
loop_
_atom_site_type_symbol
_atom_site_label
_atom_site_fract_x
_atom_site_fract_y
_atom_site_fract_z
Si Si1 0.201751 0.347357 0.252016
Si Si2 0.387450 0.891864 0.028463
Si Si3 0.000000 0.402950 0.750000
Si Si4 0.408760 0.769280 0.584519
Si Si5 0.849162 0.855566 0.429422
O O1 0.254472 0.209327 0.362579
O O2 0.130385 0.491242 0.265076
O O3 0.363729 0.833562 0.282728
O O4 0.007631 0.290347 0.050304
O O5 0.575468 0.355983 0.155418
O O6 0.254394 0.882847 0.036990
O O7 0.404071 0.074165 0.020460
O O8 0.830993 0.298713 0.577155
O O9 0.500000 0.812357 0.750000
O O10 0.000000 0.000000 0.500000
#
# Coordination Sequence:
#
# PCOD9237431 Si02
#       5
#     4   4   2   4   4
#     4  12  25  48  72 103 139 184 235 286 353 410
#     4  11  23  41  73 106 133 174 234 293 345 402
#     4  12  30  44  70  98 146 194 226 280 344 432
#     4  12  27  46  70 104 140 183 236 283 350 414
#     4  11  21  39  72 105 133 169 225 291 350 392
#
# _framework density 24.209699000000001
#
# number of rings (size 3 to 8) (size 9 to 14) (size 15 to 20)
#    0.000    0.444    6.667    1.333    3.111    4.444 
#    0.000    0.000    0.000    0.000    0.000    0.000 
#    0.000    0.000    0.000    0.000    0.000    0.000 
#
# Total GULP energy -100914.204680 kJ/mol
# GULP energy per Si atom -5606.344704 kJ/mol
# Density = 2.415460 g / cm^3
# Si number density = 24.209699 Si / 1000 Ang^3
#
#
#
# Elastic Constant Matrix: (Units=GPa)
#
#
# Indices 1 2 3 4 5 6 
#
# 1 74.2287 -2.4617 41.9143 0.0000 12.1769 0.0000
# 2 -2.4617 73.8582 51.4772 0.0000 11.6103 0.0000
# 3 41.9143 51.4772 128.0064 0.0000 25.4904 0.0000
# 4 0.0000 0.0000 0.0000 267.0003 0.0000 -155.5403
# 5 12.1769 11.6103 25.4904 0.0000 46.8772 0.0000
# 6 0.0000 0.0000 0.0000 -155.5403 0.0000 146.6250
#
#
#
# Elastic Compliance Matrix: (Units=1/GPa)
#
#
# Indices 1 2 3 4 5 6 
#
# 1 0.018855 0.006902 -0.008561 0.000000 -0.001952 0.000000
# 2 0.006902 0.021354 -0.010583 0.000000 -0.001327 0.000000
# 3 -0.008561 -0.010583 0.015595 0.000000 -0.003635 0.000000
# 4 0.000000 0.000000 0.000000 0.009804 0.000000 0.010400
# 5 -0.001952 -0.001327 -0.003635 0.000000 0.024145 0.000000
# 6 0.000000 0.000000 0.000000 0.010400 0.000000 0.017852
#
#
# Mechanical properties :
#
#
# Convention : Reuss Voigt Hill
#
# Bulk Modulus (GPa) = 31.92824 50.88367 41.40595
# Shear Modulus (GPa) = 35.08055 104.44471 69.76263
#
# Velocity S-wave (km/s) = 3.81074 6.57536 5.37388
# Velocity P-wave (km/s) = 5.70782 8.87190 7.45955
#
# Compressibility (1/GPa) = 0.03132024
#
# Stress axis : x y z
#
# Youngs Moduli (GPa) = 53.03661 46.82898 64.12280
#
# Poissons Ratio (x) = -0.32321 0.54893
# Poissons Ratio (y) = -0.36605 0.67863
# Poissons Ratio (z) = 0.45403 0.49560
#
# Static dielectric constant tensor:
#      x y z
#    x 2.006610 0.000000 -0.043970 
#    y 0.000000 1.872250 0.000000 
#    z -0.043970 0.000000 1.888010 
# 
# From -- ./inp_files/52453.got.cif
#   From: 2010.05.17/outbox.cif.g08.bks.cpg/sg13_27_cif.got.tgz:52453.got - 2010.06.03 16:44:36.
