data_PCOD9237932
_publ_section_title
;
Structure prediction by ZEFSAII (Michael W. Deem and Ramdas Pophale) SiO2 
 PCOD9237932
Probable space group: P 2/C
;
_chemical_formula_sum "Si O2"
_cell_formula_units_Z 28
_cell_length_a 23.775278
_cell_length_b 7.579813
_cell_length_c 16.837979
_cell_angle_alpha 90.000000
_cell_angle_beta 155.816684
_cell_angle_gamma 90.000000
_cell_volume 1243.067979
_symmetry_space_group_name_H-M "P 2/C"
_symmetry_group_IT_number 13
_symmetry_cell_setting 'monoclinic'
loop_
_space_group_symop_operation_xyz
x,y,z
-x,y,1/2-z
-x,-y,-z
x,-y,1/2+z
loop_
_atom_site_type_symbol
_atom_site_label
_atom_site_fract_x
_atom_site_fract_y
_atom_site_fract_z
Si Si1 0.973319 0.630074 0.555511
Si Si2 0.500000 0.698465 0.250000
Si Si3 0.800689 0.923035 0.246966
Si Si4 0.426264 0.501862 0.991023
Si Si5 0.485004 0.093431 0.066367
Si Si6 0.732921 0.026199 0.989703
Si Si7 0.000000 0.819419 0.750000
Si Si8 0.850713 0.288833 0.351423
O O1 0.956640 0.421495 0.529007
O O2 0.956640 0.698300 0.621323
O O3 0.118498 0.677570 0.702508
O O4 0.861925 0.742637 0.360852
O O5 0.481168 0.581003 0.145510
O O6 0.369026 0.820416 0.106915
O O7 0.880234 0.081854 0.395651
O O8 0.796825 0.923485 0.147030
O O9 0.647331 0.998765 0.066754
O O10 0.426575 0.291055 0.000411
O O11 0.500000 0.500000 0.000000
O O12 0.291076 0.622127 0.805244
O O13 0.625567 0.078851 0.295640
O O14 0.500000 0.000000 0.000000
O O15 0.863308 0.081516 0.104192
#
# Coordination Sequence:
#
# PCOD9237932 Si02
#       8
#     4   2   4   4   4   4   2   4
#     4  11  25  44  76  99 149 186 246 289 368 438
#     4  12  24  44  74 102 150 190 240 312 374 434
#     4  12  22  46  75 102 143 191 239 298 364 439
#     4  12  26  44  70 107 144 187 253 308 369 443
#     4  12  25  45  72 106 143 192 248 309 370 443
#     4  12  25  45  72 106 147 191 247 299 373 444
#     4  12  26  46  70 108 144 192 238 308 364 438
#     4  11  23  45  70 104 135 193 235 292 363 435
#
# _framework density 22.524913999999999
#
# number of rings (size 3 to 8) (size 9 to 14) (size 15 to 20)
#    0.000    0.286    5.714    3.000    4.000    0.000 
#    0.000    0.714    0.000    0.000    0.000    0.000 
#    0.000    0.000    0.000    0.000    0.000    0.000 
#
# Total GULP energy -155911.222357 kJ/mol
# GULP energy per Si atom -5568.257941 kJ/mol
# Density = 2.247365 g / cm^3
# Si number density = 22.524914 Si / 1000 Ang^3
#
#
#
# Elastic Constant Matrix: (Units=GPa)
#
#
# Indices 1 2 3 4 5 6 
#
# 1 163.5523 3.8471 41.9679 0.0000 9.3344 0.0000
# 2 3.8471 82.4493 20.9873 0.0000 8.4102 0.0000
# 3 41.9679 20.9873 98.7758 0.0000 9.9611 0.0000
# 4 0.0000 0.0000 0.0000 -22.1392 0.0000 32.3301
# 5 9.3344 8.4102 9.9611 0.0000 38.2807 0.0000
# 6 0.0000 0.0000 0.0000 32.3301 0.0000 8.7285
#
#
#
# Elastic Compliance Matrix: (Units=1/GPa)
#
#
# Indices 1 2 3 4 5 6 
#
# 1 0.006917 0.000533 -0.002948 0.000000 -0.001037 0.000000
# 2 0.000533 0.013040 -0.002768 0.000000 -0.002275 0.000000
# 3 -0.002948 -0.002768 0.012150 0.000000 -0.001835 0.000000
# 4 0.000000 0.000000 0.000000 -0.007048 0.000000 0.026105
# 5 -0.001037 -0.002275 -0.001835 0.000000 0.027353 0.000000
# 6 0.000000 0.000000 0.000000 0.026105 0.000000 0.017876
#
#
# Mechanical properties :
#
#
# Convention : Reuss Voigt Hill
#
# Bulk Modulus (GPa) = 45.99307 53.15357 49.57332
# Shear Modulus (GPa) = 56.88244 23.50567 40.19406
#
# Velocity S-wave (km/s) = 5.03070 3.23389 4.22883
# Velocity P-wave (km/s) = 7.36254 6.13131 6.77495
#
# Compressibility (1/GPa) = 0.02174241
#
# Stress axis : x y z
#
# Youngs Moduli (GPa) = 144.56526 76.68478 82.30782
#
# Poissons Ratio (x) = -0.04090 0.24263
# Poissons Ratio (y) = -0.07710 0.22783
# Poissons Ratio (z) = 0.42615 0.21226
#
# Static dielectric constant tensor:
#      x y z
#    x 1.777600 0.000000 -0.088600 
#    y 0.000000 1.596260 0.000000 
#    z -0.088600 0.000000 1.897410 
# 
# From -- ./inp_files/57348.got.cif
#   From: 2010.05.17/outbox.cif.g08.bks.cpg/sg13_29_cif.got.tgz:57348.got - 2010.06.03 16:44:36.
