data_PCOD9237318
_publ_section_title
;
Structure prediction by ZEFSAII (Michael W. Deem and Ramdas Pophale) SiO2 
 PCOD9237318
Probable space group: P 2/C
;
_chemical_formula_sum "Si O2"
_cell_formula_units_Z 30
_cell_length_a 17.230566
_cell_length_b 11.348281
_cell_length_c 8.217700
_cell_angle_alpha 90.000000
_cell_angle_beta 67.001852
_cell_angle_gamma 90.000000
_cell_volume 1479.149082
_symmetry_space_group_name_H-M "P 2/C"
_symmetry_group_IT_number 13
_symmetry_cell_setting 'monoclinic'
loop_
_space_group_symop_operation_xyz
x,y,z
-x,y,1/2-z
-x,-y,-z
x,-y,1/2+z
loop_
_atom_site_type_symbol
_atom_site_label
_atom_site_fract_x
_atom_site_fract_y
_atom_site_fract_z
Si Si1 0.958051 0.156100 0.113116
Si Si2 0.404781 0.601769 0.851457
Si Si3 0.253206 0.938709 0.989421
Si Si4 0.219723 0.822466 0.673982
Si Si5 0.500000 0.803767 0.250000
Si Si6 0.644505 0.358722 0.478033
Si Si7 0.082518 0.896522 0.296406
Si Si8 0.566160 0.856232 0.544392
O O1 0.871746 0.224272 0.197070
O O2 0.000000 0.143685 0.250000
O O3 0.918216 0.023452 0.110450
O O4 0.039323 0.198693 0.947276
O O5 0.500000 0.556521 0.750000
O O6 0.374551 0.640740 0.698932
O O7 0.410710 0.716696 0.959920
O O8 0.354141 0.492570 0.963599
O O9 0.258436 0.885719 0.803766
O O10 0.345373 0.922840 0.995111
O O11 0.173163 0.875795 0.145183
O O12 0.224312 0.075174 0.032306
O O13 0.271022 0.713016 0.568652
O O14 0.425630 0.718983 0.372958
O O15 0.528971 0.873561 0.391574
O O16 0.000000 0.905998 0.250000
O O17 0.500000 0.875454 0.750000
#
# Coordination Sequence:
#
# PCOD9237318 Si02
#       8
#     4   4   4   4   2   4   4   4
#     4   9  18  31  54  84 118 154 196 248 295 361
#     4  11  20  40  64  89 114 149 204 273 315 346
#     4  11  23  40  59  87 129 168 203 248 302 380
#     4  11  24  39  57  90 131 162 201 250 304 376
#     4  12  22  38  64  86 118 158 210 258 314 362
#     4  12  23  39  63  90 119 156 205 265 313 360
#     4   9  16  30  54  82 112 154 197 240 301 348
#     4  11  23  43  63  89 125 166 213 260 308 366
#
# _framework density 20.281934
#
# number of rings (size 3 to 8) (size 9 to 14) (size 15 to 20)
#    0.000    1.333    6.000    1.200    7.467    0.000 
#    1.200    1.333    1.467    0.000    0.000    4.667 
#    0.000    0.000    0.000    0.000    0.000    0.000 
#
# Total GULP energy -167039.733927 kJ/mol
# GULP energy per Si atom -5567.991131 kJ/mol
# Density = 2.023577 g / cm^3
# Si number density = 20.281934 Si / 1000 Ang^3
#
#
#
# Elastic Constant Matrix: (Units=GPa)
#
#
# Indices 1 2 3 4 5 6 
#
# 1 81.4740 11.5827 34.2576 0.0000 -14.8643 0.0000
# 2 11.5827 57.4343 24.6517 0.0000 -11.8549 0.0000
# 3 34.2576 24.6517 67.5958 0.0000 -5.0300 0.0000
# 4 0.0000 0.0000 0.0000 12.1949 0.0000 -6.3851
# 5 -14.8643 -11.8549 -5.0300 0.0000 50.4871 0.0000
# 6 0.0000 0.0000 0.0000 -6.3851 0.0000 -6.0442
#
#
#
# Elastic Compliance Matrix: (Units=1/GPa)
#
#
# Indices 1 2 3 4 5 6 
#
# 1 0.016436 0.001194 -0.008447 0.000000 0.004278 0.000000
# 2 0.001194 0.021620 -0.008146 0.000000 0.004616 0.000000
# 3 -0.008447 -0.008146 0.021880 0.000000 -0.002220 0.000000
# 4 0.000000 0.000000 0.000000 0.052798 0.000000 -0.055776
# 5 0.004278 0.004616 -0.002220 0.000000 0.021929 0.000000
# 6 0.000000 0.000000 0.000000 -0.055776 0.000000 -0.106525
#
#
# Mechanical properties :
#
#
# Convention : Reuss Voigt Hill
#
# Bulk Modulus (GPa) = 34.31937 38.60976 36.46457
# Shear Modulus (GPa) = 72.83381 20.39504 46.61443
#
# Velocity S-wave (km/s) = 5.99905 3.17452 4.79928
# Velocity P-wave (km/s) = 8.05871 5.70216 6.98059
#
# Compressibility (1/GPa) = 0.02913806
#
# Stress axis : x y z
#
# Youngs Moduli (GPa) = 60.84082 46.25400 45.70300
#
# Poissons Ratio (x) = -0.05522 0.38605
# Poissons Ratio (y) = -0.07264 0.37230
# Poissons Ratio (z) = 0.51392 0.37679
#
# Static dielectric constant tensor:
#      x y z
#    x 1.621370 0.000000 -0.046080 
#    y 0.000000 1.712200 0.000000 
#    z -0.046080 0.000000 1.789140 
# 
# From -- ./inp_files/21736.got.cif
#   From: 2010.05.17/outbox.cif.g08.bks.cpg/sg13_11_cif.got.tgz:21736.got - 2010.06.03 16:44:36.
