data_PCOD9237982
_publ_section_title
;
Structure prediction by ZEFSAII (Michael W. Deem and Ramdas Pophale) SiO2 
 PCOD9237982
Probable space group: P 2/C
;
_chemical_formula_sum "Si O2"
_cell_formula_units_Z 20
_cell_length_a 8.065656
_cell_length_b 7.634481
_cell_length_c 24.619613
_cell_angle_alpha 90.000000
_cell_angle_beta 32.099039
_cell_angle_gamma 90.000000
_cell_volume 805.580997
_symmetry_space_group_name_H-M "P 2/C"
_symmetry_group_IT_number 13
_symmetry_cell_setting 'monoclinic'
loop_
_space_group_symop_operation_xyz
x,y,z
-x,y,1/2-z
-x,-y,-z
x,-y,1/2+z
loop_
_atom_site_type_symbol
_atom_site_label
_atom_site_fract_x
_atom_site_fract_y
_atom_site_fract_z
Si Si1 0.259020 0.114834 0.771728
Si Si2 0.328090 0.440986 0.677878
Si Si3 0.287274 0.754485 0.513955
Si Si4 0.637787 0.857825 0.514885
Si Si5 0.372939 0.763149 0.860326
O O1 0.500000 0.178420 0.750000
O O2 0.259687 0.254607 0.723981
O O3 0.931604 0.125614 0.893354
O O4 0.391101 0.923845 0.717448
O O5 0.554208 0.399923 0.564310
O O6 0.471098 0.573513 0.681945
O O7 0.000000 0.518259 0.750000
O O8 0.372584 0.755724 0.554294
O O9 0.927156 0.765841 0.595426
O O10 0.442522 0.939094 0.452592
O O11 0.727631 0.784928 0.548596
#
# Coordination Sequence:
#
# PCOD9237982 Si02
#       5
#     4   4   4   4   4
#     4  12  25  50  78 108 155 199 257 315 378 450
#     4  12  27  48  74 113 157 199 254 315 377 452
#     4  11  23  47  77 109 147 199 253 309 376 449
#     4  11  24  46  81 107 147 207 245 313 382 444
#     4  12  27  50  77 112 153 201 253 313 382 450
#
# _framework density 24.826802000000001
#
# number of rings (size 3 to 8) (size 9 to 14) (size 15 to 20)
#    0.000    0.400    6.000    2.400    0.000    5.600 
#    7.200    0.000    0.000    0.000    0.000    0.000 
#    0.000    0.000    0.000    0.000    0.000    0.000 
#
# Total GULP energy -111931.597440 kJ/mol
# GULP energy per Si atom -5596.579872 kJ/mol
# Density = 2.477029 g / cm^3
# Si number density = 24.826802 Si / 1000 Ang^3
#
#
#
# Elastic Constant Matrix: (Units=GPa)
#
#
# Indices 1 2 3 4 5 6 
#
# 1 187.3513 55.7463 65.1196 0.0000 -24.3610 0.0000
# 2 55.7463 105.6681 56.8200 0.0000 5.1062 0.0000
# 3 65.1196 56.8200 120.6952 0.0000 0.1109 0.0000
# 4 0.0000 0.0000 0.0000 49.9210 0.0000 0.9901
# 5 -24.3610 5.1062 0.1109 0.0000 22.9601 0.0000
# 6 0.0000 0.0000 0.0000 0.9901 0.0000 48.2237
#
#
#
# Elastic Compliance Matrix: (Units=1/GPa)
#
#
# Indices 1 2 3 4 5 6 
#
# 1 0.008748 -0.003425 -0.003117 0.000000 0.010058 0.000000
# 2 -0.003425 0.014194 -0.004828 0.000000 -0.006767 0.000000
# 3 -0.003117 -0.004828 0.012242 0.000000 -0.002292 0.000000
# 4 0.000000 0.000000 0.000000 0.020040 0.000000 -0.000411
# 5 0.010058 -0.006767 -0.002292 0.000000 0.055742 0.000000
# 6 0.000000 0.000000 0.000000 -0.000411 0.000000 0.020745
#
#
# Mechanical properties :
#
#
# Convention : Reuss Voigt Hill
#
# Bulk Modulus (GPa) = 80.35877 85.45405 82.90641
# Shear Modulus (GPa) = 31.52642 39.95620 35.74131
#
# Velocity S-wave (km/s) = 3.56737 4.01608 3.79836
# Velocity P-wave (km/s) = 7.02895 7.48332 7.25969
#
# Compressibility (1/GPa) = 0.01244419
#
# Stress axis : x y z
#
# Youngs Moduli (GPa) = 114.31353 70.45432 81.68819
#
# Poissons Ratio (x) = 0.24132 0.25458
# Poissons Ratio (y) = 0.39155 0.39436
# Poissons Ratio (z) = 0.35626 0.34013
#
# Static dielectric constant tensor:
#      x y z
#    x 1.931300 0.000000 -0.010090 
#    y 0.000000 1.979540 0.000000 
#    z -0.010090 0.000000 2.093400 
# 
# From -- ./inp_files/84934.got.cif
#   From: 2010.05.17/outbox.cif.g08.bks.cpg/sg13_43_cif.got.tgz:84934.got - 2010.06.03 16:44:36.
