data_PCOD9237043
_publ_section_title
;
Structure prediction by ZEFSAII (Michael W. Deem and Ramdas Pophale) SiO2 
 PCOD9237043
Probable space group: P 2/C
;
_chemical_formula_sum "Si O2"
_cell_formula_units_Z 18
_cell_length_a 16.960853
_cell_length_b 5.825745
_cell_length_c 9.304477
_cell_angle_alpha 90.000000
_cell_angle_beta 61.336944
_cell_angle_gamma 90.000000
_cell_volume 806.707865
_symmetry_space_group_name_H-M "P 2/C"
_symmetry_group_IT_number 13
_symmetry_cell_setting 'monoclinic'
loop_
_space_group_symop_operation_xyz
x,y,z
-x,y,1/2-z
-x,-y,-z
x,-y,1/2+z
loop_
_atom_site_type_symbol
_atom_site_label
_atom_site_fract_x
_atom_site_fract_y
_atom_site_fract_z
Si Si1 0.781145 0.230824 0.194789
Si Si2 0.426539 0.706787 0.563864
Si Si3 0.916593 0.830619 0.076331
Si Si4 0.122642 0.496837 0.637826
Si Si5 0.500000 0.966599 0.250000
O O1 0.678362 0.305988 0.308964
O O2 0.831309 0.334360 0.288790
O O3 0.821441 0.970501 0.149653
O O4 0.810714 0.353850 0.022512
O O5 0.500000 0.500000 0.500000
O O6 0.431558 0.808990 0.398288
O O7 0.459072 0.878321 0.660884
O O8 0.921365 0.690594 0.219786
O O9 0.927098 0.656445 0.934267
O O10 0.000000 0.000000 0.000000
#
# Coordination Sequence:
#
# PCOD9237043 Si02
#       5
#     4   4   4   4   2
#     4  11  26  43  76 103 149 193 249 308 379 445
#     4  11  26  45  72 106 146 195 248 316 369 450
#     4  11  26  49  75 111 151 194 249 310 379 455
#     4  10  26  45  73 110 142 196 243 312 370 451
#     4  10  26  42  72 104 142 190 246 302 384 432
#
# _framework density 22.312909999999999
#
# number of rings (size 3 to 8) (size 9 to 14) (size 15 to 20)
#    0.000    1.333    0.000    2.000   12.444   12.444 
#    0.000    3.333    0.000    0.000    0.000    0.000 
#    0.000    0.000    0.000    0.000    0.000    0.000 
#
# Total GULP energy -100517.212400 kJ/mol
# GULP energy per Si atom -5584.289578 kJ/mol
# Density = 2.226213 g / cm^3
# Si number density = 22.312910 Si / 1000 Ang^3
#
#
#
# Elastic Constant Matrix: (Units=GPa)
#
#
# Indices 1 2 3 4 5 6 
#
# 1 76.1105 42.2953 73.5674 0.0000 -25.4065 0.0000
# 2 42.2953 122.6335 92.6176 0.0000 -17.7363 0.0000
# 3 73.5674 92.6176 227.9650 0.0000 10.4675 0.0000
# 4 0.0000 0.0000 0.0000 19.2945 0.0000 -3.9812
# 5 -25.4065 -17.7363 10.4675 0.0000 36.6861 0.0000
# 6 0.0000 0.0000 0.0000 -3.9812 0.0000 14.4710
#
#
#
# Elastic Compliance Matrix: (Units=1/GPa)
#
#
# Indices 1 2 3 4 5 6 
#
# 1 0.034335 0.002432 -0.013390 0.000000 0.028774 0.000000
# 2 0.002432 0.014129 -0.007008 0.000000 0.010515 0.000000
# 3 -0.013390 -0.007008 0.012297 0.000000 -0.016170 0.000000
# 4 0.000000 0.000000 0.000000 0.054947 0.000000 0.015117
# 5 0.028774 0.010515 -0.016170 0.000000 0.056882 0.000000
# 6 0.000000 0.000000 0.000000 0.015117 0.000000 0.073262
#
#
# Mechanical properties :
#
#
# Convention : Reuss Voigt Hill
#
# Bulk Modulus (GPa) = 40.27388 93.74107 67.00748
# Shear Modulus (GPa) = 17.23778 28.63892 22.93835
#
# Velocity S-wave (km/s) = 2.78249 3.58650 3.20977
# Velocity P-wave (km/s) = 5.33027 7.69766 6.62064
#
# Compressibility (1/GPa) = 0.02482999
#
# Stress axis : x y z
#
# Youngs Moduli (GPa) = 29.12520 70.77634 81.31843
#
# Poissons Ratio (x) = -0.17214 1.08882
# Poissons Ratio (y) = -0.07084 0.56988
# Poissons Ratio (z) = 0.38997 0.49600
#
# Static dielectric constant tensor:
#      x y z
#    x 1.859790 0.000000 -0.068620 
#    y 0.000000 1.880690 0.000000 
#    z -0.068620 0.000000 1.780530 
# 
# From -- ./inp_files/20431.got.cif
#   From: 2010.05.17/outbox.cif.g08.bks.cpg/sg13_11_cif.got.tgz:20431.got - 2010.06.03 16:44:36.
