data_PCOD9237127
_publ_section_title
;
Structure prediction by ZEFSAII (Michael W. Deem and Ramdas Pophale) SiO2 
 PCOD9237127
Probable space group: P 2/C
;
_chemical_formula_sum "Si O2"
_cell_formula_units_Z 14
_cell_length_a 19.557842
_cell_length_b 4.607836
_cell_length_c 8.389041
_cell_angle_alpha 90.000000
_cell_angle_beta 41.838620
_cell_angle_gamma 90.000000
_cell_volume 504.288145
_symmetry_space_group_name_H-M "P 2/C"
_symmetry_group_IT_number 13
_symmetry_cell_setting 'monoclinic'
loop_
_space_group_symop_operation_xyz
x,y,z
-x,y,1/2-z
-x,-y,-z
x,-y,1/2+z
loop_
_atom_site_type_symbol
_atom_site_label
_atom_site_fract_x
_atom_site_fract_y
_atom_site_fract_z
Si Si1 0.925875 0.838774 0.006564
Si Si2 0.638701 0.259381 0.779683
Si Si3 0.788409 0.768067 0.514610
Si Si4 0.500000 0.878306 0.250000
O O1 0.853620 0.656360 0.249764
O O2 0.859745 0.072828 0.020837
O O3 0.000000 0.681739 0.750000
O O4 0.000000 0.000000 0.000000
O O5 0.708868 0.525983 0.711170
O O6 0.718501 0.027445 0.570822
O O7 0.558233 0.316570 0.778634
O O8 0.578134 0.086931 0.020810
#
# Coordination Sequence:
#
# PCOD9237127 Si02
#       4
#     4   4   4   2
#     4   9  21  46  73 107 147 190 240 302 371 444
#     4  11  26  46  73 106 145 193 247 306 371 441
#     4  11  24  45  73 106 145 192 245 301 369 445
#     4  10  26  48  74 108 150 196 250 312 376 442
#
# _framework density 27.761906
#
# number of rings (size 3 to 8) (size 9 to 14) (size 15 to 20)
#    0.000    1.714    0.000    1.714    0.000   16.000 
#    0.000   37.143    0.000    0.000    0.000    0.000 
#    0.000    0.000    0.000    0.000    0.000    0.000 
#
# Total GULP energy -78555.887082 kJ/mol
# GULP energy per Si atom -5611.134792 kJ/mol
# Density = 2.769872 g / cm^3
# Si number density = 27.761906 Si / 1000 Ang^3
#
#
#
# Elastic Constant Matrix: (Units=GPa)
#
#
# Indices 1 2 3 4 5 6 
#
# 1 221.6280 21.3768 36.9567 0.0000 -8.5633 0.0000
# 2 21.3768 70.9162 34.4716 0.0000 -16.6552 0.0000
# 3 36.9567 34.4716 209.1945 0.0000 11.5022 0.0000
# 4 0.0000 0.0000 0.0000 11.2858 0.0000 -6.5167
# 5 -8.5633 -16.6552 11.5022 0.0000 33.0337 0.0000
# 6 0.0000 0.0000 0.0000 -6.5167 0.0000 39.2620
#
#
#
# Elastic Compliance Matrix: (Units=1/GPa)
#
#
# Indices 1 2 3 4 5 6 
#
# 1 0.004760 -0.000804 -0.000769 0.000000 0.001096 0.000000
# 2 -0.000804 0.018446 -0.003464 0.000000 0.010298 0.000000
# 3 -0.000769 -0.003464 0.005703 0.000000 -0.003931 0.000000
# 4 0.000000 0.000000 0.000000 0.098000 0.000000 0.016266
# 5 0.001096 0.010298 -0.003931 0.000000 0.037117 0.000000
# 6 0.000000 0.000000 0.000000 0.016266 0.000000 0.028170
#
#
# Mechanical properties :
#
#
# Convention : Reuss Voigt Hill
#
# Bulk Modulus (GPa) = 53.08891 76.37210 64.73051
# Shear Modulus (GPa) = 23.97545 43.97853 33.97699
#
# Velocity S-wave (km/s) = 2.94191 3.98443 3.50218
# Velocity P-wave (km/s) = 5.54114 6.98119 6.30243
#
# Compressibility (1/GPa) = 0.01883632
#
# Stress axis : x y z
#
# Youngs Moduli (GPa) = 210.07767 54.21346 175.34678
#
# Poissons Ratio (x) = 0.04357 0.13481
# Poissons Ratio (y) = 0.16883 0.60736
# Poissons Ratio (z) = 0.16151 0.18778
#
# Static dielectric constant tensor:
#      x y z
#    x 2.083600 0.000000 -0.050090 
#    y 0.000000 2.110460 0.000000 
#    z -0.050090 0.000000 2.163830 
# 
# From -- ./inp_files/22094.got.cif
#   From: 2010.05.17/outbox.cif.g08.bks.cpg/sg13_12_cif.got.tgz:22094.got - 2010.06.03 16:44:36.
