data_PCOD9237192
_publ_section_title
;
Structure prediction by ZEFSAII (Michael W. Deem and Ramdas Pophale) SiO2 
 PCOD9237192
Probable space group: P 2/C
;
_chemical_formula_sum "Si O2"
_cell_formula_units_Z 28
_cell_length_a 12.042319
_cell_length_b 5.866888
_cell_length_c 20.496478
_cell_angle_alpha 90.000000
_cell_angle_beta 121.285149
_cell_angle_gamma 90.000000
_cell_volume 1237.532835
_symmetry_space_group_name_H-M "P 2/C"
_symmetry_group_IT_number 13
_symmetry_cell_setting 'monoclinic'
loop_
_space_group_symop_operation_xyz
x,y,z
-x,y,1/2-z
-x,-y,-z
x,-y,1/2+z
loop_
_atom_site_type_symbol
_atom_site_label
_atom_site_fract_x
_atom_site_fract_y
_atom_site_fract_z
Si Si1 0.136591 0.311714 0.586851
Si Si2 0.500000 0.574408 0.250000
Si Si3 0.000000 0.244744 0.750000
Si Si4 0.525871 0.946675 0.362711
Si Si5 0.286858 0.287020 0.159092
Si Si6 0.765777 0.108546 0.012440
Si Si7 0.223229 0.958323 0.237497
Si Si8 0.875115 0.607025 0.081497
O O1 0.210906 0.542588 0.590120
O O2 0.992033 0.370165 0.564681
O O3 0.161330 0.132075 0.536567
O O4 0.207088 0.231531 0.675603
O O5 0.543495 0.726174 0.322931
O O6 0.384030 0.417723 0.236554
O O7 0.883025 0.090960 0.741518
O O8 0.942831 0.388924 0.673124
O O9 0.196245 0.358193 0.445624
O O10 0.609537 0.902645 0.452960
O O11 0.369633 0.979160 0.311146
O O12 0.387326 0.135474 0.148406
O O13 0.190782 0.169213 0.180263
O O14 0.804716 0.859661 0.053961
#
# Coordination Sequence:
#
# PCOD9237192 Si02
#       8
#     4   2   2   4   4   4   4   4
#     4  11  23  38  67 104 143 175 225 281 360 409
#     4  12  18  34  58 104 148 176 210 278 348 436
#     4  10  28  54  70  88 136 186 258 280 322 418
#     4  12  21  36  64 108 144 168 224 282 363 418
#     4  12  19  34  66 104 142 174 221 284 347 411
#     4  12  24  42  69 105 143 177 219 294 361 418
#     4  11  22  42  67 103 134 190 231 279 338 404
#     4  11  28  47  68  96 137 191 237 280 344 410
#
# _framework density 22.625661000000001
#
# number of rings (size 3 to 8) (size 9 to 14) (size 15 to 20)
#    0.000    0.571    7.143    1.714    4.000    0.571 
#    2.571    1.429    0.000    0.000    0.000    0.000 
#    0.000    0.000    0.000    0.000    0.000    0.000 
#
# Total GULP energy -155946.595851 kJ/mol
# GULP energy per Si atom -5569.521280 kJ/mol
# Density = 2.257416 g / cm^3
# Si number density = 22.625661 Si / 1000 Ang^3
#
#
#
# Elastic Constant Matrix: (Units=GPa)
#
#
# Indices 1 2 3 4 5 6 
#
# 1 71.6692 25.5414 32.9250 0.0000 5.3933 0.0000
# 2 25.5414 126.4110 56.6227 0.0000 20.3081 0.0000
# 3 32.9250 56.6227 130.4084 0.0000 24.2508 0.0000
# 4 0.0000 0.0000 0.0000 9.3820 0.0000 12.4539
# 5 5.3933 20.3081 24.2508 0.0000 31.8581 0.0000
# 6 0.0000 0.0000 0.0000 12.4539 0.0000 12.9076
#
#
#
# Elastic Compliance Matrix: (Units=1/GPa)
#
#
# Indices 1 2 3 4 5 6 
#
# 1 0.016131 -0.001888 -0.003459 0.000000 0.001105 0.000000
# 2 -0.001888 0.010391 -0.003335 0.000000 -0.003766 0.000000
# 3 -0.003459 -0.003335 0.011049 0.000000 -0.005700 0.000000
# 4 0.000000 0.000000 0.000000 -0.379615 0.000000 0.366273
# 5 0.001105 -0.003766 -0.005700 0.000000 0.037941 0.000000
# 6 0.000000 0.000000 0.000000 0.366273 0.000000 -0.275925
#
#
# Mechanical properties :
#
#
# Convention : Reuss Voigt Hill
#
# Bulk Modulus (GPa) = 49.48234 62.07409 55.77822
# Shear Modulus (GPa) = -8.99396 25.05617 8.03111
#
# Velocity S-wave (km/s) = -1.99593 3.33141 1.88607
# Velocity P-wave (km/s) = 4.07503 6.50327 5.42671
#
# Compressibility (1/GPa) = 0.02020923
#
# Stress axis : x y z
#
# Youngs Moduli (GPa) = 61.99053 96.23900 90.50357
#
# Poissons Ratio (x) = 0.18167 0.31303
# Poissons Ratio (y) = 0.11702 0.30181
# Poissons Ratio (z) = 0.21441 0.32094
#
# Static dielectric constant tensor:
#      x y z
#    x 1.828830 0.000000 0.030800 
#    y 0.000000 1.969040 0.000000 
#    z 0.030800 0.000000 1.949710 
# 
# From -- ./inp_files/77629.got.cif
#   From: 2010.05.17/outbox.cif.g08.bks.cpg/sg13_39_cif.got.tgz:77629.got - 2010.06.03 16:44:36.
