data_PCOD9237555
_publ_section_title
;
Structure prediction by ZEFSAII (Michael W. Deem and Ramdas Pophale) SiO2 
 PCOD9237555
Probable space group: P 2/C
;
_chemical_formula_sum "Si O2"
_cell_formula_units_Z 16
_cell_length_a 9.018086
_cell_length_b 8.335305
_cell_length_c 14.681361
_cell_angle_alpha 90.000000
_cell_angle_beta 31.553544
_cell_angle_gamma 90.000000
_cell_volume 577.495882
_symmetry_space_group_name_H-M "P 2/C"
_symmetry_group_IT_number 13
_symmetry_cell_setting 'monoclinic'
loop_
_space_group_symop_operation_xyz
x,y,z
-x,y,1/2-z
-x,-y,-z
x,-y,1/2+z
loop_
_atom_site_type_symbol
_atom_site_label
_atom_site_fract_x
_atom_site_fract_y
_atom_site_fract_z
Si Si1 0.521871 0.195864 0.127971
Si Si2 0.147250 0.505884 0.770025
Si Si3 0.988573 0.997740 0.616563
Si Si4 0.361014 0.697168 0.417717
O O1 0.500000 0.211227 0.250000
O O2 0.367914 0.347286 0.166492
O O3 0.333131 0.043734 0.195042
O O4 0.845320 0.153892 0.937219
O O5 0.363505 0.360598 0.672435
O O6 0.000000 0.502767 0.750000
O O7 0.870714 0.553248 0.976272
O O8 0.169944 0.842625 0.552925
O O9 0.000000 0.000000 0.500000
O O10 0.500000 0.746982 0.250000
#
# Coordination Sequence:
#
# PCOD9237555 Si02
#       4
#     4   4   4   4
#     4   9  18  35  58  84 113 149 191 236 282 338
#     4  11  24  40  56  85 123 154 187 237 290 340
#     4   9  18  34  58  88 113 141 190 245 283 327
#     4  11  22  39  63  87 112 152 198 238 281 339
#
# _framework density 27.705825999999998
#
# number of rings (size 3 to 8) (size 9 to 14) (size 15 to 20)
#    0.000    2.000    0.000    4.500    0.000    6.000 
#    0.000    6.250    0.000    0.000    0.000    0.000 
#    0.000    0.000    0.000    0.000    0.000    0.000 
#
# Total GULP energy -89563.278914 kJ/mol
# GULP energy per Si atom -5597.704932 kJ/mol
# Density = 2.764277 g / cm^3
# Si number density = 27.705826 Si / 1000 Ang^3
#
#
#
# Elastic Constant Matrix: (Units=GPa)
#
#
# Indices 1 2 3 4 5 6 
#
# 1 138.0758 64.6503 44.1731 0.0000 -56.5702 0.0000
# 2 64.6503 80.3308 49.0526 0.0000 -46.7816 0.0000
# 3 44.1731 49.0526 142.0441 0.0000 -48.6275 0.0000
# 4 0.0000 0.0000 0.0000 -8.9792 0.0000 -70.0785
# 5 -56.5702 -46.7816 -48.6275 0.0000 61.5206 0.0000
# 6 0.0000 0.0000 0.0000 -70.0785 0.0000 31.5525
#
#
#
# Elastic Compliance Matrix: (Units=1/GPa)
#
#
# Indices 1 2 3 4 5 6 
#
# 1 0.013299 -0.006656 0.000845 0.000000 0.007835 0.000000
# 2 -0.006656 0.026399 -0.003112 0.000000 0.011495 0.000000
# 3 0.000845 -0.003112 0.010019 0.000000 0.006330 0.000000
# 4 0.000000 0.000000 0.000000 -0.006074 0.000000 -0.013491
# 5 0.007835 0.011495 0.006330 0.000000 0.037204 0.000000
# 6 0.000000 0.000000 0.000000 -0.013491 0.000000 0.001729
#
#
# Mechanical properties :
#
#
# Convention : Reuss Voigt Hill
#
# Bulk Modulus (GPa) = 31.37503 75.13363 53.25433
# Shear Modulus (GPa) = 45.02735 30.32377 37.67556
#
# Velocity S-wave (km/s) = 4.03574 3.31190 3.69160
# Velocity P-wave (km/s) = 5.75024 6.46546 6.11831
#
# Compressibility (1/GPa) = 0.03187248
#
# Stress axis : x y z
#
# Youngs Moduli (GPa) = 75.19615 37.87970 99.81179
#
# Poissons Ratio (x) = 0.25212 -0.08436
# Poissons Ratio (y) = 0.50049 0.31057
# Poissons Ratio (z) = -0.06356 0.11786
#
# Static dielectric constant tensor:
#      x y z
#    x 2.144820 0.000000 0.069590 
#    y 0.000000 2.265480 0.000000 
#    z 0.069590 0.000000 2.098050 
# 
# From -- ./inp_files/11497.got.cif
#   From: 2010.05.17/outbox.cif.g08.bks.cpg/sg13_6_cif.got.tgz:11497.got - 2010.06.03 16:44:36.
