data_PCOD9237033
_publ_section_title
;
Structure prediction by ZEFSAII (Michael W. Deem and Ramdas Pophale) SiO2 
 PCOD9237033
Probable space group: P 2/C
;
_chemical_formula_sum "Si O2"
_cell_formula_units_Z 20
_cell_length_a 14.082576
_cell_length_b 4.799803
_cell_length_c 17.238758
_cell_angle_alpha 90.000000
_cell_angle_beta 38.356688
_cell_angle_gamma 90.000000
_cell_volume 723.089233
_symmetry_space_group_name_H-M "P 2/C"
_symmetry_group_IT_number 13
_symmetry_cell_setting 'monoclinic'
loop_
_space_group_symop_operation_xyz
x,y,z
-x,y,1/2-z
-x,-y,-z
x,-y,1/2+z
loop_
_atom_site_type_symbol
_atom_site_label
_atom_site_fract_x
_atom_site_fract_y
_atom_site_fract_z
Si Si1 0.903895 0.172800 0.626152
Si Si2 0.651361 0.911758 0.102858
Si Si3 0.578046 0.516944 0.031738
Si Si4 0.290001 0.709828 0.794961
Si Si5 0.106689 0.494369 0.114776
O O1 0.180561 0.553377 0.352761
O O2 0.003382 0.288139 0.633521
O O3 0.770257 0.947612 0.725387
O O4 0.000000 0.000000 0.500000
O O5 0.500000 0.821751 0.250000
O O6 0.596256 0.833387 0.051248
O O7 0.703383 0.172265 0.121785
O O8 0.807817 0.725301 0.996250
O O9 0.461521 0.370153 0.164558
O O10 0.500000 0.500000 0.000000
O O11 0.253742 0.614782 0.066849
O O12 0.000000 0.362694 0.250000
#
# Coordination Sequence:
#
# PCOD9237033 Si02
#       5
#     4   4   4   4   4
#     4  12  30  51  88 134 181 236 307 382 471 549
#     4  10  26  49  92 134 177 235 317 375 458 553
#     4  10  25  54  94 127 181 243 308 378 465 553
#     4  12  28  53  87 133 177 240 312 385 454 566
#     4  10  26  55  90 134 186 236 303 390 476 549
#
# _framework density 27.659102000000001
#
# number of rings (size 3 to 8) (size 9 to 14) (size 15 to 20)
#    1.200    0.000    0.000    3.000    8.400    5.600 
#    0.000   14.000    0.000    1.200    0.000    1.400 
#    0.000    0.000    0.000    0.000    0.000    0.000 
#
# Total GULP energy -111815.155853 kJ/mol
# GULP energy per Si atom -5590.757793 kJ/mol
# Density = 2.759615 g / cm^3
# Si number density = 27.659102 Si / 1000 Ang^3
#
#
#
# Elastic Constant Matrix: (Units=GPa)
#
#
# Indices 1 2 3 4 5 6 
#
# 1 239.6146 75.4201 76.9845 0.0000 2.2694 0.0000
# 2 75.4201 186.7346 55.4262 0.0000 -3.2747 0.0000
# 3 76.9845 55.4262 122.4771 0.0000 -17.9906 0.0000
# 4 0.0000 0.0000 0.0000 31.0431 0.0000 -17.9044
# 5 2.2694 -3.2747 -17.9906 0.0000 65.0357 0.0000
# 6 0.0000 0.0000 0.0000 -17.9044 0.0000 48.8478
#
#
#
# Elastic Compliance Matrix: (Units=1/GPa)
#
#
# Indices 1 2 3 4 5 6 
#
# 1 0.005600 -0.001372 -0.003062 0.000000 -0.001112 0.000000
# 2 -0.001372 0.006537 -0.002127 0.000000 -0.000211 0.000000
# 3 -0.003062 -0.002127 0.011520 0.000000 0.003186 0.000000
# 4 0.000000 0.000000 0.000000 0.040849 0.000000 0.014973
# 5 -0.001112 -0.000211 0.003186 0.000000 0.016286 0.000000
# 6 0.000000 0.000000 0.000000 0.014973 0.000000 0.025960
#
#
# Mechanical properties :
#
#
# Convention : Reuss Voigt Hill
#
# Bulk Modulus (GPa) = 94.92558 107.16533 101.04545
# Shear Modulus (GPa) = 40.52382 51.71837 46.12109
#
# Velocity S-wave (km/s) = 3.83184 4.32887 4.08791
# Velocity P-wave (km/s) = 7.34654 7.98841 7.67419
#
# Compressibility (1/GPa) = 0.01053457
#
# Stress axis : x y z
#
# Youngs Moduli (GPa) = 178.58486 152.97568 86.80616
#
# Poissons Ratio (x) = 0.20992 0.26580
# Poissons Ratio (y) = 0.24506 0.18462
# Poissons Ratio (z) = 0.54682 0.32534
#
# Static dielectric constant tensor:
#      x y z
#    x 2.332810 0.000000 -0.060580 
#    y 0.000000 2.347460 0.000000 
#    z -0.060580 0.000000 2.208650 
# 
# From -- ./inp_files/48989.got.cif
#   From: 2010.05.17/outbox.cif.g08.bks.cpg/sg13_25_cif.got.tgz:48989.got - 2010.06.03 16:44:36.
