data_PCOD9237401
_publ_section_title
;
Structure prediction by ZEFSAII (Michael W. Deem and Ramdas Pophale) SiO2 
 PCOD9237401
Probable space group: P 2/C
;
_chemical_formula_sum "Si O2"
_cell_formula_units_Z 20
_cell_length_a 9.870983
_cell_length_b 12.902657
_cell_length_c 10.528310
_cell_angle_alpha 90.000000
_cell_angle_beta 135.361295
_cell_angle_gamma 90.000000
_cell_volume 942.165749
_symmetry_space_group_name_H-M "P 2/C"
_symmetry_group_IT_number 13
_symmetry_cell_setting 'monoclinic'
loop_
_space_group_symop_operation_xyz
x,y,z
-x,y,1/2-z
-x,-y,-z
x,-y,1/2+z
loop_
_atom_site_type_symbol
_atom_site_label
_atom_site_fract_x
_atom_site_fract_y
_atom_site_fract_z
Si Si1 0.267168 0.804953 0.579105
Si Si2 0.304410 0.434602 0.384771
Si Si3 0.735588 0.575447 0.921290
Si Si4 0.632627 0.009853 0.963350
Si Si5 0.196373 0.784840 0.822095
O O1 0.500000 0.800122 0.750000
O O2 0.207135 0.690621 0.493941
O O3 0.184335 0.816970 0.666200
O O4 0.240347 0.906131 0.474571
O O5 0.500000 0.500000 0.500000
O O6 0.209961 0.487227 0.443765
O O7 0.196469 0.440741 0.177848
O O8 0.342584 0.312024 0.428403
O O9 0.500000 0.575348 0.750000
O O10 0.500000 0.020002 0.750000
O O11 0.749370 0.114590 0.061893
O O12 0.500000 0.000000 0.000000
O O13 0.000000 0.742492 0.750000
#
# Coordination Sequence:
#
# PCOD9237401 Si02
#       5
#     4   4   4   4   4
#     4   9  17  36  58  80 122 165 200 238 314 360
#     4   9  18  33  56  84 114 158 201 242 296 367
#     4   8  15  29  53  78 107 145 191 243 286 343
#     4  11  21  38  64  92 118 161 219 248 293 381
#     4  11  23  39  60  93 130 160 199 264 320 354
#
# _framework density 21.227689000000002
#
# number of rings (size 3 to 8) (size 9 to 14) (size 15 to 20)
#    0.000    2.400    4.000    1.200    0.000    3.200 
#    0.000    4.000    0.000    1.200    0.000    0.000 
#    0.000    0.000    0.000    0.000    0.000    0.000 
#
# Total GULP energy -111477.267989 kJ/mol
# GULP energy per Si atom -5573.863399 kJ/mol
# Density = 2.117937 g / cm^3
# Si number density = 21.227689 Si / 1000 Ang^3
#
#
#
# Elastic Constant Matrix: (Units=GPa)
#
#
# Indices 1 2 3 4 5 6 
#
# 1 108.2641 32.9834 21.4830 0.0000 -28.3502 0.0000
# 2 32.9834 193.8479 41.0724 0.0000 -36.6803 0.0000
# 3 21.4830 41.0724 35.0879 0.0000 -15.3723 0.0000
# 4 0.0000 0.0000 0.0000 15.9474 0.0000 -18.9553
# 5 -28.3502 -36.6803 -15.3723 0.0000 38.2061 0.0000
# 6 0.0000 0.0000 0.0000 -18.9553 0.0000 28.4479
#
#
#
# Elastic Compliance Matrix: (Units=1/GPa)
#
#
# Indices 1 2 3 4 5 6 
#
# 1 0.011958 0.000303 -0.004444 0.000000 0.007375 0.000000
# 2 0.000303 0.007433 -0.006873 0.000000 0.004595 0.000000
# 3 -0.004444 -0.006873 0.042405 0.000000 0.007166 0.000000
# 4 0.000000 0.000000 0.000000 0.301454 0.000000 0.200863
# 5 0.007375 0.004595 0.007166 0.000000 0.038942 0.000000
# 6 0.000000 0.000000 0.000000 0.200863 0.000000 0.168990
#
#
# Mechanical properties :
#
#
# Convention : Reuss Voigt Hill
#
# Bulk Modulus (GPa) = 25.14640 58.69750 41.92195
# Shear Modulus (GPa) = 8.24450 32.63104 20.43777
#
# Velocity S-wave (km/s) = 1.97288 3.92496 3.10625
# Velocity P-wave (km/s) = 4.13055 6.94635 5.71460
#
# Compressibility (1/GPa) = 0.03976712
#
# Stress axis : x y z
#
# Youngs Moduli (GPa) = 83.62821 134.53662 23.58207
#
# Poissons Ratio (x) = -0.04071 0.10481
# Poissons Ratio (y) = -0.02531 0.16207
# Poissons Ratio (z) = 0.37167 0.92462
#
# Static dielectric constant tensor:
#      x y z
#    x 1.854110 0.000000 -0.040340 
#    y 0.000000 1.814000 0.000000 
#    z -0.040340 0.000000 1.836770 
# 
# From -- ./inp_files/29135.got.cif
#   From: 2010.05.17/outbox.cif.g08.bks.cpg/sg13_15_cif.got.tgz:29135.got - 2010.06.03 16:44:36.
