data_PCOD9237926
_publ_section_title
;
Structure prediction by ZEFSAII (Michael W. Deem and Ramdas Pophale) SiO2 
 PCOD9237926
Probable space group: P 2/C
;
_chemical_formula_sum "Si O2"
_cell_formula_units_Z 16
_cell_length_a 4.857306
_cell_length_b 9.504913
_cell_length_c 14.842733
_cell_angle_alpha 90.000000
_cell_angle_beta 110.003632
_cell_angle_gamma 90.000000
_cell_volume 643.922026
_symmetry_space_group_name_H-M "P 2/C"
_symmetry_group_IT_number 13
_symmetry_cell_setting 'monoclinic'
loop_
_space_group_symop_operation_xyz
x,y,z
-x,y,1/2-z
-x,-y,-z
x,-y,1/2+z
loop_
_atom_site_type_symbol
_atom_site_label
_atom_site_fract_x
_atom_site_fract_y
_atom_site_fract_z
Si Si1 0.746219 0.711600 0.432025
Si Si2 0.160635 0.119027 0.865198
Si Si3 0.330334 0.570337 0.569000
Si Si4 0.321493 0.831175 0.817366
O O1 0.424352 0.773086 0.414756
O O2 0.694342 0.566997 0.370040
O O3 0.907278 0.843136 0.405719
O O4 0.009945 0.643686 0.522386
O O5 0.000000 0.136410 0.750000
O O6 0.281307 0.960880 0.880799
O O7 0.500000 0.500000 0.500000
O O8 0.526184 0.695507 0.626387
O O9 0.500000 0.883208 0.750000
O O10 0.000000 0.790937 0.750000
#
# Coordination Sequence:
#
# PCOD9237926 Si02
#       4
#     4   4   4   4
#     4  11  24  43  71  98 139 182 229 295 337 424
#     4  11  23  45  68 103 137 181 236 289 346 413
#     4  11  26  48  67 107 142 185 237 286 353 426
#     4  11  27  46  73 101 142 186 236 294 355 423
#
# _framework density 24.847726000000002
#
# number of rings (size 3 to 8) (size 9 to 14) (size 15 to 20)
#    0.000    1.000    2.500    3.750    7.000    5.000 
#    0.000    0.000    0.000    0.000    0.000    0.000 
#    0.000    0.000    0.000    0.000    0.000    0.000 
#
# Total GULP energy -89287.013659 kJ/mol
# GULP energy per Si atom -5580.438354 kJ/mol
# Density = 2.479117 g / cm^3
# Si number density = 24.847726 Si / 1000 Ang^3
#
#
#
# Elastic Constant Matrix: (Units=GPa)
#
#
# Indices 1 2 3 4 5 6 
#
# 1 135.3100 11.9424 26.7995 0.0000 33.5509 0.0000
# 2 11.9424 180.5625 39.4257 0.0000 28.0901 0.0000
# 3 26.7995 39.4257 54.2716 0.0000 32.3955 0.0000
# 4 0.0000 0.0000 0.0000 -20.8185 0.0000 11.7867
# 5 33.5509 28.0901 32.3955 0.0000 49.3658 0.0000
# 6 0.0000 0.0000 0.0000 11.7867 0.0000 41.9949
#
#
#
# Elastic Compliance Matrix: (Units=1/GPa)
#
#
# Indices 1 2 3 4 5 6 
#
# 1 0.008999 0.000606 -0.001689 0.000000 -0.005352 0.000000
# 2 0.000606 0.006653 -0.004319 0.000000 -0.001364 0.000000
# 3 -0.001689 -0.004319 0.033282 0.000000 -0.018236 0.000000
# 4 0.000000 0.000000 0.000000 -0.041448 0.000000 0.011633
# 5 -0.005352 -0.001364 -0.018236 0.000000 0.036638 0.000000
# 6 0.000000 0.000000 0.000000 0.011633 0.000000 0.020547
#
#
# Mechanical properties :
#
#
# Convention : Reuss Voigt Hill
#
# Bulk Modulus (GPa) = 26.22501 58.49773 42.36137
# Shear Modulus (GPa) = 56.69937 33.57354 45.13646
#
# Velocity S-wave (km/s) = 4.78208 3.67982 4.26669
# Velocity P-wave (km/s) = 6.40845 6.45355 6.43104
#
# Compressibility (1/GPa) = 0.03813155
#
# Stress axis : x y z
#
# Youngs Moduli (GPa) = 111.12820 150.30172 30.04602
#
# Poissons Ratio (x) = -0.09113 0.05075
# Poissons Ratio (y) = -0.06738 0.12975
# Poissons Ratio (z) = 0.18771 0.64908
#
# Static dielectric constant tensor:
#      x y z
#    x 2.055850 0.000000 -0.077790 
#    y 0.000000 2.026670 0.000000 
#    z -0.077790 0.000000 2.068500 
# 
# From -- ./inp_files/60465.got.cif
#   From: 2010.05.17/outbox.cif.g08.bks.cpg/sg13_31_cif.got.tgz:60465.got - 2010.06.03 16:44:36.
