data_PCOD9237752
_publ_section_title
;
Structure prediction by ZEFSAII (Michael W. Deem and Ramdas Pophale) SiO2 
 PCOD9237752
Probable space group: P 2/C
;
_chemical_formula_sum "Si O2"
_cell_formula_units_Z 24
_cell_length_a 8.383812
_cell_length_b 9.944247
_cell_length_c 13.630941
_cell_angle_alpha 90.000000
_cell_angle_beta 91.319153
_cell_angle_gamma 90.000000
_cell_volume 1136.119870
_symmetry_space_group_name_H-M "P 2/C"
_symmetry_group_IT_number 13
_symmetry_cell_setting 'monoclinic'
loop_
_space_group_symop_operation_xyz
x,y,z
-x,y,1/2-z
-x,-y,-z
x,-y,1/2+z
loop_
_atom_site_type_symbol
_atom_site_label
_atom_site_fract_x
_atom_site_fract_y
_atom_site_fract_z
Si Si1 0.169984 0.389314 0.094089
Si Si2 0.664835 0.106333 0.900065
Si Si3 0.186412 0.339244 0.482440
Si Si4 0.679412 0.842334 0.027174
Si Si5 0.677953 0.277555 0.211083
Si Si6 0.179425 0.978647 0.291563
O O1 0.219181 0.354655 0.205352
O O2 0.986096 0.352118 0.070752
O O3 0.198778 0.541967 0.061654
O O4 0.270680 0.294432 0.022888
O O5 0.489476 0.163279 0.919768
O O6 0.716071 0.097380 0.788789
O O7 0.786191 0.198873 0.962464
O O8 0.665422 0.955153 0.942482
O O9 0.311508 0.347887 0.394636
O O10 0.806475 0.898006 0.107185
O O11 0.500000 0.268137 0.250000
O O12 0.747726 0.127733 0.196265
O O13 0.000000 0.989164 0.250000
#
# Coordination Sequence:
#
# PCOD9237752 Si02
#       6
#     4   4   4   4   4   4
#     4  11  25  44  67  96 131 171 216 265 321 384
#     4  11  23  40  65  96 129 166 213 265 317 378
#     4  11  25  44  67  96 131 171 216 265 321 384
#     4  11  23  40  65  96 129 166 213 265 317 378
#     4  12  24  41  66  95 128 170 216 262 324 387
#     4  12  24  39  66  97 130 170 216 268 322 377
#
# _framework density 21.124531999999999
#
# number of rings (size 3 to 8) (size 9 to 14) (size 15 to 20)
#    0.000    0.667    3.333    5.000    0.000    5.333 
#    0.000    1.667    0.000    0.000    0.000    0.000 
#    0.000    0.000    0.000    0.000    0.000    0.000 
#
# Total GULP energy -134378.888338 kJ/mol
# GULP energy per Si atom -5599.120347 kJ/mol
# Density = 2.107645 g / cm^3
# Si number density = 21.124532 Si / 1000 Ang^3
#
#
#
# Elastic Constant Matrix: (Units=GPa)
#
#
# Indices 1 2 3 4 5 6 
#
# 1 56.9235 9.0163 -13.9011 0.0000 -8.5153 0.0000
# 2 9.0163 42.9777 2.2984 0.0000 -5.0777 0.0000
# 3 -13.9011 2.2984 75.2843 0.0000 3.4027 0.0000
# 4 0.0000 0.0000 0.0000 -13.6100 0.0000 -13.8261
# 5 -8.5153 -5.0777 3.4027 0.0000 30.3143 0.0000
# 6 0.0000 0.0000 0.0000 -13.8261 0.0000 16.7858
#
#
#
# Elastic Compliance Matrix: (Units=1/GPa)
#
#
# Indices 1 2 3 4 5 6 
#
# 1 0.019709 -0.003793 0.003552 0.000000 0.004502 0.000000
# 2 -0.003793 0.024530 -0.001595 0.000000 0.003222 0.000000
# 3 0.003552 -0.001595 0.014026 0.000000 -0.000844 0.000000
# 4 0.000000 0.000000 0.000000 -0.040003 0.000000 -0.032949
# 5 0.004502 0.003222 -0.000844 0.000000 0.034887 0.000000
# 6 0.000000 0.000000 0.000000 -0.032949 0.000000 0.032434
#
#
# Mechanical properties :
#
#
# Convention : Reuss Voigt Hill
#
# Bulk Modulus (GPa) = 18.31769 18.89029 18.60399
# Shear Modulus (GPa) = 46.53241 18.54950 32.54096
#
# Velocity S-wave (km/s) = 4.69846 2.96649 3.92909
# Velocity P-wave (km/s) = 6.17447 4.54920 5.42307
#
# Compressibility (1/GPa) = 0.05459203
#
# Stress axis : x y z
#
# Youngs Moduli (GPa) = 50.73826 40.76717 71.29821
#
# Poissons Ratio (x) = 0.15462 -0.25322
# Poissons Ratio (y) = 0.19244 0.11371
# Poissons Ratio (z) = -0.18020 0.06502
#
# Static dielectric constant tensor:
#      x y z
#    x 1.783590 0.000000 0.010430 
#    y 0.000000 1.707690 0.000000 
#    z 0.010430 0.000000 1.743230 
# 
# From -- ./inp_files/46103.got.cif
#   From: 2010.05.17/outbox.cif.g08.bks.cpg/sg13_24_cif.got.tgz:46103.got - 2010.06.03 16:44:36.
