data_PCOD9237704
_publ_section_title
;
Structure prediction by ZEFSAII (Michael W. Deem and Ramdas Pophale) SiO2 
 PCOD9237704
Probable space group: P 2/C
;
_chemical_formula_sum "Si O2"
_cell_formula_units_Z 32
_cell_length_a 13.106217
_cell_length_b 6.920314
_cell_length_c 16.774312
_cell_angle_alpha 90.000000
_cell_angle_beta 98.926625
_cell_angle_gamma 90.000000
_cell_volume 1502.988032
_symmetry_space_group_name_H-M "P 2/C"
_symmetry_group_IT_number 13
_symmetry_cell_setting 'monoclinic'
loop_
_space_group_symop_operation_xyz
x,y,z
-x,y,1/2-z
-x,-y,-z
x,-y,1/2+z
loop_
_atom_site_type_symbol
_atom_site_label
_atom_site_fract_x
_atom_site_fract_y
_atom_site_fract_z
Si Si1 0.749108 0.862005 0.963646
Si Si2 0.578905 0.466748 0.436671
Si Si3 0.224086 0.753795 0.291679
Si Si4 0.922199 0.511225 0.815617
Si Si5 0.273478 0.732032 0.970119
Si Si6 0.109470 0.408927 0.935490
Si Si7 0.382536 0.425882 0.322656
Si Si8 0.242068 0.848895 0.713628
O O1 0.652938 0.715378 0.962576
O O2 0.744482 0.932964 0.872633
O O3 0.852935 0.737697 0.991814
O O4 0.741667 0.042488 0.021029
O O5 0.500000 0.500000 0.500000
O O6 0.656143 0.647971 0.449402
O O7 0.504110 0.441057 0.352477
O O8 0.158877 0.658070 0.212191
O O9 0.162013 0.692518 0.363773
O O10 0.332000 0.638390 0.309132
O O11 0.231902 0.979580 0.275753
O O12 0.857133 0.708309 0.804040
O O13 0.000000 0.520814 0.750000
O O14 0.991737 0.455322 0.899941
O O15 0.167889 0.611381 0.955750
O O16 0.331453 0.671729 0.895770
O O17 0.337265 0.289825 0.248414
#
# Coordination Sequence:
#
# PCOD9237704 Si02
#       8
#     4   4   4   4   4   4   4   4
#     4  11  23  36  55  87 121 151 187 237 292 340
#     4   9  20  38  60  84 110 147 194 236 275 331
#     4   9  19  36  58  84 111 145 190 237 284 336
#     4   9  20  38  60  84 109 147 197 239 278 339
#     4   9  19  36  59  85 113 148 194 241 281 335
#     4   9  19  38  60  81 111 152 194 234 280 339
#     4   9  19  37  59  80 109 152 195 234 282 341
#     4  11  23  36  55  86 121 149 183 239 297 344
#
# _framework density 21.290921000000001
#
# number of rings (size 3 to 8) (size 9 to 14) (size 15 to 20)
#    0.000    2.500    0.000    2.250    0.000   10.500 
#    0.000    1.250    0.000    0.000    0.000    0.000 
#    0.000    0.000    0.000    0.000    0.000    0.000 
#
# Total GULP energy -178629.492533 kJ/mol
# GULP energy per Si atom -5582.171642 kJ/mol
# Density = 2.124246 g / cm^3
# Si number density = 21.290921 Si / 1000 Ang^3
#
#
#
# Elastic Constant Matrix: (Units=GPa)
#
#
# Indices 1 2 3 4 5 6 
#
# 1 74.0204 46.5350 40.7686 0.0000 28.6132 0.0000
# 2 46.5350 128.9597 32.3374 0.0000 21.1236 0.0000
# 3 40.7686 32.3374 92.0935 0.0000 32.4605 0.0000
# 4 0.0000 0.0000 0.0000 19.6966 0.0000 -3.0486
# 5 28.6132 21.1236 32.4605 0.0000 40.8857 0.0000
# 6 0.0000 0.0000 0.0000 -3.0486 0.0000 6.9846
#
#
#
# Elastic Compliance Matrix: (Units=1/GPa)
#
#
# Indices 1 2 3 4 5 6 
#
# 1 0.023549 -0.005664 -0.005080 0.000000 -0.009521 0.000000
# 2 -0.005664 0.010104 -0.000830 0.000000 -0.000597 0.000000
# 3 -0.005080 -0.000830 0.016655 0.000000 -0.009239 0.000000
# 4 0.000000 0.000000 0.000000 0.054448 0.000000 0.023765
# 5 -0.009521 -0.000597 -0.009239 0.000000 0.038765 0.000000
# 6 0.000000 0.000000 0.000000 0.023765 0.000000 0.153545
#
#
# Mechanical properties :
#
#
# Convention : Reuss Voigt Hill
#
# Bulk Modulus (GPa) = 36.81862 59.37285 48.09573
# Shear Modulus (GPa) = 15.18512 25.20889 20.19701
#
# Velocity S-wave (km/s) = 2.67352 3.44469 3.08331
# Velocity P-wave (km/s) = 5.18275 6.61575 5.94261
#
# Compressibility (1/GPa) = 0.02716017
#
# Stress axis : x y z
#
# Youngs Moduli (GPa) = 42.46431 98.96785 60.04040
#
# Poissons Ratio (x) = 0.56059 0.30501
# Poissons Ratio (y) = 0.24053 0.04983
# Poissons Ratio (z) = 0.21572 0.08213
#
# Static dielectric constant tensor:
#      x y z
#    x 1.743910 0.000000 -0.001330 
#    y 0.000000 1.711360 0.000000 
#    z -0.001330 0.000000 1.860010 
# 
# From -- ./inp_files/67598.got.cif
#   From: 2010.05.17/outbox.cif.g08.bks.cpg/sg13_34_cif.got.tgz:67598.got - 2010.06.03 16:44:36.
