data_PCOD9237364
_publ_section_title
;
Structure prediction by ZEFSAII (Michael W. Deem and Ramdas Pophale) SiO2 
 PCOD9237364
Probable space group: P 2/C
;
_chemical_formula_sum "Si O2"
_cell_formula_units_Z 32
_cell_length_a 7.900665
_cell_length_b 9.683088
_cell_length_c 16.238222
_cell_angle_alpha 90.000000
_cell_angle_beta 95.651871
_cell_angle_gamma 90.000000
_cell_volume 1236.230898
_symmetry_space_group_name_H-M "P 2/C"
_symmetry_group_IT_number 13
_symmetry_cell_setting 'monoclinic'
loop_
_space_group_symop_operation_xyz
x,y,z
-x,y,1/2-z
-x,-y,-z
x,-y,1/2+z
loop_
_atom_site_type_symbol
_atom_site_label
_atom_site_fract_x
_atom_site_fract_y
_atom_site_fract_z
Si Si1 0.313091 0.545128 0.379931
Si Si2 0.392110 0.724761 0.136662
Si Si3 0.518423 0.020293 0.162212
Si Si4 0.148584 0.709677 0.509517
Si Si5 0.039610 0.373219 0.641106
Si Si6 0.378005 0.743167 0.938645
Si Si7 0.113875 0.915616 0.374131
Si Si8 0.996275 0.795918 0.654262
O O1 0.429204 0.651287 0.336343
O O2 0.287740 0.619602 0.468532
O O3 0.409233 0.403189 0.397005
O O4 0.116186 0.527197 0.340324
O O5 0.398315 0.886076 0.159899
O O6 0.237656 0.634053 0.164917
O O7 0.378130 0.731928 0.036450
O O8 0.500000 0.091520 0.250000
O O9 0.707752 0.958589 0.156994
O O10 0.501792 0.134325 0.089682
O O11 0.981603 0.639463 0.459622
O O12 0.131163 0.713974 0.605328
O O13 0.851013 0.135976 0.530099
O O14 0.961775 0.225625 0.664049
O O15 0.187442 0.776783 0.897144
O O16 0.982400 0.039051 0.355619
O O17 0.000000 0.763253 0.750000
#
# Coordination Sequence:
#
# PCOD9237364 Si02
#       8
#     4   4   4   4   4   4   4   4
#     4   9  21  42  72  98 137 174 247 303 333 414
#     4  12  20  43  75 101 136 187 234 302 345 429
#     4  11  24  43  67 104 147 187 226 301 382 418
#     4   8  17  39  65  96 129 172 243 287 330 415
#     4   8  19  36  73 101 122 172 247 286 336 400
#     4  11  23  43  67 102 142 180 247 291 349 438
#     4   8  18  40  60  93 136 174 238 285 329 427
#     4  11  21  35  63 101 149 185 216 300 370 420
#
# _framework density 25.885131999999999
#
# number of rings (size 3 to 8) (size 9 to 14) (size 15 to 20)
#    1.500    0.500    3.750    1.125    0.000    4.000 
#    6.750    0.625    8.250    0.750    0.000    0.000 
#    0.000    0.000    0.000    0.000    0.000    0.000 
#
# Total GULP energy -178573.005359 kJ/mol
# GULP energy per Si atom -5580.406417 kJ/mol
# Density = 2.582622 g / cm^3
# Si number density = 25.885132 Si / 1000 Ang^3
#
#
#
# Elastic Constant Matrix: (Units=GPa)
#
#
# Indices 1 2 3 4 5 6 
#
# 1 126.0694 15.0259 30.8697 0.0000 2.7557 0.0000
# 2 15.0259 95.6385 11.7699 0.0000 -3.8523 0.0000
# 3 30.8697 11.7699 131.6363 0.0000 -7.3140 0.0000
# 4 0.0000 0.0000 0.0000 8.4638 0.0000 -7.1828
# 5 2.7557 -3.8523 -7.3140 0.0000 31.1508 0.0000
# 6 0.0000 0.0000 0.0000 -7.1828 0.0000 15.7226
#
#
#
# Elastic Compliance Matrix: (Units=1/GPa)
#
#
# Indices 1 2 3 4 5 6 
#
# 1 0.008587 -0.001160 -0.001986 0.000000 -0.001369 0.000000
# 2 -0.001160 0.010766 -0.000619 0.000000 0.001289 0.000000
# 3 -0.001986 -0.000619 0.008231 0.000000 0.002032 0.000000
# 4 0.000000 0.000000 0.000000 0.192962 0.000000 0.088154
# 5 -0.001369 0.001289 0.002032 0.000000 0.032859 0.000000
# 6 0.000000 0.000000 0.000000 0.088154 0.000000 0.103876
#
#
# Mechanical properties :
#
#
# Convention : Reuss Voigt Hill
#
# Bulk Modulus (GPa) = 49.86563 52.07500 50.97031
# Shear Modulus (GPa) = 13.45912 30.77934 22.11923
#
# Velocity S-wave (km/s) = 2.28273 3.45204 2.92638
# Velocity P-wave (km/s) = 5.12385 6.00418 5.58140
#
# Compressibility (1/GPa) = 0.02005389
#
# Stress axis : x y z
#
# Youngs Moduli (GPa) = 116.46046 92.88194 121.49699
#
# Poissons Ratio (x) = 0.10772 0.24129
# Poissons Ratio (y) = 0.13507 0.07521
# Poissons Ratio (z) = 0.23129 0.05750
#
# Static dielectric constant tensor:
#      x y z
#    x 2.057000 0.000000 0.070310 
#    y 0.000000 2.091150 0.000000 
#    z 0.070310 0.000000 2.088670 
# 
# From -- ./inp_files/64299.got.cif
#   From: 2010.05.17/outbox.cif.g08.bks.cpg/sg13_33_cif.got.tgz:64299.got - 2010.06.03 16:44:36.
