data_PCOD9237418
_publ_section_title
;
Structure prediction by ZEFSAII (Michael W. Deem and Ramdas Pophale) SiO2 
 PCOD9237418
Probable space group: P 2/C
;
_chemical_formula_sum "Si O2"
_cell_formula_units_Z 24
_cell_length_a 13.693986
_cell_length_b 8.440490
_cell_length_c 16.704552
_cell_angle_alpha 90.000000
_cell_angle_beta 145.062350
_cell_angle_gamma 90.000000
_cell_volume 1105.727068
_symmetry_space_group_name_H-M "P 2/C"
_symmetry_group_IT_number 13
_symmetry_cell_setting 'monoclinic'
loop_
_space_group_symop_operation_xyz
x,y,z
-x,y,1/2-z
-x,-y,-z
x,-y,1/2+z
loop_
_atom_site_type_symbol
_atom_site_label
_atom_site_fract_x
_atom_site_fract_y
_atom_site_fract_z
Si Si1 0.743398 0.499998 0.493399
Si Si2 0.779140 0.837020 0.816762
Si Si3 0.631574 0.356280 0.079838
Si Si4 0.500000 0.739154 0.250000
Si Si5 0.028102 0.643722 0.079837
Si Si6 0.500000 0.739156 0.750000
Si Si7 0.354386 0.837019 0.316762
O O1 0.743046 0.587137 0.578408
O O2 0.666997 0.632572 0.381713
O O3 0.596424 0.367425 0.381712
O O4 0.913766 0.412857 0.578404
O O5 0.742073 0.693943 0.729924
O O6 0.640327 0.830938 0.794474
O O7 0.750184 0.999999 0.749998
O O8 0.951265 0.794811 0.979530
O O9 0.500000 0.500000 0.000000
O O10 0.507800 0.205191 0.979531
O O11 0.448617 0.830938 0.294469
O O12 0.217774 0.693944 0.229924
O O13 0.000000 0.500000 0.000000
#
# Coordination Sequence:
#
# PCOD9237418 Si02
#       7
#     4   4   4   2   4   2   4
#     4   9  18  34  61  86 114 157 209 250 286 351
#     4  11  22  37  61  92 126 159 198 254 309 361
#     4  11  21  39  63  88 121 161 207 247 299 357
#     4   9  17  34  60  88 116 156 206 246 292 356
#     4  11  21  39  63  88 121 161 207 247 299 357
#     4   9  17  34  60  88 116 156 206 246 292 356
#     4  11  22  37  61  92 126 159 198 254 309 361
#
# _framework density 21.705174
#
# number of rings (size 3 to 8) (size 9 to 14) (size 15 to 20)
#    0.000    1.667    3.333    2.500    0.000    0.000 
#    0.000    3.333    0.000    2.000    0.000    0.000 
#    0.000    0.000    0.000    0.000    0.000    0.000 
#
# Total GULP energy -133857.445727 kJ/mol
# GULP energy per Si atom -5577.393572 kJ/mol
# Density = 2.165577 g / cm^3
# Si number density = 21.705174 Si / 1000 Ang^3
#
#
#
# Elastic Constant Matrix: (Units=GPa)
#
#
# Indices 1 2 3 4 5 6 
#
# 1 56.6071 -3.5324 24.3423 0.0000 -0.4896 0.0000
# 2 -3.5324 83.1002 13.2735 0.0000 -0.5087 0.0000
# 3 24.3423 13.2735 104.3674 0.0000 -0.9546 0.0000
# 4 0.0000 0.0000 0.0000 23.2145 0.0000 -0.2985
# 5 -0.4896 -0.5087 -0.9546 0.0000 24.2432 0.0000
# 6 0.0000 0.0000 0.0000 -0.2985 0.0000 13.3489
#
#
#
# Elastic Compliance Matrix: (Units=1/GPa)
#
#
# Indices 1 2 3 4 5 6 
#
# 1 0.019847 0.001617 -0.004832 0.000000 0.000244 0.000000
# 2 0.001617 0.012416 -0.001954 0.000000 0.000216 0.000000
# 3 -0.004832 -0.001954 0.010960 0.000000 0.000293 0.000000
# 4 0.000000 0.000000 0.000000 0.043089 0.000000 0.000963
# 5 0.000244 0.000216 0.000293 0.000000 0.041270 0.000000
# 6 0.000000 0.000000 0.000000 0.000963 0.000000 0.074934
#
#
# Mechanical properties :
#
#
# Convention : Reuss Voigt Hill
#
# Bulk Modulus (GPa) = 30.41069 34.69350 32.55209
# Shear Modulus (GPa) = 22.33982 26.16073 24.25027
#
# Velocity S-wave (km/s) = 3.21166 3.47547 3.34617
# Velocity P-wave (km/s) = 5.27202 5.66780 5.47349
#
# Compressibility (1/GPa) = 0.03288318
#
# Stress axis : x y z
#
# Youngs Moduli (GPa) = 50.38623 80.54206 91.24221
#
# Poissons Ratio (x) = -0.13024 0.44092
# Poissons Ratio (y) = -0.08147 0.17831
# Poissons Ratio (z) = 0.24349 0.15740
#
# Static dielectric constant tensor:
#      x y z
#    x 1.796720 0.000000 -0.000740 
#    y 0.000000 1.861570 0.000000 
#    z -0.000740 0.000000 1.821310 
# 
# From -- ./inp_files/68325.got.cif
#   From: 2010.05.17/outbox.cif.g08.bks.cpg/sg13_35_cif.got.tgz:68325.got - 2010.06.03 16:44:36.
