data_PCOD9237078
_publ_section_title
;
Structure prediction by ZEFSAII (Michael W. Deem and Ramdas Pophale) SiO2 
 PCOD9237078
Probable space group: P 2/C
;
_chemical_formula_sum "Si O2"
_cell_formula_units_Z 26
_cell_length_a 9.577810
_cell_length_b 8.079770
_cell_length_c 25.196864
_cell_angle_alpha 90.000000
_cell_angle_beta 33.878341
_cell_angle_gamma 90.000000
_cell_volume 1086.933725
_symmetry_space_group_name_H-M "P 2/C"
_symmetry_group_IT_number 13
_symmetry_cell_setting 'monoclinic'
loop_
_space_group_symop_operation_xyz
x,y,z
-x,y,1/2-z
-x,-y,-z
x,-y,1/2+z
loop_
_atom_site_type_symbol
_atom_site_label
_atom_site_fract_x
_atom_site_fract_y
_atom_site_fract_z
Si Si1 0.515470 0.336164 0.459441
Si Si2 0.062705 0.146939 0.571819
Si Si3 0.398092 0.828499 0.462387
Si Si4 0.500000 0.543899 0.250000
Si Si5 0.000000 0.549377 0.750000
Si Si6 0.767057 0.733505 0.256937
Si Si7 0.000000 0.000000 0.500000
Si Si8 0.050648 0.357548 0.441307
O O1 0.500000 0.500000 0.500000
O O2 0.254776 0.298312 0.512515
O O3 0.546260 0.189057 0.493127
O O4 0.754542 0.350321 0.345646
O O5 0.133580 0.177429 0.437007
O O6 0.938095 0.143188 0.668500
O O7 0.860328 0.117947 0.590141
O O8 0.637265 0.812216 0.349382
O O9 0.208311 0.682243 0.507110
O O10 0.236479 0.990981 0.498071
O O11 0.571094 0.654109 0.278142
O O12 0.261321 0.430890 0.337002
O O13 0.928412 0.423165 0.725660
O O14 0.000000 0.500000 0.500000
#
# Coordination Sequence:
#
# PCOD9237078 Si02
#       8
#     4   4   4   2   2   4   2   4
#     4  12  24  44  75 107 144 195 257 316 391 471
#     4  11  26  46  71 104 155 190 253 325 392 475
#     4  11  25  47  71 107 150 197 249 326 399 469
#     4  12  26  40  80 102 146 204 256 316 390 482
#     4  12  26  42  76 114 142 194 264 318 382 480
#     4  12  24  45  74 111 144 204 260 316 397 483
#     4  10  26  46  68 106 150 194 244 328 376 458
#     4  11  23  46  68 104 144 194 252 312 389 460
#
# _framework density 23.920501000000002
#
# number of rings (size 3 to 8) (size 9 to 14) (size 15 to 20)
#    0.000    0.615    4.615    2.308    6.462    1.231 
#   11.077    0.000    0.000    0.000    0.000    0.000 
#    0.000    0.000    0.000    0.000    0.000    0.000 
#
# Total GULP energy -144922.611319 kJ/mol
# GULP energy per Si atom -5573.946589 kJ/mol
# Density = 2.386606 g / cm^3
# Si number density = 23.920501 Si / 1000 Ang^3
#
#
#
# Elastic Constant Matrix: (Units=GPa)
#
#
# Indices 1 2 3 4 5 6 
#
# 1 78.9563 30.6181 10.1663 0.0000 10.4348 0.0000
# 2 30.6181 127.8084 40.4812 0.0000 -3.6738 0.0000
# 3 10.1663 40.4812 190.8393 0.0000 1.8473 0.0000
# 4 0.0000 0.0000 0.0000 34.2830 0.0000 7.1090
# 5 10.4348 -3.6738 1.8473 0.0000 29.2178 0.0000
# 6 0.0000 0.0000 0.0000 7.1090 0.0000 41.3855
#
#
#
# Elastic Compliance Matrix: (Units=1/GPa)
#
#
# Indices 1 2 3 4 5 6 
#
# 1 0.014876 -0.003749 0.000059 0.000000 -0.005788 0.000000
# 2 -0.003749 0.009372 -0.001814 0.000000 0.002632 0.000000
# 3 0.000059 -0.001814 0.005627 0.000000 -0.000605 0.000000
# 4 0.000000 0.000000 0.000000 0.030246 0.000000 -0.005196
# 5 -0.005788 0.002632 -0.000605 0.000000 0.036662 0.000000
# 6 0.000000 0.000000 0.000000 -0.005196 0.000000 0.025056
#
#
# Mechanical properties :
#
#
# Convention : Reuss Voigt Hill
#
# Bulk Modulus (GPa) = 52.99857 62.23724 57.61791
# Shear Modulus (GPa) = 35.93566 42.06648 39.00107
#
# Velocity S-wave (km/s) = 3.88015 4.19811 4.04226
# Velocity P-wave (km/s) = 6.50218 7.04086 6.77687
#
# Compressibility (1/GPa) = 0.01886843
#
# Stress axis : x y z
#
# Youngs Moduli (GPa) = 67.22091 106.69566 177.69885
#
# Poissons Ratio (x) = 0.39998 -0.01044
# Poissons Ratio (y) = 0.25200 0.32232
# Poissons Ratio (z) = -0.00395 0.19353
#
# Static dielectric constant tensor:
#      x y z
#    x 1.811030 0.000000 0.079590 
#    y 0.000000 1.911790 0.000000 
#    z 0.079590 0.000000 1.909030 
# 
# From -- ./inp_files/76397.got.cif
#   From: 2010.05.17/outbox.cif.g08.bks.cpg/sg13_39_cif.got.tgz:76397.got - 2010.06.03 16:44:36.
