data_PCOD9237023
_publ_section_title
;
Structure prediction by ZEFSAII (Michael W. Deem and Ramdas Pophale) SiO2 
 PCOD9237023
Probable space group: P 2/C
;
_chemical_formula_sum "Si O2"
_cell_formula_units_Z 22
_cell_length_a 18.202500
_cell_length_b 5.794750
_cell_length_c 9.050483
_cell_angle_alpha 90.000000
_cell_angle_beta 67.093413
_cell_angle_gamma 90.000000
_cell_volume 879.353417
_symmetry_space_group_name_H-M "P 2/C"
_symmetry_group_IT_number 13
_symmetry_cell_setting 'monoclinic'
loop_
_space_group_symop_operation_xyz
x,y,z
-x,y,1/2-z
-x,-y,-z
x,-y,1/2+z
loop_
_atom_site_type_symbol
_atom_site_label
_atom_site_fract_x
_atom_site_fract_y
_atom_site_fract_z
Si Si1 0.173551 0.992890 0.338708
Si Si2 0.092661 0.700801 0.648160
Si Si3 0.635444 0.311895 0.578413
Si Si4 0.777305 0.674911 0.456199
Si Si5 0.500000 0.395152 0.250000
Si Si6 0.587955 0.970215 0.861995
O O1 0.132436 0.167885 0.256393
O O2 0.228485 0.136174 0.409389
O O3 0.110219 0.861406 0.492633
O O4 0.216750 0.800277 0.205875
O O5 0.139602 0.462276 0.588168
O O6 0.000000 0.665956 0.750000
O O7 0.708778 0.484202 0.518901
O O8 0.644417 0.115716 0.448179
O O9 0.553080 0.443979 0.603521
O O10 0.568620 0.235318 0.263947
O O11 0.382394 0.809459 0.251423
O O12 0.500000 0.000000 0.000000
#
# Coordination Sequence:
#
# PCOD9237023 Si02
#       6
#     4   4   4   4   2   4
#     4  10  25  50  72 109 160 202 262 316 384 455
#     4  11  24  46  79 117 157 207 257 314 385 460
#     4  12  28  48  79 109 154 199 251 316 386 467
#     4  11  27  50  75 112 150 207 258 324 387 459
#     4  12  24  46  76 106 148 200 246 302 384 460
#     4  12  24  51  74 112 147 193 253 315 381 458
#
# _framework density 25.018383
#
# number of rings (size 3 to 8) (size 9 to 14) (size 15 to 20)
#    0.000    0.727    3.636    2.182    0.000   13.091 
#    3.273    3.636    0.000    0.000    0.000    0.000 
#    0.000    0.000    0.000    0.000    0.000    0.000 
#
# Total GULP energy -123450.061914 kJ/mol
# GULP energy per Si atom -5611.366451 kJ/mol
# Density = 2.496144 g / cm^3
# Si number density = 25.018383 Si / 1000 Ang^3
#
#
#
# Elastic Constant Matrix: (Units=GPa)
#
#
# Indices 1 2 3 4 5 6 
#
# 1 113.5683 53.0275 59.0409 0.0000 -26.7716 0.0000
# 2 53.0275 125.0830 77.9408 0.0000 -17.5222 0.0000
# 3 59.0409 77.9408 165.1232 0.0000 -8.5045 0.0000
# 4 0.0000 0.0000 0.0000 52.5682 0.0000 2.6519
# 5 -26.7716 -17.5222 -8.5045 0.0000 37.9138 0.0000
# 6 0.0000 0.0000 0.0000 2.6519 0.0000 38.0790
#
#
#
# Elastic Compliance Matrix: (Units=1/GPa)
#
#
# Indices 1 2 3 4 5 6 
#
# 1 0.013491 -0.002685 -0.003166 0.000000 0.007575 0.000000
# 2 -0.002685 0.012521 -0.004805 0.000000 0.002813 0.000000
# 3 -0.003166 -0.004805 0.009335 0.000000 -0.002363 0.000000
# 4 0.000000 0.000000 0.000000 0.019090 0.000000 -0.001329
# 5 0.007575 0.002813 -0.002363 0.000000 0.032494 0.000000
# 6 0.000000 0.000000 0.000000 -0.001329 0.000000 0.026354
#
#
# Mechanical properties :
#
#
# Convention : Reuss Voigt Hill
#
# Bulk Modulus (GPa) = 71.25858 87.08813 79.17336
# Shear Modulus (GPa) = 35.90003 39.96321 37.93162
#
# Velocity S-wave (km/s) = 3.79218 4.00103 3.89800
# Velocity P-wave (km/s) = 6.90786 7.49863 7.20930
#
# Compressibility (1/GPa) = 0.01403340
#
# Stress axis : x y z
#
# Youngs Moduli (GPa) = 74.12547 79.86359 107.12831
#
# Poissons Ratio (x) = 0.21446 0.33917
# Poissons Ratio (y) = 0.19905 0.51478
# Poissons Ratio (z) = 0.23468 0.38377
#
# Static dielectric constant tensor:
#      x y z
#    x 1.951180 0.000000 0.015150 
#    y 0.000000 2.013770 0.000000 
#    z 0.015150 0.000000 2.021550 
# 
# From -- ./inp_files/35345.got.cif
#   From: 2010.05.17/outbox.cif.g08.bks.cpg/sg13_18_cif.got.tgz:35345.got - 2010.06.03 16:44:36.
