data_PCOD9237380
_publ_section_title
;
Structure prediction by ZEFSAII (Michael W. Deem and Ramdas Pophale) SiO2 
 PCOD9237380
Probable space group: P 2/C
;
_chemical_formula_sum "Si O2"
_cell_formula_units_Z 28
_cell_length_a 18.316781
_cell_length_b 14.815948
_cell_length_c 8.588923
_cell_angle_alpha 90.000000
_cell_angle_beta 45.302395
_cell_angle_gamma 90.000000
_cell_volume 1656.846859
_symmetry_space_group_name_H-M "P 2/C"
_symmetry_group_IT_number 13
_symmetry_cell_setting 'monoclinic'
loop_
_space_group_symop_operation_xyz
x,y,z
-x,y,1/2-z
-x,-y,-z
x,-y,1/2+z
loop_
_atom_site_type_symbol
_atom_site_label
_atom_site_fract_x
_atom_site_fract_y
_atom_site_fract_z
Si Si1 0.303075 0.289465 0.233152
Si Si2 0.886963 0.600211 0.983342
Si Si3 0.500000 0.601911 0.936736
Si Si4 0.886963 0.600211 0.355769
Si Si5 0.380769 0.095795 0.741591
Si Si6 0.619231 0.095795 0.383899
Si Si7 0.303076 0.710535 0.357621
O O1 0.399567 0.346329 0.151705
O O2 0.199249 0.331784 0.454837
O O3 0.319702 0.185119 0.255255
O O4 0.303208 0.294534 0.045188
O O5 0.888927 0.597441 0.166610
O O6 0.800751 0.668216 0.052584
O O7 0.862278 0.500000 0.956582
O O8 0.000000 0.623494 0.750000
O O9 0.500000 0.601153 0.750000
O O10 0.500000 0.500000 0.000000
O O11 0.399568 0.653671 0.149593
O O12 0.000000 0.623494 0.250000
O O13 0.500000 0.106109 0.511412
O O14 0.319702 0.185119 0.785638
O O15 0.342352 0.000000 0.736472
O O16 0.380778 0.092477 0.928834
#
# Coordination Sequence:
#
# PCOD9237380 Si02
#       7
#     4   4   4   4   4   4   4
#     4  11  21  37  56  79 111 145 180 223 272 323
#     4  11  22  38  58  82 108 143 185 227 271 319
#     4  12  24  36  51  76 109 146 181 220 268 326
#     4  11  22  38  58  82 108 143 185 227 271 319
#     4   9  18  33  53  78 108 143 179 220 267 319
#     4   9  18  33  53  78 108 143 179 220 267 319
#     4  11  21  37  56  79 111 145 180 223 272 323
#
# _framework density 16.899571000000002
#
# number of rings (size 3 to 8) (size 9 to 14) (size 15 to 20)
#    0.000    1.429    1.429    6.429    0.000    2.286 
#    0.000    0.000    0.000    0.857    0.000    6.000 
#    0.000    0.000    0.000    0.000    0.000    0.000 
#
# Total GULP energy -156442.381537 kJ/mol
# GULP energy per Si atom -5587.227912 kJ/mol
# Density = 1.686111 g / cm^3
# Si number density = 16.899571 Si / 1000 Ang^3
#
#
#
# Elastic Constant Matrix: (Units=GPa)
#
#
# Indices 1 2 3 4 5 6 
#
# 1 108.8237 81.1301 51.5651 0.0000 1.2697 0.0000
# 2 81.1301 185.2037 87.5605 0.0000 -21.0424 0.0000
# 3 51.5651 87.5605 108.3589 0.0000 0.2523 0.0000
# 4 0.0000 0.0000 0.0000 18.3457 0.0000 9.2043
# 5 1.2697 -21.0424 0.2523 0.0000 31.7649 0.0000
# 6 0.0000 0.0000 0.0000 9.2043 0.0000 21.1587
#
#
#
# Elastic Compliance Matrix: (Units=1/GPa)
#
#
# Indices 1 2 3 4 5 6 
#
# 1 0.014685 -0.005894 -0.002215 0.000000 -0.004474 0.000000
# 2 -0.005894 0.012342 -0.007188 0.000000 0.008468 0.000000
# 3 -0.002215 -0.007188 0.016102 0.000000 -0.004801 0.000000
# 4 0.000000 0.000000 0.000000 0.069727 0.000000 -0.030332
# 5 -0.004474 0.008468 -0.004801 0.000000 0.037308 0.000000
# 6 0.000000 0.000000 0.000000 -0.030332 0.000000 0.060457
#
#
# Mechanical properties :
#
#
# Convention : Reuss Voigt Hill
#
# Bulk Modulus (GPa) = 79.77618 93.65530 86.71574
# Shear Modulus (GPa) = 20.37549 26.39589 23.38569
#
# Velocity S-wave (km/s) = 3.47606 3.95641 3.72399
# Velocity P-wave (km/s) = 7.96362 8.74128 8.36149
#
# Compressibility (1/GPa) = 0.01253507
#
# Stress axis : x y z
#
# Youngs Moduli (GPa) = 68.09645 81.02561 62.10367
#
# Poissons Ratio (x) = 0.47756 0.13757
# Poissons Ratio (y) = 0.40136 0.44639
# Poissons Ratio (z) = 0.15084 0.58240
#
# Static dielectric constant tensor:
#      x y z
#    x 1.559360 0.000000 0.013100 
#    y 0.000000 1.564220 0.000000 
#    z 0.013100 0.000000 1.555350 
# 
# From -- ./inp_files/21954.got.cif
#   From: 2010.05.17/outbox.cif.g08.bks.cpg/sg13_11_cif.got.tgz:21954.got - 2010.06.03 16:44:36.
