data_PCOD9237370
_publ_section_title
;
Structure prediction by ZEFSAII (Michael W. Deem and Ramdas Pophale) SiO2 
 PCOD9237370
Probable space group: P 2/C
;
_chemical_formula_sum "Si O2"
_cell_formula_units_Z 20
_cell_length_a 4.875000
_cell_length_b 11.352781
_cell_length_c 17.808862
_cell_angle_alpha 90.000000
_cell_angle_beta 75.535552
_cell_angle_gamma 90.000000
_cell_volume 954.386402
_symmetry_space_group_name_H-M "P 2/C"
_symmetry_group_IT_number 13
_symmetry_cell_setting 'monoclinic'
loop_
_space_group_symop_operation_xyz
x,y,z
-x,y,1/2-z
-x,-y,-z
x,-y,1/2+z
loop_
_atom_site_type_symbol
_atom_site_label
_atom_site_fract_x
_atom_site_fract_y
_atom_site_fract_z
Si Si1 0.608049 0.563739 0.128203
Si Si2 0.470905 0.712213 0.513302
Si Si3 0.213814 0.802658 0.301738
Si Si4 0.099290 0.590663 0.663965
Si Si5 0.020121 0.868462 0.469102
O O1 0.696264 0.680611 0.165602
O O2 0.307626 0.514626 0.175398
O O3 0.847997 0.465644 0.130145
O O4 0.554299 0.605673 0.045825
O O5 0.301737 0.671677 0.598778
O O6 0.304423 0.817383 0.485172
O O7 0.781053 0.768853 0.504185
O O8 0.500000 0.859482 0.250000
O O9 0.054792 0.873499 0.377280
O O10 0.000000 0.779799 0.250000
O O11 0.000000 0.645566 0.750000
O O12 0.000000 0.000000 0.500000
#
# Coordination Sequence:
#
# PCOD9237370 Si02
#       5
#     4   4   4   4   4
#     4  11  21  36  59  87 123 159 194 237 293 356
#     4  11  23  40  61  86 118 158 201 244 291 356
#     4  11  21  37  61  92 117 144 193 252 297 339
#     4  12  23  36  57  89 127 163 194 231 286 359
#     4  11  24  43  64  84 114 156 201 250 303 350
#
# _framework density 20.955873
#
# number of rings (size 3 to 8) (size 9 to 14) (size 15 to 20)
#    0.000    0.800    0.000   11.400    0.000    0.000 
#    0.000    3.000    0.000    0.000    0.000    0.000 
#    0.000    0.000    0.000    0.000    0.000    0.000 
#
# Total GULP energy -111734.174604 kJ/mol
# GULP energy per Si atom -5586.708730 kJ/mol
# Density = 2.090818 g / cm^3
# Si number density = 20.955873 Si / 1000 Ang^3
#
#
#
# Elastic Constant Matrix: (Units=GPa)
#
#
# Indices 1 2 3 4 5 6 
#
# 1 86.7234 6.5110 5.3660 0.0000 -2.4524 0.0000
# 2 6.5110 51.9886 39.8638 0.0000 7.0362 0.0000
# 3 5.3660 39.8638 158.0328 0.0000 -11.3506 0.0000
# 4 0.0000 0.0000 0.0000 -4.2014 0.0000 -5.2919
# 5 -2.4524 7.0362 -11.3506 0.0000 33.1203 0.0000
# 6 0.0000 0.0000 0.0000 -5.2919 0.0000 15.8277
#
#
#
# Elastic Compliance Matrix: (Units=1/GPa)
#
#
# Indices 1 2 3 4 5 6 
#
# 1 0.011689 -0.001740 0.000134 0.000000 0.001281 0.000000
# 2 -0.001740 0.025966 -0.007070 0.000000 -0.008068 0.000000
# 3 0.000134 -0.007070 0.008423 0.000000 0.004399 0.000000
# 4 0.000000 0.000000 0.000000 -0.167482 0.000000 -0.055997
# 5 0.001281 -0.008068 0.004399 0.000000 0.033509 0.000000
# 6 0.000000 0.000000 0.000000 -0.055997 0.000000 0.044458
#
#
# Mechanical properties :
#
#
# Convention : Reuss Voigt Hill
#
# Bulk Modulus (GPa) = 34.81232 44.46959 39.64095
# Shear Modulus (GPa) = -302.88323 25.28290 -138.80016
#
# Velocity S-wave (km/s) = -12.03526 3.47721 -8.14729
# Velocity P-wave (km/s) = 13.28465 6.11457 8.33948
#
# Compressibility (1/GPa) = 0.02872546
#
# Stress axis : x y z
#
# Youngs Moduli (GPa) = 85.54690 38.51139 118.72698
#
# Poissons Ratio (x) = 0.06702 -0.01592
# Poissons Ratio (y) = 0.14887 0.83945
# Poissons Ratio (z) = -0.01147 0.27229
#
# Static dielectric constant tensor:
#      x y z
#    x 1.766600 0.000000 -0.011250 
#    y 0.000000 1.734680 0.000000 
#    z -0.011250 0.000000 1.846910 
# 
# From -- ./inp_files/60833.got.cif
#   From: 2010.05.17/outbox.cif.g08.bks.cpg/sg13_31_cif.got.tgz:60833.got - 2010.06.03 16:44:36.
