data_PCOD9237451
_publ_section_title
;
Structure prediction by ZEFSAII (Michael W. Deem and Ramdas Pophale) SiO2 
 PCOD9237451
Probable space group: P 2/C
;
_chemical_formula_sum "Si O2"
_cell_formula_units_Z 26
_cell_length_a 8.440583
_cell_length_b 6.592611
_cell_length_c 29.701895
_cell_angle_alpha 90.000000
_cell_angle_beta 122.756483
_cell_angle_gamma 90.000000
_cell_volume 1389.948099
_symmetry_space_group_name_H-M "P 2/C"
_symmetry_group_IT_number 13
_symmetry_cell_setting 'monoclinic'
loop_
_space_group_symop_operation_xyz
x,y,z
-x,y,1/2-z
-x,-y,-z
x,-y,1/2+z
loop_
_atom_site_type_symbol
_atom_site_label
_atom_site_fract_x
_atom_site_fract_y
_atom_site_fract_z
Si Si1 0.252336 0.380813 0.689507
Si Si2 0.594859 0.446829 0.104625
Si Si3 0.310111 0.123221 0.458319
Si Si4 0.500000 0.998209 0.250000
Si Si5 0.199634 0.530454 0.007113
Si Si6 0.393428 0.624582 0.791714
Si Si7 0.851120 0.278465 0.590030
O O1 0.251790 0.501109 0.737114
O O2 0.408292 0.505622 0.685329
O O3 0.052574 0.365045 0.635267
O O4 0.336101 0.155571 0.709480
O O5 0.645805 0.278441 0.075185
O O6 0.371949 0.485064 0.066830
O O7 0.654839 0.383449 0.163580
O O8 0.702037 0.648096 0.104384
O O9 0.235181 0.251339 0.489317
O O10 0.500000 0.000000 0.500000
O O11 0.157883 0.961090 0.417980
O O12 0.574224 0.150188 0.222752
O O13 0.209363 0.375868 0.966682
O O14 0.000000 0.500000 0.000000
#
# Coordination Sequence:
#
# PCOD9237451 Si02
#       7
#     4   4   4   2   4   4   4
#     4   9  20  38  60  84 115 153 195 246 300 349
#     4  11  22  38  60  84 120 157 195 245 302 353
#     4  11  21  41  59  84 123 159 193 246 305 351
#     4   8  18  38  60  84 118 146 198 250 290 356
#     4  11  23  39  61  88 115 153 204 244 295 359
#     4   9  20  39  61  84 118 151 194 251 296 348
#     4  11  22  39  59  84 120 157 193 246 295 361
#
# _framework density 18.705732999999999
#
# number of rings (size 3 to 8) (size 9 to 14) (size 15 to 20)
#    0.000    2.154    3.077    1.846    0.000    9.846 
#    2.769    0.000    0.000    0.000    0.000    0.000 
#    0.000    0.000    0.000    0.000    0.000    0.000 
#
# Total GULP energy -145070.491479 kJ/mol
# GULP energy per Si atom -5579.634288 kJ/mol
# Density = 1.866316 g / cm^3
# Si number density = 18.705733 Si / 1000 Ang^3
#
#
#
# Elastic Constant Matrix: (Units=GPa)
#
#
# Indices 1 2 3 4 5 6 
#
# 1 39.8538 9.0496 -7.8312 0.0000 -8.9739 0.0000
# 2 9.0496 100.0878 9.0460 0.0000 -9.1457 0.0000
# 3 -7.8312 9.0460 61.4224 0.0000 -10.2174 0.0000
# 4 0.0000 0.0000 0.0000 12.5005 0.0000 3.0907
# 5 -8.9739 -9.1457 -10.2174 0.0000 44.1273 0.0000
# 6 0.0000 0.0000 0.0000 3.0907 0.0000 15.1097
#
#
#
# Elastic Compliance Matrix: (Units=1/GPa)
#
#
# Indices 1 2 3 4 5 6 
#
# 1 0.028051 -0.002406 0.004989 0.000000 0.006361 0.000000
# 2 -0.002406 0.010475 -0.001633 0.000000 0.001304 0.000000
# 3 0.004989 -0.001633 0.017962 0.000000 0.004835 0.000000
# 4 0.000000 0.000000 0.000000 0.084258 0.000000 -0.017235
# 5 0.006361 0.001304 0.004835 0.000000 0.025345 0.000000
# 6 0.000000 0.000000 0.000000 -0.017235 0.000000 0.069708
#
#
# Mechanical properties :
#
#
# Convention : Reuss Voigt Hill
#
# Bulk Modulus (GPa) = 17.12674 24.65474 20.89074
# Shear Modulus (GPa) = 19.73471 27.08748 23.41109
#
# Velocity S-wave (km/s) = 3.25161 3.80950 3.54156
# Velocity P-wave (km/s) = 4.82422 5.70602 5.28355
#
# Compressibility (1/GPa) = 0.05838824
#
# Stress axis : x y z
#
# Youngs Moduli (GPa) = 35.64985 95.46126 55.67460
#
# Poissons Ratio (x) = 0.22967 -0.27775
# Poissons Ratio (y) = 0.08577 0.09090
# Poissons Ratio (z) = -0.17785 0.15585
#
# Static dielectric constant tensor:
#      x y z
#    x 1.652920 0.000000 0.004610 
#    y 0.000000 1.649330 0.000000 
#    z 0.004610 0.000000 1.640150 
# 
# From -- ./inp_files/95550.got.cif
#   From: 2010.05.17/outbox.cif.g08.bks.cpg/sg13_48_cif.got.tgz:95550.got - 2010.06.03 16:44:36.
