data_PCOD9237994
_publ_section_title
;
Structure prediction by ZEFSAII (Michael W. Deem and Ramdas Pophale) SiO2 
 PCOD9237994
Probable space group: P 2/C
;
_chemical_formula_sum "Si O2"
_cell_formula_units_Z 20
_cell_length_a 9.994369
_cell_length_b 6.561082
_cell_length_c 12.854075
_cell_angle_alpha 90.000000
_cell_angle_beta 88.343231
_cell_angle_gamma 90.000000
_cell_volume 842.539139
_symmetry_space_group_name_H-M "P 2/C"
_symmetry_group_IT_number 13
_symmetry_cell_setting 'monoclinic'
loop_
_space_group_symop_operation_xyz
x,y,z
-x,y,1/2-z
-x,-y,-z
x,-y,1/2+z
loop_
_atom_site_type_symbol
_atom_site_label
_atom_site_fract_x
_atom_site_fract_y
_atom_site_fract_z
Si Si1 0.700260 0.450379 0.304297
Si Si2 0.691914 0.242614 0.628902
Si Si3 0.497357 0.266394 0.460816
Si Si4 0.120986 0.870180 0.821800
Si Si5 0.795584 0.372026 0.010878
O O1 0.642502 0.615090 0.224546
O O2 0.592245 0.293955 0.358508
O O3 0.802926 0.309296 0.241077
O O4 0.779371 0.582664 0.389602
O O5 0.780269 0.401936 0.559283
O O6 0.571816 0.161180 0.556861
O O7 0.785301 0.064877 0.666720
O O8 0.500000 0.500000 0.500000
O O9 0.339144 0.245268 0.454376
O O10 0.091185 0.762723 0.935247
O O11 0.000000 0.928310 0.750000
#
# Coordination Sequence:
#
# PCOD9237994 Si02
#       5
#     4   4   4   4   4
#     4   9  19  38  61  83 110 150 186 227 288 340
#     4   9  19  35  56  83 115 145 181 231 281 329
#     4   8  17  36  60  86 115 139 175 231 289 341
#     4  11  24  38  54  82 115 151 197 235 270 328
#     4   9  21  40  60  84 116 147 181 234 290 338
#
# _framework density 23.737767999999999
#
# number of rings (size 3 to 8) (size 9 to 14) (size 15 to 20)
#    0.000    3.200    0.000    0.000    0.000   20.800 
#    0.000   17.000    0.000    1.200    0.000    0.000 
#    0.000    0.000    0.000    0.000    0.000    0.000 
#
# Total GULP energy -111490.252908 kJ/mol
# GULP energy per Si atom -5574.512645 kJ/mol
# Density = 2.368374 g / cm^3
# Si number density = 23.737768 Si / 1000 Ang^3
#
#
#
# Elastic Constant Matrix: (Units=GPa)
#
#
# Indices 1 2 3 4 5 6 
#
# 1 62.0080 35.0389 39.5940 0.0000 36.9710 0.0000
# 2 35.0389 77.3225 34.6322 0.0000 19.9929 0.0000
# 3 39.5940 34.6322 149.5544 0.0000 32.6236 0.0000
# 4 0.0000 0.0000 0.0000 29.5825 0.0000 17.8233
# 5 36.9710 19.9929 32.6236 0.0000 45.2837 0.0000
# 6 0.0000 0.0000 0.0000 17.8233 0.0000 17.0709
#
#
#
# Elastic Compliance Matrix: (Units=1/GPa)
#
#
# Indices 1 2 3 4 5 6 
#
# 1 0.038096 -0.009713 -0.002358 0.000000 -0.025116 0.000000
# 2 -0.009713 0.017802 -0.001858 0.000000 0.001409 0.000000
# 3 -0.002358 -0.001858 0.008474 0.000000 -0.003359 0.000000
# 4 0.000000 0.000000 0.000000 0.091127 0.000000 -0.095143
# 5 -0.025116 0.001409 -0.003359 0.000000 0.044386 0.000000
# 6 0.000000 0.000000 0.000000 -0.095143 0.000000 0.157916
#
#
# Mechanical properties :
#
#
# Convention : Reuss Voigt Hill
#
# Bulk Modulus (GPa) = 27.38715 56.37945 41.88330
# Shear Modulus (GPa) = 12.56815 30.36208 21.46512
#
# Velocity S-wave (km/s) = 2.30349 3.58028 3.01035
# Velocity P-wave (km/s) = 4.31708 6.39482 5.45577
#
# Compressibility (1/GPa) = 0.03651347
#
# Stress axis : x y z
#
# Youngs Moduli (GPa) = 26.24965 56.17221 118.00965
#
# Poissons Ratio (x) = 0.54561 0.27824
# Poissons Ratio (y) = 0.25497 0.21930
# Poissons Ratio (z) = 0.06189 0.10439
#
# Static dielectric constant tensor:
#      x y z
#    x 2.103100 0.000000 0.002160 
#    y 0.000000 1.944260 0.000000 
#    z 0.002160 0.000000 2.063470 
# 
# From -- ./inp_files/48698.got.cif
#   From: 2010.05.17/outbox.cif.g08.bks.cpg/sg13_25_cif.got.tgz:48698.got - 2010.06.03 16:44:36.
