data_PCOD9237643
_publ_section_title
;
Structure prediction by ZEFSAII (Michael W. Deem and Ramdas Pophale) SiO2 
 PCOD9237643
Probable space group: P 2/C
;
_chemical_formula_sum "Si O2"
_cell_formula_units_Z 22
_cell_length_a 14.454335
_cell_length_b 6.605053
_cell_length_c 22.905541
_cell_angle_alpha 90.000000
_cell_angle_beta 28.536662
_cell_angle_gamma 90.000000
_cell_volume 1044.694488
_symmetry_space_group_name_H-M "P 2/C"
_symmetry_group_IT_number 13
_symmetry_cell_setting 'monoclinic'
loop_
_space_group_symop_operation_xyz
x,y,z
-x,y,1/2-z
-x,-y,-z
x,-y,1/2+z
loop_
_atom_site_type_symbol
_atom_site_label
_atom_site_fract_x
_atom_site_fract_y
_atom_site_fract_z
Si Si1 0.619227 0.255894 0.546169
Si Si2 0.704916 0.574871 0.782672
Si Si3 0.717359 0.913363 0.875308
Si Si4 0.120541 0.414921 0.563047
Si Si5 0.540378 0.137604 0.160472
Si Si6 0.000000 0.750310 0.250000
O O1 0.455429 0.406753 0.612367
O O2 0.752426 0.179168 0.419720
O O3 0.750553 0.385081 0.517029
O O4 0.527473 0.064048 0.628919
O O5 0.734202 0.739965 0.817673
O O6 0.611734 0.699245 0.780826
O O7 0.906217 0.461243 0.659543
O O8 0.857495 0.104394 0.792458
O O9 0.500000 0.000000 0.000000
O O10 0.244679 0.231414 0.468003
O O11 0.108422 0.375725 0.639980
O O12 0.500000 0.097169 0.250000
#
# Coordination Sequence:
#
# PCOD9237643 Si02
#       6
#     4   4   4   4   4   2
#     4  11  22  43  63  96 139 175 211 275 332 394
#     4  11  24  40  70  99 132 174 223 271 332 400
#     4  12  20  37  66  98 137 173 210 262 340 401
#     4  11  24  42  67 101 135 171 218 272 337 397
#     4  11  26  47  67  93 131 181 230 276 324 381
#     4  12  22  38  68 104 142 168 206 274 340 404
#
# _framework density 21.058789000000001
#
# number of rings (size 3 to 8) (size 9 to 14) (size 15 to 20)
#    0.000    0.727    3.636    4.909    0.000    3.636 
#    0.000    1.818    0.000    0.000    0.000    0.000 
#    0.000    0.000    0.000    0.000    0.000    0.000 
#
# Total GULP energy -123011.627213 kJ/mol
# GULP energy per Si atom -5591.437601 kJ/mol
# Density = 2.101086 g / cm^3
# Si number density = 21.058789 Si / 1000 Ang^3
#
#
#
# Elastic Constant Matrix: (Units=GPa)
#
#
# Indices 1 2 3 4 5 6 
#
# 1 59.6956 20.3651 23.0506 0.0000 6.7559 0.0000
# 2 20.3651 92.9862 20.9651 0.0000 -4.3487 0.0000
# 3 23.0506 20.9651 72.2868 0.0000 -13.8821 0.0000
# 4 0.0000 0.0000 0.0000 20.3183 0.0000 -15.5402
# 5 6.7559 -4.3487 -13.8821 0.0000 46.0429 0.0000
# 6 0.0000 0.0000 0.0000 -15.5402 0.0000 19.3286
#
#
#
# Elastic Compliance Matrix: (Units=1/GPa)
#
#
# Indices 1 2 3 4 5 6 
#
# 1 0.021149 -0.003349 -0.006824 0.000000 -0.005477 0.000000
# 2 -0.003349 0.012037 -0.002240 0.000000 0.000953 0.000000
# 3 -0.006824 -0.002240 0.017845 0.000000 0.006170 0.000000
# 4 0.000000 0.000000 0.000000 0.127812 0.000000 0.102761
# 5 -0.005477 0.000953 0.006170 0.000000 0.024473 0.000000
# 6 0.000000 0.000000 0.000000 0.102761 0.000000 0.134356
#
#
# Mechanical properties :
#
#
# Convention : Reuss Voigt Hill
#
# Bulk Modulus (GPa) = 38.16309 39.30335 38.73322
# Shear Modulus (GPa) = 13.46857 27.84383 20.65620
#
# Velocity S-wave (km/s) = 2.53172 3.64015 3.13530
# Velocity P-wave (km/s) = 5.16794 6.03089 5.61602
#
# Compressibility (1/GPa) = 0.02620333
#
# Stress axis : x y z
#
# Youngs Moduli (GPa) = 47.28287 83.07386 56.03961
#
# Poissons Ratio (x) = 0.27825 0.38244
# Poissons Ratio (y) = 0.15837 0.12554
# Poissons Ratio (z) = 0.32268 0.18610
#
# Static dielectric constant tensor:
#      x y z
#    x 1.760840 0.000000 -0.026360 
#    y 0.000000 1.774160 0.000000 
#    z -0.026360 0.000000 1.740050 
# 
# From -- ./inp_files/52333.got.cif
#   From: 2010.05.17/outbox.cif.g08.bks.cpg/sg13_27_cif.got.tgz:52333.got - 2010.06.03 16:44:36.
