data_PCOD9237409
_publ_section_title
;
Structure prediction by ZEFSAII (Michael W. Deem and Ramdas Pophale) SiO2 
 PCOD9237409
Probable space group: P 2/C
;
_chemical_formula_sum "Si O2"
_cell_formula_units_Z 20
_cell_length_a 5.633909
_cell_length_b 10.085228
_cell_length_c 18.290996
_cell_angle_alpha 90.000000
_cell_angle_beta 52.030567
_cell_angle_gamma 90.000000
_cell_volume 819.305683
_symmetry_space_group_name_H-M "P 2/C"
_symmetry_group_IT_number 13
_symmetry_cell_setting 'monoclinic'
loop_
_space_group_symop_operation_xyz
x,y,z
-x,y,1/2-z
-x,-y,-z
x,-y,1/2+z
loop_
_atom_site_type_symbol
_atom_site_label
_atom_site_fract_x
_atom_site_fract_y
_atom_site_fract_z
Si Si1 0.320630 0.037533 0.350806
Si Si2 0.772160 0.137357 0.968448
Si Si3 0.646943 0.518652 0.801319
Si Si4 0.261017 0.420383 0.492276
Si Si5 0.649444 0.785506 0.340353
O O1 0.500000 0.107528 0.250000
O O2 0.483365 0.896449 0.327060
O O3 0.979466 0.985530 0.402785
O O4 0.323003 0.103658 0.430876
O O5 0.559418 0.168999 0.939927
O O6 0.899997 0.289293 0.945954
O O7 0.500000 0.533620 0.750000
O O8 0.483292 0.620325 0.885416
O O9 0.577266 0.367251 0.839283
O O10 0.000000 0.534462 0.750000
O O11 0.500000 0.500000 0.500000
O O12 0.000000 0.500000 0.500000
O O13 0.000000 0.797395 0.250000
#
# Coordination Sequence:
#
# PCOD9237409 Si02
#       5
#     4   4   4   4   4
#     4  11  23  43  67  97 139 177 235 290 354 419
#     4  11  25  42  67 101 132 187 231 288 354 423
#     4  11  24  41  69 101 140 183 236 291 352 421
#     4  12  25  45  69 101 141 181 233 293 351 419
#     4  11  21  38  68  96 132 178 235 284 344 414
#
# _framework density 24.410912
#
# number of rings (size 3 to 8) (size 9 to 14) (size 15 to 20)
#    0.000    0.800    4.000    3.600    5.600    0.800 
#    0.000    1.000    0.000    0.000    0.000    0.000 
#    0.000    0.000    0.000    0.000    0.000    0.000 
#
# Total GULP energy -111354.604676 kJ/mol
# GULP energy per Si atom -5567.730234 kJ/mol
# Density = 2.435535 g / cm^3
# Si number density = 24.410912 Si / 1000 Ang^3
#
#
#
# Elastic Constant Matrix: (Units=GPa)
#
#
# Indices 1 2 3 4 5 6 
#
# 1 111.6163 20.9091 40.1974 0.0000 13.0774 0.0000
# 2 20.9091 73.4562 2.9819 0.0000 -4.7033 0.0000
# 3 40.1974 2.9819 121.5006 0.0000 21.5707 0.0000
# 4 0.0000 0.0000 0.0000 34.9318 0.0000 5.3637
# 5 13.0774 -4.7033 21.5707 0.0000 59.1810 0.0000
# 6 0.0000 0.0000 0.0000 5.3637 0.0000 23.7673
#
#
#
# Elastic Compliance Matrix: (Units=1/GPa)
#
#
# Indices 1 2 3 4 5 6 
#
# 1 0.010879 -0.003057 -0.003265 0.000000 -0.001457 0.000000
# 2 -0.003057 0.014579 0.000351 0.000000 0.001706 0.000000
# 3 -0.003265 0.000351 0.009803 0.000000 -0.002824 0.000000
# 4 0.000000 0.000000 0.000000 0.029655 0.000000 -0.006692
# 5 -0.001457 0.001706 -0.002824 0.000000 0.018384 0.000000
# 6 0.000000 0.000000 0.000000 -0.006692 0.000000 0.043585
#
#
# Mechanical properties :
#
#
# Convention : Reuss Voigt Hill
#
# Bulk Modulus (GPa) = 42.88729 48.30553 45.59641
# Shear Modulus (GPa) = 34.10618 39.74168 36.92393
#
# Velocity S-wave (km/s) = 3.74193 4.03926 3.89343
# Velocity P-wave (km/s) = 6.02299 6.44869 6.23947
#
# Compressibility (1/GPa) = 0.02331693
#
# Stress axis : x y z
#
# Youngs Moduli (GPa) = 91.92288 68.59265 102.00455
#
# Poissons Ratio (x) = 0.20971 0.33309
# Poissons Ratio (y) = 0.28104 -0.03578
# Poissons Ratio (z) = 0.30017 -0.02406
#
# Static dielectric constant tensor:
#      x y z
#    x 2.037920 0.000000 -0.029650 
#    y 0.000000 1.921730 0.000000 
#    z -0.029650 0.000000 2.219110 
# 
# From -- ./inp_files/43517.got.cif
#   From: 2010.05.17/outbox.cif.g08.bks.cpg/sg13_22_cif.got.tgz:43517.got - 2010.06.03 16:44:36.
