data_PCOD9237148
_publ_section_title
;
Structure prediction by ZEFSAII (Michael W. Deem and Ramdas Pophale) SiO2 
 PCOD9237148
Probable space group: P 2/C
;
_chemical_formula_sum "Si O2"
_cell_formula_units_Z 28
_cell_length_a 16.607415
_cell_length_b 17.749244
_cell_length_c 8.924707
_cell_angle_alpha 90.000000
_cell_angle_beta 29.329617
_cell_angle_gamma 90.000000
_cell_volume 1288.617595
_symmetry_space_group_name_H-M "P 2/C"
_symmetry_group_IT_number 13
_symmetry_cell_setting 'monoclinic'
loop_
_space_group_symop_operation_xyz
x,y,z
-x,y,1/2-z
-x,-y,-z
x,-y,1/2+z
loop_
_atom_site_type_symbol
_atom_site_label
_atom_site_fract_x
_atom_site_fract_y
_atom_site_fract_z
Si Si1 0.694605 0.341687 0.267880
Si Si2 0.871413 0.521618 0.580186
Si Si3 0.000000 0.001757 0.250000
Si Si4 0.081480 0.249838 0.389130
Si Si5 0.800843 0.359475 0.754468
Si Si6 0.618272 0.257129 0.814191
Si Si7 0.500000 0.146858 0.250000
Si Si8 0.857344 0.100776 0.749768
O O1 0.732806 0.414654 0.309384
O O2 0.826171 0.279336 0.111425
O O3 0.513294 0.306982 0.562121
O O4 0.727788 0.364345 0.040659
O O5 0.797531 0.439152 0.673999
O O6 0.000000 0.500000 0.500000
O O7 0.000000 0.551102 0.250000
O O8 0.130000 0.945247 0.116066
O O9 0.943010 0.054551 0.477257
O O10 0.979697 0.320909 0.486039
O O11 0.954015 0.180625 0.608858
O O12 0.231489 0.230470 0.033376
O O13 0.696464 0.304251 0.822414
O O14 0.522140 0.193255 0.059792
O O15 0.328916 0.106469 0.500948
#
# Coordination Sequence:
#
# PCOD9237148 Si02
#       8
#     4   4   2   4   4   4   2   4
#     4  12  25  44  65 104 139 181 242 298 351 411
#     4  12  23  42  66  97 134 189 241 295 359 422
#     4  10  26  50  72 110 144 182 234 262 344 432
#     4  12  24  43  74 100 139 189 235 282 350 421
#     4  12  24  43  71  96 134 190 238 291 355 419
#     4  12  25  43  64 107 142 176 243 295 343 407
#     4  12  24  42  78 108 144 180 230 288 346 394
#     4  11  25  46  77 106 143 188 225 282 339 419
#
# _framework density 21.728712000000002
#
# number of rings (size 3 to 8) (size 9 to 14) (size 15 to 20)
#    0.000    0.286    5.714    3.000    4.000    1.143 
#    0.000    1.429    0.000    0.000    0.000    0.000 
#    0.000    0.000    0.000    0.000    0.000    0.000 
#
# Total GULP energy -156412.719220 kJ/mol
# GULP energy per Si atom -5586.168544 kJ/mol
# Density = 2.167926 g / cm^3
# Si number density = 21.728712 Si / 1000 Ang^3
#
#
#
# Elastic Constant Matrix: (Units=GPa)
#
#
# Indices 1 2 3 4 5 6 
#
# 1 104.5779 18.0933 8.1584 0.0000 -23.4613 0.0000
# 2 18.0933 79.1695 10.3930 0.0000 -12.4990 0.0000
# 3 8.1584 10.3930 63.1190 0.0000 -18.6300 0.0000
# 4 0.0000 0.0000 0.0000 27.6143 0.0000 -5.5138
# 5 -23.4613 -12.4990 -18.6300 0.0000 38.6765 0.0000
# 6 0.0000 0.0000 0.0000 -5.5138 0.0000 38.1201
#
#
#
# Elastic Compliance Matrix: (Units=1/GPa)
#
#
# Indices 1 2 3 4 5 6 
#
# 1 0.011285 -0.001625 0.000786 0.000000 0.006699 0.000000
# 2 -0.001625 0.013607 -0.001193 0.000000 0.002837 0.000000
# 3 0.000786 -0.001193 0.018611 0.000000 0.009056 0.000000
# 4 0.000000 0.000000 0.000000 0.037290 0.000000 0.005394
# 5 0.006699 0.002837 0.009056 0.000000 0.035198 0.000000
# 6 0.000000 0.000000 0.000000 0.005394 0.000000 0.027013
#
#
# Mechanical properties :
#
#
# Convention : Reuss Voigt Hill
#
# Bulk Modulus (GPa) = 25.35520 35.57287 30.46403
# Shear Modulus (GPa) = 31.20831 34.89695 33.05263
#
# Velocity S-wave (km/s) = 3.79393 4.01188 3.90442
# Velocity P-wave (km/s) = 5.55753 6.15363 5.86316
#
# Compressibility (1/GPa) = 0.03943965
#
# Stress axis : x y z
#
# Youngs Moduli (GPa) = 88.61402 73.49181 53.73200
#
# Poissons Ratio (x) = 0.11940 -0.04224
# Poissons Ratio (y) = 0.14396 0.06411
# Poissons Ratio (z) = -0.06967 0.08768
#
# Static dielectric constant tensor:
#      x y z
#    x 1.831980 0.000000 0.031500 
#    y 0.000000 1.888290 0.000000 
#    z 0.031500 0.000000 1.862450 
# 
# From -- ./inp_files/20204.got.cif
#   From: 2010.05.17/outbox.cif.g08.bks.cpg/sg13_11_cif.got.tgz:20204.got - 2010.06.03 16:44:36.
