data_PCOD9237991
_publ_section_title
;
Structure prediction by ZEFSAII (Michael W. Deem and Ramdas Pophale) SiO2 
 PCOD9237991
Probable space group: P 2/C
;
_chemical_formula_sum "Si O2"
_cell_formula_units_Z 28
_cell_length_a 8.211662
_cell_length_b 6.074663
_cell_length_c 28.366861
_cell_angle_alpha 90.000000
_cell_angle_beta 124.963100
_cell_angle_gamma 90.000000
_cell_volume 1159.644218
_symmetry_space_group_name_H-M "P 2/C"
_symmetry_group_IT_number 13
_symmetry_cell_setting 'monoclinic'
loop_
_space_group_symop_operation_xyz
x,y,z
-x,y,1/2-z
-x,-y,-z
x,-y,1/2+z
loop_
_atom_site_type_symbol
_atom_site_label
_atom_site_fract_x
_atom_site_fract_y
_atom_site_fract_z
Si Si1 0.728310 0.149125 0.449201
Si Si2 0.374293 0.504756 0.378170
Si Si3 0.553987 0.798566 0.474812
Si Si4 0.088023 0.536562 0.460664
Si Si5 0.812270 0.745522 0.862726
Si Si6 0.026317 0.236720 0.203474
Si Si7 0.421152 0.482306 0.783621
O O1 0.557245 0.335436 0.416263
O O2 0.837768 0.219038 0.515642
O O3 0.837429 0.143495 0.417575
O O4 0.641646 0.912493 0.443089
O O5 0.371756 0.663405 0.422627
O O6 0.410206 0.622586 0.333587
O O7 0.178311 0.360242 0.340756
O O8 0.727808 0.630624 0.518751
O O9 0.500000 0.000000 0.500000
O O10 0.000000 0.500000 0.500000
O O11 0.927685 0.484218 0.394054
O O12 0.906361 0.873366 0.834329
O O13 0.583556 0.680764 0.815584
O O14 0.204073 0.414567 0.239253
O O15 0.000000 0.119467 0.250000
O O16 0.500000 0.357909 0.750000
#
# Coordination Sequence:
#
# PCOD9237991 Si02
#       7
#     4   4   4   4   4   4   4
#     4   9  20  37  56  82 124 155 196 241 284 362
#     4   9  19  35  59  84 117 159 188 243 303 351
#     4  11  24  36  56  91 127 158 199 242 299 364
#     4   9  20  37  58  86 118 158 195 236 291 359
#     4   9  17  31  57  83 111 151 193 238 291 342
#     4   9  17  30  58  89 110 146 202 243 295 359
#     4   8  15  32  57  86 106 145 204 247 288 350
#
# _framework density 24.145339
#
# number of rings (size 3 to 8) (size 9 to 14) (size 15 to 20)
#    0.000    2.857    0.000    0.857    4.000    3.429 
#    0.000    0.000    0.000   21.429    0.000    0.000 
#    0.000    0.000    0.000    0.000    0.000    0.000 
#
# Total GULP energy -155985.973130 kJ/mol
# GULP energy per Si atom -5570.927612 kJ/mol
# Density = 2.409038 g / cm^3
# Si number density = 24.145339 Si / 1000 Ang^3
#
#
#
# Elastic Constant Matrix: (Units=GPa)
#
#
# Indices 1 2 3 4 5 6 
#
# 1 100.8766 15.7320 36.5306 0.0000 -25.6378 0.0000
# 2 15.7320 35.4186 27.5926 0.0000 -10.4382 0.0000
# 3 36.5306 27.5926 98.4321 0.0000 -12.8979 0.0000
# 4 0.0000 0.0000 0.0000 3.4735 0.0000 -0.8323
# 5 -25.6378 -10.4382 -12.8979 0.0000 65.3271 0.0000
# 6 0.0000 0.0000 0.0000 -0.8323 0.0000 28.0732
#
#
#
# Elastic Compliance Matrix: (Units=1/GPa)
#
#
# Indices 1 2 3 4 5 6 
#
# 1 0.012485 -0.001508 -0.003696 0.000000 0.003929 0.000000
# 2 -0.001508 0.037285 -0.009433 0.000000 0.003503 0.000000
# 3 -0.003696 -0.009433 0.014154 0.000000 -0.000163 0.000000
# 4 0.000000 0.000000 0.000000 0.289951 0.000000 0.008596
# 5 0.003929 0.003503 -0.000163 0.000000 0.017377 0.000000
# 6 0.000000 0.000000 0.000000 0.008596 0.000000 0.035876
#
#
# Mechanical properties :
#
#
# Convention : Reuss Voigt Hill
#
# Bulk Modulus (GPa) = 28.86044 43.82640 36.34342
# Shear Modulus (GPa) = 11.16191 29.69958 20.43075
#
# Velocity S-wave (km/s) = 2.15240 3.51099 2.91203
# Velocity P-wave (km/s) = 4.26097 5.88443 5.13724
#
# Compressibility (1/GPa) = 0.03464950
#
# Stress axis : x y z
#
# Youngs Moduli (GPa) = 80.09383 26.82061 70.65252
#
# Poissons Ratio (x) = 0.04046 0.26113
# Poissons Ratio (y) = 0.12081 0.66646
# Poissons Ratio (z) = 0.29602 0.25300
#
# Static dielectric constant tensor:
#      x y z
#    x 2.144560 0.000000 -0.002100 
#    y 0.000000 1.957160 0.000000 
#    z -0.002100 0.000000 2.008630 
# 
# From -- ./inp_files/95708.got.cif
#   From: 2010.05.17/outbox.cif.g08.bks.cpg/sg13_48_cif.got.tgz:95708.got - 2010.06.03 16:44:36.
