data_PCOD9237450
_publ_section_title
;
Structure prediction by ZEFSAII (Michael W. Deem and Ramdas Pophale) SiO2 
 PCOD9237450
Probable space group: P 2/C
;
_chemical_formula_sum "Si O2"
_cell_formula_units_Z 28
_cell_length_a 8.228391
_cell_length_b 14.388879
_cell_length_c 13.221029
_cell_angle_alpha 90.000000
_cell_angle_beta 125.398253
_cell_angle_gamma 90.000000
_cell_volume 1275.975254
_symmetry_space_group_name_H-M "P 2/C"
_symmetry_group_IT_number 13
_symmetry_cell_setting 'monoclinic'
loop_
_space_group_symop_operation_xyz
x,y,z
-x,y,1/2-z
-x,-y,-z
x,-y,1/2+z
loop_
_atom_site_type_symbol
_atom_site_label
_atom_site_fract_x
_atom_site_fract_y
_atom_site_fract_z
Si Si1 0.556580 0.258111 0.010302
Si Si2 0.207765 0.988468 0.132075
Si Si3 0.559560 0.936577 0.615508
Si Si4 0.344297 0.617753 0.114284
Si Si5 0.434360 0.420797 0.110319
Si Si6 0.997776 0.610910 0.367399
Si Si7 0.827359 0.190385 0.759159
O O1 0.707256 0.299980 0.980826
O O2 0.353997 0.229877 0.875122
O O3 0.591688 0.166737 0.087506
O O4 0.542151 0.344525 0.081312
O O5 0.241409 0.035907 0.252850
O O6 0.374009 0.038600 0.122513
O O7 0.238879 0.880611 0.176808
O O8 0.000000 0.000000 0.000000
O O9 0.500000 0.000000 0.500000
O O10 0.500000 0.658901 0.250000
O O11 0.458591 0.531872 0.101566
O O12 0.171253 0.572028 0.118957
O O13 0.500000 0.405830 0.250000
O O14 0.206602 0.402745 0.996163
O O15 0.938155 0.719337 0.342458
O O16 0.000000 0.578878 0.250000
O O17 0.000000 0.145237 0.750000
#
# Coordination Sequence:
#
# PCOD9237450 Si02
#       7
#     4   4   4   4   4   4   4
#     4  12  23  43  70  97 142 179 232 282 345 412
#     4  11  26  43  70  97 139 176 232 281 343 410
#     4  11  26  43  68 104 136 181 225 289 341 396
#     4  11  23  41  71 107 131 182 233 285 347 416
#     4  11  25  43  67 101 142 181 226 287 350 406
#     4  11  22  42  71 101 134 175 233 282 338 416
#     4  11  21  40  73 100 127 184 233 273 339 405
#
# _framework density 21.943999999999999
#
# number of rings (size 3 to 8) (size 9 to 14) (size 15 to 20)
#    0.000    0.857    5.714    1.714    4.000    1.143 
#    0.000    0.714    3.143    0.000    0.000    0.000 
#    0.000    0.000    0.000    0.000    0.000    0.000 
#
# Total GULP energy -156101.303411 kJ/mol
# GULP energy per Si atom -5575.046550 kJ/mol
# Density = 2.189405 g / cm^3
# Si number density = 21.944000 Si / 1000 Ang^3
#
#
#
# Elastic Constant Matrix: (Units=GPa)
#
#
# Indices 1 2 3 4 5 6 
#
# 1 52.4726 8.5572 36.5583 0.0000 -13.1202 0.0000
# 2 8.5572 128.4350 54.6450 0.0000 -28.4513 0.0000
# 3 36.5583 54.6450 176.9972 0.0000 2.3251 0.0000
# 4 0.0000 0.0000 0.0000 52.4891 0.0000 -12.8345
# 5 -13.1202 -28.4513 2.3251 0.0000 34.1213 0.0000
# 6 0.0000 0.0000 0.0000 -12.8345 0.0000 22.0007
#
#
#
# Elastic Compliance Matrix: (Units=1/GPa)
#
#
# Indices 1 2 3 4 5 6 
#
# 1 0.026945 0.004470 -0.007137 0.000000 0.014574 0.000000
# 2 0.004470 0.012288 -0.004878 0.000000 0.012297 0.000000
# 3 -0.007137 -0.004878 0.008727 0.000000 -0.007407 0.000000
# 4 0.000000 0.000000 0.000000 0.022221 0.000000 0.012963
# 5 0.014574 0.012297 -0.007407 0.000000 0.045670 0.000000
# 6 0.000000 0.000000 0.000000 0.012963 0.000000 0.053015
#
#
# Mechanical properties :
#
#
# Convention : Reuss Voigt Hill
#
# Bulk Modulus (GPa) = 30.42354 61.93621 46.17987
# Shear Modulus (GPa) = 25.65230 38.93185 32.29208
#
# Velocity S-wave (km/s) = 3.42276 4.21663 3.84026
# Velocity P-wave (km/s) = 5.43274 7.21059 6.38385
#
# Compressibility (1/GPa) = 0.03286929
#
# Stress axis : x y z
#
# Youngs Moduli (GPa) = 37.11251 81.38029 114.58220
#
# Poissons Ratio (x) = -0.36375 0.81776
# Poissons Ratio (y) = -0.16588 0.55899
# Poissons Ratio (z) = 0.26487 0.39701
#
# Static dielectric constant tensor:
#      x y z
#    x 1.936570 0.000000 -0.057930 
#    y 0.000000 1.820380 0.000000 
#    z -0.057930 0.000000 1.869450 
# 
# From -- ./inp_files/30498.got.cif
#   From: 2010.05.17/outbox.cif.g08.bks.cpg/sg13_16_cif.got.tgz:30498.got - 2010.06.03 16:44:36.
