data_PCOD9237375
_publ_section_title
;
Structure prediction by ZEFSAII (Michael W. Deem and Ramdas Pophale) SiO2 
 PCOD9237375
Probable space group: P 2/C
;
_chemical_formula_sum "Si O2"
_cell_formula_units_Z 28
_cell_length_a 26.213319
_cell_length_b 10.928405
_cell_length_c 26.322964
_cell_angle_alpha 90.000000
_cell_angle_beta 10.880056
_cell_angle_gamma 90.000000
_cell_volume 1423.340740
_symmetry_space_group_name_H-M "P 2/C"
_symmetry_group_IT_number 13
_symmetry_cell_setting 'monoclinic'
loop_
_space_group_symop_operation_xyz
x,y,z
-x,y,1/2-z
-x,-y,-z
x,-y,1/2+z
loop_
_atom_site_type_symbol
_atom_site_label
_atom_site_fract_x
_atom_site_fract_y
_atom_site_fract_z
Si Si1 0.302608 0.073236 0.653860
Si Si2 0.229984 0.239060 0.315455
Si Si3 0.198505 0.508392 0.899776
Si Si4 0.293749 0.363441 0.144843
Si Si5 0.592463 0.146261 0.712791
Si Si6 0.757955 0.572527 0.027339
Si Si7 0.881766 0.871294 0.743611
O O1 0.525324 0.152570 0.406980
O O2 0.500000 0.000000 0.500000
O O3 0.175765 0.969544 0.743091
O O4 0.051985 0.162166 0.916010
O O5 0.224053 0.350132 0.360614
O O6 0.324460 0.299257 0.169273
O O7 0.436228 0.420714 0.644190
O O8 0.184051 0.487734 0.974683
O O9 0.922318 0.470983 0.141849
O O10 0.142431 0.262084 0.258313
O O11 0.500000 0.090606 0.750000
O O12 0.682189 0.286400 0.614054
O O13 0.843849 0.093725 0.497089
O O14 0.342921 0.136886 0.993861
O O15 0.000000 0.571242 0.750000
O O16 0.500000 0.518148 0.250000
#
# Coordination Sequence:
#
# PCOD9237375 Si02
#       7
#     4   4   4   4   4   4   4
#     4  12  26  43  66  92 128 178 225 266 309 383
#     4  12  26  43  64  92 135 178 224 255 314 399
#     4  12  24  41  63  96 134 168 207 270 328 394
#     4  12  22  39  64  97 131 170 206 262 336 377
#     4  11  22  38  62  97 129 160 207 269 338 386
#     4  11  21  36  61  92 124 160 203 259 327 386
#     4  12  22  39  65  93 132 164 211 270 324 376
#
# _framework density 19.672028999999998
#
# number of rings (size 3 to 8) (size 9 to 14) (size 15 to 20)
#    0.000    0.286    4.286    6.857    2.000    0.000 
#    0.000    0.000    0.000    8.571    0.000    0.000 
#    0.000    0.000    0.000    0.000    0.000    0.000 
#
# Total GULP energy -156338.293070 kJ/mol
# GULP energy per Si atom -5583.510467 kJ/mol
# Density = 1.962725 g / cm^3
# Si number density = 19.672029 Si / 1000 Ang^3
#
#
#
# Elastic Constant Matrix: (Units=GPa)
#
#
# Indices 1 2 3 4 5 6 
#
# 1 117.9359 32.9866 41.2554 0.0000 -4.9358 0.0000
# 2 32.9866 78.7519 31.2238 0.0000 9.3266 0.0000
# 3 41.2554 31.2238 150.2780 0.0000 6.5542 0.0000
# 4 0.0000 0.0000 0.0000 13.2256 0.0000 -6.0314
# 5 -4.9358 9.3266 6.5542 0.0000 35.9039 0.0000
# 6 0.0000 0.0000 0.0000 -6.0314 0.0000 19.8902
#
#
#
# Elastic Compliance Matrix: (Units=1/GPa)
#
#
# Indices 1 2 3 4 5 6 
#
# 1 0.010438 -0.003839 -0.002191 0.000000 0.002832 0.000000
# 2 -0.003839 0.015599 -0.002004 0.000000 -0.004214 0.000000
# 3 -0.002191 -0.002004 0.007724 0.000000 -0.001191 0.000000
# 4 0.000000 0.000000 0.000000 0.087744 0.000000 0.026607
# 5 0.002832 -0.004214 -0.001191 0.000000 0.029554 0.000000
# 6 0.000000 0.000000 0.000000 0.026607 0.000000 0.058344
#
#
# Mechanical properties :
#
#
# Convention : Reuss Voigt Hill
#
# Bulk Modulus (GPa) = 56.51545 61.98859 59.25202
# Shear Modulus (GPa) = 21.61049 29.90395 25.75722
#
# Velocity S-wave (km/s) = 3.31802 3.90311 3.62240
# Velocity P-wave (km/s) = 6.59319 7.20359 6.90514
#
# Compressibility (1/GPa) = 0.01769428
#
# Stress axis : x y z
#
# Youngs Moduli (GPa) = 95.80395 64.10486 129.46374
#
# Poissons Ratio (x) = 0.24608 0.28371
# Poissons Ratio (y) = 0.36776 0.25939
# Poissons Ratio (z) = 0.20995 0.12844
#
# Static dielectric constant tensor:
#      x y z
#    x 1.724080 0.000000 0.003800 
#    y 0.000000 1.711210 0.000000 
#    z 0.003800 0.000000 1.713860 
# 
# From -- ./inp_files/94115.got.cif
#   From: 2010.05.17/outbox.cif.g08.bks.cpg/sg13_48_cif.got.tgz:94115.got - 2010.06.03 16:44:36.
