data_PCOD9237833
_publ_section_title
;
Structure prediction by ZEFSAII (Michael W. Deem and Ramdas Pophale) SiO2 
 PCOD9237833
Probable space group: P 2/C
;
_chemical_formula_sum "Si O2"
_cell_formula_units_Z 28
_cell_length_a 8.660760
_cell_length_b 8.839779
_cell_length_c 25.141289
_cell_angle_alpha 90.000000
_cell_angle_beta 39.951507
_cell_angle_gamma 90.000000
_cell_volume 1235.987328
_symmetry_space_group_name_H-M "P 2/C"
_symmetry_group_IT_number 13
_symmetry_cell_setting 'monoclinic'
loop_
_space_group_symop_operation_xyz
x,y,z
-x,y,1/2-z
-x,-y,-z
x,-y,1/2+z
loop_
_atom_site_type_symbol
_atom_site_label
_atom_site_fract_x
_atom_site_fract_y
_atom_site_fract_z
Si Si1 0.716491 0.851508 0.611243
Si Si2 0.157864 0.903949 0.756144
Si Si3 0.733182 0.443662 0.909307
Si Si4 0.175700 0.636409 0.814531
Si Si5 0.604521 0.415892 0.824693
Si Si6 0.160106 0.212116 0.924304
Si Si7 0.069646 0.793854 0.329465
O O1 0.434260 0.862273 0.672347
O O2 0.752293 0.749867 0.655959
O O3 0.899335 0.776125 0.520733
O O4 0.780252 0.031768 0.592796
O O5 0.051590 0.749105 0.805148
O O6 0.000000 0.963343 0.750000
O O7 0.127405 0.030946 0.808632
O O8 0.700725 0.477619 0.855261
O O9 0.958874 0.520132 0.879889
O O10 0.796690 0.264602 0.896589
O O11 0.500000 0.500000 0.000000
O O12 0.376768 0.541181 0.727626
O O13 0.352998 0.327241 0.899093
O O14 0.785291 0.287853 0.755549
O O15 0.166501 0.253717 0.860997
#
# Coordination Sequence:
#
# PCOD9237833 Si02
#       7
#     4   4   4   4   4   4   4
#     4  11  25  45  70 106 153 193 247 314 372 443
#     4  12  24  43  69 102 140 189 249 303 366 447
#     4  11  25  47  71 105 152 191 246 308 375 444
#     4  11  24  44  71 107 144 192 246 309 366 447
#     4  11  23  45  75 104 144 196 247 303 369 447
#     4  11  24  44  71 108 148 196 249 309 374 444
#     4  11  23  42  70 103 140 194 250 296 368 450
#
# _framework density 22.653955
#
# number of rings (size 3 to 8) (size 9 to 14) (size 15 to 20)
#    0.000    0.857    2.857    5.143    0.000    6.857 
#    0.000    5.714    0.000    0.000    0.000    0.000 
#    0.000    0.000    0.000    0.000    0.000    0.000 
#
# Total GULP energy -156101.091650 kJ/mol
# GULP energy per Si atom -5575.038988 kJ/mol
# Density = 2.260239 g / cm^3
# Si number density = 22.653955 Si / 1000 Ang^3
#
#
#
# Elastic Constant Matrix: (Units=GPa)
#
#
# Indices 1 2 3 4 5 6 
#
# 1 93.6969 19.5382 28.1422 0.0000 -8.8096 0.0000
# 2 19.5382 114.1942 41.1148 0.0000 -13.2945 0.0000
# 3 28.1422 41.1148 100.7899 0.0000 -20.5020 0.0000
# 4 0.0000 0.0000 0.0000 25.9835 0.0000 -6.8200
# 5 -8.8096 -13.2945 -20.5020 0.0000 32.4147 0.0000
# 6 0.0000 0.0000 0.0000 -6.8200 0.0000 35.7697
#
#
#
# Elastic Compliance Matrix: (Units=1/GPa)
#
#
# Indices 1 2 3 4 5 6 
#
# 1 0.011776 -0.000917 -0.002685 0.000000 0.001126 0.000000
# 2 -0.000917 0.010428 -0.003648 0.000000 0.001720 0.000000
# 3 -0.002685 -0.003648 0.013435 0.000000 0.006272 0.000000
# 4 0.000000 0.000000 0.000000 0.040513 0.000000 0.007724
# 5 0.001126 0.001720 0.006272 0.000000 0.035829 0.000000
# 6 0.000000 0.000000 0.000000 0.007724 0.000000 0.029429
#
#
# Mechanical properties :
#
#
# Convention : Reuss Voigt Hill
#
# Bulk Modulus (GPa) = 47.30483 54.03018 50.66750
# Shear Modulus (GPa) = 30.68309 33.49264 32.08787
#
# Velocity S-wave (km/s) = 3.68424 3.84923 3.76764
# Velocity P-wave (km/s) = 6.24700 6.60737 6.42971
#
# Compressibility (1/GPa) = 0.02113949
#
# Stress axis : x y z
#
# Youngs Moduli (GPa) = 84.91661 95.90017 74.43219
#
# Poissons Ratio (x) = 0.08795 0.19985
# Poissons Ratio (y) = 0.07787 0.27150
# Poissons Ratio (z) = 0.22800 0.34981
#
# Static dielectric constant tensor:
#      x y z
#    x 1.880680 0.000000 -0.016430 
#    y 0.000000 1.912910 0.000000 
#    z -0.016430 0.000000 1.843060 
# 
# From -- ./inp_files/91389.got.cif
#   From: 2010.05.17/outbox.cif.g08.bks.cpg/sg13_46_cif.got.tgz:91389.got - 2010.06.03 16:44:36.
