data_PCOD9237155
_publ_section_title
;
Structure prediction by ZEFSAII (Michael W. Deem and Ramdas Pophale) SiO2 
 PCOD9237155
Probable space group: P 2/C
;
_chemical_formula_sum "Si O2"
_cell_formula_units_Z 24
_cell_length_a 21.292709
_cell_length_b 6.460056
_cell_length_c 10.106286
_cell_angle_alpha 90.000000
_cell_angle_beta 126.677484
_cell_angle_gamma 90.000000
_cell_volume 1114.907419
_symmetry_space_group_name_H-M "P 2/C"
_symmetry_group_IT_number 13
_symmetry_cell_setting 'monoclinic'
loop_
_space_group_symop_operation_xyz
x,y,z
-x,y,1/2-z
-x,-y,-z
x,-y,1/2+z
loop_
_atom_site_type_symbol
_atom_site_label
_atom_site_fract_x
_atom_site_fract_y
_atom_site_fract_z
Si Si1 0.735899 0.303084 0.752393
Si Si2 0.551752 0.284534 0.565214
Si Si3 0.840289 0.093516 0.422047
Si Si4 0.000000 0.938793 0.750000
Si Si5 0.208665 0.399477 0.950773
Si Si6 0.924772 0.393909 0.343229
Si Si7 0.500000 0.002453 0.750000
O O1 0.645508 0.299719 0.677308
O O2 0.739278 0.409596 0.613246
O O3 0.791135 0.098729 0.803883
O O4 0.774858 0.424423 0.922509
O O5 0.500000 0.500000 0.500000
O O6 0.536782 0.161284 0.685582
O O7 0.534632 0.156155 0.406479
O O8 0.786529 0.179492 0.472323
O O9 0.858446 0.286625 0.349419
O O10 0.928298 0.046043 0.583593
O O11 0.043833 0.793069 0.702720
O O12 0.118980 0.431184 0.794648
O O13 0.000000 0.500000 0.500000
#
# Coordination Sequence:
#
# PCOD9237155 Si02
#       7
#     4   4   4   2   4   4   2
#     4  12  29  46  78 105 149 195 246 307 379 450
#     4  11  27  49  81 115 155 199 247 315 386 462
#     4  12  25  45  68 104 142 192 250 308 372 435
#     4  12  22  40  66  92 138 188 244 298 366 424
#     4  12  26  48  67 108 145 191 249 307 372 444
#     4  12  23  43  68 101 143 195 250 308 370 439
#     4  10  26  50  78 120 150 192 254 300 384 480
#
# _framework density 21.526451999999999
#
# number of rings (size 3 to 8) (size 9 to 14) (size 15 to 20)
#    0.000    0.333    3.333    5.000    7.000    1.333 
#    0.000    0.000    0.000    0.000    0.000    0.000 
#    0.000    0.000    0.000    0.000    0.000    0.000 
#
# Total GULP energy -133676.867963 kJ/mol
# GULP energy per Si atom -5569.869498 kJ/mol
# Density = 2.147746 g / cm^3
# Si number density = 21.526452 Si / 1000 Ang^3
#
#
#
# Elastic Constant Matrix: (Units=GPa)
#
#
# Indices 1 2 3 4 5 6 
#
# 1 128.9205 35.1313 50.4549 0.0000 -11.4998 0.0000
# 2 35.1313 70.6476 18.0355 0.0000 -2.8665 0.0000
# 3 50.4549 18.0355 63.8887 0.0000 -12.0654 0.0000
# 4 0.0000 0.0000 0.0000 26.2745 0.0000 -18.8529
# 5 -11.4998 -2.8665 -12.0654 0.0000 44.8719 0.0000
# 6 0.0000 0.0000 0.0000 -18.8529 0.0000 28.8977
#
#
#
# Elastic Compliance Matrix: (Units=1/GPa)
#
#
# Indices 1 2 3 4 5 6 
#
# 1 0.012149 -0.003876 -0.008385 0.000000 0.000611 0.000000
# 2 -0.003876 0.016492 -0.001668 0.000000 -0.000388 0.000000
# 3 -0.008385 -0.001668 0.023513 0.000000 0.004067 0.000000
# 4 0.000000 0.000000 0.000000 0.071557 0.000000 0.046684
# 5 0.000611 -0.000388 0.004067 0.000000 0.023511 0.000000
# 6 0.000000 0.000000 0.000000 0.046684 0.000000 0.065061
#
#
# Mechanical properties :
#
#
# Convention : Reuss Voigt Hill
#
# Bulk Modulus (GPa) = 41.15822 52.30001 46.72911
# Shear Modulus (GPa) = 20.14180 30.66450 25.40315
#
# Velocity S-wave (km/s) = 3.06220 3.77835 3.43897
# Velocity P-wave (km/s) = 5.62709 6.58658 6.12565
#
# Compressibility (1/GPa) = 0.02429648
#
# Stress axis : x y z
#
# Youngs Moduli (GPa) = 82.31133 60.63438 42.52999
#
# Poissons Ratio (x) = 0.23502 0.35660
# Poissons Ratio (y) = 0.31904 0.07094
# Poissons Ratio (z) = 0.69016 0.10114
#
# Static dielectric constant tensor:
#      x y z
#    x 1.582760 0.000000 0.116920 
#    y 0.000000 1.728800 0.000000 
#    z 0.116920 0.000000 1.489790 
# 
# From -- ./inp_files/41103.got.cif
#   From: 2010.05.17/outbox.cif.g08.bks.cpg/sg13_21_cif.got.tgz:41103.got - 2010.06.03 16:44:36.
