data_PCOD9237067
_publ_section_title
;
Structure prediction by ZEFSAII (Michael W. Deem and Ramdas Pophale) SiO2 
 PCOD9237067
Probable space group: P 2/C
;
_chemical_formula_sum "Si O2"
_cell_formula_units_Z 20
_cell_length_a 8.104624
_cell_length_b 5.217168
_cell_length_c 18.067001
_cell_angle_alpha 90.000000
_cell_angle_beta 96.221705
_cell_angle_gamma 90.000000
_cell_volume 759.430780
_symmetry_space_group_name_H-M "P 2/C"
_symmetry_group_IT_number 13
_symmetry_cell_setting 'monoclinic'
loop_
_space_group_symop_operation_xyz
x,y,z
-x,y,1/2-z
-x,-y,-z
x,-y,1/2+z
loop_
_atom_site_type_symbol
_atom_site_label
_atom_site_fract_x
_atom_site_fract_y
_atom_site_fract_z
Si Si1 0.653958 0.661269 0.342773
Si Si2 0.009394 0.394932 0.082999
Si Si3 0.173213 0.694509 0.299764
Si Si4 0.234747 0.988703 0.442837
Si Si5 0.563020 0.804666 0.921150
O O1 0.691119 0.663373 0.257584
O O2 0.535402 0.441218 0.368480
O O3 0.824591 0.526605 0.379544
O O4 0.615918 0.942282 0.375184
O O5 0.884181 0.476650 0.144439
O O6 0.949743 0.102863 0.067829
O O7 0.000000 0.500000 0.000000
O O8 0.000000 0.775022 0.250000
O O9 0.250388 0.893585 0.360311
O O10 0.390740 0.179642 0.458424
O O11 0.289582 0.792822 0.509920
#
# Coordination Sequence:
#
# PCOD9237067 Si02
#       5
#     4   4   4   4   4
#     4  11  26  48  73 110 149 198 244 314 379 458
#     4  11  23  44  74 104 140 196 251 303 369 442
#     4  10  26  45  71 107 147 192 248 309 372 448
#     4  11  26  45  79 107 151 200 254 317 372 458
#     4  11  27  48  76 112 152 193 257 308 385 447
#
# _framework density 26.335514
#
# number of rings (size 3 to 8) (size 9 to 14) (size 15 to 20)
#    0.000    1.200    2.000    1.200   11.200    4.800 
#    0.000    0.000    0.000    0.000    0.000    0.000 
#    0.000    0.000    0.000    0.000    0.000    0.000 
#
# Total GULP energy -111495.993207 kJ/mol
# GULP energy per Si atom -5574.799660 kJ/mol
# Density = 2.627557 g / cm^3
# Si number density = 26.335514 Si / 1000 Ang^3
#
#
#
# Elastic Constant Matrix: (Units=GPa)
#
#
# Indices 1 2 3 4 5 6 
#
# 1 74.1295 17.3739 -2.5483 0.0000 11.8086 0.0000
# 2 17.3739 50.5807 55.2026 0.0000 1.8696 0.0000
# 3 -2.5483 55.2026 210.7935 0.0000 -6.6229 0.0000
# 4 0.0000 0.0000 0.0000 48.6934 0.0000 -16.4513
# 5 11.8086 1.8696 -6.6229 0.0000 51.2616 0.0000
# 6 0.0000 0.0000 0.0000 -16.4513 0.0000 37.1184
#
#
#
# Elastic Compliance Matrix: (Units=1/GPa)
#
#
# Indices 1 2 3 4 5 6 
#
# 1 0.015837 -0.007600 0.002084 0.000000 -0.003102 0.000000
# 2 -0.007600 0.031526 -0.008363 0.000000 -0.000480 0.000000
# 3 0.002084 -0.008363 0.006982 0.000000 0.000727 0.000000
# 4 0.000000 0.000000 0.000000 0.024153 0.000000 0.010705
# 5 -0.003102 -0.000480 0.000727 0.000000 0.020334 0.000000
# 6 0.000000 0.000000 0.000000 0.010705 0.000000 0.031685
#
#
# Mechanical properties :
#
#
# Convention : Reuss Voigt Hill
#
# Bulk Modulus (GPa) = 37.61149 52.84000 45.22574
# Shear Modulus (GPa) = 29.91569 45.11306 37.51438
#
# Velocity S-wave (km/s) = 3.37403 4.14335 3.77832
# Velocity P-wave (km/s) = 5.43061 6.55725 6.02034
#
# Compressibility (1/GPa) = 0.02658762
#
# Stress axis : x y z
#
# Youngs Moduli (GPa) = 63.14388 31.72029 143.22381
#
# Poissons Ratio (x) = 0.24107 -0.29851
# Poissons Ratio (y) = 0.47988 1.19776
# Poissons Ratio (z) = -0.13161 0.26527
#
# Static dielectric constant tensor:
#      x y z
#    x 2.402960 0.000000 -0.083860 
#    y 0.000000 2.763780 0.000000 
#    z -0.083860 0.000000 1.994810 
# 
# From -- ./inp_files/62394.got.cif
#   From: 2010.05.17/outbox.cif.g08.bks.cpg/sg13_32_cif.got.tgz:62394.got - 2010.06.03 16:44:36.
