data_PCOD9237977
_publ_section_title
;
Structure prediction by ZEFSAII (Michael W. Deem and Ramdas Pophale) SiO2 
 PCOD9237977
Probable space group: P 2/C
;
_chemical_formula_sum "Si O2"
_cell_formula_units_Z 18
_cell_length_a 23.077722
_cell_length_b 7.191898
_cell_length_c 9.958090
_cell_angle_alpha 90.000000
_cell_angle_beta 25.775444
_cell_angle_gamma 90.000000
_cell_volume 718.699235
_symmetry_space_group_name_H-M "P 2/C"
_symmetry_group_IT_number 13
_symmetry_cell_setting 'monoclinic'
loop_
_space_group_symop_operation_xyz
x,y,z
-x,y,1/2-z
-x,-y,-z
x,-y,1/2+z
loop_
_atom_site_type_symbol
_atom_site_label
_atom_site_fract_x
_atom_site_fract_y
_atom_site_fract_z
Si Si1 0.362117 0.919589 0.230791
Si Si2 0.500000 0.375552 0.250000
Si Si3 0.728614 0.394220 0.408910
Si Si4 0.874488 0.465037 0.357550
Si Si5 0.093808 0.028790 0.176674
O O1 0.291633 0.817555 0.503739
O O2 0.244552 0.037553 0.403018
O O3 0.412206 0.762148 0.023415
O O4 0.500000 0.000000 0.000000
O O5 0.403018 0.509098 0.370525
O O6 0.761983 0.494930 0.479658
O O7 0.840936 0.420813 0.060831
O O8 0.883189 0.251116 0.386697
O O9 0.000000 0.500000 0.000000
O O10 0.000000 0.964143 0.250000
O O11 0.000000 0.000000 0.500000
#
# Coordination Sequence:
#
# PCOD9237977 Si02
#       5
#     4   2   4   4   4
#     4  11  28  47  77 117 154 205 258 325 393 462
#     4  12  24  50  72 106 152 194 272 312 382 462
#     4  11  23  47  73 107 147 201 254 323 370 463
#     4  11  24  44  76 109 145 193 259 309 381 459
#     4  11  26  49  71 104 155 199 249 314 391 463
#
# _framework density 25.045247
#
# number of rings (size 3 to 8) (size 9 to 14) (size 15 to 20)
#    0.000    0.889    4.444    2.667    3.111    4.444 
#    4.000    0.000    0.000    0.000    0.000    0.000 
#    0.000    0.000    0.000    0.000    0.000    0.000 
#
# Total GULP energy -100631.801132 kJ/mol
# GULP energy per Si atom -5590.655618 kJ/mol
# Density = 2.498824 g / cm^3
# Si number density = 25.045247 Si / 1000 Ang^3
#
#
#
# Elastic Constant Matrix: (Units=GPa)
#
#
# Indices 1 2 3 4 5 6 
#
# 1 221.1458 31.8731 76.4945 0.0000 -18.1378 0.0000
# 2 31.8731 58.9131 20.6373 0.0000 -4.2070 0.0000
# 3 76.4945 20.6373 166.8498 0.0000 1.4770 0.0000
# 4 0.0000 0.0000 0.0000 49.6428 0.0000 1.8734
# 5 -18.1378 -4.2070 1.4770 0.0000 68.6014 0.0000
# 6 0.0000 0.0000 0.0000 1.8734 0.0000 37.0211
#
#
#
# Elastic Compliance Matrix: (Units=1/GPa)
#
#
# Indices 1 2 3 4 5 6 
#
# 1 0.005784 -0.002187 -0.002394 0.000000 0.001447 0.000000
# 2 -0.002187 0.018659 -0.001310 0.000000 0.000594 0.000000
# 3 -0.002394 -0.001310 0.007261 0.000000 -0.000870 0.000000
# 4 0.000000 0.000000 0.000000 0.020182 0.000000 -0.001021
# 5 0.001447 0.000594 -0.000870 0.000000 0.015015 0.000000
# 6 0.000000 0.000000 0.000000 -0.001021 0.000000 0.027063
#
#
# Mechanical properties :
#
#
# Convention : Reuss Voigt Hill
#
# Bulk Modulus (GPa) = 50.19986 78.32427 64.26207
# Shear Modulus (GPa) = 44.48904 52.24663 48.36784
#
# Velocity S-wave (km/s) = 4.21924 4.57233 4.39933
# Velocity P-wave (km/s) = 6.61991 7.69519 7.17771
#
# Compressibility (1/GPa) = 0.01992037
#
# Stress axis : x y z
#
# Youngs Moduli (GPa) = 172.89457 53.59357 137.72717
#
# Poissons Ratio (x) = 0.11722 0.32971
# Poissons Ratio (y) = 0.37817 0.18047
# Poissons Ratio (z) = 0.41390 0.07023
#
# Static dielectric constant tensor:
#      x y z
#    x 2.480820 0.000000 0.236850 
#    y 0.000000 2.156520 0.000000 
#    z 0.236850 0.000000 2.355100 
# 
# From -- ./inp_files/22640.got.cif
#   From: 2010.05.17/outbox.cif.g08.bks.cpg/sg13_12_cif.got.tgz:22640.got - 2010.06.03 16:44:36.
