data_PCOD9237612
_publ_section_title
;
Structure prediction by ZEFSAII (Michael W. Deem and Ramdas Pophale) SiO2 
 PCOD9237612
Probable space group: P 2/C
;
_chemical_formula_sum "Si O2"
_cell_formula_units_Z 20
_cell_length_a 20.239844
_cell_length_b 7.455064
_cell_length_c 8.729271
_cell_angle_alpha 90.000000
_cell_angle_beta 45.478764
_cell_angle_gamma 90.000000
_cell_volume 939.118352
_symmetry_space_group_name_H-M "P 2/C"
_symmetry_group_IT_number 13
_symmetry_cell_setting 'monoclinic'
loop_
_space_group_symop_operation_xyz
x,y,z
-x,y,1/2-z
-x,-y,-z
x,-y,1/2+z
loop_
_atom_site_type_symbol
_atom_site_label
_atom_site_fract_x
_atom_site_fract_y
_atom_site_fract_z
Si Si1 0.933711 0.418671 0.477965
Si Si2 0.191989 0.563195 0.060009
Si Si3 0.486427 0.698360 0.954171
Si Si4 0.669431 0.838553 0.788691
Si Si5 0.294224 0.806028 0.413469
O O1 0.884426 0.565901 0.449986
O O2 0.000000 0.500000 0.500000
O O3 0.848864 0.347847 0.719188
O O4 0.000000 0.313693 0.250000
O O5 0.282955 0.661076 0.855499
O O6 0.218592 0.353035 0.038187
O O7 0.500000 0.698098 0.750000
O O8 0.563815 0.828118 0.902816
O O9 0.500000 0.500000 0.000000
O O10 0.382776 0.749587 0.168844
O O11 0.728828 0.002844 0.623550
O O12 0.674131 0.836331 0.963564
#
# Coordination Sequence:
#
# PCOD9237612 Si02
#       5
#     4   4   4   4   4
#     4   9  20  40  70 100 124 169 213 264 338 403
#     4  11  22  41  70  97 132 170 219 269 326 389
#     4  12  25  42  65  93 137 181 224 269 321 377
#     4  12  26  42  66  98 136 178 225 269 323 383
#     4  12  26  42  66  98 136 179 223 271 322 383
#
# _framework density 21.296571
#
# number of rings (size 3 to 8) (size 9 to 14) (size 15 to 20)
#    0.000    0.800    4.000    3.600    5.600    0.000 
#    0.000    0.000    0.000   24.000    0.000    0.000 
#    0.000    0.000    0.000    0.000    0.000    0.000 
#
# Total GULP energy -111609.976284 kJ/mol
# GULP energy per Si atom -5580.498814 kJ/mol
# Density = 2.124810 g / cm^3
# Si number density = 21.296571 Si / 1000 Ang^3
#
#
#
# Elastic Constant Matrix: (Units=GPa)
#
#
# Indices 1 2 3 4 5 6 
#
# 1 99.3904 15.0431 40.0586 0.0000 20.7830 0.0000
# 2 15.0431 76.4986 2.2289 0.0000 4.9831 0.0000
# 3 40.0586 2.2289 149.8545 0.0000 32.5604 0.0000
# 4 0.0000 0.0000 0.0000 10.4977 0.0000 7.2685
# 5 20.7830 4.9831 32.5604 0.0000 48.5553 0.0000
# 6 0.0000 0.0000 0.0000 7.2685 0.0000 7.0478
#
#
#
# Elastic Compliance Matrix: (Units=1/GPa)
#
#
# Indices 1 2 3 4 5 6 
#
# 1 0.012064 -0.002086 -0.002480 0.000000 -0.003287 0.000000
# 2 -0.002086 0.013522 0.000543 0.000000 -0.000859 0.000000
# 3 -0.002480 0.000543 0.008322 0.000000 -0.004575 0.000000
# 4 0.000000 0.000000 0.000000 0.333156 0.000000 -0.343589
# 5 -0.003287 -0.000859 -0.004575 0.000000 0.025158 0.000000
# 6 0.000000 0.000000 0.000000 -0.343589 0.000000 0.496237
#
#
# Mechanical properties :
#
#
# Convention : Reuss Voigt Hill
#
# Bulk Modulus (GPa) = 38.66490 48.93385 43.79938
# Shear Modulus (GPa) = 5.52410 31.11435 18.31922
#
# Velocity S-wave (km/s) = 1.61230 3.82645 2.93609
# Velocity P-wave (km/s) = 4.65413 6.52300 5.66615
#
# Compressibility (1/GPa) = 0.02586325
#
# Stress axis : x y z
#
# Youngs Moduli (GPa) = 82.89314 73.95099 120.16397
#
# Poissons Ratio (x) = 0.15426 0.29797
# Poissons Ratio (y) = 0.17291 -0.06527
# Poissons Ratio (z) = 0.20555 -0.04017
#
# Static dielectric constant tensor:
#      x y z
#    x 1.788930 0.000000 -0.035230 
#    y 0.000000 1.802890 0.000000 
#    z -0.035230 0.000000 1.829130 
# 
# From -- ./inp_files/17791.got.cif
#   From: 2010.05.17/outbox.cif.g08.bks.cpg/sg13_9_cif.got.tgz:17791.got - 2010.06.03 16:44:36.
