data_PCOD9237911
_publ_section_title
;
Structure prediction by ZEFSAII (Michael W. Deem and Ramdas Pophale) SiO2 
 PCOD9237911
Probable space group: P 2/C
;
_chemical_formula_sum "Si O2"
_cell_formula_units_Z 24
_cell_length_a 10.945989
_cell_length_b 7.210880
_cell_length_c 18.516814
_cell_angle_alpha 90.000000
_cell_angle_beta 44.853398
_cell_angle_gamma 90.000000
_cell_volume 1030.814384
_symmetry_space_group_name_H-M "P 2/C"
_symmetry_group_IT_number 13
_symmetry_cell_setting 'monoclinic'
loop_
_space_group_symop_operation_xyz
x,y,z
-x,y,1/2-z
-x,-y,-z
x,-y,1/2+z
loop_
_atom_site_type_symbol
_atom_site_label
_atom_site_fract_x
_atom_site_fract_y
_atom_site_fract_z
Si Si1 0.322167 0.802791 0.291202
Si Si2 0.754644 0.408928 0.440118
Si Si3 0.760210 0.778379 0.681871
Si Si4 0.061302 0.692399 0.041268
Si Si5 0.930283 0.039327 0.358974
Si Si6 0.369202 0.469981 0.657483
O O1 0.500000 0.726329 0.250000
O O2 0.138920 0.727720 0.398015
O O3 0.318926 0.728819 0.210983
O O4 0.328032 0.023082 0.294595
O O5 0.775182 0.187723 0.424927
O O6 0.568390 0.462587 0.550523
O O7 0.751647 0.484052 0.359755
O O8 0.898116 0.509226 0.429594
O O9 0.825086 0.702262 0.578136
O O10 0.656941 0.624866 0.769902
O O11 0.918988 0.845382 0.664810
O O12 0.106377 0.861367 0.076569
O O13 0.000000 0.993649 0.250000
#
# Coordination Sequence:
#
# PCOD9237911 Si02
#       6
#     4   4   4   4   4   4
#     4  11  27  44  73 102 145 182 239 296 358 426
#     4  11  27  46  71 107 147 189 240 295 356 438
#     4  11  26  47  70 108 140 192 239 301 357 428
#     4  11  28  45  76 107 141 188 246 295 365 428
#     4  11  23  44  74 100 145 192 242 295 357 428
#     4  11  27  46  70 107 147 191 237 295 365 418
#
# _framework density 23.282564000000001
#
# number of rings (size 3 to 8) (size 9 to 14) (size 15 to 20)
#    0.000    1.000    1.667    3.000   14.000    1.333 
#    0.000    3.333    0.000    0.000    0.000    0.000 
#    0.000    0.000    0.000    0.000    0.000    0.000 
#
# Total GULP energy -134352.385439 kJ/mol
# GULP energy per Si atom -5598.016060 kJ/mol
# Density = 2.322957 g / cm^3
# Si number density = 23.282564 Si / 1000 Ang^3
#
#
#
# Elastic Constant Matrix: (Units=GPa)
#
#
# Indices 1 2 3 4 5 6 
#
# 1 84.9414 34.5997 47.4804 0.0000 12.3321 0.0000
# 2 34.5997 111.0532 63.1664 0.0000 12.6459 0.0000
# 3 47.4804 63.1664 132.7099 0.0000 33.8244 0.0000
# 4 0.0000 0.0000 0.0000 36.4380 0.0000 2.6048
# 5 12.3321 12.6459 33.8244 0.0000 34.3293 0.0000
# 6 0.0000 0.0000 0.0000 2.6048 0.0000 18.9647
#
#
#
# Elastic Compliance Matrix: (Units=1/GPa)
#
#
# Indices 1 2 3 4 5 6 
#
# 1 0.015116 -0.002259 -0.004221 0.000000 -0.000439 0.000000
# 2 -0.002259 0.012756 -0.005705 0.000000 0.001734 0.000000
# 3 -0.004221 -0.005705 0.014474 0.000000 -0.010643 0.000000
# 4 0.000000 0.000000 0.000000 0.027716 0.000000 -0.003807
# 5 -0.000439 0.001734 -0.010643 0.000000 0.039135 0.000000
# 6 0.000000 0.000000 0.000000 -0.003807 0.000000 0.053252
#
#
# Mechanical properties :
#
#
# Convention : Reuss Voigt Hill
#
# Bulk Modulus (GPa) = 55.63162 68.79974 62.21568
# Shear Modulus (GPa) = 25.93202 30.17692 28.05447
#
# Velocity S-wave (km/s) = 3.34098 3.60407 3.47501
# Velocity P-wave (km/s) = 6.23128 6.85078 6.54836
#
# Compressibility (1/GPa) = 0.01797539
#
# Stress axis : x y z
#
# Youngs Moduli (GPa) = 66.15438 78.39341 69.09055
#
# Poissons Ratio (x) = 0.17705 0.29165
# Poissons Ratio (y) = 0.14941 0.39420
# Poissons Ratio (z) = 0.27926 0.44727
#
# Static dielectric constant tensor:
#      x y z
#    x 1.931370 0.000000 -0.041170 
#    y 0.000000 1.867410 0.000000 
#    z -0.041170 0.000000 1.878550 
# 
# From -- ./inp_files/85767.got.cif
#   From: 2010.05.17/outbox.cif.g08.bks.cpg/sg13_43_cif.got.tgz:85767.got - 2010.06.03 16:44:36.
