data_PCOD9237949
_publ_section_title
;
Structure prediction by ZEFSAII (Michael W. Deem and Ramdas Pophale) SiO2 
 PCOD9237949
Probable space group: P 2/C
;
_chemical_formula_sum "Si O2"
_cell_formula_units_Z 22
_cell_length_a 9.054510
_cell_length_b 15.034290
_cell_length_c 8.699555
_cell_angle_alpha 90.000000
_cell_angle_beta 48.897371
_cell_angle_gamma 90.000000
_cell_volume 892.374850
_symmetry_space_group_name_H-M "P 2/C"
_symmetry_group_IT_number 13
_symmetry_cell_setting 'monoclinic'
loop_
_space_group_symop_operation_xyz
x,y,z
-x,y,1/2-z
-x,-y,-z
x,-y,1/2+z
loop_
_atom_site_type_symbol
_atom_site_label
_atom_site_fract_x
_atom_site_fract_y
_atom_site_fract_z
Si Si1 0.000000 0.276522 0.750000
Si Si2 0.959658 0.103867 0.433690
Si Si3 0.697765 0.620387 0.658104
Si Si4 0.653337 0.035818 0.269511
Si Si5 0.226325 0.566222 0.550948
Si Si6 0.718751 0.742210 0.164943
O O1 0.816459 0.238042 0.768573
O O2 0.114708 0.329790 0.538225
O O3 0.796380 0.047769 0.634264
O O4 0.859634 0.196518 0.466682
O O5 0.000000 0.049780 0.250000
O O6 0.179997 0.112117 0.341532
O O7 0.500000 0.670843 0.750000
O O8 0.688250 0.601302 0.846313
O O9 0.698979 0.527057 0.564193
O O10 0.500000 0.064945 0.250000
O O11 0.500000 0.000000 0.500000
O O12 0.257702 0.639299 0.396881
O O13 0.000000 0.554470 0.750000
O O14 0.500000 0.766020 0.250000
#
# Coordination Sequence:
#
# PCOD9237949 Si02
#       6
#     2   4   4   4   4   4
#     4  12  26  48  68 104 142 188 252 304 348 438
#     4  11  25  45  73 108 147 186 237 295 354 433
#     4  12  24  42  70 102 137 184 251 304 364 427
#     4  11  23  45  77 109 143 186 235 289 353 427
#     4  12  22  43  69  97 141 189 237 309 365 422
#     4  12  27  47  71 101 149 195 237 295 372 426
#
# _framework density 24.653317000000001
#
# number of rings (size 3 to 8) (size 9 to 14) (size 15 to 20)
#    0.000    0.364    4.545    4.909    0.000    1.455 
#    0.000    0.000    0.000    0.000    0.000    0.000 
#    0.000    0.000    0.000    0.000    0.000    0.000 
#
# Total GULP energy -122569.310744 kJ/mol
# GULP energy per Si atom -5571.332307 kJ/mol
# Density = 2.459721 g / cm^3
# Si number density = 24.653317 Si / 1000 Ang^3
#
#
#
# Elastic Constant Matrix: (Units=GPa)
#
#
# Indices 1 2 3 4 5 6 
#
# 1 217.3781 5.9198 54.0472 0.0000 -30.0830 0.0000
# 2 5.9198 42.2311 17.0399 0.0000 -18.1195 0.0000
# 3 54.0472 17.0399 122.4659 0.0000 -31.0945 0.0000
# 4 0.0000 0.0000 0.0000 8.6284 0.0000 5.3544
# 5 -30.0830 -18.1195 -31.0945 0.0000 57.8843 0.0000
# 6 0.0000 0.0000 0.0000 5.3544 0.0000 12.3134
#
#
#
# Elastic Compliance Matrix: (Units=1/GPa)
#
#
# Indices 1 2 3 4 5 6 
#
# 1 0.005344 0.000906 -0.001977 0.000000 0.001999 0.000000
# 2 0.000906 0.027890 -0.002251 0.000000 0.007992 0.000000
# 3 -0.001977 -0.002251 0.010319 0.000000 0.003811 0.000000
# 4 0.000000 0.000000 0.000000 0.158729 0.000000 -0.069022
# 5 0.001999 0.007992 0.003811 0.000000 0.022864 0.000000
# 6 0.000000 0.000000 0.000000 -0.069022 0.000000 0.111226
#
#
# Mechanical properties :
#
#
# Convention : Reuss Voigt Hill
#
# Bulk Modulus (GPa) = 27.09427 59.56542 43.32984
# Shear Modulus (GPa) = 14.07193 36.10310 25.08751
#
# Velocity S-wave (km/s) = 2.39172 3.83094 3.19346
# Velocity P-wave (km/s) = 4.31753 6.61678 5.58672
#
# Compressibility (1/GPa) = 0.03690817
#
# Stress axis : x y z
#
# Youngs Moduli (GPa) = 187.13454 35.85578 96.90994
#
# Poissons Ratio (x) = -0.03249 0.19158
# Poissons Ratio (y) = -0.16959 0.21818
# Poissons Ratio (z) = 0.36994 0.08072
#
# Static dielectric constant tensor:
#      x y z
#    x 2.783460 0.000000 0.048860 
#    y 0.000000 2.038780 0.000000 
#    z 0.048860 0.000000 2.064880 
# 
# From -- ./inp_files/13041.got.cif
#   From: 2010.05.17/outbox.cif.g08.bks.cpg/sg13_7_cif.got.tgz:13041.got - 2010.06.03 16:44:36.
