data_PCOD9237753
_publ_section_title
;
Structure prediction by ZEFSAII (Michael W. Deem and Ramdas Pophale) SiO2 
 PCOD9237753
Probable space group: P 2/C
;
_chemical_formula_sum "Si O2"
_cell_formula_units_Z 16
_cell_length_a 7.765155
_cell_length_b 8.242661
_cell_length_c 18.283442
_cell_angle_alpha 90.000000
_cell_angle_beta 31.921675
_cell_angle_gamma 90.000000
_cell_volume 618.776311
_symmetry_space_group_name_H-M "P 2/C"
_symmetry_group_IT_number 13
_symmetry_cell_setting 'monoclinic'
loop_
_space_group_symop_operation_xyz
x,y,z
-x,y,1/2-z
-x,-y,-z
x,-y,1/2+z
loop_
_atom_site_type_symbol
_atom_site_label
_atom_site_fract_x
_atom_site_fract_y
_atom_site_fract_z
Si Si1 0.685237 0.314833 0.261857
Si Si2 0.306078 0.999582 0.444040
Si Si3 0.169441 0.494298 0.518178
Si Si4 0.083993 0.816362 0.303512
O O1 0.500000 0.323588 0.250000
O O2 0.056627 0.352823 0.107125
O O3 0.542424 0.453056 0.367155
O O4 0.559427 0.147826 0.340402
O O5 0.530277 0.851052 0.337550
O O6 0.000000 0.000000 0.500000
O O7 0.135184 0.036953 0.583047
O O8 0.015054 0.337810 0.613165
O O9 0.000000 0.500000 0.500000
O O10 0.000000 0.795623 0.250000
#
# Coordination Sequence:
#
# PCOD9237753 Si02
#       4
#     4   4   4   4
#     4   9  18  34  57  90 121 157 213 272 319 374
#     4  11  23  40  65  97 130 174 226 273 327 406
#     4   9  20  37  60  88 123 169 219 269 325 396
#     4  11  24  43  65  97 137 174 215 280 349 396
#
# _framework density 25.857486000000002
#
# number of rings (size 3 to 8) (size 9 to 14) (size 15 to 20)
#    0.000    2.000    0.000    3.000    0.000   16.000 
#    0.000    6.250    0.000    0.000    0.000    0.000 
#    0.000    0.000    0.000    0.500    0.000    0.000 
#
# Total GULP energy -89465.505799 kJ/mol
# GULP energy per Si atom -5591.594112 kJ/mol
# Density = 2.579863 g / cm^3
# Si number density = 25.857486 Si / 1000 Ang^3
#
#
#
# Elastic Constant Matrix: (Units=GPa)
#
#
# Indices 1 2 3 4 5 6 
#
# 1 65.8495 -1.3111 30.8638 0.0000 28.4049 0.0000
# 2 -1.3111 59.0663 49.1533 0.0000 15.6123 0.0000
# 3 30.8638 49.1533 220.0655 0.0000 17.7929 0.0000
# 4 0.0000 0.0000 0.0000 71.8410 0.0000 9.1745
# 5 28.4049 15.6123 17.7929 0.0000 35.9845 0.0000
# 6 0.0000 0.0000 0.0000 9.1745 0.0000 16.1667
#
#
#
# Elastic Compliance Matrix: (Units=1/GPa)
#
#
# Indices 1 2 3 4 5 6 
#
# 1 0.028092 0.010771 -0.004349 0.000000 -0.024698 0.000000
# 2 0.010771 0.026771 -0.006108 0.000000 -0.017097 0.000000
# 3 -0.004349 -0.006108 0.006277 0.000000 0.002979 0.000000
# 4 0.000000 0.000000 0.000000 0.015007 0.000000 -0.008517
# 5 -0.024698 -0.017097 0.002979 0.000000 0.053230 0.000000
# 6 0.000000 0.000000 0.000000 -0.008517 0.000000 0.066688
#
#
# Mechanical properties :
#
#
# Convention : Reuss Voigt Hill
#
# Bulk Modulus (GPa) = 16.18938 55.82148 36.00543
# Shear Modulus (GPa) = 23.14516 42.55013 32.84765
#
# Velocity S-wave (km/s) = 2.99508 4.06096 3.56804
# Velocity P-wave (km/s) = 4.27027 6.60481 5.56142
#
# Compressibility (1/GPa) = 0.06176888
#
# Stress axis : x y z
#
# Youngs Moduli (GPa) = 35.59670 37.35413 159.30257
#
# Poissons Ratio (x) = -0.40232 0.69276
# Poissons Ratio (y) = -0.38339 0.97297
# Poissons Ratio (z) = 0.15480 0.22815
#
# Static dielectric constant tensor:
#      x y z
#    x 1.988980 0.000000 -0.032660 
#    y 0.000000 2.198100 0.000000 
#    z -0.032660 0.000000 1.993360 
# 
# From -- ./inp_files/63629.got.cif
#   From: 2010.05.17/outbox.cif.g08.bks.cpg/sg13_32_cif.got.tgz:63629.got - 2010.06.03 16:44:36.
