data_PCOD9237102
_publ_section_title
;
Structure prediction by ZEFSAII (Michael W. Deem and Ramdas Pophale) SiO2 
 PCOD9237102
Probable space group: P 2/C
;
_chemical_formula_sum "Si O2"
_cell_formula_units_Z 16
_cell_length_a 15.229084
_cell_length_b 9.093064
_cell_length_c 16.669610
_cell_angle_alpha 90.000000
_cell_angle_beta 17.562880
_cell_angle_gamma 90.000000
_cell_volume 696.562419
_symmetry_space_group_name_H-M "P 2/C"
_symmetry_group_IT_number 13
_symmetry_cell_setting 'monoclinic'
loop_
_space_group_symop_operation_xyz
x,y,z
-x,y,1/2-z
-x,-y,-z
x,-y,1/2+z
loop_
_atom_site_type_symbol
_atom_site_label
_atom_site_fract_x
_atom_site_fract_y
_atom_site_fract_z
Si Si1 0.000000 0.937684 0.750000
Si Si2 0.277604 0.778999 0.059864
Si Si3 0.496472 0.329968 0.978644
Si Si4 0.837930 0.702885 0.018902
Si Si5 0.500000 0.438597 0.250000
O O1 0.153364 0.836968 0.550459
O O2 0.752756 0.047664 0.930037
O O3 0.303939 0.752830 0.130660
O O4 0.000000 0.724037 0.250000
O O5 0.516391 0.674600 0.810540
O O6 0.610258 0.299968 0.790061
O O7 0.500000 0.500000 0.000000
O O8 0.158231 0.290969 0.277471
O O9 0.764828 0.554026 0.032774
#
# Coordination Sequence:
#
# PCOD9237102 Si02
#       5
#     2   4   4   4   2
#     4  10  28  50  70 114 158 206 242 308 400 454
#     4  10  26  47  72 108 154 200 252 309 386 449
#     4  12  25  46  77 116 144 194 261 321 364 440
#     4  12  27  46  78 109 152 197 254 311 378 450
#     4  12  24  44  82 102 152 204 258 310 374 456
#
# _framework density 22.969944000000002
#
# number of rings (size 3 to 8) (size 9 to 14) (size 15 to 20)
#    0.750    0.000    2.500    3.750    5.250    5.000 
#    0.000    0.000    0.000    0.000    0.000    0.000 
#    0.000    0.000    0.000    0.000    0.000    0.000 
#
# Total GULP energy -89306.988295 kJ/mol
# GULP energy per Si atom -5581.686768 kJ/mol
# Density = 2.291766 g / cm^3
# Si number density = 22.969944 Si / 1000 Ang^3
#
#
#
# Elastic Constant Matrix: (Units=GPa)
#
#
# Indices 1 2 3 4 5 6 
#
# 1 124.5644 49.9441 21.4946 0.0000 10.0854 0.0000
# 2 49.9441 174.6434 24.5352 0.0000 26.0629 0.0000
# 3 21.4946 24.5352 57.0412 0.0000 3.3778 0.0000
# 4 0.0000 0.0000 0.0000 26.2029 0.0000 16.9204
# 5 10.0854 26.0629 3.3778 0.0000 45.6992 0.0000
# 6 0.0000 0.0000 0.0000 16.9204 0.0000 32.4766
#
#
#
# Elastic Compliance Matrix: (Units=1/GPa)
#
#
# Indices 1 2 3 4 5 6 
#
# 1 0.009417 -0.002244 -0.002547 0.000000 -0.000610 0.000000
# 2 -0.002244 0.007167 -0.002033 0.000000 -0.003442 0.000000
# 3 -0.002547 -0.002033 0.019348 0.000000 0.000292 0.000000
# 4 0.000000 0.000000 0.000000 0.057513 0.000000 -0.029965
# 5 -0.000610 -0.003442 0.000292 0.000000 0.023958 0.000000
# 6 0.000000 0.000000 0.000000 -0.029965 0.000000 0.046403
#
#
# Mechanical properties :
#
#
# Convention : Reuss Voigt Hill
#
# Bulk Modulus (GPa) = 44.87713 60.91076 52.89394
# Shear Modulus (GPa) = 27.04411 38.22741 32.63576
#
# Velocity S-wave (km/s) = 3.43500 4.08393 3.77344
# Velocity P-wave (km/s) = 5.94240 6.98664 6.48557
#
# Compressibility (1/GPa) = 0.02228307
#
# Stress axis : x y z
#
# Youngs Moduli (GPa) = 106.19481 139.52806 51.68416
#
# Poissons Ratio (x) = 0.31311 0.13164
# Poissons Ratio (y) = 0.23831 0.10509
# Poissons Ratio (z) = 0.27049 0.28370
#
# Static dielectric constant tensor:
#      x y z
#    x 1.843550 0.000000 -0.018840 
#    y 0.000000 1.833320 0.000000 
#    z -0.018840 0.000000 2.042930 
# 
# From -- ./inp_files/69261.got.cif
#   From: 2010.05.17/outbox.cif.g08.bks.cpg/sg13_35_cif.got.tgz:69261.got - 2010.06.03 16:44:36.
