data_PCOD9237312
_publ_section_title
;
Structure prediction by ZEFSAII (Michael W. Deem and Ramdas Pophale) SiO2 
 PCOD9237312
Probable space group: P 2/C
;
_chemical_formula_sum "Si O2"
_cell_formula_units_Z 22
_cell_length_a 7.150096
_cell_length_b 13.296571
_cell_length_c 10.160104
_cell_angle_alpha 90.000000
_cell_angle_beta 114.203884
_cell_angle_gamma 90.000000
_cell_volume 881.025513
_symmetry_space_group_name_H-M "P 2/C"
_symmetry_group_IT_number 13
_symmetry_cell_setting 'monoclinic'
loop_
_space_group_symop_operation_xyz
x,y,z
-x,y,1/2-z
-x,-y,-z
x,-y,1/2+z
loop_
_atom_site_type_symbol
_atom_site_label
_atom_site_fract_x
_atom_site_fract_y
_atom_site_fract_z
Si Si1 0.677719 0.933452 0.625261
Si Si2 0.500000 0.762297 0.750000
Si Si3 0.166322 0.189091 0.532410
Si Si4 0.000000 0.750216 0.250000
Si Si5 0.500000 0.920408 0.250000
Si Si6 0.657316 0.599869 0.421950
Si Si7 0.705424 0.620857 0.989640
O O1 0.582487 0.832825 0.658822
O O2 0.869449 0.892828 0.593075
O O3 0.500000 0.000000 0.500000
O O4 0.684059 0.007872 0.753734
O O5 0.681943 0.695081 0.860099
O O6 0.404220 0.157444 0.620426
O O7 0.179933 0.309372 0.521694
O O8 0.055983 0.181192 0.640925
O O9 0.168377 0.674745 0.358634
O O10 0.500000 0.604962 0.250000
O O11 0.520709 0.609727 0.513311
O O12 0.760952 0.490435 0.457957
#
# Coordination Sequence:
#
# PCOD9237312 Si02
#       7
#     4   2   4   2   2   4   4
#     4   9  20  36  67  98 117 165 230 276 304 370
#     4  11  20  39  68  94 126 161 232 271 304 386
#     4  11  20  39  62  92 129 175 209 266 324 393
#     4  12  26  40  62  96 148 170 204 260 356 384
#     4   9  18  37  70  94 120 163 240 265 310 378
#     4  11  20  40  68  89 123 170 231 259 311 390
#     4  11  24  39  65 101 126 170 213 277 319 394
#
# _framework density 24.970901000000001
#
# number of rings (size 3 to 8) (size 9 to 14) (size 15 to 20)
#    0.000    1.455    5.455    0.000    2.545    0.727 
#    0.000    1.818    0.000    0.000    0.000    0.000 
#    0.000    0.000    0.000    0.000    0.000    0.000 
#
# Total GULP energy -122533.791360 kJ/mol
# GULP energy per Si atom -5569.717789 kJ/mol
# Density = 2.491407 g / cm^3
# Si number density = 24.970901 Si / 1000 Ang^3
#
#
#
# Elastic Constant Matrix: (Units=GPa)
#
#
# Indices 1 2 3 4 5 6 
#
# 1 72.5834 41.6795 27.9957 0.0000 -30.0718 0.0000
# 2 41.6795 170.0452 42.9416 0.0000 -18.8371 0.0000
# 3 27.9957 42.9416 108.5652 0.0000 -14.4316 0.0000
# 4 0.0000 0.0000 0.0000 -20.4946 0.0000 -19.0713
# 5 -30.0718 -18.8371 -14.4316 0.0000 47.7492 0.0000
# 6 0.0000 0.0000 0.0000 -19.0713 0.0000 1.5963
#
#
#
# Elastic Compliance Matrix: (Units=1/GPa)
#
#
# Indices 1 2 3 4 5 6 
#
# 1 0.021435 -0.003310 -0.002706 0.000000 0.011376 0.000000
# 2 -0.003310 0.007209 -0.001976 0.000000 0.000162 0.000000
# 3 -0.002706 -0.001976 0.010794 0.000000 0.000779 0.000000
# 4 0.000000 0.000000 0.000000 -0.004027 0.000000 -0.048108
# 5 0.011376 0.000162 0.000779 0.000000 0.028406 0.000000
# 6 0.000000 0.000000 0.000000 -0.048108 0.000000 0.051698
#
#
# Mechanical properties :
#
#
# Convention : Reuss Voigt Hill
#
# Bulk Modulus (GPa) = 42.63863 64.04748 53.34306
# Shear Modulus (GPa) = 35.88907 21.67531 28.78219
#
# Velocity S-wave (km/s) = 3.79520 2.94942 3.39872
# Velocity P-wave (km/s) = 6.02637 6.10764 6.06714
#
# Compressibility (1/GPa) = 0.02345291
#
# Stress axis : x y z
#
# Youngs Moduli (GPa) = 46.65301 138.71138 92.64381
#
# Poissons Ratio (x) = 0.45919 0.25068
# Poissons Ratio (y) = 0.15444 0.18310
# Poissons Ratio (z) = 0.12624 0.27414
#
# Static dielectric constant tensor:
#      x y z
#    x 2.105140 0.000000 -0.221580 
#    y 0.000000 1.993720 0.000000 
#    z -0.221580 0.000000 2.771910 
# 
# From -- ./inp_files/29115.got.cif
#   From: 2010.05.17/outbox.cif.g08.bks.cpg/sg13_15_cif.got.tgz:29115.got - 2010.06.03 16:44:36.
