data_PCOD9237920
_publ_section_title
;
Structure prediction by ZEFSAII (Michael W. Deem and Ramdas Pophale) SiO2 
 PCOD9237920
Probable space group: P 2/C
;
_chemical_formula_sum "Si O2"
_cell_formula_units_Z 18
_cell_length_a 12.183325
_cell_length_b 11.469291
_cell_length_c 11.809386
_cell_angle_alpha 90.000000
_cell_angle_beta 153.601572
_cell_angle_gamma 90.000000
_cell_volume 733.684824
_symmetry_space_group_name_H-M "P 2/C"
_symmetry_group_IT_number 13
_symmetry_cell_setting 'monoclinic'
loop_
_space_group_symop_operation_xyz
x,y,z
-x,y,1/2-z
-x,-y,-z
x,-y,1/2+z
loop_
_atom_site_type_symbol
_atom_site_label
_atom_site_fract_x
_atom_site_fract_y
_atom_site_fract_z
Si Si1 0.500000 0.354341 0.750000
Si Si2 0.023153 0.262949 0.898783
Si Si3 0.577716 0.189973 0.627417
Si Si4 0.272231 0.524143 0.704999
Si Si5 0.315668 0.950664 0.684997
O O1 0.430456 0.269016 0.581530
O O2 0.305438 0.443219 0.625238
O O3 0.000000 0.307574 0.750000
O O4 0.778774 0.268761 0.748568
O O5 0.250566 0.338316 0.156899
O O6 0.075160 0.125187 0.940127
O O7 0.423422 0.114269 0.395583
O O8 0.718367 0.087559 0.827203
O O9 0.000000 0.500000 0.500000
O O10 0.500000 0.500000 0.000000
O O11 0.500000 0.933881 0.750000
#
# Coordination Sequence:
#
# PCOD9237920 Si02
#       5
#     2   4   4   4   4
#     4  12  26  48  80 110 160 200 274 330 404 480
#     4  12  26  46  76 110 154 208 266 335 407 488
#     4  11  24  48  73 114 154 206 261 332 407 489
#     4  12  30  52  78 112 159 210 268 329 400 480
#     4  11  23  44  77 110 157 202 261 328 409 485
#
# _framework density 24.533697
#
# number of rings (size 3 to 8) (size 9 to 14) (size 15 to 20)
#    0.000    0.444    5.556    2.000    4.667    0.000 
#    4.000    0.000    0.000    0.000    0.000    0.000 
#    0.000    0.000    0.000    0.000    0.000    0.000 
#
# Total GULP energy -100635.378381 kJ/mol
# GULP energy per Si atom -5590.854354 kJ/mol
# Density = 2.447786 g / cm^3
# Si number density = 24.533697 Si / 1000 Ang^3
#
#
#
# Elastic Constant Matrix: (Units=GPa)
#
#
# Indices 1 2 3 4 5 6 
#
# 1 182.9748 44.5879 37.7531 0.0000 10.5388 0.0000
# 2 44.5879 149.1244 27.3439 0.0000 0.4705 0.0000
# 3 37.7531 27.3439 93.3015 0.0000 -0.6150 0.0000
# 4 0.0000 0.0000 0.0000 43.7887 0.0000 -3.4134
# 5 10.5388 0.4705 -0.6150 0.0000 32.0555 0.0000
# 6 0.0000 0.0000 0.0000 -3.4134 0.0000 32.2322
#
#
#
# Elastic Compliance Matrix: (Units=1/GPa)
#
#
# Indices 1 2 3 4 5 6 
#
# 1 0.006402 -0.001511 -0.002162 0.000000 -0.002124 0.000000
# 2 -0.001511 0.007444 -0.001568 0.000000 0.000357 0.000000
# 3 -0.002162 -0.001568 0.012058 0.000000 0.000965 0.000000
# 4 0.000000 0.000000 0.000000 0.023027 0.000000 0.002439
# 5 -0.002124 0.000357 0.000965 0.000000 0.031907 0.000000
# 6 0.000000 0.000000 0.000000 0.002439 0.000000 0.031283
#
#
# Mechanical properties :
#
#
# Convention : Reuss Voigt Hill
#
# Bulk Modulus (GPa) = 64.83689 71.64115 68.23902
# Shear Modulus (GPa) = 39.14087 42.66301 40.90194
#
# Velocity S-wave (km/s) = 3.99857 4.17460 4.08753
# Velocity P-wave (km/s) = 6.91398 7.24575 7.08181
#
# Compressibility (1/GPa) = 0.01542332
#
# Stress axis : x y z
#
# Youngs Moduli (GPa) = 156.20653 134.33694 82.92967
#
# Poissons Ratio (x) = 0.20299 0.17926
# Poissons Ratio (y) = 0.23604 0.13002
# Poissons Ratio (z) = 0.33765 0.21062
#
# Static dielectric constant tensor:
#      x y z
#    x 2.001110 0.000000 -0.027750 
#    y 0.000000 2.021820 0.000000 
#    z -0.027750 0.000000 1.996140 
# 
# From -- ./inp_files/34114.got.cif
#   From: 2010.05.17/outbox.cif.g08.bks.cpg/sg13_18_cif.got.tgz:34114.got - 2010.06.03 16:44:36.
