data_PCOD9237634
_publ_section_title
;
Structure prediction by ZEFSAII (Michael W. Deem and Ramdas Pophale) SiO2 
 PCOD9237634
Probable space group: P 2/C
;
_chemical_formula_sum "Si O2"
_cell_formula_units_Z 28
_cell_length_a 24.847875
_cell_length_b 9.296636
_cell_length_c 8.560855
_cell_angle_alpha 90.000000
_cell_angle_beta 140.203544
_cell_angle_gamma 90.000000
_cell_volume 1265.768798
_symmetry_space_group_name_H-M "P 2/C"
_symmetry_group_IT_number 13
_symmetry_cell_setting 'monoclinic'
loop_
_space_group_symop_operation_xyz
x,y,z
-x,y,1/2-z
-x,-y,-z
x,-y,1/2+z
loop_
_atom_site_type_symbol
_atom_site_label
_atom_site_fract_x
_atom_site_fract_y
_atom_site_fract_z
Si Si1 0.249845 0.940977 0.761419
Si Si2 0.550640 0.383354 0.513003
Si Si3 0.215165 0.787130 0.355854
Si Si4 0.937331 0.433470 0.985969
Si Si5 0.715086 0.562758 0.201729
Si Si6 0.196135 0.661219 0.795629
Si Si7 0.558121 0.105149 0.732087
O O1 0.239319 0.873820 0.565606
O O2 0.206591 0.827549 0.783814
O O3 0.206084 0.092858 0.700468
O O4 0.350071 0.956575 0.018157
O O5 0.500000 0.500000 0.500000
O O6 0.631736 0.451559 0.614434
O O7 0.574889 0.249056 0.672249
O O8 0.500000 0.327539 0.250000
O O9 0.135148 0.683683 0.211790
O O10 0.284731 0.678468 0.438554
O O11 0.888061 0.575497 0.937083
O O12 0.000000 0.364644 0.250000
O O13 0.000000 0.500000 0.000000
O O14 0.783829 0.617236 0.481269
O O15 0.737298 0.413694 0.171726
O O16 0.500000 0.141350 0.750000
O O17 0.500000 0.000000 0.500000
#
# Coordination Sequence:
#
# PCOD9237634 Si02
#       7
#     4   4   4   4   4   4   4
#     4  12  25  46  69  99 140 183 242 288 339 430
#     4  12  27  43  65  97 138 179 237 304 359 404
#     4  11  26  44  73 102 137 189 231 282 351 422
#     4  11  23  46  74 108 142 174 223 285 352 428
#     4  11  23  43  65  98 135 182 239 287 343 421
#     4  11  22  42  72 101 135 185 229 281 354 417
#     4  12  28  46  67  97 137 190 239 298 363 404
#
# _framework density 22.120943
#
# number of rings (size 3 to 8) (size 9 to 14) (size 15 to 20)
#    0.000    0.571    1.429    7.714    8.000    0.000 
#    0.000    3.571    0.000    0.000    0.000    0.000 
#    0.000    0.000    0.000    0.000    0.000    0.000 
#
# Total GULP energy -156573.424033 kJ/mol
# GULP energy per Si atom -5591.908001 kJ/mol
# Density = 2.207060 g / cm^3
# Si number density = 22.120943 Si / 1000 Ang^3
#
#
#
# Elastic Constant Matrix: (Units=GPa)
#
#
# Indices 1 2 3 4 5 6 
#
# 1 150.2433 54.2450 38.7428 0.0000 10.2408 0.0000
# 2 54.2450 113.5737 14.0634 0.0000 11.2255 0.0000
# 3 38.7428 14.0634 90.8522 0.0000 -1.6442 0.0000
# 4 0.0000 0.0000 0.0000 30.7553 0.0000 -7.7767
# 5 10.2408 11.2255 -1.6442 0.0000 40.8008 0.0000
# 6 0.0000 0.0000 0.0000 -7.7767 0.0000 34.3757
#
#
#
# Elastic Compliance Matrix: (Units=1/GPa)
#
#
# Indices 1 2 3 4 5 6 
#
# 1 0.008935 -0.003731 -0.003257 0.000000 -0.001347 0.000000
# 2 -0.003731 0.010803 -0.000118 0.000000 -0.002041 0.000000
# 3 -0.003257 -0.000118 0.012439 0.000000 0.001351 0.000000
# 4 0.000000 0.000000 0.000000 0.034488 0.000000 0.007802
# 5 -0.001347 -0.002041 0.001351 0.000000 0.025463 0.000000
# 6 0.000000 0.000000 0.000000 0.007802 0.000000 0.030855
#
#
# Mechanical properties :
#
#
# Convention : Reuss Voigt Hill
#
# Bulk Modulus (GPa) = 55.66613 63.19683 59.43148
# Shear Modulus (GPa) = 34.92047 37.69422 36.30734
#
# Velocity S-wave (km/s) = 3.97749 4.13244 4.05570
# Velocity P-wave (km/s) = 6.80536 7.16939 6.98975
#
# Compressibility (1/GPa) = 0.01796424
#
# Stress axis : x y z
#
# Youngs Moduli (GPa) = 111.92468 92.56589 80.39545
#
# Poissons Ratio (x) = 0.34535 0.26184
# Poissons Ratio (y) = 0.41758 0.00950
# Poissons Ratio (z) = 0.36453 0.01094
#
# Static dielectric constant tensor:
#      x y z
#    x 1.835600 0.000000 -0.015660 
#    y 0.000000 1.776880 0.000000 
#    z -0.015660 0.000000 1.897450 
# 
# From -- ./inp_files/24602.got.cif
#   From: 2010.05.17/outbox.cif.g08.bks.cpg/sg13_13_cif.got.tgz:24602.got - 2010.06.03 16:44:36.
