data_PCOD9237581
_publ_section_title
;
Structure prediction by ZEFSAII (Michael W. Deem and Ramdas Pophale) SiO2 
 PCOD9237581
Probable space group: P 2/C
;
_chemical_formula_sum "Si O2"
_cell_formula_units_Z 32
_cell_length_a 15.203969
_cell_length_b 6.443859
_cell_length_c 15.855284
_cell_angle_alpha 90.000000
_cell_angle_beta 101.190957
_cell_angle_gamma 90.000000
_cell_volume 1523.841337
_symmetry_space_group_name_H-M "P 2/C"
_symmetry_group_IT_number 13
_symmetry_cell_setting 'monoclinic'
loop_
_space_group_symop_operation_xyz
x,y,z
-x,y,1/2-z
-x,-y,-z
x,-y,1/2+z
loop_
_atom_site_type_symbol
_atom_site_label
_atom_site_fract_x
_atom_site_fract_y
_atom_site_fract_z
Si Si1 0.339815 0.242233 0.890232
Si Si2 0.813199 0.092674 0.873117
Si Si3 0.103962 0.837021 0.755660
Si Si4 0.483510 0.065933 0.594850
Si Si5 0.649920 0.225570 0.341152
Si Si6 0.211863 0.090111 0.445085
Si Si7 0.758208 0.483128 0.765945
Si Si8 0.351411 0.569273 0.020208
O O1 0.418136 0.126171 0.854448
O O2 0.265944 0.335427 0.815559
O O3 0.288575 0.082501 0.942101
O O4 0.387059 0.430489 0.949301
O O5 0.786679 0.327490 0.845923
O O6 0.880744 0.005741 0.815547
O O7 0.723270 0.955017 0.847686
O O8 0.839015 0.061404 0.975629
O O9 0.149141 0.905781 0.852103
O O10 0.160036 0.635827 0.737430
O O11 0.000000 0.794911 0.750000
O O12 0.417604 0.263844 0.574954
O O13 0.500000 0.000000 0.500000
O O14 0.439801 0.887515 0.644103
O O15 0.669802 0.372563 0.264670
O O16 0.672732 0.392048 0.417851
O O17 0.267535 0.302692 0.468173
#
# Coordination Sequence:
#
# PCOD9237581 Si02
#       8
#     4   4   4   4   4   4   4   4
#     4  12  24  40  66  98 132 192 233 274 349 403
#     4  11  22  44  72 101 137 178 226 285 343 421
#     4  11  27  46  72 108 136 173 231 292 355 428
#     4  12  22  36  64  98 135 172 244 287 319 401
#     4  11  22  40  64  96 135 178 230 287 332 392
#     4  12  22  43  75 100 135 185 229 279 358 419
#     4  11  24  44  69  91 143 186 225 282 353 412
#     4  12  20  39  66  97 127 182 234 277 335 404
#
# _framework density 20.999561
#
# number of rings (size 3 to 8) (size 9 to 14) (size 15 to 20)
#    0.000    0.500    8.750    0.375    0.000    1.000 
#    0.000    4.375    0.000    0.000    0.000    0.000 
#    0.000    0.000    0.000    0.000    0.000    0.000 
#
# Total GULP energy -178659.366942 kJ/mol
# GULP energy per Si atom -5583.105217 kJ/mol
# Density = 2.095176 g / cm^3
# Si number density = 20.999561 Si / 1000 Ang^3
#
#
#
# Elastic Constant Matrix: (Units=GPa)
#
#
# Indices 1 2 3 4 5 6 
#
# 1 92.3925 50.8735 32.9864 0.0000 -11.0268 0.0000
# 2 50.8735 111.6394 45.0532 0.0000 -8.9749 0.0000
# 3 32.9864 45.0532 90.7445 0.0000 -14.9418 0.0000
# 4 0.0000 0.0000 0.0000 39.2267 0.0000 -3.1962
# 5 -11.0268 -8.9749 -14.9418 0.0000 23.1679 0.0000
# 6 0.0000 0.0000 0.0000 -3.1962 0.0000 15.4796
#
#
#
# Elastic Compliance Matrix: (Units=1/GPa)
#
#
# Indices 1 2 3 4 5 6 
#
# 1 0.015182 -0.005803 -0.002034 0.000000 0.003666 0.000000
# 2 -0.005803 0.013434 -0.004652 0.000000 -0.000558 0.000000
# 3 -0.002034 -0.004652 0.015230 0.000000 0.007052 0.000000
# 4 0.000000 0.000000 0.000000 0.025929 0.000000 0.005354
# 5 0.003666 -0.000558 0.007052 0.000000 0.049240 0.000000
# 6 0.000000 0.000000 0.000000 0.005354 0.000000 0.065706
#
#
# Mechanical properties :
#
#
# Convention : Reuss Voigt Hill
#
# Bulk Modulus (GPa) = 52.99938 61.40027 57.19983
# Shear Modulus (GPa) = 23.14906 26.63240 24.89073
#
# Velocity S-wave (km/s) = 3.32378 3.56509 3.44655
# Velocity P-wave (km/s) = 6.32639 6.80065 6.56780
#
# Compressibility (1/GPa) = 0.01886814
#
# Stress axis : x y z
#
# Youngs Moduli (GPa) = 65.86576 74.43558 65.65775
#
# Poissons Ratio (x) = 0.43194 0.13356
# Poissons Ratio (y) = 0.38221 0.30547
# Poissons Ratio (z) = 0.13399 0.34631
#
# Static dielectric constant tensor:
#      x y z
#    x 1.731800 0.000000 -0.032620 
#    y 0.000000 1.762530 0.000000 
#    z -0.032620 0.000000 1.829510 
# 
# From -- ./inp_files/67570.got.cif
#   From: 2010.05.17/outbox.cif.g08.bks.cpg/sg13_34_cif.got.tgz:67570.got - 2010.06.03 16:44:36.
