data_PCOD9237843
_publ_section_title
;
Structure prediction by ZEFSAII (Michael W. Deem and Ramdas Pophale) SiO2 
 PCOD9237843
Probable space group: P 2/C
;
_chemical_formula_sum "Si O2"
_cell_formula_units_Z 16
_cell_length_a 7.527925
_cell_length_b 17.770413
_cell_length_c 5.383313
_cell_angle_alpha 90.000000
_cell_angle_beta 114.650883
_cell_angle_gamma 90.000000
_cell_volume 654.519098
_symmetry_space_group_name_H-M "P 2/C"
_symmetry_group_IT_number 13
_symmetry_cell_setting 'monoclinic'
loop_
_space_group_symop_operation_xyz
x,y,z
-x,y,1/2-z
-x,-y,-z
x,-y,1/2+z
loop_
_atom_site_type_symbol
_atom_site_label
_atom_site_fract_x
_atom_site_fract_y
_atom_site_fract_z
Si Si1 0.000000 0.449048 0.250000
Si Si2 0.202716 0.346300 0.715442
Si Si3 0.234985 0.784409 0.914402
Si Si4 0.500000 0.675691 0.750000
Si Si5 0.237580 0.956294 0.904866
O O1 0.168686 0.391296 0.439138
O O2 0.000000 0.500000 0.500000
O O3 0.262738 0.260744 0.686489
O O4 0.000000 0.347993 0.750000
O O5 0.379174 0.374767 0.985750
O O6 0.342326 0.732116 0.779512
O O7 0.304799 0.869884 0.944592
O O8 0.000000 0.784034 0.750000
O O9 0.000000 0.953567 0.750000
O O10 0.293634 0.002315 0.692150
#
# Coordination Sequence:
#
# PCOD9237843 Si02
#       5
#     2   4   4   2   4
#     4  12  26  50  84 118 158 200 248 310 384 454
#     4  12  24  48  79 114 153 205 248 317 375 459
#     4  11  23  42  74 107 148 202 261 317 378 450
#     4  12  26  44  76 114 156 196 268 310 382 448
#     4   9  20  37  62  98 143 194 251 316 384 440
#
# _framework density 24.445425
#
# number of rings (size 3 to 8) (size 9 to 14) (size 15 to 20)
#    0.000    1.000    5.000    0.750    3.500    1.000 
#    0.000    2.500    0.000    0.000    0.000    0.000 
#    0.000    0.000    0.000    0.000    0.000    0.000 
#
# Total GULP energy -89420.641418 kJ/mol
# GULP energy per Si atom -5588.790089 kJ/mol
# Density = 2.438979 g / cm^3
# Si number density = 24.445425 Si / 1000 Ang^3
#
#
#
# Elastic Constant Matrix: (Units=GPa)
#
#
# Indices 1 2 3 4 5 6 
#
# 1 109.0199 29.1413 37.2255 0.0000 -4.6199 0.0000
# 2 29.1413 145.0606 61.2324 0.0000 -21.4107 0.0000
# 3 37.2255 61.2324 217.5908 0.0000 -6.7852 0.0000
# 4 0.0000 0.0000 0.0000 22.4106 0.0000 -13.1810
# 5 -4.6199 -21.4107 -6.7852 0.0000 42.5026 0.0000
# 6 0.0000 0.0000 0.0000 -13.1810 0.0000 9.5211
#
#
#
# Elastic Compliance Matrix: (Units=1/GPa)
#
#
# Indices 1 2 3 4 5 6 
#
# 1 0.010008 -0.001438 -0.001303 0.000000 0.000156 0.000000
# 2 -0.001438 0.008621 -0.002060 0.000000 0.003858 0.000000
# 3 -0.001303 -0.002060 0.005388 0.000000 -0.000319 0.000000
# 4 0.000000 0.000000 0.000000 0.240215 0.000000 0.332554
# 5 0.000156 0.003858 -0.000319 0.000000 0.025437 0.000000
# 6 0.000000 0.000000 0.000000 0.332554 0.000000 0.565418
#
#
# Mechanical properties :
#
#
# Convention : Reuss Voigt Hill
#
# Bulk Modulus (GPa) = 69.36047 80.76329 75.06188
# Shear Modulus (GPa) = 5.75046 37.82500 21.78773
#
# Velocity S-wave (km/s) = 1.53541 3.93787 2.98867
# Velocity P-wave (km/s) = 5.61947 7.33387 6.53315
#
# Compressibility (1/GPa) = 0.01441743
#
# Stress axis : x y z
#
# Youngs Moduli (GPa) = 99.91629 115.99007 185.58405
#
# Poissons Ratio (x) = 0.16676 0.24178
# Poissons Ratio (y) = 0.14365 0.38228
# Poissons Ratio (z) = 0.13017 0.23893
#
# Static dielectric constant tensor:
#      x y z
#    x 2.014840 0.000000 0.026420 
#    y 0.000000 1.941750 0.000000 
#    z 0.026420 0.000000 2.120530 
# 
# From -- ./inp_files/1405.got.cif
#   From: 2010.05.17/outbox.cif.g08.bks.cpg/sg13_1_cif.got.tgz:1405.got - 2010.06.03 16:44:36.
