data_PCOD9237952
_publ_section_title
;
Structure prediction by ZEFSAII (Michael W. Deem and Ramdas Pophale) SiO2 
 PCOD9237952
Probable space group: P 2/C
;
_chemical_formula_sum "Si O2"
_cell_formula_units_Z 28
_cell_length_a 10.781398
_cell_length_b 9.562907
_cell_length_c 19.089200
_cell_angle_alpha 90.000000
_cell_angle_beta 39.827876
_cell_angle_gamma 90.000000
_cell_volume 1260.551598
_symmetry_space_group_name_H-M "P 2/C"
_symmetry_group_IT_number 13
_symmetry_cell_setting 'monoclinic'
loop_
_space_group_symop_operation_xyz
x,y,z
-x,y,1/2-z
-x,-y,-z
x,-y,1/2+z
loop_
_atom_site_type_symbol
_atom_site_label
_atom_site_fract_x
_atom_site_fract_y
_atom_site_fract_z
Si Si1 0.959695 0.301118 0.849666
Si Si2 0.500000 0.764684 0.250000
Si Si3 0.500000 0.700147 0.750000
Si Si4 0.643891 0.160707 0.315100
Si Si5 0.823723 0.534198 0.127931
Si Si6 0.473758 0.659428 0.993848
Si Si7 0.023378 0.025160 0.155094
Si Si8 0.550116 0.885721 0.075736
O O1 0.000000 0.317766 0.750000
O O2 0.081459 0.412906 0.840830
O O3 0.729784 0.321764 0.957429
O O4 0.003185 0.139408 0.850213
O O5 0.686711 0.663319 0.165219
O O6 0.507990 0.852737 0.175226
O O7 0.506405 0.799721 0.680156
O O8 0.318249 0.599558 0.812252
O O9 0.643631 0.287054 0.369659
O O10 0.852192 0.117629 0.196568
O O11 0.567652 0.025972 0.390088
O O12 0.000000 0.500000 0.000000
O O13 0.500000 0.500000 0.000000
O O14 0.476455 0.756454 0.061317
O O15 0.000000 0.038677 0.250000
O O16 0.227895 0.081232 0.039013
#
# Coordination Sequence:
#
# PCOD9237952 Si02
#       8
#     4   2   2   4   4   4   4   4
#     4  11  24  45  75 110 146 195 253 313 385 456
#     4  11  27  46  74 108 150 204 246 302 384 454
#     4  11  29  46  70 106 152 196 254 312 376 462
#     4  12  25  48  74 108 148 196 252 311 378 448
#     4  11  26  48  70 103 156 198 246 313 379 451
#     4  12  27  44  76 108 151 193 246 317 384 451
#     4  11  23  45  80 114 147 193 256 320 385 451
#     4  12  25  50  75 111 154 197 251 317 380 451
#
# _framework density 22.212498
#
# number of rings (size 3 to 8) (size 9 to 14) (size 15 to 20)
#    0.000    0.571    2.857    5.143   10.000    0.000 
#    0.000    2.143    0.000    0.000    0.000    0.000 
#    0.000    0.000    0.000    0.000    0.000    0.000 
#
# Total GULP energy -156721.590352 kJ/mol
# GULP energy per Si atom -5597.199655 kJ/mol
# Density = 2.216194 g / cm^3
# Si number density = 22.212498 Si / 1000 Ang^3
#
#
#
# Elastic Constant Matrix: (Units=GPa)
#
#
# Indices 1 2 3 4 5 6 
#
# 1 110.1231 59.8695 39.0805 0.0000 -3.1921 0.0000
# 2 59.8695 150.8688 43.9789 0.0000 0.4647 0.0000
# 3 39.0805 43.9789 105.2193 0.0000 -20.4438 0.0000
# 4 0.0000 0.0000 0.0000 16.5107 0.0000 3.6086
# 5 -3.1921 0.4647 -20.4438 0.0000 44.7660 0.0000
# 6 0.0000 0.0000 0.0000 3.6086 0.0000 42.5130
#
#
#
# Elastic Compliance Matrix: (Units=1/GPa)
#
#
# Indices 1 2 3 4 5 6 
#
# 1 0.012308 -0.004014 -0.002979 0.000000 -0.000441 0.000000
# 2 -0.004014 0.008972 -0.002560 0.000000 -0.001549 0.000000
# 3 -0.002979 -0.002560 0.012778 0.000000 0.005650 0.000000
# 4 0.000000 0.000000 0.000000 0.061712 0.000000 -0.005238
# 5 -0.000441 -0.001549 0.005650 0.000000 0.024903 0.000000
# 6 0.000000 0.000000 0.000000 -0.005238 0.000000 0.023967
#
#
# Mechanical properties :
#
#
# Convention : Reuss Voigt Hill
#
# Bulk Modulus (GPa) = 66.88446 72.45209 69.66828
# Shear Modulus (GPa) = 29.63307 35.64344 32.63825
#
# Velocity S-wave (km/s) = 3.65646 4.01016 3.83739
# Velocity P-wave (km/s) = 6.92840 7.35734 7.14609
#
# Compressibility (1/GPa) = 0.01495116
#
# Stress axis : x y z
#
# Youngs Moduli (GPa) = 81.25071 111.45417 78.25798
#
# Poissons Ratio (x) = 0.44740 0.23314
# Poissons Ratio (y) = 0.32616 0.20035
# Poissons Ratio (z) = 0.24206 0.28533
#
# Static dielectric constant tensor:
#      x y z
#    x 1.828820 0.000000 -0.020360 
#    y 0.000000 1.802350 0.000000 
#    z -0.020360 0.000000 1.855930 
# 
# From -- ./inp_files/78233.got.cif
#   From: 2010.05.17/outbox.cif.g08.bks.cpg/sg13_40_cif.got.tgz:78233.got - 2010.06.03 16:44:36.
