data_PCOD9237763
_publ_section_title
;
Structure prediction by ZEFSAII (Michael W. Deem and Ramdas Pophale) SiO2 
 PCOD9237763
Probable space group: P 2/C
;
_chemical_formula_sum "Si O2"
_cell_formula_units_Z 16
_cell_length_a 17.825649
_cell_length_b 9.132361
_cell_length_c 16.981819
_cell_angle_alpha 90.000000
_cell_angle_beta 16.575962
_cell_angle_gamma 90.000000
_cell_volume 788.666735
_symmetry_space_group_name_H-M "P 2/C"
_symmetry_group_IT_number 13
_symmetry_cell_setting 'monoclinic'
loop_
_space_group_symop_operation_xyz
x,y,z
-x,y,1/2-z
-x,-y,-z
x,-y,1/2+z
loop_
_atom_site_type_symbol
_atom_site_label
_atom_site_fract_x
_atom_site_fract_y
_atom_site_fract_z
Si Si1 0.752280 0.211463 0.549679
Si Si2 0.390996 0.607436 0.041812
Si Si3 0.110595 0.450688 0.556398
Si Si4 0.250230 0.904147 0.271600
O O1 0.500000 0.185562 0.750000
O O2 0.783647 0.385886 0.532797
O O3 0.747740 0.135985 0.638574
O O4 0.000000 0.161146 0.250000
O O5 0.279977 0.753996 0.193000
O O6 0.142862 0.538832 0.245450
O O7 0.500000 0.500000 0.000000
O O8 0.642545 0.631942 0.731485
O O9 0.000000 0.387857 0.750000
O O10 0.000000 0.000000 0.500000
O O11 0.500000 0.000000 0.000000
#
# Coordination Sequence:
#
# PCOD9237763 Si02
#       4
#     4   4   4   4
#     4  11  23  42  71  98 132 175 230 279 337 411
#     4  12  24  42  70  99 136 175 228 286 342 401
#     4  11  23  40  69 104 135 170 230 291 348 393
#     4  12  27  45  67 100 139 183 228 273 341 416
#
# _framework density 20.287402
#
# number of rings (size 3 to 8) (size 9 to 14) (size 15 to 20)
#    0.000    0.500    2.500    7.500    3.500    0.000 
#    0.000   12.500    0.000    0.000    0.000    0.000 
#    0.000    0.000    0.000    0.000    0.000    0.000 
#
# Total GULP energy -89535.723424 kJ/mol
# GULP energy per Si atom -5595.982714 kJ/mol
# Density = 2.024123 g / cm^3
# Si number density = 20.287402 Si / 1000 Ang^3
#
#
#
# Elastic Constant Matrix: (Units=GPa)
#
#
# Indices 1 2 3 4 5 6 
#
# 1 163.7716 49.1178 103.3439 0.0000 5.4016 0.0000
# 2 49.1178 77.0743 50.0282 0.0000 6.1811 0.0000
# 3 103.3439 50.0282 207.3604 0.0000 -1.0876 0.0000
# 4 0.0000 0.0000 0.0000 68.6374 0.0000 -8.6400
# 5 5.4016 6.1811 -1.0876 0.0000 57.5529 0.0000
# 6 0.0000 0.0000 0.0000 -8.6400 0.0000 32.4348
#
#
#
# Elastic Compliance Matrix: (Units=1/GPa)
#
#
# Indices 1 2 3 4 5 6 
#
# 1 0.009704 -0.003550 -0.003983 0.000000 -0.000605 0.000000
# 2 -0.003550 0.016855 -0.002305 0.000000 -0.001521 0.000000
# 3 -0.003983 -0.002305 0.007368 0.000000 0.000761 0.000000
# 4 0.000000 0.000000 0.000000 0.015075 0.000000 0.004016
# 5 -0.000605 -0.001521 0.000761 0.000000 0.017610 0.000000
# 6 0.000000 0.000000 0.000000 0.004016 0.000000 0.031901
#
#
# Mechanical properties :
#
#
# Convention : Reuss Voigt Hill
#
# Bulk Modulus (GPa) = 70.17448 94.79845 82.48647
# Shear Modulus (GPa) = 40.67046 48.10611 44.38828
#
# Velocity S-wave (km/s) = 4.48226 4.87481 4.68265
# Velocity P-wave (km/s) = 7.83919 8.86083 8.36562
#
# Compressibility (1/GPa) = 0.01425019
#
# Stress axis : x y z
#
# Youngs Moduli (GPa) = 103.04822 59.32865 135.72879
#
# Poissons Ratio (x) = 0.21065 0.54060
# Poissons Ratio (y) = 0.36587 0.31286
# Poissons Ratio (z) = 0.41043 0.13675
#
# Static dielectric constant tensor:
#      x y z
#    x 1.714540 0.000000 0.035590 
#    y 0.000000 1.724840 0.000000 
#    z 0.035590 0.000000 1.705210 
# 
# From -- ./inp_files/52723.got.cif
#   From: 2010.05.17/outbox.cif.g08.bks.cpg/sg13_27_cif.got.tgz:52723.got - 2010.06.03 16:44:36.
