data_PCOD9237320
_publ_section_title
;
Structure prediction by ZEFSAII (Michael W. Deem and Ramdas Pophale) SiO2 
 PCOD9237320
Probable space group: P 2/C
;
_chemical_formula_sum "Si O2"
_cell_formula_units_Z 22
_cell_length_a 11.436183
_cell_length_b 12.896904
_cell_length_c 14.158127
_cell_angle_alpha 90.000000
_cell_angle_beta 149.980660
_cell_angle_gamma 90.000000
_cell_volume 1044.711034
_symmetry_space_group_name_H-M "P 2/C"
_symmetry_group_IT_number 13
_symmetry_cell_setting 'monoclinic'
loop_
_space_group_symop_operation_xyz
x,y,z
-x,y,1/2-z
-x,-y,-z
x,-y,1/2+z
loop_
_atom_site_type_symbol
_atom_site_label
_atom_site_fract_x
_atom_site_fract_y
_atom_site_fract_z
Si Si1 0.500000 0.400512 0.250000
Si Si2 0.946526 0.108065 0.911867
Si Si3 0.500000 0.719989 0.250000
Si Si4 0.000000 0.969227 0.250000
Si Si5 0.870973 0.437878 0.991364
Si Si6 0.234503 0.721534 0.728485
Si Si7 0.603387 0.858195 0.487275
O O1 0.713629 0.475852 0.433575
O O2 0.597479 0.333790 0.230592
O O3 0.667569 0.115224 0.712565
O O4 0.038460 0.099069 0.869459
O O5 0.066605 0.201693 0.051563
O O6 0.000000 0.000000 0.000000
O O7 0.676742 0.644011 0.319175
O O8 0.648600 0.789202 0.425671
O O9 0.222684 0.044553 0.390073
O O10 0.078166 0.364803 0.174331
O O11 0.000000 0.500000 0.000000
O O12 0.361963 0.791072 0.894881
#
# Coordination Sequence:
#
# PCOD9237320 Si02
#       7
#     2   4   2   2   4   4   4
#     4   9  22  40  77  94 138 177 220 292 343 404
#     4  12  26  45  67 102 140 180 229 281 329 413
#     4  11  20  40  69  88 132 175 212 282 331 398
#     4  12  26  42  68  96 136 186 220 274 342 396
#     4   9  19  42  66  99 131 169 224 279 338 400
#     4  11  23  44  70  99 138 179 224 286 337 402
#     4  12  25  45  66 101 132 181 231 273 341 406
#
# _framework density 21.058453
#
# number of rings (size 3 to 8) (size 9 to 14) (size 15 to 20)
#    0.000    1.091    3.636    2.727    2.545    0.000 
#    0.000   10.000    0.000    0.000    0.000    0.000 
#    0.000    0.000    0.000    0.000    0.000    0.000 
#
# Total GULP energy -122820.322900 kJ/mol
# GULP energy per Si atom -5582.741950 kJ/mol
# Density = 2.101052 g / cm^3
# Si number density = 21.058453 Si / 1000 Ang^3
#
#
#
# Elastic Constant Matrix: (Units=GPa)
#
#
# Indices 1 2 3 4 5 6 
#
# 1 104.3770 51.7078 48.8130 0.0000 3.4225 0.0000
# 2 51.7078 100.8366 58.2062 0.0000 9.0878 0.0000
# 3 48.8130 58.2062 122.5641 0.0000 7.9535 0.0000
# 4 0.0000 0.0000 0.0000 13.9360 0.0000 7.8914
# 5 3.4225 9.0878 7.9535 0.0000 38.9685 0.0000
# 6 0.0000 0.0000 0.0000 7.8914 0.0000 45.3094
#
#
#
# Elastic Compliance Matrix: (Units=1/GPa)
#
#
# Indices 1 2 3 4 5 6 
#
# 1 0.013563 -0.005333 -0.002911 0.000000 0.000647 0.000000
# 2 -0.005333 0.015897 -0.005286 0.000000 -0.002160 0.000000
# 3 -0.002911 -0.005286 0.011889 0.000000 -0.000938 0.000000
# 4 0.000000 0.000000 0.000000 0.079608 0.000000 -0.013865
# 5 0.000647 -0.002160 -0.000938 0.000000 0.026300 0.000000
# 6 0.000000 0.000000 0.000000 -0.013865 0.000000 0.024485
#
#
# Mechanical properties :
#
#
# Convention : Reuss Voigt Hill
#
# Bulk Modulus (GPa) = 69.97583 71.69239 70.83411
# Shear Modulus (GPa) = 24.56218 30.91281 27.73750
#
# Velocity S-wave (km/s) = 3.41894 3.83554 3.63322
# Velocity P-wave (km/s) = 6.99192 7.33032 7.16312
#
# Compressibility (1/GPa) = 0.01429065
#
# Stress axis : x y z
#
# Youngs Moduli (GPa) = 73.73229 62.90351 84.10842
#
# Poissons Ratio (x) = 0.33545 0.24483
# Poissons Ratio (y) = 0.39319 0.44457
# Poissons Ratio (z) = 0.21463 0.33249
#
# Static dielectric constant tensor:
#      x y z
#    x 1.784410 0.000000 0.033510 
#    y 0.000000 1.772050 0.000000 
#    z 0.033510 0.000000 1.733780 
# 
# From -- ./inp_files/51132.got.cif
#   From: 2010.05.17/outbox.cif.g08.bks.cpg/sg13_26_cif.got.tgz:51132.got - 2010.06.03 16:44:36.
