data_PCOD9237308
_publ_section_title
;
Structure prediction by ZEFSAII (Michael W. Deem and Ramdas Pophale) SiO2 
 PCOD9237308
Probable space group: P 2/C
;
_chemical_formula_sum "Si O2"
_cell_formula_units_Z 22
_cell_length_a 21.594834
_cell_length_b 8.876172
_cell_length_c 14.182348
_cell_angle_alpha 90.000000
_cell_angle_beta 159.673246
_cell_angle_gamma 90.000000
_cell_volume 944.322793
_symmetry_space_group_name_H-M "P 2/C"
_symmetry_group_IT_number 13
_symmetry_cell_setting 'monoclinic'
loop_
_space_group_symop_operation_xyz
x,y,z
-x,y,1/2-z
-x,-y,-z
x,-y,1/2+z
loop_
_atom_site_type_symbol
_atom_site_label
_atom_site_fract_x
_atom_site_fract_y
_atom_site_fract_z
Si Si1 0.694828 0.716484 0.513125
Si Si2 0.081321 0.192867 0.527873
Si Si3 0.125511 0.547797 0.561598
Si Si4 0.000000 0.016255 0.750000
Si Si5 0.204397 0.228941 0.898095
Si Si6 0.647278 0.465534 0.287887
O O1 0.500000 0.788132 0.250000
O O2 0.736838 0.610963 0.663938
O O3 0.681483 0.609389 0.402235
O O4 0.870005 0.818513 0.751967
O O5 0.108268 0.368642 0.542779
O O6 0.200604 0.157233 0.789217
O O7 0.110856 0.088832 0.479898
O O8 0.190679 0.579149 0.549657
O O9 0.944054 0.636549 0.324569
O O10 0.872345 0.116380 0.633399
O O11 0.376971 0.319435 0.180462
O O12 0.500000 0.500000 0.000000
#
# Coordination Sequence:
#
# PCOD9237308 Si02
#       6
#     4   4   4   2   4   4
#     4  11  21  37  60  97 126 162 209 277 332 373
#     4  11  23  40  66  96 128 171 225 266 316 391
#     4  11  20  38  67  90 125 163 219 279 324 370
#     4  12  24  38  66  96 132 180 222 256 316 392
#     4  11  22  41  63  95 129 168 215 274 322 378
#     4  12  21  34  62  96 127 159 206 273 338 376
#
# _framework density 23.297118999999999
#
# number of rings (size 3 to 8) (size 9 to 14) (size 15 to 20)
#    0.000    0.727    7.273    2.727    0.000    0.000 
#    0.000    0.000    0.000   20.727    0.000    0.000 
#    0.000    0.000    0.000    0.000    0.000    0.000 
#
# Total GULP energy -122995.950010 kJ/mol
# GULP energy per Si atom -5590.725000 kJ/mol
# Density = 2.324409 g / cm^3
# Si number density = 23.297119 Si / 1000 Ang^3
#
#
#
# Elastic Constant Matrix: (Units=GPa)
#
#
# Indices 1 2 3 4 5 6 
#
# 1 98.5605 19.1150 18.6920 0.0000 -47.2552 0.0000
# 2 19.1150 97.7542 10.3852 0.0000 -26.6259 0.0000
# 3 18.6920 10.3852 107.6031 0.0000 -32.8272 0.0000
# 4 0.0000 0.0000 0.0000 6.0583 0.0000 -1.9470
# 5 -47.2552 -26.6259 -32.8272 0.0000 50.2338 0.0000
# 6 0.0000 0.0000 0.0000 -1.9470 0.0000 35.4207
#
#
#
# Elastic Compliance Matrix: (Units=1/GPa)
#
#
# Indices 1 2 3 4 5 6 
#
# 1 0.019303 0.001609 0.002862 0.000000 0.020882 0.000000
# 2 0.001609 0.012172 0.001219 0.000000 0.008762 0.000000
# 3 0.002862 0.001219 0.012112 0.000000 0.011253 0.000000
# 4 0.000000 0.000000 0.000000 0.168030 0.000000 0.009236
# 5 0.020882 0.008762 0.011253 0.000000 0.051548 0.000000
# 6 0.000000 0.000000 0.000000 0.009236 0.000000 0.028740
#
#
# Mechanical properties :
#
#
# Convention : Reuss Voigt Hill
#
# Bulk Modulus (GPa) = 18.19295 44.47802 31.33548
# Shear Modulus (GPa) = 16.73095 35.39093 26.06094
#
# Velocity S-wave (km/s) = 2.68275 3.90181 3.34823
# Velocity P-wave (km/s) = 4.17400 6.27948 5.33170
#
# Compressibility (1/GPa) = 0.05496634
#
# Stress axis : x y z
#
# Youngs Moduli (GPa) = 51.80551 82.15496 82.56491
#
# Poissons Ratio (x) = -0.13219 -0.23630
# Poissons Ratio (y) = -0.08336 -0.10062
# Poissons Ratio (z) = -0.14827 -0.10012
#
# Static dielectric constant tensor:
#      x y z
#    x 1.921300 0.000000 0.014060 
#    y 0.000000 1.885790 0.000000 
#    z 0.014060 0.000000 2.012420 
# 
# From -- ./inp_files/49848.got.cif
#   From: 2010.05.17/outbox.cif.g08.bks.cpg/sg13_25_cif.got.tgz:49848.got - 2010.06.03 16:44:36.
