data_PCOD9237279
_publ_section_title
;
Structure prediction by ZEFSAII (Michael W. Deem and Ramdas Pophale) SiO2 
 PCOD9237279
Probable space group: P 2/C
;
_chemical_formula_sum "Si O2"
_cell_formula_units_Z 26
_cell_length_a 16.570876
_cell_length_b 6.666859
_cell_length_c 24.762333
_cell_angle_alpha 90.000000
_cell_angle_beta 158.652663
_cell_angle_gamma 90.000000
_cell_volume 995.828532
_symmetry_space_group_name_H-M "P 2/C"
_symmetry_group_IT_number 13
_symmetry_cell_setting 'monoclinic'
loop_
_space_group_symop_operation_xyz
x,y,z
-x,y,1/2-z
-x,-y,-z
x,-y,1/2+z
loop_
_atom_site_type_symbol
_atom_site_label
_atom_site_fract_x
_atom_site_fract_y
_atom_site_fract_z
Si Si1 0.697445 0.072719 0.085143
Si Si2 0.028368 0.395443 0.177157
Si Si3 0.562934 0.250352 0.890521
Si Si4 0.075026 0.217147 0.601193
Si Si5 0.361260 0.812103 0.609319
Si Si6 0.000000 0.279383 0.750000
Si Si7 0.778804 0.753967 0.810035
O O1 0.879558 0.198776 0.232715
O O2 0.800245 0.877707 0.120620
O O3 0.603524 0.210109 0.979252
O O4 0.500000 0.000000 0.000000
O O5 0.063096 0.577747 0.239740
O O6 0.768014 0.386931 0.002350
O O7 0.895216 0.762115 0.037749
O O8 0.309196 0.314597 0.729060
O O9 0.611786 0.050786 0.885623
O O10 0.149336 0.618941 0.695400
O O11 0.924825 0.262204 0.455173
O O12 0.164364 0.988781 0.667367
O O13 0.500000 0.766597 0.750000
O O14 0.520076 0.727842 0.661448
#
# Coordination Sequence:
#
# PCOD9237279 Si02
#       7
#     4   4   4   4   4   2   4
#     4  12  26  47  73 102 139 195 252 304 372 445
#     4  12  23  45  68 106 144 186 254 291 372 449
#     4  11  20  35  62 101 140 180 246 294 356 454
#     4   9  17  30  58 103 140 190 239 293 368 424
#     4   9  17  31  57 100 140 181 247 291 350 438
#     4  12  26  50  72 104 148 196 238 322 366 430
#     4   9  18  32  59 102 145 184 245 298 348 449
#
# _framework density 26.108913999999999
#
# number of rings (size 3 to 8) (size 9 to 14) (size 15 to 20)
#    0.000    1.538    4.615    2.769    0.000    0.615 
#    0.000    0.000    0.000    0.000   12.000    9.692 
#    0.000    0.462    0.000    0.000    0.000    0.000 
#
# Total GULP energy -145439.504057 kJ/mol
# GULP energy per Si atom -5593.827079 kJ/mol
# Density = 2.604949 g / cm^3
# Si number density = 26.108914 Si / 1000 Ang^3
#
#
#
# Elastic Constant Matrix: (Units=GPa)
#
#
# Indices 1 2 3 4 5 6 
#
# 1 169.5088 30.1258 60.1968 0.0000 22.7941 0.0000
# 2 30.1258 82.1285 24.8592 0.0000 22.7811 0.0000
# 3 60.1968 24.8592 138.5438 0.0000 43.8165 0.0000
# 4 0.0000 0.0000 0.0000 21.0209 0.0000 12.2314
# 5 22.7941 22.7811 43.8165 0.0000 42.4967 0.0000
# 6 0.0000 0.0000 0.0000 12.2314 0.0000 52.2592
#
#
#
# Elastic Compliance Matrix: (Units=1/GPa)
#
#
# Indices 1 2 3 4 5 6 
#
# 1 0.007218 -0.001794 -0.002810 0.000000 -0.000012 0.000000
# 2 -0.001794 0.014753 0.000488 0.000000 -0.007450 0.000000
# 3 -0.002810 0.000488 0.011808 0.000000 -0.010929 0.000000
# 4 0.000000 0.000000 0.000000 0.055072 0.000000 -0.012890
# 5 -0.000012 -0.007450 -0.010929 0.000000 0.038800 0.000000
# 6 0.000000 0.000000 0.000000 -0.012890 0.000000 0.022152
#
#
# Mechanical properties :
#
#
# Convention : Reuss Voigt Hill
#
# Bulk Modulus (GPa) = 39.14344 68.94941 54.04642
# Shear Modulus (GPa) = 30.02120 41.48867 35.75493
#
# Velocity S-wave (km/s) = 3.39461 3.99063 3.70463
# Velocity P-wave (km/s) = 5.51266 6.90646 6.24855
#
# Compressibility (1/GPa) = 0.02554706
#
# Stress axis : x y z
#
# Youngs Moduli (GPa) = 138.54533 67.78480 84.68928
#
# Poissons Ratio (x) = 0.12157 0.23801
# Poissons Ratio (y) = 0.24848 -0.04136
# Poissons Ratio (z) = 0.38937 -0.03310
#
# Static dielectric constant tensor:
#      x y z
#    x 2.003470 0.000000 -0.008320 
#    y 0.000000 2.174060 0.000000 
#    z -0.008320 0.000000 2.003790 
# 
# From -- ./inp_files/97460.got.cif
#   From: 2010.05.17/outbox.cif.g08.bks.cpg/sg13_49_cif.got.tgz:97460.got - 2010.06.03 16:44:36.
