data_PCOD9237493
_publ_section_title
;
Structure prediction by ZEFSAII (Michael W. Deem and Ramdas Pophale) SiO2 
 PCOD9237493
Probable space group: P 2/C
;
_chemical_formula_sum "Si O2"
_cell_formula_units_Z 28
_cell_length_a 13.209623
_cell_length_b 7.871985
_cell_length_c 20.329001
_cell_angle_alpha 90.000000
_cell_angle_beta 36.189123
_cell_angle_gamma 90.000000
_cell_volume 1248.175511
_symmetry_space_group_name_H-M "P 2/C"
_symmetry_group_IT_number 13
_symmetry_cell_setting 'monoclinic'
loop_
_space_group_symop_operation_xyz
x,y,z
-x,y,1/2-z
-x,-y,-z
x,-y,1/2+z
loop_
_atom_site_type_symbol
_atom_site_label
_atom_site_fract_x
_atom_site_fract_y
_atom_site_fract_z
Si Si1 0.458755 0.171888 0.586223
Si Si2 0.838845 0.026621 0.182761
Si Si3 0.702305 0.741861 0.846823
Si Si4 0.194771 0.606467 0.141943
Si Si5 0.390960 0.669293 0.910460
Si Si6 0.806271 0.037193 0.047203
Si Si7 0.369503 0.308126 0.875486
O O1 0.603893 0.139822 0.452983
O O2 0.320185 0.279220 0.619222
O O3 0.556169 0.278359 0.590898
O O4 0.336180 0.052323 0.695400
O O5 0.859467 0.174247 0.225539
O O6 0.811421 0.080798 0.121709
O O7 0.013988 0.919998 0.083386
O O8 0.769556 0.582136 0.851533
O O9 0.567436 0.681921 0.860273
O O10 0.000000 0.657059 0.250000
O O11 0.249876 0.629467 0.038889
O O12 0.345894 0.852587 0.903991
O O13 0.360968 0.513253 0.875721
O O14 0.779687 0.833047 0.054064
O O15 0.500000 0.253956 0.750000
#
# Coordination Sequence:
#
# PCOD9237493 Si02
#       7
#     4   4   4   4   4   4   4
#     4  11  21  45  66  98 135 177 234 283 334 415
#     4  11  25  45  64 102 142 182 227 287 348 403
#     4  11  23  41  70  98 135 178 234 284 338 409
#     4  11  23  42  66 101 140 173 225 290 347 409
#     4  11  24  45  69 101 134 184 233 279 345 407
#     4  11  27  45  67 103 145 180 231 287 341 416
#     4  12  24  42  73 102 135 183 237 280 340 415
#
# _framework density 22.432744
#
# number of rings (size 3 to 8) (size 9 to 14) (size 15 to 20)
#    0.000    0.857    4.286    3.000    4.000    1.143 
#    0.000    5.000    0.000    0.000    0.000    0.000 
#    0.000    0.000    0.000    0.000    0.000    0.000 
#
# Total GULP energy -156127.076812 kJ/mol
# GULP energy per Si atom -5575.967029 kJ/mol
# Density = 2.238169 g / cm^3
# Si number density = 22.432744 Si / 1000 Ang^3
#
#
#
# Elastic Constant Matrix: (Units=GPa)
#
#
# Indices 1 2 3 4 5 6 
#
# 1 65.2167 0.0386 32.0416 0.0000 17.0889 0.0000
# 2 0.0386 61.1319 18.8042 0.0000 20.2716 0.0000
# 3 32.0416 18.8042 139.8348 0.0000 29.6073 0.0000
# 4 0.0000 0.0000 0.0000 14.8017 0.0000 7.5612
# 5 17.0889 20.2716 29.6073 0.0000 23.5044 0.0000
# 6 0.0000 0.0000 0.0000 7.5612 0.0000 14.7111
#
#
#
# Elastic Compliance Matrix: (Units=1/GPa)
#
#
# Indices 1 2 3 4 5 6 
#
# 1 0.021199 0.006874 -0.001723 0.000000 -0.019171 0.000000
# 2 0.006874 0.025373 0.000961 0.000000 -0.028091 0.000000
# 3 -0.001723 0.000961 0.009992 0.000000 -0.012162 0.000000
# 4 0.000000 0.000000 0.000000 0.091614 0.000000 -0.047088
# 5 -0.019171 -0.028091 -0.012162 0.000000 0.096032 0.000000
# 6 0.000000 0.000000 0.000000 -0.047088 0.000000 0.092178
#
#
# Mechanical properties :
#
#
# Convention : Reuss Voigt Hill
#
# Bulk Modulus (GPa) = 14.53738 40.88358 27.71048
# Shear Modulus (GPa) = 14.40531 24.95671 19.68101
#
# Velocity S-wave (km/s) = 2.53683 3.33905 2.96520
# Velocity P-wave (km/s) = 3.88267 5.75589 4.90945
#
# Compressibility (1/GPa) = 0.06878817
#
# Stress axis : x y z
#
# Youngs Moduli (GPa) = 47.17129 39.41124 100.07973
#
# Poissons Ratio (x) = -0.27091 0.17242
# Poissons Ratio (y) = -0.32425 -0.09614
# Poissons Ratio (z) = 0.08127 -0.03786
#
# Static dielectric constant tensor:
#      x y z
#    x 1.823750 0.000000 -0.006420 
#    y 0.000000 2.016570 0.000000 
#    z -0.006420 0.000000 1.810560 
# 
# From -- ./inp_files/79923.got.cif
#   From: 2010.05.17/outbox.cif.g08.bks.cpg/sg13_40_cif.got.tgz:79923.got - 2010.06.03 16:44:36.
