data_PCOD9237633
_publ_section_title
;
Structure prediction by ZEFSAII (Michael W. Deem and Ramdas Pophale) SiO2 
 PCOD9237633
Probable space group: P 2/C
;
_chemical_formula_sum "Si O2"
_cell_formula_units_Z 32
_cell_length_a 14.824010
_cell_length_b 14.353148
_cell_length_c 20.680923
_cell_angle_alpha 90.000000
_cell_angle_beta 160.357971
_cell_angle_gamma 90.000000
_cell_volume 1479.129613
_symmetry_space_group_name_H-M "P 2/C"
_symmetry_group_IT_number 13
_symmetry_cell_setting 'monoclinic'
loop_
_space_group_symop_operation_xyz
x,y,z
-x,y,1/2-z
-x,-y,-z
x,-y,1/2+z
loop_
_atom_site_type_symbol
_atom_site_label
_atom_site_fract_x
_atom_site_fract_y
_atom_site_fract_z
Si Si1 0.911687 0.823052 0.617470
Si Si2 0.833347 0.791435 0.826662
Si Si3 0.416384 0.337308 0.117636
Si Si4 0.064437 0.801107 0.195728
Si Si5 0.557080 0.062093 0.474826
Si Si6 0.260795 0.988038 0.537591
Si Si7 0.662390 0.738698 0.249414
Si Si8 0.670098 0.526423 0.293963
O O1 0.619045 0.780545 0.419845
O O2 0.000000 0.833180 0.750000
O O3 0.116590 0.761900 0.713769
O O4 0.910471 0.918238 0.575386
O O5 0.627969 0.724629 0.723190
O O6 0.685759 0.889831 0.726806
O O7 0.110135 0.781828 0.051092
O O8 0.500000 0.334399 0.250000
O O9 0.486321 0.442341 0.142326
O O10 0.128046 0.286128 0.916372
O O11 0.248891 0.852679 0.373344
O O12 0.256087 0.768229 0.267562
O O13 0.879828 0.888214 0.047471
O O14 0.678042 0.004459 0.497967
O O15 0.500000 0.000000 0.500000
O O16 0.500000 0.994789 0.750000
O O17 0.654074 0.627826 0.252075
O O18 0.500000 0.538000 0.250000
O O19 0.000000 0.500000 0.500000
#
# Coordination Sequence:
#
# PCOD9237633 Si02
#       8
#     4   4   4   4   4   4   4   4
#     4  12  27  45  63  97 145 192 242 300 377 449
#     4  12  22  41  68  97 135 183 245 294 366 435
#     4  11  22  42  71 110 144 183 248 312 374 459
#     4  12  23  43  69 105 148 192 239 304 384 447
#     4  12  26  43  70 105 150 201 244 309 381 453
#     4  12  24  43  69 102 140 186 252 304 356 446
#     4  12  24  43  74 104 139 192 247 313 380 449
#     4  11  22  42  73 114 151 193 256 330 396 467
#
# _framework density 21.634346000000001
#
# number of rings (size 3 to 8) (size 9 to 14) (size 15 to 20)
#    0.000    0.250    3.750    7.875    0.000    0.000 
#    0.000    3.750    2.750    1.500    0.000    0.000 
#    0.000    0.000    0.000    0.000    0.000    0.000 
#
# Total GULP energy -178385.939628 kJ/mol
# GULP energy per Si atom -5574.560613 kJ/mol
# Density = 2.158510 g / cm^3
# Si number density = 21.634346 Si / 1000 Ang^3
#
#
#
# Elastic Constant Matrix: (Units=GPa)
#
#
# Indices 1 2 3 4 5 6 
#
# 1 109.8844 15.1613 15.1270 0.0000 6.2975 0.0000
# 2 15.1613 101.6997 19.4318 0.0000 -1.0283 0.0000
# 3 15.1270 19.4318 43.3617 0.0000 -3.4133 0.0000
# 4 0.0000 0.0000 0.0000 -5.3678 0.0000 3.4592
# 5 6.2975 -1.0283 -3.4133 0.0000 32.4705 0.0000
# 6 0.0000 0.0000 0.0000 3.4592 0.0000 28.1285
#
#
#
# Elastic Compliance Matrix: (Units=1/GPa)
#
#
# Indices 1 2 3 4 5 6 
#
# 1 0.009791 -0.000870 -0.003204 0.000000 -0.002263 0.000000
# 2 -0.000870 0.010832 -0.004548 0.000000 0.000034 0.000000
# 3 -0.003204 -0.004548 0.026474 0.000000 0.003260 0.000000
# 4 0.000000 0.000000 0.000000 -0.172617 0.000000 0.021228
# 5 -0.002263 0.000034 0.003260 0.000000 0.031580 0.000000
# 6 0.000000 0.000000 0.000000 0.021228 0.000000 0.032941
#
#
# Mechanical properties :
#
#
# Convention : Reuss Voigt Hill
#
# Bulk Modulus (GPa) = 33.49721 39.37622 36.43672
# Shear Modulus (GPa) = -147.91298 24.72797 -61.59251
#
# Velocity S-wave (km/s) = -8.27756 3.38449 -5.34150
# Velocity P-wave (km/s) = 8.70863 5.78907 4.60038
#
# Compressibility (1/GPa) = 0.02985323
#
# Stress axis : x y z
#
# Youngs Moduli (GPa) = 102.13117 92.31958 37.77258
#
# Poissons Ratio (x) = 0.08036 0.12102
# Poissons Ratio (y) = 0.08890 0.17178
# Poissons Ratio (z) = 0.32722 0.41986
#
# Static dielectric constant tensor:
#      x y z
#    x 1.882740 0.000000 0.077860 
#    y 0.000000 1.815020 0.000000 
#    z 0.077860 0.000000 1.839700 
# 
# From -- ./inp_files/80391.got.cif
#   From: 2010.05.17/outbox.cif.g08.bks.cpg/sg13_41_cif.got.tgz:80391.got - 2010.06.03 16:44:36.
