data_PCOD9237665
_publ_section_title
;
Structure prediction by ZEFSAII (Michael W. Deem and Ramdas Pophale) SiO2 
 PCOD9237665
Probable space group: P 2/C
;
_chemical_formula_sum "Si O2"
_cell_formula_units_Z 22
_cell_length_a 11.015455
_cell_length_b 6.484807
_cell_length_c 14.190663
_cell_angle_alpha 90.000000
_cell_angle_beta 77.498057
_cell_angle_gamma 90.000000
_cell_volume 989.647268
_symmetry_space_group_name_H-M "P 2/C"
_symmetry_group_IT_number 13
_symmetry_cell_setting 'monoclinic'
loop_
_space_group_symop_operation_xyz
x,y,z
-x,y,1/2-z
-x,-y,-z
x,-y,1/2+z
loop_
_atom_site_type_symbol
_atom_site_label
_atom_site_fract_x
_atom_site_fract_y
_atom_site_fract_z
Si Si1 0.874607 0.872458 0.517186
Si Si2 0.291063 0.259988 0.942539
Si Si3 0.500000 0.252874 0.250000
Si Si4 0.772215 0.574487 0.686045
Si Si5 0.455455 0.911169 0.107858
Si Si6 0.237951 0.414613 0.609838
O O1 0.845462 0.754274 0.619702
O O2 0.864625 0.705348 0.434980
O O3 0.767445 0.042450 0.519384
O O4 0.000000 0.000000 0.500000
O O5 0.207356 0.367171 0.877348
O O6 0.426076 0.218466 0.878068
O O7 0.296803 0.417275 0.028912
O O8 0.375795 0.374442 0.300601
O O9 0.445716 0.105543 0.177555
O O10 0.803430 0.531218 0.788934
O O11 0.339563 0.758054 0.121145
O O12 0.500000 0.000000 0.000000
#
# Coordination Sequence:
#
# PCOD9237665 Si02
#       6
#     4   4   2   4   4   4
#     4  11  26  49  71  95 139 189 234 293 342 396
#     4  11  22  44  65  98 142 179 221 290 347 406
#     4  12  22  38  68 104 146 176 220 292 350 418
#     4  11  24  42  68 104 137 182 231 283 351 414
#     4  12  20  37  67 101 141 178 220 275 360 415
#     4  11  24  40  71 103 135 182 234 281 346 427
#
# _framework density 22.230142000000001
#
# number of rings (size 3 to 8) (size 9 to 14) (size 15 to 20)
#    0.000    0.727    3.636    4.909    0.000    2.909 
#    0.000    5.455    0.000    0.000    0.000    0.000 
#    0.000    0.000    0.000    0.000    0.000    0.000 
#
# Total GULP energy -123047.485695 kJ/mol
# GULP energy per Si atom -5593.067532 kJ/mol
# Density = 2.217955 g / cm^3
# Si number density = 22.230142 Si / 1000 Ang^3
#
#
#
# Elastic Constant Matrix: (Units=GPa)
#
#
# Indices 1 2 3 4 5 6 
#
# 1 90.4026 27.7002 25.2334 0.0000 -7.9192 0.0000
# 2 27.7002 105.8079 44.1012 0.0000 -1.6676 0.0000
# 3 25.2334 44.1012 90.0060 0.0000 -2.0362 0.0000
# 4 0.0000 0.0000 0.0000 38.7023 0.0000 6.8161
# 5 -7.9192 -1.6676 -2.0362 0.0000 14.1152 0.0000
# 6 0.0000 0.0000 0.0000 6.8161 0.0000 20.9398
#
#
#
# Elastic Compliance Matrix: (Units=1/GPa)
#
#
# Indices 1 2 3 4 5 6 
#
# 1 0.013017 -0.002318 -0.002362 0.000000 0.006689 0.000000
# 2 -0.002318 0.012294 -0.005388 0.000000 -0.000625 0.000000
# 3 -0.002362 -0.005388 0.014415 0.000000 0.000118 0.000000
# 4 0.000000 0.000000 0.000000 0.027410 0.000000 -0.008922
# 5 0.006689 -0.000625 0.000118 0.000000 0.074541 0.000000
# 6 0.000000 0.000000 0.000000 -0.008922 0.000000 0.050660
#
#
# Mechanical properties :
#
#
# Convention : Reuss Voigt Hill
#
# Bulk Modulus (GPa) = 51.04697 53.36513 52.20605
# Shear Modulus (GPa) = 22.83068 27.36359 25.09713
#
# Velocity S-wave (km/s) = 3.20818 3.51226 3.36366
# Velocity P-wave (km/s) = 6.06103 6.36442 6.21457
#
# Compressibility (1/GPa) = 0.01958980
#
# Stress axis : x y z
#
# Youngs Moduli (GPa) = 76.82186 81.34186 69.37027
#
# Poissons Ratio (x) = 0.18853 0.16388
# Poissons Ratio (y) = 0.17806 0.37377
# Poissons Ratio (z) = 0.18149 0.43828
#
# Static dielectric constant tensor:
#      x y z
#    x 1.873330 0.000000 0.027210 
#    y 0.000000 1.841500 0.000000 
#    z 0.027210 0.000000 1.824970 
# 
# From -- ./inp_files/48892.got.cif
#   From: 2010.05.17/outbox.cif.g08.bks.cpg/sg13_25_cif.got.tgz:48892.got - 2010.06.03 16:44:36.
