data_PCOD9237876
_publ_section_title
;
Structure prediction by ZEFSAII (Michael W. Deem and Ramdas Pophale) SiO2 
 PCOD9237876
Probable space group: P 2/C
;
_chemical_formula_sum "Si O2"
_cell_formula_units_Z 28
_cell_length_a 15.319316
_cell_length_b 8.695364
_cell_length_c 22.437763
_cell_angle_alpha 90.000000
_cell_angle_beta 27.829202
_cell_angle_gamma 90.000000
_cell_volume 1395.315321
_symmetry_space_group_name_H-M "P 2/C"
_symmetry_group_IT_number 13
_symmetry_cell_setting 'monoclinic'
loop_
_space_group_symop_operation_xyz
x,y,z
-x,y,1/2-z
-x,-y,-z
x,-y,1/2+z
loop_
_atom_site_type_symbol
_atom_site_label
_atom_site_fract_x
_atom_site_fract_y
_atom_site_fract_z
Si Si1 0.722855 0.253041 0.503490
Si Si2 0.254730 0.424842 0.311028
Si Si3 0.559335 0.581447 0.404675
Si Si4 0.372629 0.970132 0.241396
Si Si5 0.878129 0.271401 0.540522
Si Si6 0.500000 0.756153 0.750000
Si Si7 0.684025 0.928348 0.357148
Si Si8 0.000000 0.936380 0.750000
O O1 0.622309 0.386823 0.526842
O O2 0.547855 0.143962 0.625434
O O3 0.814937 0.295567 0.510659
O O4 0.869610 0.166317 0.372086
O O5 0.306968 0.468380 0.212666
O O6 0.185965 0.585935 0.380269
O O7 0.422033 0.373871 0.251247
O O8 0.100864 0.290049 0.408403
O O9 0.500000 0.500000 0.500000
O O10 0.651454 0.746669 0.364864
O O11 0.215864 0.881034 0.375168
O O12 0.296371 0.001258 0.220765
O O13 0.461378 0.111493 0.222426
O O14 0.500000 0.000000 0.500000
O O15 0.860738 0.964857 0.292251
#
# Coordination Sequence:
#
# PCOD9237876 Si02
#       8
#     4   4   4   4   4   2   4   2
#     4  11  23  43  71  93 138 182 227 285 361 413
#     4  11  26  43  68 103 138 185 230 293 356 435
#     4  11  25  47  71  97 143 190 230 291 362 423
#     4  11  23  45  72  98 138 186 226 299 358 413
#     4  11  23  47  67  98 140 181 234 287 368 420
#     4  12  26  38  72 106 134 176 240 286 358 422
#     4  11  24  48  69 100 143 187 241 297 351 428
#     4  12  26  42  72 104 132 188 240 292 350 422
#
# _framework density 20.067149000000001
#
# number of rings (size 3 to 8) (size 9 to 14) (size 15 to 20)
#    0.000    0.857    7.143    0.857    6.000    1.714 
#    2.571    0.000    0.000    0.000    0.000    0.000 
#    0.000    0.000    0.000    0.000    0.000    0.000 
#
# Total GULP energy -155903.521015 kJ/mol
# GULP energy per Si atom -5567.982893 kJ/mol
# Density = 2.002148 g / cm^3
# Si number density = 20.067149 Si / 1000 Ang^3
#
#
#
# Elastic Constant Matrix: (Units=GPa)
#
#
# Indices 1 2 3 4 5 6 
#
# 1 118.5570 -8.3674 39.6313 0.0000 20.1015 0.0000
# 2 -8.3674 74.5145 16.6995 0.0000 31.6955 0.0000
# 3 39.6313 16.6995 102.2143 0.0000 14.4094 0.0000
# 4 0.0000 0.0000 0.0000 16.5258 0.0000 6.8385
# 5 20.1015 31.6955 14.4094 0.0000 44.5237 0.0000
# 6 0.0000 0.0000 0.0000 6.8385 0.0000 47.7621
#
#
#
# Elastic Compliance Matrix: (Units=1/GPa)
#
#
# Indices 1 2 3 4 5 6 
#
# 1 0.011596 0.005596 -0.004307 0.000000 -0.007825 0.000000
# 2 0.005596 0.022108 -0.003360 0.000000 -0.017177 0.000000
# 3 -0.004307 -0.003360 0.011936 0.000000 0.000474 0.000000
# 4 0.000000 0.000000 0.000000 0.064323 0.000000 -0.009210
# 5 -0.007825 -0.017177 0.000474 0.000000 0.038068 0.000000
# 6 0.000000 0.000000 0.000000 -0.009210 0.000000 0.022256
#
#
# Mechanical properties :
#
#
# Convention : Reuss Voigt Hill
#
# Bulk Modulus (GPa) = 24.09803 43.46808 33.78306
# Shear Modulus (GPa) = 26.55881 38.25048 32.40465
#
# Velocity S-wave (km/s) = 3.64194 4.37065 4.02283
# Velocity P-wave (km/s) = 5.45158 6.86866 6.20073
#
# Compressibility (1/GPa) = 0.04149716
#
# Stress axis : x y z
#
# Youngs Moduli (GPa) = 86.23406 45.23207 83.78295
#
# Poissons Ratio (x) = -0.25312 0.36088
# Poissons Ratio (y) = -0.48257 0.28153
# Poissons Ratio (z) = 0.37144 0.15199
#
# Static dielectric constant tensor:
#      x y z
#    x 1.691940 0.000000 -0.032660 
#    y 0.000000 1.770960 0.000000 
#    z -0.032660 0.000000 1.733060 
# 
# From -- ./inp_files/79960.got.cif
#   From: 2010.05.17/outbox.cif.g08.bks.cpg/sg13_40_cif.got.tgz:79960.got - 2010.06.03 16:44:36.
