data_PCOD9237179
_publ_section_title
;
Structure prediction by ZEFSAII (Michael W. Deem and Ramdas Pophale) SiO2 
 PCOD9237179
Probable space group: P 2/C
;
_chemical_formula_sum "Si O2"
_cell_formula_units_Z 22
_cell_length_a 11.055009
_cell_length_b 14.774922
_cell_length_c 10.732794
_cell_angle_alpha 90.000000
_cell_angle_beta 30.540902
_cell_angle_gamma 90.000000
_cell_volume 890.823912
_symmetry_space_group_name_H-M "P 2/C"
_symmetry_group_IT_number 13
_symmetry_cell_setting 'monoclinic'
loop_
_space_group_symop_operation_xyz
x,y,z
-x,y,1/2-z
-x,-y,-z
x,-y,1/2+z
loop_
_atom_site_type_symbol
_atom_site_label
_atom_site_fract_x
_atom_site_fract_y
_atom_site_fract_z
Si Si1 0.623549 0.297187 0.408660
Si Si2 0.836135 0.732817 0.286007
Si Si3 0.953279 0.146537 0.109503
Si Si4 0.106766 0.437479 0.508624
Si Si5 0.500000 0.426304 0.750000
Si Si6 0.220766 0.978235 0.958799
O O1 0.440001 0.249855 0.475327
O O2 0.770265 0.214313 0.340285
O O3 0.744196 0.364399 0.202155
O O4 0.523432 0.361422 0.607753
O O5 0.000000 0.768654 0.250000
O O6 0.918036 0.778611 0.087600
O O7 0.884218 0.625274 0.250003
O O8 0.816778 0.078683 0.135187
O O9 0.149711 0.083115 0.997947
O O10 0.272603 0.506315 0.440071
O O11 0.000000 0.500000 0.500000
O O12 0.500000 0.969745 0.750000
O O13 0.000000 0.953415 0.250000
#
# Coordination Sequence:
#
# PCOD9237179 Si02
#       6
#     4   4   4   4   2   4
#     4  11  26  45  69 107 144 198 246 315 378 444
#     4  11  24  43  71 102 144 197 252 307 371 456
#     4  10  27  47  73 112 151 186 255 306 384 465
#     4  11  24  43  63 101 140 195 250 301 371 441
#     4  12  24  44  74  98 154 196 254 320 372 448
#     4  11  27  50  83 114 151 201 245 316 391 469
#
# _framework density 24.69624
#
# number of rings (size 3 to 8) (size 9 to 14) (size 15 to 20)
#    0.000    1.091    1.818    2.182   10.182    4.364 
#    0.000    0.000    0.000    0.000    0.000    0.000 
#    0.000    0.000    0.000    0.000    0.000    0.000 
#
# Total GULP energy -122574.134257 kJ/mol
# GULP energy per Si atom -5571.551557 kJ/mol
# Density = 2.464003 g / cm^3
# Si number density = 24.696240 Si / 1000 Ang^3
#
#
#
# Elastic Constant Matrix: (Units=GPa)
#
#
# Indices 1 2 3 4 5 6 
#
# 1 70.7124 23.3320 26.4281 0.0000 -32.2531 0.0000
# 2 23.3320 155.7183 28.4080 0.0000 -11.8054 0.0000
# 3 26.4281 28.4080 66.8252 0.0000 -17.1878 0.0000
# 4 0.0000 0.0000 0.0000 32.5682 0.0000 4.9471
# 5 -32.2531 -11.8054 -17.1878 0.0000 43.5675 0.0000
# 6 0.0000 0.0000 0.0000 4.9471 0.0000 44.8250
#
#
#
# Elastic Compliance Matrix: (Units=1/GPa)
#
#
# Indices 1 2 3 4 5 6 
#
# 1 0.023191 -0.001486 -0.004705 0.000000 0.014909 0.000000
# 2 -0.001486 0.007082 -0.002462 0.000000 -0.000153 0.000000
# 3 -0.004705 -0.002462 0.018702 0.000000 0.003228 0.000000
# 4 0.000000 0.000000 0.000000 0.031228 0.000000 -0.003447
# 5 0.014909 -0.000153 0.003228 0.000000 0.035222 0.000000
# 6 0.000000 0.000000 0.000000 -0.003447 0.000000 0.022689
#
#
# Mechanical properties :
#
#
# Convention : Reuss Voigt Hill
#
# Bulk Modulus (GPa) = 31.57706 49.95469 40.76587
# Shear Modulus (GPa) = 30.12441 38.53134 34.32788
#
# Velocity S-wave (km/s) = 3.49635 3.95424 3.73232
# Velocity P-wave (km/s) = 5.39567 6.41245 5.92591
#
# Compressibility (1/GPa) = 0.03166856
#
# Stress axis : x y z
#
# Youngs Moduli (GPa) = 43.12003 141.20014 53.46996
#
# Poissons Ratio (x) = 0.20984 0.25158
# Poissons Ratio (y) = 0.06408 0.13165
# Poissons Ratio (z) = 0.20288 0.34766
#
# Static dielectric constant tensor:
#      x y z
#    x 2.084530 0.000000 0.050710 
#    y 0.000000 1.510690 0.000000 
#    z 0.050710 0.000000 2.191750 
# 
# From -- ./inp_files/34531.got.cif
#   From: 2010.05.17/outbox.cif.g08.bks.cpg/sg13_18_cif.got.tgz:34531.got - 2010.06.03 16:44:36.
