data_PCOD9237956
_publ_section_title
;
Structure prediction by ZEFSAII (Michael W. Deem and Ramdas Pophale) SiO2 
 PCOD9237956
Probable space group: P 2/C
;
_chemical_formula_sum "Si O2"
_cell_formula_units_Z 26
_cell_length_a 12.426279
_cell_length_b 13.652837
_cell_length_c 16.615384
_cell_angle_alpha 90.000000
_cell_angle_beta 26.183166
_cell_angle_gamma 90.000000
_cell_volume 1243.802544
_symmetry_space_group_name_H-M "P 2/C"
_symmetry_group_IT_number 13
_symmetry_cell_setting 'monoclinic'
loop_
_space_group_symop_operation_xyz
x,y,z
-x,y,1/2-z
-x,-y,-z
x,-y,1/2+z
loop_
_atom_site_type_symbol
_atom_site_label
_atom_site_fract_x
_atom_site_fract_y
_atom_site_fract_z
Si Si1 0.000000 0.199608 0.750000
Si Si2 0.262790 0.621835 0.269374
Si Si3 0.525179 0.694715 0.532272
Si Si4 0.706391 0.417375 0.172532
Si Si5 0.285235 0.827839 0.334754
Si Si6 0.239681 0.956450 0.207925
Si Si7 0.096789 0.830456 0.774866
O O1 0.898165 0.128928 0.748605
O O2 0.239270 0.266305 0.576631
O O3 0.330473 0.531807 0.281451
O O4 0.341503 0.726584 0.251574
O O5 0.970520 0.609459 0.461016
O O6 0.378011 0.624687 0.103454
O O7 0.341271 0.637266 0.712251
O O8 0.366821 0.785184 0.603156
O O9 0.500000 0.385521 0.250000
O O10 0.500000 0.858759 0.250000
O O11 0.252267 0.912818 0.289873
O O12 0.065376 0.796187 0.541253
O O13 0.081996 0.053472 0.300295
O O14 0.500000 0.000000 0.000000
O O15 0.000000 0.807895 0.750000
#
# Coordination Sequence:
#
# PCOD9237956 Si02
#       7
#     2   4   4   4   4   4   4
#     4  12  24  40  78  98 146 186 226 290 352 416
#     4  11  23  46  68 102 136 181 236 290 355 421
#     4  12  24  45  70 105 139 186 234 292 354 426
#     4  11  25  43  70  99 140 179 230 295 357 426
#     4  12  25  44  70 101 137 186 237 289 351 422
#     4  12  24  45  66 102 140 185 233 289 350 418
#     4  12  25  44  69 100 142 187 239 290 351 418
#
# _framework density 20.903638000000001
#
# number of rings (size 3 to 8) (size 9 to 14) (size 15 to 20)
#    0.000    0.308    5.385    4.154    0.000    0.000 
#    0.000    0.769    0.000    0.000    0.000    0.000 
#    0.000    0.000    0.000    0.000    0.000    0.000 
#
# Total GULP energy -145062.763967 kJ/mol
# GULP energy per Si atom -5579.337076 kJ/mol
# Density = 2.085606 g / cm^3
# Si number density = 20.903638 Si / 1000 Ang^3
#
#
#
# Elastic Constant Matrix: (Units=GPa)
#
#
# Indices 1 2 3 4 5 6 
#
# 1 111.7914 5.2351 42.9711 0.0000 4.5847 0.0000
# 2 5.2351 37.8865 8.5686 0.0000 6.3858 0.0000
# 3 42.9711 8.5686 115.0931 0.0000 11.9795 0.0000
# 4 0.0000 0.0000 0.0000 31.1535 0.0000 -0.3790
# 5 4.5847 6.3858 11.9795 0.0000 32.2583 0.0000
# 6 0.0000 0.0000 0.0000 -0.3790 0.0000 19.3510
#
#
#
# Elastic Compliance Matrix: (Units=1/GPa)
#
#
# Indices 1 2 3 4 5 6 
#
# 1 0.010456 -0.000581 -0.003868 0.000000 0.000065 0.000000
# 2 -0.000581 0.027599 -0.001329 0.000000 -0.004887 0.000000
# 3 -0.003868 -0.001329 0.010555 0.000000 -0.003107 0.000000
# 4 0.000000 0.000000 0.000000 0.032107 0.000000 0.000629
# 5 0.000065 -0.004887 -0.003107 0.000000 0.033112 0.000000
# 6 0.000000 0.000000 0.000000 0.000629 0.000000 0.051689
#
#
# Mechanical properties :
#
#
# Convention : Reuss Voigt Hill
#
# Bulk Modulus (GPa) = 26.98681 42.03561 34.51121
# Shear Modulus (GPa) = 26.39559 30.41897 28.40728
#
# Velocity S-wave (km/s) = 3.55734 3.81885 3.69041
# Velocity P-wave (km/s) = 5.45995 6.29267 5.89104
#
# Compressibility (1/GPa) = 0.03705515
#
# Stress axis : x y z
#
# Youngs Moduli (GPa) = 95.63526 36.23283 94.74249
#
# Poissons Ratio (x) = 0.02106 0.36642
# Poissons Ratio (y) = 0.05558 0.12592
# Poissons Ratio (z) = 0.36987 0.04816
#
# Static dielectric constant tensor:
#      x y z
#    x 1.736910 0.000000 0.033640 
#    y 0.000000 1.783040 0.000000 
#    z 0.033640 0.000000 2.041000 
# 
# From -- ./inp_files/51423.got.cif
#   From: 2010.05.17/outbox.cif.g08.bks.cpg/sg13_26_cif.got.tgz:51423.got - 2010.06.03 16:44:36.
