data_PCOD9237908
_publ_section_title
;
Structure prediction by ZEFSAII (Michael W. Deem and Ramdas Pophale) SiO2 
 PCOD9237908
Probable space group: P 2/C
;
_chemical_formula_sum "Si O2"
_cell_formula_units_Z 24
_cell_length_a 10.718072
_cell_length_b 11.996737
_cell_length_c 23.287583
_cell_angle_alpha 90.000000
_cell_angle_beta 22.522349
_cell_angle_gamma 90.000000
_cell_volume 1146.971516
_symmetry_space_group_name_H-M "P 2/C"
_symmetry_group_IT_number 13
_symmetry_cell_setting 'monoclinic'
loop_
_space_group_symop_operation_xyz
x,y,z
-x,y,1/2-z
-x,-y,-z
x,-y,1/2+z
loop_
_atom_site_type_symbol
_atom_site_label
_atom_site_fract_x
_atom_site_fract_y
_atom_site_fract_z
Si Si1 0.261191 0.819714 0.689952
Si Si2 0.767336 0.652419 0.485223
Si Si3 0.754694 0.267942 0.486947
Si Si4 0.349104 0.057134 0.621535
Si Si5 0.268599 0.546760 0.183205
Si Si6 0.151294 0.623158 0.428726
O O1 0.596867 0.760410 0.530895
O O2 0.000000 0.809042 0.750000
O O3 0.300497 0.950847 0.683656
O O4 0.101126 0.753958 0.810552
O O5 0.489334 0.557532 0.606811
O O6 0.060961 0.601594 0.322884
O O7 0.910214 0.682562 0.486473
O O8 0.563171 0.152258 0.559334
O O9 0.530718 0.361149 0.551021
O O10 0.804739 0.313950 0.529769
O O11 0.000000 0.102620 0.750000
O O12 0.500000 0.000000 0.500000
O O13 0.000000 0.516904 0.250000
O O14 0.500000 0.613376 0.250000
O O15 0.000000 0.500000 0.500000
#
# Coordination Sequence:
#
# PCOD9237908 Si02
#       6
#     4   4   4   4   4   4
#     4  11  24  43  69 106 141 177 228 293 364 423
#     4  12  24  43  64  97 142 181 231 291 351 424
#     4  12  24  42  72 101 138 189 238 285 357 423
#     4  11  23  44  72 104 145 181 227 298 364 419
#     4  12  24  39  67 102 137 178 230 296 363 427
#     4  12  26  47  69  99 139 194 239 287 342 423
#
# _framework density 20.924668
#
# number of rings (size 3 to 8) (size 9 to 14) (size 15 to 20)
#    0.000    0.333    6.667    3.500    4.667    0.000 
#    0.000    0.833    0.000    0.000    0.000    0.000 
#    0.000    0.000    0.000    0.000    0.000    0.000 
#
# Total GULP energy -134258.468080 kJ/mol
# GULP energy per Si atom -5594.102837 kJ/mol
# Density = 2.087704 g / cm^3
# Si number density = 20.924668 Si / 1000 Ang^3
#
#
#
# Elastic Constant Matrix: (Units=GPa)
#
#
# Indices 1 2 3 4 5 6 
#
# 1 103.6375 37.0632 31.4271 0.0000 -10.0741 0.0000
# 2 37.0632 117.6481 38.7515 0.0000 -6.1829 0.0000
# 3 31.4271 38.7515 83.2406 0.0000 1.6366 0.0000
# 4 0.0000 0.0000 0.0000 39.4849 0.0000 -3.0287
# 5 -10.0741 -6.1829 1.6366 0.0000 38.8721 0.0000
# 6 0.0000 0.0000 0.0000 -3.0287 0.0000 27.7053
#
#
#
# Elastic Compliance Matrix: (Units=1/GPa)
#
#
# Indices 1 2 3 4 5 6 
#
# 1 0.011828 -0.002467 -0.003372 0.000000 0.002815 0.000000
# 2 -0.002467 0.010681 -0.004065 0.000000 0.001231 0.000000
# 3 -0.003372 -0.004065 0.015221 0.000000 -0.002161 0.000000
# 4 0.000000 0.000000 0.000000 0.025540 0.000000 0.002792
# 5 0.002815 0.001231 -0.002161 0.000000 0.026742 0.000000
# 6 0.000000 0.000000 0.000000 0.002792 0.000000 0.036399
#
#
# Mechanical properties :
#
#
# Convention : Reuss Voigt Hill
#
# Bulk Modulus (GPa) = 55.80104 57.66776 56.73440
# Shear Modulus (GPa) = 32.85284 34.36473 33.60879
#
# Velocity S-wave (km/s) = 3.96669 4.05694 4.01207
# Velocity P-wave (km/s) = 6.90688 7.04021 6.97386
#
# Compressibility (1/GPa) = 0.01792081
#
# Stress axis : x y z
#
# Youngs Moduli (GPa) = 84.54791 93.62541 65.69712
#
# Poissons Ratio (x) = 0.23102 0.22154
# Poissons Ratio (y) = 0.20862 0.26705
# Poissons Ratio (z) = 0.28511 0.38058
#
# Static dielectric constant tensor:
#      x y z
#    x 1.779200 0.000000 0.029840 
#    y 0.000000 1.775710 0.000000 
#    z 0.029840 0.000000 1.808560 
# 
# From -- ./inp_files/92397.got.cif
#   From: 2010.05.17/outbox.cif.g08.bks.cpg/sg13_47_cif.got.tgz:92397.got - 2010.06.03 16:44:36.
