data_PCOD9237524
_publ_section_title
;
Structure prediction by ZEFSAII (Michael W. Deem and Ramdas Pophale) SiO2 
 PCOD9237524
Probable space group: P 2/C
;
_chemical_formula_sum "Si O2"
_cell_formula_units_Z 24
_cell_length_a 13.920880
_cell_length_b 9.284656
_cell_length_c 13.748435
_cell_angle_alpha 90.000000
_cell_angle_beta 149.545267
_cell_angle_gamma 90.000000
_cell_volume 900.682286
_symmetry_space_group_name_H-M "P 2/C"
_symmetry_group_IT_number 13
_symmetry_cell_setting 'monoclinic'
loop_
_space_group_symop_operation_xyz
x,y,z
-x,y,1/2-z
-x,-y,-z
x,-y,1/2+z
loop_
_atom_site_type_symbol
_atom_site_label
_atom_site_fract_x
_atom_site_fract_y
_atom_site_fract_z
Si Si1 0.983191 0.004765 0.849453
Si Si2 0.705157 0.606030 0.475327
Si Si3 0.394092 0.126309 0.474918
Si Si4 0.619779 0.109841 0.258493
Si Si5 0.953298 0.694880 0.512166
Si Si6 0.278160 0.525796 0.324089
O O1 0.021180 0.862032 0.945999
O O2 0.000000 0.973597 0.750000
O O3 0.756333 0.007241 0.662985
O O4 0.155004 0.114280 0.021698
O O5 0.500000 0.584140 0.250000
O O6 0.687709 0.743534 0.532331
O O7 0.857469 0.632623 0.526165
O O8 0.752348 0.475488 0.587558
O O9 0.560891 0.057441 0.685290
O O10 0.420661 0.172279 0.385337
O O11 0.500000 0.156146 0.250000
O O12 0.802099 0.666872 0.296194
O O13 0.141882 0.599636 0.660059
O O14 0.500000 0.500000 0.500000
#
# Coordination Sequence:
#
# PCOD9237524 Si02
#       6
#     4   4   4   4   4   4
#     4  12  20  37  67  96 123 166 217 263 312 367
#     4  12  21  40  68  92 125 163 215 265 313 379
#     4  11  23  38  64  96 127 169 218 264 311 374
#     4  11  23  39  61  95 135 171 211 264 320 370
#     4  11  22  37  64  93 125 162 209 268 312 377
#     4  11  23  37  59  95 128 158 203 263 327 370
#
# _framework density 26.646464999999999
#
# number of rings (size 3 to 8) (size 9 to 14) (size 15 to 20)
#    0.000    0.667    6.667    2.500    0.000    0.000 
#    0.000    0.000    3.667    0.000    0.000    0.000 
#    0.000    0.000    0.000    0.000    0.000    0.000 
#
# Total GULP energy -134264.622908 kJ/mol
# GULP energy per Si atom -5594.359288 kJ/mol
# Density = 2.658582 g / cm^3
# Si number density = 26.646465 Si / 1000 Ang^3
#
#
#
# Elastic Constant Matrix: (Units=GPa)
#
#
# Indices 1 2 3 4 5 6 
#
# 1 174.3322 14.7366 32.0208 0.0000 -10.6034 0.0000
# 2 14.7366 43.1781 22.9051 0.0000 -9.3785 0.0000
# 3 32.0208 22.9051 153.1293 0.0000 8.8437 0.0000
# 4 0.0000 0.0000 0.0000 40.7020 0.0000 -2.5152
# 5 -10.6034 -9.3785 8.8437 0.0000 49.6129 0.0000
# 6 0.0000 0.0000 0.0000 -2.5152 0.0000 32.8697
#
#
#
# Elastic Compliance Matrix: (Units=1/GPa)
#
#
# Indices 1 2 3 4 5 6 
#
# 1 0.006132 -0.001185 -0.001180 0.000000 0.001297 0.000000
# 2 -0.001185 0.026953 -0.004106 0.000000 0.005574 0.000000
# 3 -0.001180 -0.004106 0.007528 0.000000 -0.002370 0.000000
# 4 0.000000 0.000000 0.000000 0.024686 0.000000 0.001889
# 5 0.001297 0.005574 -0.002370 0.000000 0.021909 0.000000
# 6 0.000000 0.000000 0.000000 0.001889 0.000000 0.030568
#
#
# Mechanical properties :
#
#
# Convention : Reuss Voigt Hill
#
# Bulk Modulus (GPa) = 36.13823 56.66272 46.40047
# Shear Modulus (GPa) = 35.72933 44.70205 40.21569
#
# Velocity S-wave (km/s) = 3.66576 4.10029 3.88910
# Velocity P-wave (km/s) = 5.61325 6.61266 6.13335
#
# Compressibility (1/GPa) = 0.02767153
#
# Stress axis : x y z
#
# Youngs Moduli (GPa) = 163.08011 37.10167 132.83461
#
# Poissons Ratio (x) = 0.04398 0.15673
# Poissons Ratio (y) = 0.19329 0.54537
# Poissons Ratio (z) = 0.19241 0.15233
#
# Static dielectric constant tensor:
#      x y z
#    x 2.085780 0.000000 0.036170 
#    y 0.000000 2.146580 0.000000 
#    z 0.036170 0.000000 2.127910 
# 
# From -- ./inp_files/53744.got.cif
#   From: 2010.05.17/outbox.cif.g08.bks.cpg/sg13_27_cif.got.tgz:53744.got - 2010.06.03 16:44:36.
