data_PCOD9237349
_publ_section_title
;
Structure prediction by ZEFSAII (Michael W. Deem and Ramdas Pophale) SiO2 
 PCOD9237349
Probable space group: P 2/C
;
_chemical_formula_sum "Si O2"
_cell_formula_units_Z 28
_cell_length_a 27.359152
_cell_length_b 9.123327
_cell_length_c 9.651460
_cell_angle_alpha 90.000000
_cell_angle_beta 145.899696
_cell_angle_gamma 90.000000
_cell_volume 1350.627516
_symmetry_space_group_name_H-M "P 2/C"
_symmetry_group_IT_number 13
_symmetry_cell_setting 'monoclinic'
loop_
_space_group_symop_operation_xyz
x,y,z
-x,y,1/2-z
-x,-y,-z
x,-y,1/2+z
loop_
_atom_site_type_symbol
_atom_site_label
_atom_site_fract_x
_atom_site_fract_y
_atom_site_fract_z
Si Si1 0.099085 0.299561 0.512073
Si Si2 0.942308 0.972294 0.998282
Si Si3 0.413178 0.169452 0.112493
Si Si4 0.222959 0.297316 0.051957
Si Si5 0.254933 0.381795 0.672202
Si Si6 0.353875 0.946308 0.742460
Si Si7 0.778110 0.190188 0.152785
O O1 0.167263 0.348033 0.554307
O O2 0.000000 0.352613 0.250000
O O3 0.090391 0.122928 0.506979
O O4 0.143950 0.340487 0.764064
O O5 0.858267 0.882063 0.760296
O O6 0.000000 0.893645 0.250000
O O7 0.000000 0.000000 0.000000
O O8 0.332132 0.280897 0.912892
O O9 0.392208 0.028673 0.965877
O O10 0.500000 0.236333 0.250000
O O11 0.421192 0.119964 0.290190
O O12 0.271421 0.445679 0.210390
O O13 0.286968 0.181786 0.128818
O O14 0.193223 0.222209 0.124388
O O15 0.246250 0.332012 0.492154
O O16 0.299159 0.072382 0.534251
#
# Coordination Sequence:
#
# PCOD9237349 Si02
#       7
#     4   4   4   4   4   4   4
#     4  11  23  41  66  93 133 175 221 279 326 381
#     4  11  21  34  58  90 122 158 217 278 319 363
#     4  11  23  44  71 102 134 168 216 272 333 396
#     4  12  23  42  66  94 134 176 220 270 328 395
#     4  11  25  42  65  94 135 179 216 264 336 397
#     4  11  22  41  70  97 130 167 217 273 324 387
#     4  11  22  38  65  91 121 176 217 264 332 385
#
# _framework density 20.731106
#
# number of rings (size 3 to 8) (size 9 to 14) (size 15 to 20)
#    0.000    0.857    4.286    3.857    2.000    0.571 
#    0.000    4.286    0.000    0.000    0.000    0.000 
#    0.000    0.000    0.000    0.000    0.000    0.000 
#
# Total GULP energy -156415.671847 kJ/mol
# GULP energy per Si atom -5586.273995 kJ/mol
# Density = 2.068392 g / cm^3
# Si number density = 20.731106 Si / 1000 Ang^3
#
#
#
# Elastic Constant Matrix: (Units=GPa)
#
#
# Indices 1 2 3 4 5 6 
#
# 1 119.8829 20.3396 31.5300 0.0000 -3.5479 0.0000
# 2 20.3396 72.0439 3.3249 0.0000 1.2420 0.0000
# 3 31.5300 3.3249 48.5326 0.0000 -5.2361 0.0000
# 4 0.0000 0.0000 0.0000 8.8903 0.0000 1.2060
# 5 -3.5479 1.2420 -5.2361 0.0000 38.7302 0.0000
# 6 0.0000 0.0000 0.0000 1.2060 0.0000 11.8607
#
#
#
# Elastic Compliance Matrix: (Units=1/GPa)
#
#
# Indices 1 2 3 4 5 6 
#
# 1 0.010550 -0.002674 -0.006654 0.000000 0.000153 0.000000
# 2 -0.002674 0.014615 0.000669 0.000000 -0.000623 0.000000
# 3 -0.006654 0.000669 0.025181 0.000000 0.002773 0.000000
# 4 0.000000 0.000000 0.000000 0.114056 0.000000 -0.011597
# 5 0.000153 -0.000623 0.002773 0.000000 0.026229 0.000000
# 6 0.000000 0.000000 0.000000 -0.011597 0.000000 0.085491
#
#
# Mechanical properties :
#
#
# Convention : Reuss Voigt Hill
#
# Bulk Modulus (GPa) = 30.27814 38.98317 34.63065
# Shear Modulus (GPa) = 16.42307 24.24722 20.33515
#
# Velocity S-wave (km/s) = 2.81765 3.42366 3.13533
# Velocity P-wave (km/s) = 5.02219 5.87142 5.46333
#
# Compressibility (1/GPa) = 0.03302713
#
# Stress axis : x y z
#
# Youngs Moduli (GPa) = 94.78891 68.42179 39.71235
#
# Poissons Ratio (x) = 0.18296 0.26425
# Poissons Ratio (y) = 0.25346 -0.02655
# Poissons Ratio (z) = 0.63074 -0.04575
#
# Static dielectric constant tensor:
#      x y z
#    x 1.734650 0.000000 0.005330 
#    y 0.000000 1.733800 0.000000 
#    z 0.005330 0.000000 1.795130 
# 
# From -- ./inp_files/24507.got.cif
#   From: 2010.05.17/outbox.cif.g08.bks.cpg/sg13_13_cif.got.tgz:24507.got - 2010.06.03 16:44:36.
