data_PCOD9237160
_publ_section_title
;
Structure prediction by ZEFSAII (Michael W. Deem and Ramdas Pophale) SiO2 
 PCOD9237160
Probable space group: P 2/C
;
_chemical_formula_sum "Si O2"
_cell_formula_units_Z 20
_cell_length_a 12.328880
_cell_length_b 9.798385
_cell_length_c 5.898161
_cell_angle_alpha 90.000000
_cell_angle_beta 83.520024
_cell_angle_gamma 90.000000
_cell_volume 707.964198
_symmetry_space_group_name_H-M "P 2/C"
_symmetry_group_IT_number 13
_symmetry_cell_setting 'monoclinic'
loop_
_space_group_symop_operation_xyz
x,y,z
-x,y,1/2-z
-x,-y,-z
x,-y,1/2+z
loop_
_atom_site_type_symbol
_atom_site_label
_atom_site_fract_x
_atom_site_fract_y
_atom_site_fract_z
Si Si1 0.000000 0.314879 0.750000
Si Si2 0.541335 0.342719 0.989025
Si Si3 0.211819 0.401638 0.454688
Si Si4 0.195129 0.716457 0.483074
Si Si5 0.746592 0.986114 0.169276
Si Si6 0.500000 0.072854 0.250000
O O1 0.092619 0.399161 0.597976
O O2 0.922879 0.242180 0.586908
O O3 0.500000 0.291264 0.750000
O O4 0.669111 0.355973 0.992228
O O5 0.500000 0.269352 0.250000
O O6 0.500000 0.500000 0.000000
O O7 0.227107 0.437628 0.901180
O O8 0.192533 0.301082 0.249203
O O9 0.277246 0.825921 0.365932
O O10 0.802089 0.985725 0.407973
O O11 0.639643 0.077687 0.210091
O O12 0.500000 0.000000 0.500000
#
# Coordination Sequence:
#
# PCOD9237160 Si02
#       6
#     2   4   4   4   4   2
#     4  12  28  52  90 122 176 224 296 362 452 520
#     4  10  27  50  89 129 178 229 281 360 441 527
#     4  12  27  51  87 130 171 224 292 366 448 520
#     4  12  29  51  86 130 166 232 291 369 439 517
#     4  12  30  52  85 121 170 235 294 345 425 524
#     4  10  26  50  88 116 172 244 286 342 424 536
#
# _framework density 28.250015999999999
#
# number of rings (size 3 to 8) (size 9 to 14) (size 15 to 20)
#    0.600    0.000    2.000    3.000   11.200    0.000 
#    1.800    4.000    2.200    0.000    0.000    0.000 
#    0.000    0.000    0.000    0.000    0.000    0.000 
#
# Total GULP energy -111335.347231 kJ/mol
# GULP energy per Si atom -5566.767362 kJ/mol
# Density = 2.818572 g / cm^3
# Si number density = 28.250016 Si / 1000 Ang^3
#
#
#
# Elastic Constant Matrix: (Units=GPa)
#
#
# Indices 1 2 3 4 5 6 
#
# 1 204.3345 68.3091 99.2188 0.0000 16.6691 0.0000
# 2 68.3091 156.5908 64.8325 0.0000 -17.3703 0.0000
# 3 99.2188 64.8325 242.5690 0.0000 12.8832 0.0000
# 4 0.0000 0.0000 0.0000 49.4712 0.0000 -2.3184
# 5 16.6691 -17.3703 12.8832 0.0000 65.3012 0.0000
# 6 0.0000 0.0000 0.0000 -2.3184 0.0000 43.4863
#
#
#
# Elastic Compliance Matrix: (Units=1/GPa)
#
#
# Indices 1 2 3 4 5 6 
#
# 1 0.006842 -0.002347 -0.002067 0.000000 -0.001963 0.000000
# 2 -0.002347 0.008349 -0.001436 0.000000 0.003103 0.000000
# 3 -0.002067 -0.001436 0.005401 0.000000 -0.000920 0.000000
# 4 0.000000 0.000000 0.000000 0.020264 0.000000 0.001080
# 5 -0.001963 0.003103 -0.000920 0.000000 0.016822 0.000000
# 6 0.000000 0.000000 0.000000 0.001080 0.000000 0.023053
#
#
# Mechanical properties :
#
#
# Convention : Reuss Voigt Hill
#
# Bulk Modulus (GPa) = 112.46920 118.69059 115.57989
# Shear Modulus (GPa) = 52.41325 56.39399 54.40362
#
# Velocity S-wave (km/s) = 4.31203 4.47278 4.39314
# Velocity P-wave (km/s) = 8.04301 8.29337 8.16915
#
# Compressibility (1/GPa) = 0.00889132
#
# Stress axis : x y z
#
# Youngs Moduli (GPa) = 146.14791 119.77976 185.15485
#
# Poissons Ratio (x) = 0.28108 0.38277
# Poissons Ratio (y) = 0.34296 0.26594
# Poissons Ratio (z) = 0.30213 0.17204
#
# Static dielectric constant tensor:
#      x y z
#    x 2.148820 0.000000 0.151550 
#    y 0.000000 2.399660 0.000000 
#    z 0.151550 0.000000 2.749820 
# 
# From -- ./inp_files/3310.got.cif
#   From: 2010.05.17/outbox.cif.g08.bks.cpg/sg13_2_cif.got.tgz:3310.got - 2010.06.03 16:44:36.
