data_PCOD9237650
_publ_section_title
;
Structure prediction by ZEFSAII (Michael W. Deem and Ramdas Pophale) SiO2 
 PCOD9237650
Probable space group: P 2/C
;
_chemical_formula_sum "Si O2"
_cell_formula_units_Z 18
_cell_length_a 6.931762
_cell_length_b 10.093647
_cell_length_c 10.337532
_cell_angle_alpha 90.000000
_cell_angle_beta 90.354566
_cell_angle_gamma 90.000000
_cell_volume 723.269758
_symmetry_space_group_name_H-M "P 2/C"
_symmetry_group_IT_number 13
_symmetry_cell_setting 'monoclinic'
loop_
_space_group_symop_operation_xyz
x,y,z
-x,y,1/2-z
-x,-y,-z
x,-y,1/2+z
loop_
_atom_site_type_symbol
_atom_site_label
_atom_site_fract_x
_atom_site_fract_y
_atom_site_fract_z
Si Si1 0.000000 0.867361 0.250000
Si Si2 0.515476 0.297755 0.108669
Si Si3 0.635609 0.989496 0.630390
Si Si4 0.801855 0.362937 0.901819
Si Si5 0.108933 0.655125 0.628912
O O1 0.147956 0.950974 0.344182
O O2 0.150419 0.766097 0.181312
O O3 0.500000 0.366229 0.250000
O O4 0.293467 0.265149 0.080791
O O5 0.644798 0.169772 0.136950
O O6 0.603908 0.363051 0.982010
O O7 0.500000 0.034264 0.750000
O O8 0.500000 0.000000 0.500000
O O9 0.827138 0.504498 0.834540
O O10 0.963362 0.357763 0.012230
O O11 0.000000 0.713537 0.750000
#
# Coordination Sequence:
#
# PCOD9237650 Si02
#       5
#     2   4   4   4   4
#     4  12  26  46  76 110 158 204 248 322 382 456
#     4  11  23  41  67  99 139 189 243 305 366 447
#     4  11  26  47  71 108 151 202 263 313 383 456
#     4  11  24  42  70 107 143 191 246 308 388 458
#     4  11  22  43  69 103 147 187 248 308 385 462
#
# _framework density 24.886977999999999
#
# number of rings (size 3 to 8) (size 9 to 14) (size 15 to 20)
#    0.000    0.889    3.333    3.333    0.000    7.111 
#    0.000    1.111    0.000    0.000    0.000    0.000 
#    0.000    0.000    0.000    0.000    0.000    0.000 
#
# Total GULP energy -100393.246582 kJ/mol
# GULP energy per Si atom -5577.402588 kJ/mol
# Density = 2.483033 g / cm^3
# Si number density = 24.886978 Si / 1000 Ang^3
#
#
#
# Elastic Constant Matrix: (Units=GPa)
#
#
# Indices 1 2 3 4 5 6 
#
# 1 152.6733 62.8784 53.3033 0.0000 -0.1501 0.0000
# 2 62.8784 82.2264 15.4804 0.0000 4.8626 0.0000
# 3 53.3033 15.4804 103.9498 0.0000 -4.6473 0.0000
# 4 0.0000 0.0000 0.0000 41.1308 0.0000 -12.0539
# 5 -0.1501 4.8626 -4.6473 0.0000 57.3588 0.0000
# 6 0.0000 0.0000 0.0000 -12.0539 0.0000 44.8457
#
#
#
# Elastic Compliance Matrix: (Units=1/GPa)
#
#
# Indices 1 2 3 4 5 6 
#
# 1 0.011425 -0.007876 -0.004671 0.000000 0.000319 0.000000
# 2 -0.007876 0.018027 0.001289 0.000000 -0.001444 0.000000
# 3 -0.004671 0.001289 0.011861 0.000000 0.000839 0.000000
# 4 0.000000 0.000000 0.000000 0.026392 0.000000 0.007094
# 5 0.000319 -0.001444 0.000839 0.000000 0.017625 0.000000
# 6 0.000000 0.000000 0.000000 0.007094 0.000000 0.024205
#
#
# Mechanical properties :
#
#
# Convention : Reuss Voigt Hill
#
# Bulk Modulus (GPa) = 53.19968 66.90818 60.05393
# Shear Modulus (GPa) = 36.14900 42.47955 39.31427
#
# Velocity S-wave (km/s) = 3.81534 4.13595 3.97887
# Velocity P-wave (km/s) = 6.38999 7.05346 6.72990
#
# Compressibility (1/GPa) = 0.01879711
#
# Stress axis : x y z
#
# Youngs Moduli (GPa) = 87.52824 55.47234 84.31095
#
# Poissons Ratio (x) = 0.43690 0.39384
# Poissons Ratio (y) = 0.68938 -0.10872
# Poissons Ratio (z) = 0.40887 -0.07153
#
# Static dielectric constant tensor:
#      x y z
#    x 2.094720 0.000000 -0.038390 
#    y 0.000000 2.049960 0.000000 
#    z -0.038390 0.000000 2.067130 
# 
# From -- ./inp_files/25790.got.cif
#   From: 2010.05.17/outbox.cif.g08.bks.cpg/sg13_13_cif.got.tgz:25790.got - 2010.06.03 16:44:36.
