data_PCOD9237946
_publ_section_title
;
Structure prediction by ZEFSAII (Michael W. Deem and Ramdas Pophale) SiO2 
 PCOD9237946
Probable space group: P 2/C
;
_chemical_formula_sum "Si O2"
_cell_formula_units_Z 20
_cell_length_a 5.046941
_cell_length_b 5.292939
_cell_length_c 27.502751
_cell_angle_alpha 90.000000
_cell_angle_beta 93.262685
_cell_angle_gamma 90.000000
_cell_volume 733.494281
_symmetry_space_group_name_H-M "P 2/C"
_symmetry_group_IT_number 13
_symmetry_cell_setting 'monoclinic'
loop_
_space_group_symop_operation_xyz
x,y,z
-x,y,1/2-z
-x,-y,-z
x,-y,1/2+z
loop_
_atom_site_type_symbol
_atom_site_label
_atom_site_fract_x
_atom_site_fract_y
_atom_site_fract_z
Si Si1 0.593815 0.601009 0.070941
Si Si2 0.901326 0.376064 0.673754
Si Si3 0.425225 0.924377 0.199432
Si Si4 0.210630 0.262676 0.126608
Si Si5 0.184171 0.906893 0.958483
O O1 0.804847 0.628660 0.116872
O O2 0.338376 0.487392 0.095688
O O3 0.697646 0.376319 0.036996
O O4 0.593323 0.877991 0.047817
O O5 0.636238 0.305609 0.699284
O O6 0.129306 0.183445 0.692178
O O7 0.056066 0.640159 0.673020
O O8 0.500000 0.061198 0.250000
O O9 0.448492 0.095720 0.151407
O O10 0.013275 0.114365 0.089794
O O11 0.000000 0.000000 0.000000
#
# Coordination Sequence:
#
# PCOD9237946 Si02
#       5
#     4   4   4   4   4
#     4  11  23  45  76 106 155 204 253 317 390 462
#     4  11  24  47  74 106 151 202 250 318 385 462
#     4  12  26  48  74 110 153 200 262 324 389 464
#     4  11  26  46  77 106 157 203 262 316 398 462
#     4  11  25  44  74 117 154 201 261 320 388 469
#
# _framework density 27.266746000000001
#
# number of rings (size 3 to 8) (size 9 to 14) (size 15 to 20)
#    0.000    0.800    4.000    2.400    2.800    2.400 
#    3.600    0.000    0.000    3.600    0.000    0.000 
#    0.000    0.000    0.000    0.000    0.000    0.000 
#
# Total GULP energy -111998.055935 kJ/mol
# GULP energy per Si atom -5599.902797 kJ/mol
# Density = 2.720469 g / cm^3
# Si number density = 27.266746 Si / 1000 Ang^3
#
#
#
# Elastic Constant Matrix: (Units=GPa)
#
#
# Indices 1 2 3 4 5 6 
#
# 1 155.1713 48.0467 22.8157 0.0000 -3.5197 0.0000
# 2 48.0467 156.0331 52.2073 0.0000 0.2483 0.0000
# 3 22.8157 52.2073 93.6186 0.0000 10.8211 0.0000
# 4 0.0000 0.0000 0.0000 29.9606 0.0000 -1.4423
# 5 -3.5197 0.2483 10.8211 0.0000 39.0827 0.0000
# 6 0.0000 0.0000 0.0000 -1.4423 0.0000 50.3353
#
#
#
# Elastic Compliance Matrix: (Units=1/GPa)
#
#
# Indices 1 2 3 4 5 6 
#
# 1 0.007182 -0.001959 -0.000758 0.000000 0.000869 0.000000
# 2 -0.001959 0.008469 -0.004358 0.000000 0.000976 0.000000
# 3 -0.000758 -0.004358 0.013741 0.000000 -0.003845 0.000000
# 4 0.000000 0.000000 0.000000 0.033423 0.000000 0.000958
# 5 0.000869 0.000976 -0.003845 0.000000 0.026724 0.000000
# 6 0.000000 0.000000 0.000000 0.000958 0.000000 0.019894
#
#
# Mechanical properties :
#
#
# Convention : Reuss Voigt Hill
#
# Bulk Modulus (GPa) = 65.61194 72.32915 68.97054
# Shear Modulus (GPa) = 38.86057 42.65927 40.75992
#
# Velocity S-wave (km/s) = 3.77928 3.95969 3.87053
# Velocity P-wave (km/s) = 6.56956 6.89127 6.73234
#
# Compressibility (1/GPa) = 0.01524113
#
# Stress axis : x y z
#
# Youngs Moduli (GPa) = 139.22979 118.07987 72.77380
#
# Poissons Ratio (x) = 0.23136 0.05518
# Poissons Ratio (y) = 0.27280 0.31715
# Poissons Ratio (z) = 0.10557 0.51460
#
# Static dielectric constant tensor:
#      x y z
#    x 2.105600 0.000000 -0.053970 
#    y 0.000000 2.220980 0.000000 
#    z -0.053970 0.000000 2.151990 
# 
# From -- ./inp_files/94642.got.cif
#   From: 2010.05.17/outbox.cif.g08.bks.cpg/sg13_48_cif.got.tgz:94642.got - 2010.06.03 16:44:36.
