data_PCOD9237653
_publ_section_title
;
Structure prediction by ZEFSAII (Michael W. Deem and Ramdas Pophale) SiO2 
 PCOD9237653
Probable space group: P 2/C
;
_chemical_formula_sum "Si O2"
_cell_formula_units_Z 26
_cell_length_a 8.601075
_cell_length_b 8.693285
_cell_length_c 16.187009
_cell_angle_alpha 90.000000
_cell_angle_beta 93.415157
_cell_angle_gamma 90.000000
_cell_volume 1208.179085
_symmetry_space_group_name_H-M "P 2/C"
_symmetry_group_IT_number 13
_symmetry_cell_setting 'monoclinic'
loop_
_space_group_symop_operation_xyz
x,y,z
-x,y,1/2-z
-x,-y,-z
x,-y,1/2+z
loop_
_atom_site_type_symbol
_atom_site_label
_atom_site_fract_x
_atom_site_fract_y
_atom_site_fract_z
Si Si1 0.122523 0.359498 0.599940
Si Si2 0.966604 0.710827 0.926293
Si Si3 0.470860 0.881711 0.338397
Si Si4 0.191359 0.959825 0.874386
Si Si5 0.531401 0.668396 0.467001
Si Si6 0.324010 0.095043 0.051052
Si Si7 0.000000 0.185326 0.750000
O O1 0.067699 0.537084 0.601051
O O2 0.294323 0.342580 0.564797
O O3 0.010990 0.287137 0.525323
O O4 0.105582 0.287344 0.690757
O O5 0.809200 0.806984 0.910051
O O6 0.105710 0.798570 0.883736
O O7 0.500000 0.823256 0.250000
O O8 0.350349 0.022138 0.329026
O O9 0.422652 0.731962 0.389386
O O10 0.615218 0.957483 0.390576
O O11 0.084323 0.075798 0.819071
O O12 0.244073 0.022687 0.966434
O O13 0.500000 0.500000 0.500000
O O14 0.472039 0.795800 0.532032
#
# Coordination Sequence:
#
# PCOD9237653 Si02
#       7
#     4   4   4   4   4   4   2
#     4  11  24  44  67  99 140 181 228 285 353 413
#     4  11  23  41  71  98 134 185 227 281 339 425
#     4  11  25  43  69 101 140 179 232 292 342 398
#     4  11  24  41  67 104 134 180 229 285 337 410
#     4  11  22  43  70  98 134 181 231 280 340 417
#     4  11  22  44  69 101 130 178 237 271 344 411
#     4  12  26  42  70 102 140 176 234 286 346 404
#
# _framework density 21.519988000000001
#
# number of rings (size 3 to 8) (size 9 to 14) (size 15 to 20)
#    0.000    0.923    3.077    5.077    4.308    0.615 
#    0.000    0.769    0.000    0.000    0.000    0.000 
#    0.000    0.000    0.000    0.000    0.000    0.000 
#
# Total GULP energy -144973.850237 kJ/mol
# GULP energy per Si atom -5575.917317 kJ/mol
# Density = 2.147101 g / cm^3
# Si number density = 21.519988 Si / 1000 Ang^3
#
#
#
# Elastic Constant Matrix: (Units=GPa)
#
#
# Indices 1 2 3 4 5 6 
#
# 1 92.1772 50.1297 10.1492 0.0000 -3.3616 0.0000
# 2 50.1297 132.7090 43.2397 0.0000 -2.6597 0.0000
# 3 10.1492 43.2397 78.5777 0.0000 1.3845 0.0000
# 4 0.0000 0.0000 0.0000 25.6228 0.0000 -8.1015
# 5 -3.3616 -2.6597 1.3845 0.0000 21.4152 0.0000
# 6 0.0000 0.0000 0.0000 -8.1015 0.0000 35.9422
#
#
#
# Elastic Compliance Matrix: (Units=1/GPa)
#
#
# Indices 1 2 3 4 5 6 
#
# 1 0.013806 -0.005603 0.001275 0.000000 0.001389 0.000000
# 2 -0.005603 0.011502 -0.005621 0.000000 0.000912 0.000000
# 3 0.001275 -0.005621 0.015682 0.000000 -0.001512 0.000000
# 4 0.000000 0.000000 0.000000 0.042023 0.000000 0.009472
# 5 0.001389 0.000912 -0.001512 0.000000 0.047125 0.000000
# 6 0.000000 0.000000 0.000000 0.009472 0.000000 0.029957
#
#
# Mechanical properties :
#
#
# Convention : Reuss Voigt Hill
#
# Bulk Modulus (GPa) = 47.41282 56.72233 52.06757
# Shear Modulus (GPa) = 26.73481 29.92574 28.33028
#
# Velocity S-wave (km/s) = 3.52849 3.73312 3.63225
# Velocity P-wave (km/s) = 6.21933 6.70797 6.46827
#
# Compressibility (1/GPa) = 0.02109134
#
# Stress axis : x y z
#
# Youngs Moduli (GPa) = 72.43280 86.94455 63.76924
#
# Poissons Ratio (x) = 0.48713 -0.08133
# Poissons Ratio (y) = 0.40583 0.35848
# Poissons Ratio (z) = -0.09238 0.48876
#
# Static dielectric constant tensor:
#      x y z
#    x 1.887250 0.000000 -0.018970 
#    y 0.000000 1.766240 0.000000 
#    z -0.018970 0.000000 1.787030 
# 
# From -- ./inp_files/63803.got.cif
#   From: 2010.05.17/outbox.cif.g08.bks.cpg/sg13_32_cif.got.tgz:63803.got - 2010.06.03 16:44:36.
