data_PCOD9237006
_publ_section_title
;
Structure prediction by ZEFSAII (Michael W. Deem and Ramdas Pophale) SiO2 
 PCOD9237006
Probable space group: P 2/C
;
_chemical_formula_sum "Si O2"
_cell_formula_units_Z 16
_cell_length_a 12.249783
_cell_length_b 10.967154
_cell_length_c 15.412566
_cell_angle_alpha 90.000000
_cell_angle_beta 161.706484
_cell_angle_gamma 90.000000
_cell_volume 649.931914
_symmetry_space_group_name_H-M "P 2/C"
_symmetry_group_IT_number 13
_symmetry_cell_setting 'monoclinic'
loop_
_space_group_symop_operation_xyz
x,y,z
-x,y,1/2-z
-x,-y,-z
x,-y,1/2+z
loop_
_atom_site_type_symbol
_atom_site_label
_atom_site_fract_x
_atom_site_fract_y
_atom_site_fract_z
Si Si1 0.000000 0.838132 0.250000
Si Si2 0.136657 0.552707 0.757741
Si Si3 0.500000 0.989983 0.750000
Si Si4 0.132649 0.224785 0.513168
Si Si5 0.108533 0.679030 0.484084
O O1 0.305647 0.920198 0.524155
O O2 0.886327 0.746111 0.240928
O O3 0.000000 0.522648 0.750000
O O4 0.132363 0.697982 0.745000
O O5 0.895259 0.467338 0.515628
O O6 0.500000 0.500000 0.000000
O O7 0.194807 0.080735 0.554075
O O8 0.500000 0.272213 0.750000
O O9 0.027233 0.265348 0.529296
O O10 0.500000 0.708704 0.750000
#
# Coordination Sequence:
#
# PCOD9237006 Si02
#       5
#     2   4   2   4   4
#     4  12  26  52  74 114 148 208 258 310 370 446
#     4  12  24  41  76 115 150 197 245 315 387 459
#     4  10  28  50  76 110 150 208 256 310 366 452
#     4  10  25  48  71 108 149 202 244 314 379 449
#     4  12  25  48  75 110 152 197 251 315 381 450
#
# _framework density 24.617965000000002
#
# number of rings (size 3 to 8) (size 9 to 14) (size 15 to 20)
#    0.750    0.000    2.500    4.500    1.750    2.000 
#    0.000    0.000    0.000    0.000    0.000    0.000 
#    0.000    0.000    0.000    0.000    0.000    0.000 
#
# Total GULP energy -89158.406146 kJ/mol
# GULP energy per Si atom -5572.400384 kJ/mol
# Density = 2.456193 g / cm^3
# Si number density = 24.617965 Si / 1000 Ang^3
#
#
#
# Elastic Constant Matrix: (Units=GPa)
#
#
# Indices 1 2 3 4 5 6 
#
# 1 202.8460 21.8147 36.3869 0.0000 10.1084 0.0000
# 2 21.8147 112.6247 40.2331 0.0000 -11.7720 0.0000
# 3 36.3869 40.2331 97.1582 0.0000 18.0793 0.0000
# 4 0.0000 0.0000 0.0000 34.3019 0.0000 -14.0995
# 5 10.1084 -11.7720 18.0793 0.0000 41.4967 0.0000
# 6 0.0000 0.0000 0.0000 -14.0995 0.0000 31.2333
#
#
#
# Elastic Compliance Matrix: (Units=1/GPa)
#
#
# Indices 1 2 3 4 5 6 
#
# 1 0.005316 -0.000520 -0.001640 0.000000 -0.000728 0.000000
# 2 -0.000520 0.011647 -0.005731 0.000000 0.005928 0.000000
# 3 -0.001640 -0.005731 0.014700 0.000000 -0.007631 0.000000
# 4 0.000000 0.000000 0.000000 0.035795 0.000000 0.016159
# 5 -0.000728 0.005928 -0.007631 0.000000 0.029282 0.000000
# 6 0.000000 0.000000 0.000000 0.016159 0.000000 0.039312
#
#
# Mechanical properties :
#
#
# Convention : Reuss Voigt Hill
#
# Bulk Modulus (GPa) = 62.97113 67.72204 65.34659
# Shear Modulus (GPa) = 31.82136 42.35266 37.08701
#
# Velocity S-wave (km/s) = 3.59919 4.15227 3.88558
# Velocity P-wave (km/s) = 6.55035 7.11037 6.83609
#
# Compressibility (1/GPa) = 0.01588029
#
# Stress axis : x y z
#
# Youngs Moduli (GPa) = 188.10198 85.86134 68.02704
#
# Poissons Ratio (x) = 0.04463 0.11158
# Poissons Ratio (y) = 0.09778 0.38988
# Poissons Ratio (z) = 0.30854 0.49209
#
# Static dielectric constant tensor:
#      x y z
#    x 1.905200 0.000000 0.000470 
#    y 0.000000 2.069400 0.000000 
#    z 0.000470 0.000000 2.163730 
# 
# From -- ./inp_files/25480.got.cif
#   From: 2010.05.17/outbox.cif.g08.bks.cpg/sg13_13_cif.got.tgz:25480.got - 2010.06.03 16:44:36.
