data_PCOD9237614
_publ_section_title
;
Structure prediction by ZEFSAII (Michael W. Deem and Ramdas Pophale) SiO2 
 PCOD9237614
Probable space group: P 2/C
;
_chemical_formula_sum "Si O2"
_cell_formula_units_Z 18
_cell_length_a 9.112719
_cell_length_b 10.922387
_cell_length_c 7.658103
_cell_angle_alpha 90.000000
_cell_angle_beta 105.890252
_cell_angle_gamma 90.000000
_cell_volume 733.104784
_symmetry_space_group_name_H-M "P 2/C"
_symmetry_group_IT_number 13
_symmetry_cell_setting 'monoclinic'
loop_
_space_group_symop_operation_xyz
x,y,z
-x,y,1/2-z
-x,-y,-z
x,-y,1/2+z
loop_
_atom_site_type_symbol
_atom_site_label
_atom_site_fract_x
_atom_site_fract_y
_atom_site_fract_z
Si Si1 0.718941 0.324564 0.984237
Si Si2 0.531107 0.860059 0.965497
Si Si3 0.000000 0.180182 0.250000
Si Si4 0.828480 0.567022 0.157330
Si Si5 0.122990 0.181470 0.942474
O O1 0.573022 0.238481 0.966430
O O2 0.715864 0.457868 0.073728
O O3 0.861631 0.253290 0.115290
O O4 0.763770 0.360126 0.802010
O O5 0.500000 0.836957 0.750000
O O6 0.709808 0.853226 0.060546
O O7 0.500000 0.000000 0.000000
O O8 0.923075 0.116669 0.392205
O O9 0.858065 0.670895 0.020158
O O10 0.000000 0.518874 0.250000
O O11 0.000000 0.165297 0.750000
#
# Coordination Sequence:
#
# PCOD9237614 Si02
#       5
#     4   4   2   4   4
#     4  12  24  44  77 115 159 200 256 320 403 465
#     4  12  31  54  77 110 159 209 272 335 385 456
#     4  12  20  44  76 116 152 202 252 316 384 484
#     4  11  22  41  76 118 162 199 246 325 402 482
#     4  11  25  49  80 114 155 208 261 317 402 475
#
# _framework density 24.553107000000001
#
# number of rings (size 3 to 8) (size 9 to 14) (size 15 to 20)
#    0.000    0.444    7.778    2.000    3.111    0.889 
#    2.000    2.222    2.444    0.000    0.000    0.000 
#    0.000    0.000    0.000    0.000    0.000    0.000 
#
# Total GULP energy -100751.001095 kJ/mol
# GULP energy per Si atom -5597.277839 kJ/mol
# Density = 2.449722 g / cm^3
# Si number density = 24.553107 Si / 1000 Ang^3
#
#
#
# Elastic Constant Matrix: (Units=GPa)
#
#
# Indices 1 2 3 4 5 6 
#
# 1 221.0538 83.7025 75.9089 0.0000 1.3793 0.0000
# 2 83.7025 125.8168 45.6435 0.0000 -4.5643 0.0000
# 3 75.9089 45.6435 117.1232 0.0000 -23.6704 0.0000
# 4 0.0000 0.0000 0.0000 17.1123 0.0000 19.0439
# 5 1.3793 -4.5643 -23.6704 0.0000 45.4228 0.0000
# 6 0.0000 0.0000 0.0000 19.0439 0.0000 9.1309
#
#
#
# Elastic Compliance Matrix: (Units=1/GPa)
#
#
# Indices 1 2 3 4 5 6 
#
# 1 0.007162 -0.003478 -0.003801 0.000000 -0.002548 0.000000
# 2 -0.003478 0.010992 -0.001995 0.000000 0.000171 0.000000
# 3 -0.003801 -0.001995 0.013146 0.000000 0.006766 0.000000
# 4 0.000000 0.000000 0.000000 -0.044235 0.000000 0.092259
# 5 -0.002548 0.000171 0.006766 0.000000 0.025636 0.000000
# 6 0.000000 0.000000 0.000000 0.092259 0.000000 -0.082901
#
#
# Mechanical properties :
#
#
# Convention : Reuss Voigt Hill
#
# Bulk Modulus (GPa) = 78.42071 97.16705 87.79388
# Shear Modulus (GPa) = -105.48204 31.58247 -36.94978
#
# Velocity S-wave (km/s) = -6.56156 3.59038 -3.88350
# Velocity P-wave (km/s) = 5.03953 7.53976 3.96555
#
# Compressibility (1/GPa) = 0.01275173
#
# Stress axis : x y z
#
# Youngs Moduli (GPa) = 139.62550 90.97644 76.06626
#
# Poissons Ratio (x) = 0.31643 0.28915
# Poissons Ratio (y) = 0.48563 0.15175
# Poissons Ratio (z) = 0.53075 0.18149
#
# Static dielectric constant tensor:
#      x y z
#    x 1.924220 0.000000 -0.021370 
#    y 0.000000 2.015730 0.000000 
#    z -0.021370 0.000000 2.028660 
# 
# From -- ./inp_files/11843.got.cif
#   From: 2010.05.17/outbox.cif.g08.bks.cpg/sg13_6_cif.got.tgz:11843.got - 2010.06.03 16:44:36.
