data_PCOD9237858
_publ_section_title
;
Structure prediction by ZEFSAII (Michael W. Deem and Ramdas Pophale) SiO2 
 PCOD9237858
Probable space group: P 2/C
;
_chemical_formula_sum "Si O2"
_cell_formula_units_Z 22
_cell_length_a 6.994309
_cell_length_b 11.629694
_cell_length_c 14.392823
_cell_angle_alpha 90.000000
_cell_angle_beta 86.725315
_cell_angle_gamma 90.000000
_cell_volume 1168.824674
_symmetry_space_group_name_H-M "P 2/C"
_symmetry_group_IT_number 13
_symmetry_cell_setting 'monoclinic'
loop_
_space_group_symop_operation_xyz
x,y,z
-x,y,1/2-z
-x,-y,-z
x,-y,1/2+z
loop_
_atom_site_type_symbol
_atom_site_label
_atom_site_fract_x
_atom_site_fract_y
_atom_site_fract_z
Si Si1 0.983398 0.426127 0.406159
Si Si2 0.500000 0.932522 0.250000
Si Si3 0.723981 0.487137 0.755186
Si Si4 0.311128 0.993708 0.439987
Si Si5 0.178574 0.768748 0.192177
Si Si6 0.991992 0.810337 0.497338
O O1 0.800532 0.460426 0.349373
O O2 0.000000 0.500000 0.500000
O O3 0.160071 0.457715 0.333428
O O4 0.975055 0.292102 0.431774
O O5 0.380119 0.998778 0.331262
O O6 0.358411 0.851253 0.195339
O O7 0.500000 0.502217 0.750000
O O8 0.774097 0.351635 0.760123
O O9 0.187145 0.877718 0.463995
O O10 0.500000 0.000000 0.500000
O O11 0.162014 0.096032 0.464104
O O12 0.105007 0.752872 0.090371
O O13 0.000000 0.825271 0.250000
#
# Coordination Sequence:
#
# PCOD9237858 Si02
#       6
#     4   2   4   4   4   4
#     4  11  23  43  67  95 135 176 213 272 332 395
#     4  12  24  40  70  96 128 168 224 286 318 382
#     4  11  24  41  63 101 135 173 222 264 332 397
#     4  11  25  44  66  98 128 171 223 271 332 388
#     4  12  20  39  69  95 127 168 223 275 322 384
#     4  11  24  44  67  93 136 174 217 274 330 388
#
# _framework density 18.822327000000001
#
# number of rings (size 3 to 8) (size 9 to 14) (size 15 to 20)
#    0.000    0.727    8.182    0.000    0.000    2.182 
#    8.182    0.000    0.000    0.000    0.000    0.000 
#    0.000    0.000    0.000    0.000    0.000    0.000 
#
# Total GULP energy -122868.298142 kJ/mol
# GULP energy per Si atom -5584.922643 kJ/mol
# Density = 1.877949 g / cm^3
# Si number density = 18.822327 Si / 1000 Ang^3
#
#
#
# Elastic Constant Matrix: (Units=GPa)
#
#
# Indices 1 2 3 4 5 6 
#
# 1 150.0499 28.2994 48.7895 0.0000 5.8091 0.0000
# 2 28.2994 71.4071 34.8505 0.0000 -8.5609 0.0000
# 3 48.7895 34.8505 122.9148 0.0000 -2.7192 0.0000
# 4 0.0000 0.0000 0.0000 31.1426 0.0000 -0.5647
# 5 5.8091 -8.5609 -2.7192 0.0000 29.6830 0.0000
# 6 0.0000 0.0000 0.0000 -0.5647 0.0000 16.3434
#
#
#
# Elastic Compliance Matrix: (Units=1/GPa)
#
#
# Indices 1 2 3 4 5 6 
#
# 1 0.008024 -0.002196 -0.002616 0.000000 -0.002443 0.000000
# 2 -0.002196 0.017414 -0.003953 0.000000 0.005090 0.000000
# 3 -0.002616 -0.003953 0.010302 0.000000 0.000316 0.000000
# 4 0.000000 0.000000 0.000000 0.032130 0.000000 0.001110
# 5 -0.002443 0.005090 0.000316 0.000000 0.035664 0.000000
# 6 0.000000 0.000000 0.000000 0.001110 0.000000 0.061225
#
#
# Mechanical properties :
#
#
# Convention : Reuss Voigt Hill
#
# Bulk Modulus (GPa) = 54.91800 63.13896 59.02848
# Shear Modulus (GPa) = 26.54475 30.92930 28.73702
#
# Velocity S-wave (km/s) = 3.75944 4.05807 3.91161
# Velocity P-wave (km/s) = 6.93433 7.45485 7.19929
#
# Compressibility (1/GPa) = 0.01820897
#
# Stress axis : x y z
#
# Youngs Moduli (GPa) = 124.62706 57.42469 97.06722
#
# Poissons Ratio (x) = 0.12610 0.25397
# Poissons Ratio (y) = 0.27367 0.38373
# Poissons Ratio (z) = 0.32608 0.22701
#
# Static dielectric constant tensor:
#      x y z
#    x 1.663920 0.000000 0.004140 
#    y 0.000000 1.643020 0.000000 
#    z 0.004140 0.000000 1.660190 
# 
# From -- ./inp_files/43605.got.cif
#   From: 2010.05.17/outbox.cif.g08.bks.cpg/sg13_22_cif.got.tgz:43605.got - 2010.06.03 16:44:36.
