data_PCOD9237656
_publ_section_title
;
Structure prediction by ZEFSAII (Michael W. Deem and Ramdas Pophale) SiO2 
 PCOD9237656
Probable space group: P 2/C
;
_chemical_formula_sum "Si O2"
_cell_formula_units_Z 20
_cell_length_a 24.937308
_cell_length_b 6.951565
_cell_length_c 13.296411
_cell_angle_alpha 90.000000
_cell_angle_beta 160.965698
_cell_angle_gamma 90.000000
_cell_volume 751.731728
_symmetry_space_group_name_H-M "P 2/C"
_symmetry_group_IT_number 13
_symmetry_cell_setting 'monoclinic'
loop_
_space_group_symop_operation_xyz
x,y,z
-x,y,1/2-z
-x,-y,-z
x,-y,1/2+z
loop_
_atom_site_type_symbol
_atom_site_label
_atom_site_fract_x
_atom_site_fract_y
_atom_site_fract_z
Si Si1 0.756933 0.023366 0.901568
Si Si2 0.724529 0.303516 0.472839
Si Si3 0.865114 0.008821 0.367007
Si Si4 0.666983 0.358849 0.006689
Si Si5 0.823023 0.432939 0.975886
O O1 0.721072 0.249393 0.833071
O O2 0.649252 0.866467 0.770022
O O3 0.939723 0.994339 0.273952
O O4 0.783382 0.974958 0.831744
O O5 0.626627 0.473365 0.354795
O O6 0.808155 0.184553 0.711248
O O7 0.746479 0.539634 0.744835
O O8 0.791421 0.199660 0.184353
O O9 0.838906 0.419270 0.596494
O O10 0.500000 0.264865 0.750000
O O11 0.000000 0.362088 0.250000
#
# Coordination Sequence:
#
# PCOD9237656 Si02
#       5
#     4   4   4   4   4
#     4  11  22  43  72 108 145 179 240 298 358 426
#     4  12  25  44  77 104 144 195 234 299 367 414
#     4  11  23  45  68 108 148 187 234 295 359 428
#     4  12  28  49  71 104 150 194 243 295 355 430
#     4  12  24  46  76 111 145 181 244 300 355 434
#
# _framework density 26.605233999999999
#
# number of rings (size 3 to 8) (size 9 to 14) (size 15 to 20)
#    0.000    0.400    6.000    3.000    0.000    7.200 
#    0.000    2.000    0.000    0.000    0.000    0.000 
#    0.000    0.000    0.000    0.000    0.000    0.000 
#
# Total GULP energy -112006.326093 kJ/mol
# GULP energy per Si atom -5600.316305 kJ/mol
# Density = 2.654468 g / cm^3
# Si number density = 26.605234 Si / 1000 Ang^3
#
#
#
# Elastic Constant Matrix: (Units=GPa)
#
#
# Indices 1 2 3 4 5 6 
#
# 1 123.2188 47.2904 28.4419 0.0000 0.7844 0.0000
# 2 47.2904 196.1745 30.7327 0.0000 9.4139 0.0000
# 3 28.4419 30.7327 54.2449 0.0000 24.5811 0.0000
# 4 0.0000 0.0000 0.0000 35.9450 0.0000 -8.5718
# 5 0.7844 9.4139 24.5811 0.0000 1.4168 0.0000
# 6 0.0000 0.0000 0.0000 -8.5718 0.0000 83.5778
#
#
#
# Elastic Compliance Matrix: (Units=1/GPa)
#
#
# Indices 1 2 3 4 5 6 
#
# 1 0.008629 -0.001756 0.000969 0.000000 -0.009928 0.000000
# 2 -0.001756 0.005886 -0.002167 0.000000 -0.000547 0.000000
# 3 0.000969 -0.002167 -0.001876 0.000000 0.046409 0.000000
# 4 0.000000 0.000000 0.000000 0.028518 0.000000 0.002925
# 5 -0.009928 -0.000547 0.046409 0.000000 -0.090243 0.000000
# 6 0.000000 0.000000 0.000000 0.002925 0.000000 0.012265
#
#
# Mechanical properties :
#
#
# Convention : Reuss Voigt Hill
#
# Bulk Modulus (GPa) = 148.52041 65.17425 106.84733
# Shear Modulus (GPa) = -174.39299 41.99945 -66.19677
#
# Velocity S-wave (km/s) = -8.10498 3.97749 -4.99351
# Velocity P-wave (km/s) = 5.62518 6.75602 2.64587
#
# Compressibility (1/GPa) = 0.00673308
#
# Stress axis : x y z
#
# Youngs Moduli (GPa) = 115.88979 169.88395 -533.06919
#
# Poissons Ratio (x) = 0.29823 0.51664
# Poissons Ratio (y) = 0.20345 -1.15505
# Poissons Ratio (z) = -0.11232 0.36810
#
# Static dielectric constant tensor:
#      x y z
#    x 2.108320 0.000000 -0.019490 
#    y 0.000000 2.086040 0.000000 
#    z -0.019490 0.000000 2.046430 
# 
# From -- ./inp_files/59451.got.cif
#   From: 2010.05.17/outbox.cif.g08.bks.cpg/sg13_30_cif.got.tgz:59451.got - 2010.06.03 16:44:36.
