data_PCOD9237282
_publ_section_title
;
Structure prediction by ZEFSAII (Michael W. Deem and Ramdas Pophale) SiO2 
 PCOD9237282
Probable space group: P 2/C
;
_chemical_formula_sum "Si O2"
_cell_formula_units_Z 20
_cell_length_a 12.004171
_cell_length_b 9.049091
_cell_length_c 8.662790
_cell_angle_alpha 90.000000
_cell_angle_beta 75.452474
_cell_angle_gamma 90.000000
_cell_volume 910.842282
_symmetry_space_group_name_H-M "P 2/C"
_symmetry_group_IT_number 13
_symmetry_cell_setting 'monoclinic'
loop_
_space_group_symop_operation_xyz
x,y,z
-x,y,1/2-z
-x,-y,-z
x,-y,1/2+z
loop_
_atom_site_type_symbol
_atom_site_label
_atom_site_fract_x
_atom_site_fract_y
_atom_site_fract_z
Si Si1 0.204565 0.288900 0.524433
Si Si2 0.139978 0.573281 0.714520
Si Si3 0.114778 0.960982 0.244043
Si Si4 0.587622 0.939381 0.595195
Si Si5 0.227364 0.160520 0.996013
O O1 0.197173 0.414860 0.657892
O O2 0.171805 0.360510 0.371530
O O3 0.113004 0.168604 0.617490
O O4 0.320905 0.190505 0.475949
O O5 0.196197 0.677120 0.561785
O O6 0.000000 0.564181 0.750000
O O7 0.134660 0.894731 0.403483
O O8 0.000000 0.051662 0.250000
O O9 0.216964 0.068889 0.159664
O O10 0.500000 0.876064 0.750000
O O11 0.500000 0.000000 0.500000
O O12 0.656966 0.090926 0.616043
#
# Coordination Sequence:
#
# PCOD9237282 Si02
#       5
#     4   4   4   4   4
#     4  11  24  40  62  93 127 171 220 259 316 391
#     4  12  23  41  64  98 140 174 202 256 323 396
#     4  11  20  36  58  90 126 165 208 260 317 385
#     4  11  23  44  66  87 119 165 221 281 320 357
#     4  11  22  37  62  92 123 165 215 262 318 385
#
# _framework density 21.957699000000002
#
# number of rings (size 3 to 8) (size 9 to 14) (size 15 to 20)
#    0.000    0.800    0.000   10.800    0.000    0.000 
#    0.000    5.000    0.000    0.000    0.000    0.000 
#    0.000    0.000    0.000    0.000    0.000    0.000 
#
# Total GULP energy -111477.178765 kJ/mol
# GULP energy per Si atom -5573.858938 kJ/mol
# Density = 2.190772 g / cm^3
# Si number density = 21.957699 Si / 1000 Ang^3
#
#
#
# Elastic Constant Matrix: (Units=GPa)
#
#
# Indices 1 2 3 4 5 6 
#
# 1 131.2264 32.0480 38.3249 0.0000 -5.1487 0.0000
# 2 32.0480 107.5015 25.7157 0.0000 -12.5384 0.0000
# 3 38.3249 25.7157 94.0679 0.0000 3.6101 0.0000
# 4 0.0000 0.0000 0.0000 46.1447 0.0000 -5.1153
# 5 -5.1487 -12.5384 3.6101 0.0000 37.7740 0.0000
# 6 0.0000 0.0000 0.0000 -5.1153 0.0000 27.7834
#
#
#
# Elastic Compliance Matrix: (Units=1/GPa)
#
#
# Indices 1 2 3 4 5 6 
#
# 1 0.009042 -0.001815 -0.003224 0.000000 0.000938 0.000000
# 2 -0.001815 0.010823 -0.002356 0.000000 0.003570 0.000000
# 3 -0.003224 -0.002356 0.012682 0.000000 -0.002434 0.000000
# 4 0.000000 0.000000 0.000000 0.022122 0.000000 0.004073
# 5 0.000938 0.003570 -0.002434 0.000000 0.028019 0.000000
# 6 0.000000 0.000000 0.000000 0.004073 0.000000 0.036743
#
#
# Mechanical properties :
#
#
# Convention : Reuss Voigt Hill
#
# Bulk Modulus (GPa) = 56.31654 58.33036 57.32345
# Shear Modulus (GPa) = 35.67863 38.12090 36.89976
#
# Velocity S-wave (km/s) = 4.03535 4.17118 4.10383
# Velocity P-wave (km/s) = 6.88589 7.05839 6.97268
#
# Compressibility (1/GPa) = 0.01775677
#
# Stress axis : x y z
#
# Youngs Moduli (GPa) = 110.59543 92.39237 78.85452
#
# Poissons Ratio (x) = 0.16769 0.25420
# Poissons Ratio (y) = 0.20073 0.18581
# Poissons Ratio (z) = 0.35652 0.21771
#
# Static dielectric constant tensor:
#      x y z
#    x 1.828160 0.000000 0.006070 
#    y 0.000000 1.831660 0.000000 
#    z 0.006070 0.000000 1.875190 
# 
# From -- ./inp_files/14819.got.cif
#   From: 2010.05.17/outbox.cif.g08.bks.cpg/sg13_8_cif.got.tgz:14819.got - 2010.06.03 16:44:36.
