data_PCOD9237389
_publ_section_title
;
Structure prediction by ZEFSAII (Michael W. Deem and Ramdas Pophale) SiO2 
 PCOD9237389
Probable space group: P 2/C
;
_chemical_formula_sum "Si O2"
_cell_formula_units_Z 24
_cell_length_a 13.012315
_cell_length_b 11.344297
_cell_length_c 8.892631
_cell_angle_alpha 90.000000
_cell_angle_beta 74.496730
_cell_angle_gamma 90.000000
_cell_volume 1264.928767
_symmetry_space_group_name_H-M "P 2/C"
_symmetry_group_IT_number 13
_symmetry_cell_setting 'monoclinic'
loop_
_space_group_symop_operation_xyz
x,y,z
-x,y,1/2-z
-x,-y,-z
x,-y,1/2+z
loop_
_atom_site_type_symbol
_atom_site_label
_atom_site_fract_x
_atom_site_fract_y
_atom_site_fract_z
Si Si1 0.282143 0.969976 0.135142
Si Si2 0.895499 0.789828 0.187197
Si Si3 0.123180 0.547907 0.161622
Si Si4 0.622405 0.161537 0.176250
Si Si5 0.193046 0.658064 0.817665
Si Si6 0.898517 0.858713 0.855611
O O1 0.198242 0.881174 0.243071
O O2 0.345205 0.055269 0.222925
O O3 0.202629 0.058523 0.079022
O O4 0.355189 0.894015 0.996108
O O5 0.853988 0.660383 0.243164
O O6 0.000000 0.805919 0.250000
O O7 0.925815 0.800020 0.002320
O O8 0.197876 0.441398 0.186176
O O9 0.000000 0.514057 0.250000
O O10 0.140207 0.594913 0.984569
O O11 0.500000 0.192742 0.250000
O O12 0.699682 0.273790 0.173560
O O13 0.128022 0.762819 0.761577
O O14 0.000000 0.927683 0.750000
#
# Coordination Sequence:
#
# PCOD9237389 Si02
#       6
#     4   4   4   4   4   4
#     4  11  22  39  63  87 123 159 199 257 303 366
#     4  11  22  35  59  92 129 165 198 238 297 371
#     4  11  21  37  62  89 128 162 197 242 298 365
#     4  11  24  44  65  88 118 160 210 262 309 353
#     4  11  23  40  62  90 123 163 206 250 298 360
#     4  11  22  35  58  92 129 163 199 239 306 368
#
# _framework density 18.973400999999999
#
# number of rings (size 3 to 8) (size 9 to 14) (size 15 to 20)
#    0.000    1.000    3.333    5.000    2.333    1.333 
#    0.000    0.833    0.000    0.000    0.000    0.000 
#    0.000    0.000    0.000    0.000    0.000    0.000 
#
# Total GULP energy -133951.950447 kJ/mol
# GULP energy per Si atom -5581.331269 kJ/mol
# Density = 1.893022 g / cm^3
# Si number density = 18.973401 Si / 1000 Ang^3
#
#
#
# Elastic Constant Matrix: (Units=GPa)
#
#
# Indices 1 2 3 4 5 6 
#
# 1 79.3187 27.1689 38.1239 0.0000 -14.5377 0.0000
# 2 27.1689 95.1347 14.5426 0.0000 -8.5291 0.0000
# 3 38.1239 14.5426 98.8388 0.0000 -17.4778 0.0000
# 4 0.0000 0.0000 0.0000 10.6773 0.0000 5.6780
# 5 -14.5377 -8.5291 -17.4778 0.0000 13.3762 0.0000
# 6 0.0000 0.0000 0.0000 5.6780 0.0000 20.2665
#
#
#
# Elastic Compliance Matrix: (Units=1/GPa)
#
#
# Indices 1 2 3 4 5 6 
#
# 1 0.018031 -0.003432 -0.004385 0.000000 0.011679 0.000000
# 2 -0.003432 0.011821 0.000335 0.000000 0.004245 0.000000
# 3 -0.004385 0.000335 0.014246 0.000000 0.014063 0.000000
# 4 0.000000 0.000000 0.000000 0.110053 0.000000 -0.030833
# 5 0.011679 0.004245 0.014063 0.000000 0.108535 0.000000
# 6 0.000000 0.000000 0.000000 -0.030833 0.000000 0.057981
#
#
# Mechanical properties :
#
#
# Convention : Reuss Voigt Hill
#
# Bulk Modulus (GPa) = 34.32274 48.10700 41.21487
# Shear Modulus (GPa) = 14.47840 21.76112 18.11976
#
# Velocity S-wave (km/s) = 2.76540 3.39031 3.09367
# Velocity P-wave (km/s) = 5.32220 6.38244 5.87628
#
# Compressibility (1/GPa) = 0.02913520
#
# Stress axis : x y z
#
# Youngs Moduli (GPa) = 55.46017 84.59591 70.19435
#
# Poissons Ratio (x) = 0.29033 0.30778
# Poissons Ratio (y) = 0.19034 -0.02353
# Poissons Ratio (z) = 0.24317 -0.02836
#
# Static dielectric constant tensor:
#      x y z
#    x 1.655220 0.000000 0.019730 
#    y 0.000000 1.671470 0.000000 
#    z 0.019730 0.000000 1.698570 
# 
# From -- ./inp_files/15777.got.cif
#   From: 2010.05.17/outbox.cif.g08.bks.cpg/sg13_8_cif.got.tgz:15777.got - 2010.06.03 16:44:36.
