data_PCOD9237081
_publ_section_title
;
Structure prediction by ZEFSAII (Michael W. Deem and Ramdas Pophale) SiO2 
 PCOD9237081
Probable space group: P 2/C
;
_chemical_formula_sum "Si O2"
_cell_formula_units_Z 32
_cell_length_a 13.705700
_cell_length_b 9.229875
_cell_length_c 21.933408
_cell_angle_alpha 90.000000
_cell_angle_beta 149.393057
_cell_angle_gamma 90.000000
_cell_volume 1412.684732
_symmetry_space_group_name_H-M "P 2/C"
_symmetry_group_IT_number 13
_symmetry_cell_setting 'monoclinic'
loop_
_space_group_symop_operation_xyz
x,y,z
-x,y,1/2-z
-x,-y,-z
x,-y,1/2+z
loop_
_atom_site_type_symbol
_atom_site_label
_atom_site_fract_x
_atom_site_fract_y
_atom_site_fract_z
Si Si1 0.930488 0.613593 0.107193
Si Si2 0.717997 0.156910 0.112905
Si Si3 0.330619 0.145623 0.976497
Si Si4 0.926581 0.288480 0.126200
Si Si5 0.061720 0.793948 0.575113
Si Si6 0.282713 0.458833 0.133823
Si Si7 0.443407 0.976431 0.790214
Si Si8 0.221368 0.250275 0.675305
O O1 0.975513 0.457256 0.158887
O O2 0.118383 0.689138 0.179945
O O3 0.817020 0.724840 0.089623
O O4 0.800153 0.568306 0.978142
O O5 0.524670 0.188498 0.045406
O O6 0.739336 0.254048 0.064183
O O7 0.896972 0.199190 0.250800
O O8 0.738129 0.991492 0.100532
O O9 0.398838 0.087790 0.079594
O O10 0.917039 0.230624 0.052600
O O11 0.152261 0.637797 0.607739
O O12 0.943312 0.835917 0.451409
O O13 0.243400 0.890230 0.689871
O O14 0.500000 0.405119 0.250000
O O15 0.279250 0.617825 0.161815
O O16 0.500000 0.966743 0.750000
O O17 0.393595 0.141775 0.779704
#
# Coordination Sequence:
#
# PCOD9237081 Si02
#       8
#     4   4   4   4   4   4   4   4
#     4  11  23  42  72  97 133 182 226 280 340 411
#     4  10  26  46  69  95 131 180 227 289 337 390
#     4  11  25  47  68  99 138 176 229 283 344 402
#     4  11  22  44  72  95 126 183 230 280 336 393
#     4  11  20  40  63  93 138 177 222 271 326 412
#     4  11  21  37  61 100 140 175 212 273 344 401
#     4  12  25  39  65 103 137 180 221 272 344 407
#     4  11  23  38  60 105 138 176 222 270 339 406
#
# _framework density 22.651903000000001
#
# number of rings (size 3 to 8) (size 9 to 14) (size 15 to 20)
#    0.000    1.000    3.750    4.125    3.500    1.500 
#    0.000    7.500    0.000    0.000    0.000    0.000 
#    0.000    0.000    0.000    0.000    0.000    0.000 
#
# Total GULP energy -179007.983098 kJ/mol
# GULP energy per Si atom -5593.999472 kJ/mol
# Density = 2.260035 g / cm^3
# Si number density = 22.651903 Si / 1000 Ang^3
#
#
#
# Elastic Constant Matrix: (Units=GPa)
#
#
# Indices 1 2 3 4 5 6 
#
# 1 157.4156 37.1980 9.1252 0.0000 15.9475 0.0000
# 2 37.1980 97.0664 17.7636 0.0000 1.6383 0.0000
# 3 9.1252 17.7636 49.5725 0.0000 2.6200 0.0000
# 4 0.0000 0.0000 0.0000 16.5041 0.0000 -6.9111
# 5 15.9475 1.6383 2.6200 0.0000 14.2871 0.0000
# 6 0.0000 0.0000 0.0000 -6.9111 0.0000 25.6672
#
#
#
# Elastic Compliance Matrix: (Units=1/GPa)
#
#
# Indices 1 2 3 4 5 6 
#
# 1 0.007893 -0.002887 0.000030 0.000000 -0.008484 0.000000
# 2 -0.002887 0.012085 -0.003934 0.000000 0.002558 0.000000
# 3 0.000030 -0.003934 0.021766 0.000000 -0.003574 0.000000
# 4 0.000000 0.000000 0.000000 0.068291 0.000000 0.018388
# 5 -0.008484 0.002558 -0.003574 0.000000 0.079825 0.000000
# 6 0.000000 0.000000 0.000000 0.018388 0.000000 0.043911
#
#
# Mechanical properties :
#
#
# Convention : Reuss Voigt Hill
#
# Bulk Modulus (GPa) = 35.51002 48.02533 41.76768
# Shear Modulus (GPa) = 19.47490 27.28953 23.38222
#
# Velocity S-wave (km/s) = 2.93532 3.47469 3.21634
# Velocity P-wave (km/s) = 5.21523 6.11109 5.68085
#
# Compressibility (1/GPa) = 0.02816107
#
# Stress axis : x y z
#
# Youngs Moduli (GPa) = 126.70127 82.74451 45.94397
#
# Poissons Ratio (x) = 0.23888 -0.00138
# Poissons Ratio (y) = 0.36577 0.18076
# Poissons Ratio (z) = -0.00380 0.32555
#
# Static dielectric constant tensor:
#      x y z
#    x 1.862670 0.000000 -0.036350 
#    y 0.000000 1.870320 0.000000 
#    z -0.036350 0.000000 1.872570 
# 
# From -- ./inp_files/87427.got.cif
#   From: 2010.05.17/outbox.cif.g08.bks.cpg/sg13_44_cif.got.tgz:87427.got - 2010.06.03 16:44:36.
