data_PCOD9237686
_publ_section_title
;
Structure prediction by ZEFSAII (Michael W. Deem and Ramdas Pophale) SiO2 
 PCOD9237686
Probable space group: P 2/C
;
_chemical_formula_sum "Si O2"
_cell_formula_units_Z 32
_cell_length_a 10.715064
_cell_length_b 9.886045
_cell_length_c 31.054921
_cell_angle_alpha 90.000000
_cell_angle_beta 155.764172
_cell_angle_gamma 90.000000
_cell_volume 1350.373394
_symmetry_space_group_name_H-M "P 2/C"
_symmetry_group_IT_number 13
_symmetry_cell_setting 'monoclinic'
loop_
_space_group_symop_operation_xyz
x,y,z
-x,y,1/2-z
-x,-y,-z
x,-y,1/2+z
loop_
_atom_site_type_symbol
_atom_site_label
_atom_site_fract_x
_atom_site_fract_y
_atom_site_fract_z
Si Si1 0.791448 0.238116 0.074106
Si Si2 0.743736 0.895652 0.935839
Si Si3 0.836053 0.479628 0.583169
Si Si4 0.317756 0.219876 0.856215
Si Si5 0.278733 0.026325 0.218388
Si Si6 0.662489 0.729466 0.234904
Si Si7 0.697557 0.915567 0.629343
Si Si8 0.983514 0.608771 0.456535
O O1 0.652944 0.181759 0.074748
O O2 0.563387 0.280308 0.964691
O O3 0.987253 0.373540 0.140423
O O4 0.630692 0.348202 0.838754
O O5 0.445829 0.917363 0.813143
O O6 0.612211 0.920924 0.941658
O O7 0.862420 0.743874 0.975884
O O8 0.000000 0.000000 0.000000
O O9 0.500000 0.500000 0.500000
O O10 0.863661 0.440674 0.540646
O O11 0.428757 0.217221 0.841852
O O12 0.238324 0.076901 0.855522
O O13 0.000000 0.294956 0.750000
O O14 0.500000 0.061860 0.250000
O O15 0.254339 0.865895 0.213664
O O16 0.974351 0.107974 0.116403
O O17 0.043472 0.633966 0.170953
O O18 0.000000 0.865778 0.750000
O O19 0.000000 0.500000 0.500000
#
# Coordination Sequence:
#
# PCOD9237686 Si02
#       8
#     4   4   4   4   4   4   4   4
#     4  12  27  47  77 114 152 208 271 332 404 487
#     4  12  25  47  77 112 153 202 267 328 400 486
#     4  12  29  52  74 115 158 215 273 330 408 499
#     4  11  23  44  74 112 154 200 263 339 409 477
#     4  12  27  44  77 116 154 204 266 338 399 477
#     4  12  26  51  77 112 161 214 270 337 413 487
#     4  11  22  45  74 112 155 199 261 331 406 473
#     4  12  28  48  79 112 162 214 264 335 414 490
#
# _framework density 23.697147999999999
#
# number of rings (size 3 to 8) (size 9 to 14) (size 15 to 20)
#    0.000    0.250    3.750    4.500    7.000    1.000 
#    0.000    0.625    0.000    0.000    0.000    0.000 
#    0.000    0.000    0.000    0.000    0.000    0.000 
#
# Total GULP energy -178847.129936 kJ/mol
# GULP energy per Si atom -5588.972811 kJ/mol
# Density = 2.364321 g / cm^3
# Si number density = 23.697148 Si / 1000 Ang^3
#
#
#
# Elastic Constant Matrix: (Units=GPa)
#
#
# Indices 1 2 3 4 5 6 
#
# 1 159.9730 67.9230 43.8337 0.0000 7.3732 0.0000
# 2 67.9230 145.0269 56.4422 0.0000 0.9988 0.0000
# 3 43.8337 56.4422 107.2067 0.0000 9.2468 0.0000
# 4 0.0000 0.0000 0.0000 40.2669 0.0000 7.0468
# 5 7.3732 0.9988 9.2468 0.0000 42.2061 0.0000
# 6 0.0000 0.0000 0.0000 7.0468 0.0000 40.4253
#
#
#
# Elastic Compliance Matrix: (Units=1/GPa)
#
#
# Indices 1 2 3 4 5 6 
#
# 1 0.008066 -0.003170 -0.001543 0.000000 -0.000996 0.000000
# 2 -0.003170 0.009946 -0.004044 0.000000 0.001204 0.000000
# 3 -0.001543 -0.004044 0.012288 0.000000 -0.002327 0.000000
# 4 0.000000 0.000000 0.000000 0.025616 0.000000 -0.004465
# 5 -0.000996 0.001204 -0.002327 0.000000 0.024349 0.000000
# 6 0.000000 0.000000 0.000000 -0.004465 0.000000 0.025515
#
#
# Mechanical properties :
#
#
# Convention : Reuss Voigt Hill
#
# Bulk Modulus (GPa) = 78.21196 83.17825 80.69510
# Shear Modulus (GPa) = 39.19878 40.84685 40.02281
#
# Velocity S-wave (km/s) = 4.07154 4.15625 4.11412
# Velocity P-wave (km/s) = 7.42831 7.62950 7.52958
#
# Compressibility (1/GPa) = 0.01278577
#
# Stress axis : x y z
#
# Youngs Moduli (GPa) = 123.98049 100.54759 81.37827
#
# Poissons Ratio (x) = 0.31876 0.12556
# Poissons Ratio (y) = 0.39305 0.32908
# Poissons Ratio (z) = 0.19129 0.40659
#
# Static dielectric constant tensor:
#      x y z
#    x 1.993770 0.000000 0.003810 
#    y 0.000000 1.928460 0.000000 
#    z 0.003810 0.000000 1.956790 
# 
# From -- ./inp_files/96181.got.cif
#   From: 2010.05.17/outbox.cif.g08.bks.cpg/sg13_49_cif.got.tgz:96181.got - 2010.06.03 16:44:36.
