data_PCOD9237270
_publ_section_title
;
Structure prediction by ZEFSAII (Michael W. Deem and Ramdas Pophale) SiO2 
 PCOD9237270
Probable space group: P 2/C
;
_chemical_formula_sum "Si O2"
_cell_formula_units_Z 28
_cell_length_a 11.637540
_cell_length_b 6.465654
_cell_length_c 19.473313
_cell_angle_alpha 90.000000
_cell_angle_beta 122.441714
_cell_angle_gamma 90.000000
_cell_volume 1236.584576
_symmetry_space_group_name_H-M "P 2/C"
_symmetry_group_IT_number 13
_symmetry_cell_setting 'monoclinic'
loop_
_space_group_symop_operation_xyz
x,y,z
-x,y,1/2-z
-x,-y,-z
x,-y,1/2+z
loop_
_atom_site_type_symbol
_atom_site_label
_atom_site_fract_x
_atom_site_fract_y
_atom_site_fract_z
Si Si1 0.020028 0.032807 0.864948
Si Si2 0.102177 0.327361 0.008401
Si Si3 0.328764 0.549238 0.246273
Si Si4 0.231173 0.338407 0.455874
Si Si5 0.614825 0.233285 0.864374
Si Si6 0.143506 0.402787 0.810904
Si Si7 0.258294 0.121209 0.183359
O O1 0.095321 0.192276 0.835460
O O2 0.110379 0.826436 0.904354
O O3 0.026724 0.158315 0.938212
O O4 0.860932 0.970987 0.805562
O O5 0.170295 0.221091 0.094378
O O6 0.200103 0.455989 0.990036
O O7 0.000000 0.500000 0.000000
O O8 0.301236 0.610969 0.158411
O O9 0.464145 0.670694 0.312643
O O10 0.211150 0.620953 0.258910
O O11 0.338490 0.301454 0.248820
O O12 0.336243 0.223315 0.541098
O O13 0.246189 0.450081 0.386836
O O14 0.642512 0.028157 0.828346
O O15 0.000000 0.515433 0.750000
#
# Coordination Sequence:
#
# PCOD9237270 Si02
#       7
#     4   4   4   4   4   4   4
#     4  11  23  38  70 108 139 181 231 291 353 425
#     4  11  20  34  66 108 139 171 227 294 353 412
#     4  11  27  47  69 100 149 188 236 299 353 423
#     4  11  22  42  70 103 142 186 236 289 349 423
#     4  11  25  46  71 103 135 186 255 295 339 425
#     4  11  26  45  67 103 149 186 226 293 365 431
#     4  12  22  41  76 103 142 185 234 298 361 413
#
# _framework density 22.643011000000001
#
# number of rings (size 3 to 8) (size 9 to 14) (size 15 to 20)
#    0.000    0.857    4.286    3.000    2.000    5.714 
#    0.000    0.714    0.000    0.000    0.000    0.000 
#    0.000    0.000    0.000    0.000    0.000    0.000 
#
# Total GULP energy -156095.981353 kJ/mol
# GULP energy per Si atom -5574.856477 kJ/mol
# Density = 2.259147 g / cm^3
# Si number density = 22.643011 Si / 1000 Ang^3
#
#
#
# Elastic Constant Matrix: (Units=GPa)
#
#
# Indices 1 2 3 4 5 6 
#
# 1 90.6324 29.1177 20.6189 0.0000 4.1856 0.0000
# 2 29.1177 123.1574 24.9917 0.0000 13.0965 0.0000
# 3 20.6189 24.9917 88.9619 0.0000 7.3115 0.0000
# 4 0.0000 0.0000 0.0000 45.2354 0.0000 -9.1591
# 5 4.1856 13.0965 7.3115 0.0000 29.1930 0.0000
# 6 0.0000 0.0000 0.0000 -9.1591 0.0000 46.3189
#
#
#
# Elastic Compliance Matrix: (Units=1/GPa)
#
#
# Indices 1 2 3 4 5 6 
#
# 1 0.012320 -0.002463 -0.002154 0.000000 -0.000122 0.000000
# 2 -0.002463 0.009431 -0.001797 0.000000 -0.003428 0.000000
# 3 -0.002154 -0.001797 0.012408 0.000000 -0.001993 0.000000
# 4 0.000000 0.000000 0.000000 0.023029 0.000000 0.004554
# 5 -0.000122 -0.003428 -0.001993 0.000000 0.036309 0.000000
# 6 0.000000 0.000000 0.000000 0.004554 0.000000 0.022490
#
#
# Mechanical properties :
#
#
# Convention : Reuss Voigt Hill
#
# Bulk Modulus (GPa) = 46.87509 50.24537 48.56023
# Shear Modulus (GPa) = 36.78484 39.35102 38.06793
#
# Velocity S-wave (km/s) = 4.03495 4.17332 4.10472
# Velocity P-wave (km/s) = 6.51571 6.74244 6.63005
#
# Compressibility (1/GPa) = 0.02133329
#
# Stress axis : x y z
#
# Youngs Moduli (GPa) = 81.16607 106.03194 80.58994
#
# Poissons Ratio (x) = 0.26114 0.17356
# Poissons Ratio (y) = 0.19990 0.14481
# Poissons Ratio (z) = 0.17480 0.19053
#
# Static dielectric constant tensor:
#      x y z
#    x 1.865930 0.000000 0.016780 
#    y 0.000000 1.883090 0.000000 
#    z 0.016780 0.000000 1.903010 
# 
# From -- ./inp_files/77595.got.cif
#   From: 2010.05.17/outbox.cif.g08.bks.cpg/sg13_39_cif.got.tgz:77595.got - 2010.06.03 16:44:36.
