data_PCOD9237469
_publ_section_title
;
Structure prediction by ZEFSAII (Michael W. Deem and Ramdas Pophale) SiO2 
 PCOD9237469
Probable space group: P 2/C
;
_chemical_formula_sum "Si O2"
_cell_formula_units_Z 28
_cell_length_a 7.416149
_cell_length_b 6.924681
_cell_length_c 27.864645
_cell_angle_alpha 90.000000
_cell_angle_beta 87.993751
_cell_angle_gamma 90.000000
_cell_volume 1430.096800
_symmetry_space_group_name_H-M "P 2/C"
_symmetry_group_IT_number 13
_symmetry_cell_setting 'monoclinic'
loop_
_space_group_symop_operation_xyz
x,y,z
-x,y,1/2-z
-x,-y,-z
x,-y,1/2+z
loop_
_atom_site_type_symbol
_atom_site_label
_atom_site_fract_x
_atom_site_fract_y
_atom_site_fract_z
Si Si1 0.904064 0.909700 0.954128
Si Si2 0.500000 0.011601 0.250000
Si Si3 0.857129 0.570337 0.592060
Si Si4 0.297092 0.438242 0.007361
Si Si5 0.654316 0.661881 0.306126
Si Si6 0.671758 0.647836 0.688840
Si Si7 0.000000 0.482154 0.250000
Si Si8 0.832140 0.698693 0.403325
O O1 0.031970 0.758311 0.925537
O O2 0.854967 0.081692 0.919031
O O3 0.738778 0.779003 0.974630
O O4 0.000000 0.000000 0.000000
O O5 0.402089 0.153793 0.288342
O O6 0.617178 0.865791 0.281074
O O7 0.790477 0.474025 0.543473
O O8 0.709279 0.636737 0.631763
O O9 0.983886 0.406944 0.614821
O O10 0.500000 0.500000 0.000000
O O11 0.216418 0.579235 0.048443
O O12 0.482487 0.517215 0.300507
O O13 0.687470 0.679758 0.362602
O O14 0.843185 0.589483 0.281644
O O15 0.866509 0.622430 0.713223
#
# Coordination Sequence:
#
# PCOD9237469 Si02
#       8
#     4   2   4   4   4   4   2   4
#     4  11  21  42  66  96 136 179 233 277 333 418
#     4  12  26  48  72 106 144 174 240 304 342 424
#     4  11  23  41  72  98 132 189 227 278 353 413
#     4  11  23  41  64  97 140 178 220 285 348 405
#     4  12  26  47  71 105 139 183 233 295 352 415
#     4  12  26  48  72 104 143 179 236 292 349 428
#     4  12  22  48  76  90 142 190 216 288 368 402
#     4  11  23  42  71  97 134 184 231 281 343 418
#
# _framework density 19.579096
#
# number of rings (size 3 to 8) (size 9 to 14) (size 15 to 20)
#    0.000    0.571    7.143    1.714    0.000    8.000 
#    2.571    0.000    0.000    0.000    0.000    0.000 
#    0.000    0.000    0.000    0.000    0.000    0.000 
#
# Total GULP energy -156191.196993 kJ/mol
# GULP energy per Si atom -5578.257035 kJ/mol
# Density = 1.953453 g / cm^3
# Si number density = 19.579096 Si / 1000 Ang^3
#
#
#
# Elastic Constant Matrix: (Units=GPa)
#
#
# Indices 1 2 3 4 5 6 
#
# 1 95.5002 41.0365 16.7062 0.0000 -7.3473 0.0000
# 2 41.0365 118.7097 21.6911 0.0000 -6.1518 0.0000
# 3 16.7062 21.6911 103.3271 0.0000 -1.0042 0.0000
# 4 0.0000 0.0000 0.0000 26.4902 0.0000 4.5939
# 5 -7.3473 -6.1518 -1.0042 0.0000 45.8519 0.0000
# 6 0.0000 0.0000 0.0000 4.5939 0.0000 25.6632
#
#
#
# Elastic Compliance Matrix: (Units=1/GPa)
#
#
# Indices 1 2 3 4 5 6 
#
# 1 0.012522 -0.004042 -0.001162 0.000000 0.001439 0.000000
# 2 -0.004042 0.010124 -0.001465 0.000000 0.000679 0.000000
# 3 -0.001162 -0.001465 0.010172 0.000000 -0.000160 0.000000
# 4 0.000000 0.000000 0.000000 0.038959 0.000000 -0.006974
# 5 0.001439 0.000679 -0.000160 0.000000 0.022127 0.000000
# 6 0.000000 0.000000 0.000000 -0.006974 0.000000 0.040215
#
#
# Mechanical properties :
#
#
# Convention : Reuss Voigt Hill
#
# Bulk Modulus (GPa) = 51.33566 52.93384 52.13475
# Shear Modulus (GPa) = 32.47795 35.47461 33.97628
#
# Velocity S-wave (km/s) = 4.07726 4.26121 4.17025
# Velocity P-wave (km/s) = 6.96003 7.16276 7.06212
#
# Compressibility (1/GPa) = 0.01947964
#
# Stress axis : x y z
#
# Youngs Moduli (GPa) = 79.85995 98.77519 98.30972
#
# Poissons Ratio (x) = 0.39923 0.11425
# Poissons Ratio (y) = 0.32278 0.14405
# Poissons Ratio (z) = 0.09281 0.14473
#
# Static dielectric constant tensor:
#      x y z
#    x 1.690970 0.000000 0.001140 
#    y 0.000000 1.661900 0.000000 
#    z 0.001140 0.000000 1.746650 
# 
# From -- ./inp_files/90815.got.cif
#   From: 2010.05.17/outbox.cif.g08.bks.cpg/sg13_46_cif.got.tgz:90815.got - 2010.06.03 16:44:36.
