data_PCOD9237354
_publ_section_title
;
Structure prediction by ZEFSAII (Michael W. Deem and Ramdas Pophale) SiO2 
 PCOD9237354
Probable space group: P 2/C
;
_chemical_formula_sum "Si O2"
_cell_formula_units_Z 24
_cell_length_a 16.929305
_cell_length_b 11.865787
_cell_length_c 11.941217
_cell_angle_alpha 90.000000
_cell_angle_beta 34.016566
_cell_angle_gamma 90.000000
_cell_volume 1341.936679
_symmetry_space_group_name_H-M "P 2/C"
_symmetry_group_IT_number 13
_symmetry_cell_setting 'monoclinic'
loop_
_space_group_symop_operation_xyz
x,y,z
-x,y,1/2-z
-x,-y,-z
x,-y,1/2+z
loop_
_atom_site_type_symbol
_atom_site_label
_atom_site_fract_x
_atom_site_fract_y
_atom_site_fract_z
Si Si1 0.338477 0.679814 0.479065
Si Si2 0.330533 0.581960 0.939809
Si Si3 0.616506 0.267005 0.319174
Si Si4 0.343868 0.939661 0.894963
Si Si5 0.712570 0.232835 0.841648
Si Si6 0.163675 0.845631 0.533494
O O1 0.500000 0.699195 0.250000
O O2 0.307528 0.548099 0.492623
O O3 0.332896 0.718088 0.614345
O O4 0.229978 0.751237 0.535089
O O5 0.500000 0.602503 0.750000
O O6 0.311877 0.632253 0.837499
O O7 0.251467 0.659263 0.123668
O O8 0.649146 0.152314 0.213167
O O9 0.444493 0.264413 0.520438
O O10 0.500000 0.979601 0.750000
O O11 0.293435 0.870435 0.063394
O O12 0.249317 0.041318 0.963545
O O13 0.807540 0.196322 0.626618
O O14 0.000000 0.862337 0.750000
#
# Coordination Sequence:
#
# PCOD9237354 Si02
#       6
#     4   4   4   4   4   4
#     4  11  21  34  62  89 113 146 187 228 281 329
#     4   8  18  33  60  91 113 143 178 235 286 326
#     4   9  18  36  60  91 113 137 188 236 280 333
#     4   9  21  39  62  82 108 150 187 233 285 329
#     4   9  19  38  59  83 117 143 183 236 282 328
#     4  12  26  38  53  82 118 151 190 233 276 329
#
# _framework density 17.884599000000001
#
# number of rings (size 3 to 8) (size 9 to 14) (size 15 to 20)
#    0.000    2.333    1.667    2.500    4.667    4.000 
#    0.000    0.833    0.000    0.000    0.000    0.000 
#    0.000    0.000    0.000    0.000    0.000    0.000 
#
# Total GULP energy -133737.785704 kJ/mol
# GULP energy per Si atom -5572.407738 kJ/mol
# Density = 1.784389 g / cm^3
# Si number density = 17.884599 Si / 1000 Ang^3
#
#
#
# Elastic Constant Matrix: (Units=GPa)
#
#
# Indices 1 2 3 4 5 6 
#
# 1 81.3214 45.2742 66.3700 0.0000 25.9676 0.0000
# 2 45.2742 58.7345 56.6386 0.0000 3.4173 0.0000
# 3 66.3700 56.6386 103.7954 0.0000 19.8165 0.0000
# 4 0.0000 0.0000 0.0000 -0.9665 0.0000 9.8565
# 5 25.9676 3.4173 19.8165 0.0000 29.1589 0.0000
# 6 0.0000 0.0000 0.0000 9.8565 0.0000 -15.2411
#
#
#
# Elastic Compliance Matrix: (Units=1/GPa)
#
#
# Indices 1 2 3 4 5 6 
#
# 1 0.039370 -0.019834 -0.009310 0.000000 -0.026410 0.000000
# 2 -0.019834 0.048944 -0.018733 0.000000 0.024658 0.000000
# 3 -0.009310 -0.018733 0.027357 0.000000 -0.008106 0.000000
# 4 0.000000 0.000000 0.000000 0.184919 0.000000 0.119588
# 5 -0.026410 0.024658 -0.008106 0.000000 0.060433 0.000000
# 6 0.000000 0.000000 0.000000 0.119588 0.000000 0.011726
#
#
# Mechanical properties :
#
#
# Convention : Reuss Voigt Hill
#
# Bulk Modulus (GPa) = 50.20439 64.49076 57.34757
# Shear Modulus (GPa) = 10.52321 7.62817 9.07569
#
# Velocity S-wave (km/s) = 2.42832 2.06748 2.25513
# Velocity P-wave (km/s) = 5.99954 6.46815 6.23825
#
# Compressibility (1/GPa) = 0.01991858
#
# Stress axis : x y z
#
# Youngs Moduli (GPa) = 25.40002 20.43153 36.55397
#
# Poissons Ratio (x) = 0.40523 0.34030
# Poissons Ratio (y) = 0.50377 0.68476
# Poissons Ratio (z) = 0.23646 0.38274
#
# Static dielectric constant tensor:
#      x y z
#    x 1.598060 0.000000 0.017210 
#    y 0.000000 1.621400 0.000000 
#    z 0.017210 0.000000 1.606390 
# 
# From -- ./inp_files/29432.got.cif
#   From: 2010.05.17/outbox.cif.g08.bks.cpg/sg13_15_cif.got.tgz:29432.got - 2010.06.03 16:44:36.
