data_PCOD9237476
_publ_section_title
;
Structure prediction by ZEFSAII (Michael W. Deem and Ramdas Pophale) SiO2 
 PCOD9237476
Probable space group: P 2/C
;
_chemical_formula_sum "Si O2"
_cell_formula_units_Z 28
_cell_length_a 9.048854
_cell_length_b 8.889150
_cell_length_c 16.052237
_cell_angle_alpha 90.000000
_cell_angle_beta 94.401206
_cell_angle_gamma 90.000000
_cell_volume 1287.380161
_symmetry_space_group_name_H-M "P 2/C"
_symmetry_group_IT_number 13
_symmetry_cell_setting 'monoclinic'
loop_
_space_group_symop_operation_xyz
x,y,z
-x,y,1/2-z
-x,-y,-z
x,-y,1/2+z
loop_
_atom_site_type_symbol
_atom_site_label
_atom_site_fract_x
_atom_site_fract_y
_atom_site_fract_z
Si Si1 0.971098 0.161947 0.403946
Si Si2 0.276932 0.978350 0.898698
Si Si3 0.749717 0.702199 0.021403
Si Si4 0.000000 0.385689 0.250000
Si Si5 0.489361 0.263840 0.119137
Si Si6 0.710302 0.524077 0.178170
Si Si7 0.500000 0.230074 0.750000
Si Si8 0.292058 0.024195 0.199609
O O1 0.893765 0.250980 0.475304
O O2 0.855342 0.039010 0.361608
O O3 0.126098 0.085540 0.431185
O O4 0.999181 0.278947 0.330346
O O5 0.410640 0.864057 0.920043
O O6 0.258055 0.980071 0.796813
O O7 0.300122 0.143806 0.935074
O O8 0.771097 0.574990 0.090864
O O9 0.620859 0.659260 0.951104
O O10 0.149758 0.482289 0.259316
O O11 0.600658 0.383460 0.163100
O O12 0.384481 0.172800 0.178468
O O13 0.614130 0.661288 0.208875
O O14 0.599431 0.117224 0.810515
#
# Coordination Sequence:
#
# PCOD9237476 Si02
#       8
#     4   4   4   2   4   4   2   4
#     4  11  24  43  75 100 134 190 236 282 348 418
#     4  12  20  43  68 102 137 176 239 289 333 416
#     4  11  26  43  65 105 145 180 228 291 357 403
#     4  12  26  46  72 102 134 194 234 282 344 430
#     4  11  23  42  73  97 140 188 231 282 347 427
#     4  12  27  46  67 104 145 181 232 289 353 421
#     4  12  26  40  70 104 140 176 230 298 342 398
#     4  11  21  42  70 102 135 177 239 292 334 406
#
# _framework density 21.749599
#
# number of rings (size 3 to 8) (size 9 to 14) (size 15 to 20)
#    0.000    0.571    5.714    1.286    6.000    2.857 
#    0.000    0.000    0.000    0.000    0.000    0.000 
#    0.000    0.000    0.000    0.000    0.000    0.000 
#
# Total GULP energy -156708.584050 kJ/mol
# GULP energy per Si atom -5596.735145 kJ/mol
# Density = 2.170010 g / cm^3
# Si number density = 21.749599 Si / 1000 Ang^3
#
#
#
# Elastic Constant Matrix: (Units=GPa)
#
#
# Indices 1 2 3 4 5 6 
#
# 1 94.6826 15.9228 9.5041 0.0000 -3.3456 0.0000
# 2 15.9228 81.1827 12.3963 0.0000 -9.2821 0.0000
# 3 9.5041 12.3963 49.9747 0.0000 -8.2766 0.0000
# 4 0.0000 0.0000 0.0000 20.4944 0.0000 -2.8930
# 5 -3.3456 -9.2821 -8.2766 0.0000 26.7099 0.0000
# 6 0.0000 0.0000 0.0000 -2.8930 0.0000 27.9722
#
#
#
# Elastic Compliance Matrix: (Units=1/GPa)
#
#
# Indices 1 2 3 4 5 6 
#
# 1 0.011049 -0.001897 -0.001592 0.000000 0.000231 0.000000
# 2 -0.001897 0.013476 -0.002367 0.000000 0.003712 0.000000
# 3 -0.001592 -0.002367 0.021852 0.000000 0.005749 0.000000
# 4 0.000000 0.000000 0.000000 0.049517 0.000000 0.005121
# 5 0.000231 0.003712 0.005749 0.000000 0.040540 0.000000
# 6 0.000000 0.000000 0.000000 0.005121 0.000000 0.036279
#
#
# Mechanical properties :
#
#
# Convention : Reuss Voigt Hill
#
# Bulk Modulus (GPa) = 28.84903 33.49846 31.17375
# Shear Modulus (GPa) = 25.51272 27.56978 26.54125
#
# Velocity S-wave (km/s) = 3.42865 3.56420 3.49708
# Velocity P-wave (km/s) = 5.38212 5.68976 5.53807
#
# Compressibility (1/GPa) = 0.03466321
#
# Stress axis : x y z
#
# Youngs Moduli (GPa) = 90.50839 74.20650 45.76181
#
# Poissons Ratio (x) = 0.14081 0.07287
# Poissons Ratio (y) = 0.17174 0.10832
# Poissons Ratio (z) = 0.14411 0.17565
#
# Static dielectric constant tensor:
#      x y z
#    x 1.789990 0.000000 -0.024390 
#    y 0.000000 1.761340 0.000000 
#    z -0.024390 0.000000 1.821140 
# 
# From -- ./inp_files/63844.got.cif
#   From: 2010.05.17/outbox.cif.g08.bks.cpg/sg13_32_cif.got.tgz:63844.got - 2010.06.03 16:44:36.
