data_PCOD9237366
_publ_section_title
;
Structure prediction by ZEFSAII (Michael W. Deem and Ramdas Pophale) SiO2 
 PCOD9237366
Probable space group: P 2/C
;
_chemical_formula_sum "Si O2"
_cell_formula_units_Z 24
_cell_length_a 9.953567
_cell_length_b 14.777476
_cell_length_c 7.853478
_cell_angle_alpha 90.000000
_cell_angle_beta 75.135146
_cell_angle_gamma 90.000000
_cell_volume 1116.498146
_symmetry_space_group_name_H-M "P 2/C"
_symmetry_group_IT_number 13
_symmetry_cell_setting 'monoclinic'
loop_
_space_group_symop_operation_xyz
x,y,z
-x,y,1/2-z
-x,-y,-z
x,-y,1/2+z
loop_
_atom_site_type_symbol
_atom_site_label
_atom_site_fract_x
_atom_site_fract_y
_atom_site_fract_z
Si Si1 0.153013 0.312522 0.654819
Si Si2 0.158124 0.023970 0.184020
Si Si3 0.547862 0.779237 0.994719
Si Si4 0.757390 0.858766 0.162165
Si Si5 0.729581 0.821189 0.624043
Si Si6 0.443190 0.596999 0.964390
O O1 0.190908 0.240010 0.793201
O O2 0.153711 0.242336 0.495923
O O3 0.278434 0.382171 0.560491
O O4 0.000000 0.350117 0.750000
O O5 0.211211 0.085440 0.323884
O O6 0.000000 0.995765 0.250000
O O7 0.240066 0.929966 0.182744
O O8 0.165200 0.087095 0.014668
O O9 0.667724 0.776324 0.814232
O O10 0.407862 0.817146 0.952139
O O11 0.514940 0.676511 0.049225
O O12 0.611745 0.839586 0.120290
O O13 0.500000 0.610117 0.750000
O O14 0.500000 0.500000 0.000000
#
# Coordination Sequence:
#
# PCOD9237366 Si02
#       6
#     4   4   4   4   4   4
#     4  11  22  41  67 101 136 174 219 282 334 396
#     4  11  21  36  56  90 137 188 228 272 328 392
#     4   9  19  40  62  92 123 174 224 272 328 401
#     4  11  23  35  61  94 133 180 232 275 328 391
#     4   9  18  37  62  84 129 178 227 267 321 381
#     4  11  24  45  76  96 127 172 216 274 344 425
#
# _framework density 21.49578
#
# number of rings (size 3 to 8) (size 9 to 14) (size 15 to 20)
#    0.000    1.667    3.333    3.000    2.333    2.667 
#    0.000    9.167    0.000    0.000    0.000    0.000 
#    0.000    0.000    0.000    0.000    0.000    0.000 
#
# Total GULP energy -133634.792372 kJ/mol
# GULP energy per Si atom -5568.116349 kJ/mol
# Density = 2.144685 g / cm^3
# Si number density = 21.495780 Si / 1000 Ang^3
#
#
#
# Elastic Constant Matrix: (Units=GPa)
#
#
# Indices 1 2 3 4 5 6 
#
# 1 78.2357 51.1700 62.5096 0.0000 -18.4686 0.0000
# 2 51.1700 115.3403 26.4999 0.0000 -4.0986 0.0000
# 3 62.5096 26.4999 120.5891 0.0000 -13.1242 0.0000
# 4 0.0000 0.0000 0.0000 21.5113 0.0000 5.1762
# 5 -18.4686 -4.0986 -13.1242 0.0000 43.5484 0.0000
# 6 0.0000 0.0000 0.0000 5.1762 0.0000 21.6209
#
#
#
# Elastic Compliance Matrix: (Units=1/GPa)
#
#
# Indices 1 2 3 4 5 6 
#
# 1 0.033298 -0.011283 -0.013813 0.000000 0.008897 0.000000
# 2 -0.011283 0.012957 0.002702 0.000000 -0.002751 0.000000
# 3 -0.013813 0.002702 0.014732 0.000000 -0.001164 0.000000
# 4 0.000000 0.000000 0.000000 0.049329 0.000000 -0.011810
# 5 0.008897 -0.002751 -0.001164 0.000000 0.026126 0.000000
# 6 0.000000 0.000000 0.000000 -0.011810 0.000000 0.049079
#
#
# Mechanical properties :
#
#
# Convention : Reuss Voigt Hill
#
# Bulk Modulus (GPa) = 61.72939 66.05824 63.89382
# Shear Modulus (GPa) = 21.21259 28.93514 25.07386
#
# Velocity S-wave (km/s) = 3.14479 3.67288 3.41905
# Velocity P-wave (km/s) = 6.47808 6.98457 6.73609
#
# Compressibility (1/GPa) = 0.01619974
#
# Stress axis : x y z
#
# Youngs Moduli (GPa) = 30.03192 77.17859 67.87755
#
# Poissons Ratio (x) = 0.87078 0.93759
# Poissons Ratio (y) = 0.33884 -0.18339
# Poissons Ratio (z) = 0.41483 -0.20852
#
# Static dielectric constant tensor:
#      x y z
#    x 1.774860 0.000000 0.009150 
#    y 0.000000 1.779110 0.000000 
#    z 0.009150 0.000000 2.057100 
# 
# From -- ./inp_files/16251.got.cif
#   From: 2010.05.17/outbox.cif.g08.bks.cpg/sg13_9_cif.got.tgz:16251.got - 2010.06.03 16:44:36.
