data_PCOD9237016
_publ_section_title
;
Structure prediction by ZEFSAII (Michael W. Deem and Ramdas Pophale) SiO2 
 PCOD9237016
Probable space group: P 2/C
;
_chemical_formula_sum "Si O2"
_cell_formula_units_Z 16
_cell_length_a 9.431002
_cell_length_b 6.975750
_cell_length_c 9.284339
_cell_angle_alpha 90.000000
_cell_angle_beta 84.092486
_cell_angle_gamma 90.000000
_cell_volume 607.557229
_symmetry_space_group_name_H-M "P 2/C"
_symmetry_group_IT_number 13
_symmetry_cell_setting 'monoclinic'
loop_
_space_group_symop_operation_xyz
x,y,z
-x,y,1/2-z
-x,-y,-z
x,-y,1/2+z
loop_
_atom_site_type_symbol
_atom_site_label
_atom_site_fract_x
_atom_site_fract_y
_atom_site_fract_z
Si Si1 0.000000 0.495654 0.250000
Si Si2 0.723380 0.388205 0.433461
Si Si3 0.139586 0.229458 0.551248
Si Si4 0.242549 0.054875 0.839769
Si Si5 0.500000 0.774238 0.750000
O O1 0.859214 0.379213 0.306836
O O2 0.998693 0.648157 0.383735
O O3 0.581612 0.356003 0.357074
O O4 0.747761 0.600611 0.492905
O O5 0.725979 0.230544 0.557128
O O6 0.199662 0.121390 0.685385
O O7 0.124562 0.081415 0.425285
O O8 0.380916 0.920212 0.821804
#
# Coordination Sequence:
#
# PCOD9237016 Si02
#       5
#     2   4   4   4   2
#     4   8  24  52  70 116 138 212 240 300 392 428
#     4  10  25  49  73 108 156 191 249 305 373 448
#     4  10  26  47  77 111 146 203 240 313 371 447
#     4  12  25  48  75 114 150 194 257 303 376 445
#     4  12  26  48  74 114 146 206 242 314 370 446
#
# _framework density 26.334966999999999
#
# number of rings (size 3 to 8) (size 9 to 14) (size 15 to 20)
#    1.500    0.000    2.500    0.750    3.500    5.000 
#    4.500    0.000    0.000    0.000    0.000    0.000 
#    0.000    0.000    0.000    0.000    0.000    0.000 
#
# Total GULP energy -89567.524274 kJ/mol
# GULP energy per Si atom -5597.970267 kJ/mol
# Density = 2.627503 g / cm^3
# Si number density = 26.334967 Si / 1000 Ang^3
#
#
#
# Elastic Constant Matrix: (Units=GPa)
#
#
# Indices 1 2 3 4 5 6 
#
# 1 90.5678 0.0152 10.4250 0.0000 -7.9397 0.0000
# 2 0.0152 129.4337 65.8551 0.0000 12.6130 0.0000
# 3 10.4250 65.8551 91.4072 0.0000 9.4693 0.0000
# 4 0.0000 0.0000 0.0000 29.5697 0.0000 -50.4564
# 5 -7.9397 12.6130 9.4693 0.0000 58.6798 0.0000
# 6 0.0000 0.0000 0.0000 -50.4564 0.0000 2.6915
#
#
#
# Elastic Compliance Matrix: (Units=1/GPa)
#
#
# Indices 1 2 3 4 5 6 
#
# 1 0.011437 0.000926 -0.002147 0.000000 0.001695 0.000000
# 2 0.000926 0.012359 -0.008896 0.000000 -0.001096 0.000000
# 3 -0.002147 -0.008896 0.017723 0.000000 -0.001238 0.000000
# 4 0.000000 0.000000 0.000000 -0.001091 0.000000 -0.020459
# 5 0.001695 -0.001096 -0.001238 0.000000 0.017706 0.000000
# 6 0.000000 0.000000 0.000000 -0.020459 0.000000 -0.011990
#
#
# Mechanical properties :
#
#
# Convention : Reuss Voigt Hill
#
# Bulk Modulus (GPa) = 46.98410 51.55548 49.26979
# Shear Modulus (GPa) = 68.05206 33.86242 50.95724
#
# Velocity S-wave (km/s) = 5.08891 3.58974 4.40360
# Velocity P-wave (km/s) = 7.23941 6.06638 6.67870
#
# Compressibility (1/GPa) = 0.02128379
#
# Stress axis : x y z
#
# Youngs Moduli (GPa) = 87.43535 80.91295 56.42529
#
# Poissons Ratio (x) = -0.07492 0.12115
# Poissons Ratio (y) = -0.08096 0.50197
# Poissons Ratio (z) = 0.18773 0.71982
#
# Static dielectric constant tensor:
#      x y z
#    x 2.032540 0.000000 -0.086000 
#    y 0.000000 2.068290 0.000000 
#    z -0.086000 0.000000 2.122590 
# 
# From -- ./inp_files/14302.got.cif
#   From: 2010.05.17/outbox.cif.g08.bks.cpg/sg13_8_cif.got.tgz:14302.got - 2010.06.03 16:44:36.
