data_PCOD9237440
_publ_section_title
;
Structure prediction by ZEFSAII (Michael W. Deem and Ramdas Pophale) SiO2 
 PCOD9237440
Probable space group: P 2/C
;
_chemical_formula_sum "Si O2"
_cell_formula_units_Z 24
_cell_length_a 9.855964
_cell_length_b 11.717726
_cell_length_c 25.331450
_cell_angle_alpha 90.000000
_cell_angle_beta 156.359909
_cell_angle_gamma 90.000000
_cell_volume 1173.103099
_symmetry_space_group_name_H-M "P 2/C"
_symmetry_group_IT_number 13
_symmetry_cell_setting 'monoclinic'
loop_
_space_group_symop_operation_xyz
x,y,z
-x,y,1/2-z
-x,-y,-z
x,-y,1/2+z
loop_
_atom_site_type_symbol
_atom_site_label
_atom_site_fract_x
_atom_site_fract_y
_atom_site_fract_z
Si Si1 0.966647 0.597810 0.298592
Si Si2 0.787303 0.616921 0.425180
Si Si3 0.095045 0.034805 0.594495
Si Si4 0.101822 0.786959 0.622367
Si Si5 0.109655 0.663486 0.733432
Si Si6 0.161482 0.719218 0.469799
O O1 0.585084 0.598138 0.184914
O O2 0.050848 0.462874 0.327649
O O3 0.000000 0.638271 0.250000
O O4 0.170532 0.674138 0.413127
O O5 0.000000 0.500000 0.500000
O O6 0.935157 0.714283 0.516422
O O7 0.843399 0.664629 0.386662
O O8 0.500000 0.054783 0.750000
O O9 0.888474 0.145603 0.539831
O O10 0.998279 0.918466 0.589554
O O11 0.000000 0.000000 0.500000
O O12 0.500000 0.786588 0.750000
O O13 0.025126 0.727413 0.650063
O O14 0.000000 0.717073 0.750000
O O15 0.515194 0.669073 0.884210
#
# Coordination Sequence:
#
# PCOD9237440 Si02
#       6
#     4   4   4   4   4   4
#     4  11  26  41  63  95 135 174 210 270 338 393
#     4  12  21  38  66  96 125 161 217 271 314 382
#     4  11  22  41  68 100 133 171 221 280 337 387
#     4  11  21  40  66  94 126 166 219 267 324 384
#     4  11  25  43  64  92 133 176 213 267 337 401
#     4  12  23  43  66  97 128 169 226 271 324 396
#
# _framework density 20.458559999999999
#
# number of rings (size 3 to 8) (size 9 to 14) (size 15 to 20)
#    0.000    0.667    5.000    3.500    2.333    1.333 
#    0.000    1.667    0.000    0.000    0.000    0.000 
#    0.000    0.000    0.000    0.000    0.000    0.000 
#
# Total GULP energy -133978.380197 kJ/mol
# GULP energy per Si atom -5582.432508 kJ/mol
# Density = 2.041200 g / cm^3
# Si number density = 20.458560 Si / 1000 Ang^3
#
#
#
# Elastic Constant Matrix: (Units=GPa)
#
#
# Indices 1 2 3 4 5 6 
#
# 1 134.3898 27.7591 3.5804 0.0000 -29.4928 0.0000
# 2 27.7591 123.2973 8.6689 0.0000 -26.2803 0.0000
# 3 3.5804 8.6689 51.1359 0.0000 -11.8092 0.0000
# 4 0.0000 0.0000 0.0000 12.0235 0.0000 -36.7756
# 5 -29.4928 -26.2803 -11.8092 0.0000 40.6855 0.0000
# 6 0.0000 0.0000 0.0000 -36.7756 0.0000 -63.7324
#
#
#
# Elastic Compliance Matrix: (Units=1/GPa)
#
#
# Indices 1 2 3 4 5 6 
#
# 1 0.008948 -0.000742 0.000950 0.000000 0.006283 0.000000
# 2 -0.000742 0.009469 -0.000284 0.000000 0.005496 0.000000
# 3 0.000950 -0.000284 0.021066 0.000000 0.006620 0.000000
# 4 0.000000 0.000000 0.000000 0.030080 0.000000 -0.017357
# 5 0.006283 0.005496 0.006620 0.000000 0.034604 0.000000
# 6 0.000000 0.000000 0.000000 -0.017357 0.000000 -0.005675
#
#
# Mechanical properties :
#
#
# Convention : Reuss Voigt Hill
#
# Bulk Modulus (GPa) = 25.42538 43.20442 34.31490
# Shear Modulus (GPa) = 44.74060 15.71631 30.22845
#
# Velocity S-wave (km/s) = 4.68149 2.77465 3.84806
# Velocity P-wave (km/s) = 6.45574 5.60614 6.04588
#
# Compressibility (1/GPa) = 0.03933078
#
# Stress axis : x y z
#
# Youngs Moduli (GPa) = 111.75937 105.60799 47.46958
#
# Poissons Ratio (x) = 0.07838 -0.04511
# Poissons Ratio (y) = 0.08295 0.01349
# Poissons Ratio (z) = -0.10620 0.03000
#
# Static dielectric constant tensor:
#      x y z
#    x 1.739990 0.000000 0.022950 
#    y 0.000000 1.741440 0.000000 
#    z 0.022950 0.000000 1.797600 
# 
# From -- ./inp_files/80203.got.cif
#   From: 2010.05.17/outbox.cif.g08.bks.cpg/sg13_41_cif.got.tgz:80203.got - 2010.06.03 16:44:36.
