data_PCOD9237925
_publ_section_title
;
Structure prediction by ZEFSAII (Michael W. Deem and Ramdas Pophale) SiO2 
 PCOD9237925
Probable space group: P 2/C
;
_chemical_formula_sum "Si O2"
_cell_formula_units_Z 22
_cell_length_a 10.753095
_cell_length_b 6.186979
_cell_length_c 12.995933
_cell_angle_alpha 90.000000
_cell_angle_beta 93.762090
_cell_angle_gamma 90.000000
_cell_volume 862.745529
_symmetry_space_group_name_H-M "P 2/C"
_symmetry_group_IT_number 13
_symmetry_cell_setting 'monoclinic'
loop_
_space_group_symop_operation_xyz
x,y,z
-x,y,1/2-z
-x,-y,-z
x,-y,1/2+z
loop_
_atom_site_type_symbol
_atom_site_label
_atom_site_fract_x
_atom_site_fract_y
_atom_site_fract_z
Si Si1 0.500000 0.144089 0.250000
Si Si2 0.837521 0.705833 0.489113
Si Si3 0.101856 0.971342 0.187860
Si Si4 0.799428 0.614023 0.144542
Si Si5 0.629548 0.029494 0.568170
Si Si6 0.283648 0.364051 0.168281
O O1 0.407092 0.003884 0.313907
O O2 0.425340 0.292377 0.166366
O O3 0.927814 0.845543 0.420208
O O4 0.886121 0.540325 0.578774
O O5 0.734627 0.861521 0.535575
O O6 0.764206 0.552858 0.405910
O O7 0.139834 0.792416 0.276440
O O8 0.000000 0.097441 0.250000
O O9 0.202194 0.147054 0.158735
O O10 0.728775 0.454154 0.217034
O O11 0.699977 0.740991 0.068715
O O12 0.500000 0.000000 0.500000
#
# Coordination Sequence:
#
# PCOD9237925 Si02
#       6
#     2   4   4   4   4   4
#     4  12  22  42  68 100 144 182 224 284 332 412
#     4  11  24  45  68 101 142 176 232 284 346 416
#     4  11  25  48  73 100 138 181 236 293 339 410
#     4  11  23  45  68 102 143 176 232 285 346 406
#     4  12  26  41  68 105 143 186 228 279 340 418
#     4  11  25  42  69 102 139 183 229 278 346 411
#
# _framework density 25.499988999999999
#
# number of rings (size 3 to 8) (size 9 to 14) (size 15 to 20)
#    0.000    0.727    3.636    3.273    5.091    5.091 
#    0.000    6.364    0.000    0.000    0.000    0.000 
#    0.000    0.000    0.000    0.000    0.000    0.000 
#
# Total GULP energy -123031.022189 kJ/mol
# GULP energy per Si atom -5592.319190 kJ/mol
# Density = 2.544195 g / cm^3
# Si number density = 25.499989 Si / 1000 Ang^3
#
#
#
# Elastic Constant Matrix: (Units=GPa)
#
#
# Indices 1 2 3 4 5 6 
#
# 1 36.6832 12.8777 19.5226 0.0000 -11.2123 0.0000
# 2 12.8777 110.9258 54.6555 0.0000 -4.0811 0.0000
# 3 19.5226 54.6555 124.3803 0.0000 -23.0349 0.0000
# 4 0.0000 0.0000 0.0000 56.5512 0.0000 9.4428
# 5 -11.2123 -4.0811 -23.0349 0.0000 41.0571 0.0000
# 6 0.0000 0.0000 0.0000 9.4428 0.0000 26.9110
#
#
#
# Elastic Compliance Matrix: (Units=1/GPa)
#
#
# Indices 1 2 3 4 5 6 
#
# 1 0.031553 -0.002037 -0.002789 0.000000 0.006850 0.000000
# 2 -0.002037 0.011771 -0.005288 0.000000 -0.002353 0.000000
# 3 -0.002789 -0.005288 0.011788 0.000000 0.005326 0.000000
# 4 0.000000 0.000000 0.000000 0.018784 0.000000 -0.006591
# 5 0.006850 -0.002353 0.005326 0.000000 0.028981 0.000000
# 6 0.000000 0.000000 0.000000 -0.006591 0.000000 0.039472
#
#
# Mechanical properties :
#
#
# Convention : Reuss Voigt Hill
#
# Bulk Modulus (GPa) = 28.66699 49.56675 39.11687
# Shear Modulus (GPa) = 28.70178 37.23277 32.96728
#
# Velocity S-wave (km/s) = 3.35858 3.82528 3.59950
# Velocity P-wave (km/s) = 5.12898 6.24424 5.71388
#
# Compressibility (1/GPa) = 0.03488333
#
# Stress axis : x y z
#
# Youngs Moduli (GPa) = 31.69233 84.95726 84.83311
#
# Poissons Ratio (x) = 0.17305 0.23660
# Poissons Ratio (y) = 0.06455 0.44863
# Poissons Ratio (z) = 0.08839 0.44929
#
# Static dielectric constant tensor:
#      x y z
#    x 2.014460 0.000000 0.022900 
#    y 0.000000 1.964940 0.000000 
#    z 0.022900 0.000000 2.061330 
# 
# From -- ./inp_files/48947.got.cif
#   From: 2010.05.17/outbox.cif.g08.bks.cpg/sg13_25_cif.got.tgz:48947.got - 2010.06.03 16:44:36.
