data_PCOD9237619
_publ_section_title
;
Structure prediction by ZEFSAII (Michael W. Deem and Ramdas Pophale) SiO2 
 PCOD9237619
Probable space group: P 2/C
;
_chemical_formula_sum "Si O2"
_cell_formula_units_Z 24
_cell_length_a 12.403839
_cell_length_b 6.148489
_cell_length_c 15.355841
_cell_angle_alpha 90.000000
_cell_angle_beta 54.265821
_cell_angle_gamma 90.000000
_cell_volume 950.632262
_symmetry_space_group_name_H-M "P 2/C"
_symmetry_group_IT_number 13
_symmetry_cell_setting 'monoclinic'
loop_
_space_group_symop_operation_xyz
x,y,z
-x,y,1/2-z
-x,-y,-z
x,-y,1/2+z
loop_
_atom_site_type_symbol
_atom_site_label
_atom_site_fract_x
_atom_site_fract_y
_atom_site_fract_z
Si Si1 0.542964 0.205393 0.353906
Si Si2 0.138063 0.757444 0.491560
Si Si3 0.000000 0.587895 0.250000
Si Si4 0.500000 0.820302 0.250000
Si Si5 0.239833 0.236265 0.123693
Si Si6 0.312126 0.572794 0.870909
Si Si7 0.090572 0.041788 0.831662
O O1 0.522502 0.965841 0.324950
O O2 0.609964 0.260418 0.413409
O O3 0.652388 0.296090 0.232275
O O4 0.401386 0.321112 0.404197
O O5 0.234400 0.823839 0.525443
O O6 0.164135 0.500971 0.462119
O O7 0.149423 0.882883 0.395510
O O8 0.000404 0.836552 0.598855
O O9 0.866401 0.436483 0.316453
O O10 0.985388 0.753282 0.175260
O O11 0.621141 0.658786 0.179792
O O12 0.186005 0.043471 0.210783
#
# Coordination Sequence:
#
# PCOD9237619 Si02
#       7
#     4   4   2   2   4   4   4
#     4   9  20  37  63  88 126 165 211 256 321 365
#     4  11  22  42  65  91 132 160 213 262 310 377
#     4  12  22  44  64  88 128 168 204 258 328 368
#     4   8  16  38  62  84 124 166 204 256 318 364
#     4  12  23  43  63  93 129 169 206 268 311 380
#     4   9  19  39  59  95 119 167 211 262 304 383
#     4  11  24  44  61  95 128 168 209 260 314 380
#
# _framework density 25.246357
#
# number of rings (size 3 to 8) (size 9 to 14) (size 15 to 20)
#    0.000    2.000    3.333    2.000    0.000    2.667 
#   12.000    0.833    0.000    0.000    0.000    0.000 
#    0.000    0.000    0.000    0.000    0.000    0.000 
#
# Total GULP energy -134063.357832 kJ/mol
# GULP energy per Si atom -5585.973243 kJ/mol
# Density = 2.518889 g / cm^3
# Si number density = 25.246357 Si / 1000 Ang^3
#
#
#
# Elastic Constant Matrix: (Units=GPa)
#
#
# Indices 1 2 3 4 5 6 
#
# 1 105.3943 29.1718 21.8443 0.0000 38.6877 0.0000
# 2 29.1718 95.8774 19.7812 0.0000 -4.0264 0.0000
# 3 21.8443 19.7812 99.8387 0.0000 25.4925 0.0000
# 4 0.0000 0.0000 0.0000 23.1827 0.0000 18.4905
# 5 38.6877 -4.0264 25.4925 0.0000 51.4631 0.0000
# 6 0.0000 0.0000 0.0000 18.4905 0.0000 -20.5111
#
#
#
# Elastic Compliance Matrix: (Units=1/GPa)
#
#
# Indices 1 2 3 4 5 6 
#
# 1 0.015338 -0.005366 0.000868 0.000000 -0.012380 0.000000
# 2 -0.005366 0.012973 -0.003074 0.000000 0.006572 0.000000
# 3 0.000868 -0.003074 0.012207 0.000000 -0.006940 0.000000
# 4 0.000000 0.000000 0.000000 0.025093 0.000000 0.022621
# 5 -0.012380 0.006572 -0.006940 0.000000 0.032691 0.000000
# 6 0.000000 0.000000 0.000000 0.022621 0.000000 -0.028361
#
#
# Mechanical properties :
#
#
# Convention : Reuss Voigt Hill
#
# Bulk Modulus (GPa) = 39.40918 49.18944 44.29931
# Shear Modulus (GPa) = 53.45202 26.18115 39.81658
#
# Velocity S-wave (km/s) = 4.60631 3.22378 3.97561
# Velocity P-wave (km/s) = 6.62832 5.77781 6.21762
#
# Compressibility (1/GPa) = 0.02537480
#
# Stress axis : x y z
#
# Youngs Moduli (GPa) = 65.19799 77.08405 81.91755
#
# Poissons Ratio (x) = 0.41362 -0.07114
# Poissons Ratio (y) = 0.34984 0.25184
# Poissons Ratio (z) = -0.05662 0.23698
#
# Static dielectric constant tensor:
#      x y z
#    x 2.102990 0.000000 -0.087250 
#    y 0.000000 2.019130 0.000000 
#    z -0.087250 0.000000 2.061760 
# 
# From -- ./inp_files/52135.got.cif
#   From: 2010.05.17/outbox.cif.g08.bks.cpg/sg13_27_cif.got.tgz:52135.got - 2010.06.03 16:44:36.
