data_PCOD9237252
_publ_section_title
;
Structure prediction by ZEFSAII (Michael W. Deem and Ramdas Pophale) SiO2 
 PCOD9237252
Probable space group: P 2/C
;
_chemical_formula_sum "Si O2"
_cell_formula_units_Z 22
_cell_length_a 6.739337
_cell_length_b 8.910594
_cell_length_c 20.824305
_cell_angle_alpha 90.000000
_cell_angle_beta 125.709532
_cell_angle_gamma 90.000000
_cell_volume 1015.413936
_symmetry_space_group_name_H-M "P 2/C"
_symmetry_group_IT_number 13
_symmetry_cell_setting 'monoclinic'
loop_
_space_group_symop_operation_xyz
x,y,z
-x,y,1/2-z
-x,-y,-z
x,-y,1/2+z
loop_
_atom_site_type_symbol
_atom_site_label
_atom_site_fract_x
_atom_site_fract_y
_atom_site_fract_z
Si Si1 0.494246 0.024152 0.675967
Si Si2 0.169700 0.256310 0.550150
Si Si3 0.545423 0.497235 0.583383
Si Si4 0.000000 0.830299 0.250000
Si Si5 0.268458 0.298825 0.126622
Si Si6 0.071085 0.425512 0.660304
O O1 0.500000 0.085505 0.750000
O O2 0.271053 0.098883 0.594241
O O3 0.758886 0.064042 0.694074
O O4 0.414329 0.851731 0.668702
O O5 0.419488 0.346796 0.584857
O O6 0.998173 0.262066 0.455172
O O7 0.041226 0.346706 0.584532
O O8 0.500000 0.500000 0.500000
O O9 0.416711 0.627876 0.596620
O O10 0.831750 0.499227 0.645142
O O11 0.900366 0.715850 0.286439
O O12 0.240173 0.430222 0.175112
#
# Coordination Sequence:
#
# PCOD9237252 Si02
#       6
#     4   4   4   2   4   4
#     4  12  27  46  64  97 148 184 224 279 352 421
#     4  11  21  43  72 101 131 178 225 283 349 403
#     4  11  19  39  70 102 131 164 226 287 338 405
#     4  12  26  46  72  94 140 202 234 266 350 436
#     4  11  25  41  72 107 135 168 232 298 345 394
#     4  11  22  42  72  98 128 177 230 281 333 412
#
# _framework density 21.666039999999999
#
# number of rings (size 3 to 8) (size 9 to 14) (size 15 to 20)
#    0.000    0.727    7.273    1.636    0.000    2.909 
#    0.000    1.818    0.000    0.000    0.000    0.000 
#    0.000    0.000    0.000    0.000    0.000    0.000 
#
# Total GULP energy -122593.707662 kJ/mol
# GULP energy per Si atom -5572.441257 kJ/mol
# Density = 2.161673 g / cm^3
# Si number density = 21.666040 Si / 1000 Ang^3
#
#
#
# Elastic Constant Matrix: (Units=GPa)
#
#
# Indices 1 2 3 4 5 6 
#
# 1 129.0228 56.8827 36.8369 0.0000 8.9791 0.0000
# 2 56.8827 128.7176 35.3744 0.0000 10.4359 0.0000
# 3 36.8369 35.3744 63.4829 0.0000 8.7709 0.0000
# 4 0.0000 0.0000 0.0000 23.0512 0.0000 9.0179
# 5 8.9791 10.4359 8.7709 0.0000 36.1865 0.0000
# 6 0.0000 0.0000 0.0000 9.0179 0.0000 20.8299
#
#
#
# Elastic Compliance Matrix: (Units=1/GPa)
#
#
# Indices 1 2 3 4 5 6 
#
# 1 0.010482 -0.003465 -0.004067 0.000000 -0.000616 0.000000
# 2 -0.003465 0.010394 -0.003607 0.000000 -0.001264 0.000000
# 3 -0.004067 -0.003607 0.020526 0.000000 -0.002926 0.000000
# 4 0.000000 0.000000 0.000000 0.052227 0.000000 -0.022611
# 5 -0.000616 -0.001264 -0.002926 0.000000 0.028861 0.000000
# 6 0.000000 0.000000 0.000000 -0.022611 0.000000 0.057797
#
#
# Mechanical properties :
#
#
# Convention : Reuss Voigt Hill
#
# Bulk Modulus (GPa) = 52.28542 64.37903 58.33223
# Shear Modulus (GPa) = 23.93059 28.82214 26.37637
#
# Velocity S-wave (km/s) = 3.32704 3.65127 3.49292
# Velocity P-wave (km/s) = 6.24049 6.89598 6.57641
#
# Compressibility (1/GPa) = 0.01912579
#
# Stress axis : x y z
#
# Youngs Moduli (GPa) = 95.40209 96.21256 48.71887
#
# Poissons Ratio (x) = 0.33334 0.19812
# Poissons Ratio (y) = 0.33053 0.17571
# Poissons Ratio (z) = 0.38796 0.34700
#
# Static dielectric constant tensor:
#      x y z
#    x 1.894700 0.000000 0.026390 
#    y 0.000000 1.923360 0.000000 
#    z 0.026390 0.000000 1.907850 
# 
# From -- ./inp_files/83231.got.cif
#   From: 2010.05.17/outbox.cif.g08.bks.cpg/sg13_42_cif.got.tgz:83231.got - 2010.06.03 16:44:36.
