data_PCOD9237357
_publ_section_title
;
Structure prediction by ZEFSAII (Michael W. Deem and Ramdas Pophale) SiO2 
 PCOD9237357
Probable space group: P 2/C
;
_chemical_formula_sum "Si O2"
_cell_formula_units_Z 32
_cell_length_a 22.612959
_cell_length_b 13.837679
_cell_length_c 10.404774
_cell_angle_alpha 90.000000
_cell_angle_beta 143.313392
_cell_angle_gamma 90.000000
_cell_volume 1945.117957
_symmetry_space_group_name_H-M "P 2/C"
_symmetry_group_IT_number 13
_symmetry_cell_setting 'monoclinic'
loop_
_space_group_symop_operation_xyz
x,y,z
-x,y,1/2-z
-x,-y,-z
x,-y,1/2+z
loop_
_atom_site_type_symbol
_atom_site_label
_atom_site_fract_x
_atom_site_fract_y
_atom_site_fract_z
Si Si1 0.433197 0.608675 0.514634
Si Si2 0.890737 0.297024 0.820906
Si Si3 0.204311 0.591996 0.112966
Si Si4 0.779770 0.639819 0.870818
Si Si5 0.881647 0.081010 0.896458
Si Si6 0.877833 0.076027 0.182239
Si Si7 0.550552 0.625763 0.469563
Si Si8 0.127493 0.291885 0.234454
O O1 0.317258 0.628348 0.326630
O O2 0.480359 0.649030 0.466722
O O3 0.442209 0.491579 0.523912
O O4 0.500000 0.641193 0.750000
O O5 0.858070 0.372167 0.873840
O O6 0.838569 0.320193 0.595667
O O7 0.860672 0.190749 0.818722
O O8 0.009094 0.299318 0.011942
O O9 0.206301 0.476222 0.108797
O O10 0.161362 0.636781 0.907275
O O11 0.662823 0.660465 0.680390
O O12 0.820305 0.682156 0.808057
O O13 0.845193 0.005304 0.726416
O O14 0.845757 0.060778 0.978835
O O15 0.001768 0.073555 0.109242
O O16 0.849428 0.182711 0.180502
O O17 0.500000 0.658809 0.250000
#
# Coordination Sequence:
#
# PCOD9237357 Si02
#       8
#     4   4   4   4   4   4   4   4
#     4   9  17  30  51  71  91 124 167 220 270 295
#     4  11  22  35  49  72 109 141 176 213 240 293
#     4  11  21  35  51  71 104 144 179 209 247 299
#     4  11  23  33  49  75 104 144 181 206 242 300
#     4   9  18  33  53  73  95 128 167 218 266 296
#     4   9  18  33  53  73  95 127 170 216 265 298
#     4   9  17  32  49  69  95 124 167 221 265 294
#     4  11  22  35  49  72 107 145 176 208 245 293
#
# _framework density 16.451445
#
# number of rings (size 3 to 8) (size 9 to 14) (size 15 to 20)
#    0.000    2.000    1.250    3.000    1.750    7.000 
#    0.000    0.000    0.000    0.000    0.000    0.000 
#    0.000   20.000    0.000    0.000    0.000    0.000 
#
# Total GULP energy -178538.743023 kJ/mol
# GULP energy per Si atom -5579.335719 kJ/mol
# Density = 1.641400 g / cm^3
# Si number density = 16.451445 Si / 1000 Ang^3
#
#
#
# Elastic Constant Matrix: (Units=GPa)
#
#
# Indices 1 2 3 4 5 6 
#
# 1 81.5652 20.1232 37.6727 0.0000 -19.7496 0.0000
# 2 20.1232 61.1101 23.2375 0.0000 -11.6738 0.0000
# 3 37.6727 23.2375 95.0330 0.0000 -19.1841 0.0000
# 4 0.0000 0.0000 0.0000 7.3077 0.0000 -13.5643
# 5 -19.7496 -11.6738 -19.1841 0.0000 36.9265 0.0000
# 6 0.0000 0.0000 0.0000 -13.5643 0.0000 13.3847
#
#
#
# Elastic Compliance Matrix: (Units=1/GPa)
#
#
# Indices 1 2 3 4 5 6 
#
# 1 0.016426 -0.002541 -0.004780 0.000000 0.005499 0.000000
# 2 -0.002541 0.018928 -0.003002 0.000000 0.003065 0.000000
# 3 -0.004780 -0.003002 0.013902 0.000000 0.003717 0.000000
# 4 0.000000 0.000000 0.000000 -0.155312 0.000000 -0.157396
# 5 0.005499 0.003065 0.003717 0.000000 0.032921 0.000000
# 6 0.000000 0.000000 0.000000 -0.157396 0.000000 -0.084796
#
#
# Mechanical properties :
#
#
# Convention : Reuss Voigt Hill
#
# Bulk Modulus (GPa) = 34.95394 44.41945 39.68669
# Shear Modulus (GPa) = -39.13978 21.96878 -8.58550
#
# Velocity S-wave (km/s) = -4.88290 3.65824 -2.28692
# Velocity P-wave (km/s) = 3.23998 6.70094 4.14759
#
# Compressibility (1/GPa) = 0.02860908
#
# Stress axis : x y z
#
# Youngs Moduli (GPa) = 60.87788 52.83247 71.93194
#
# Poissons Ratio (x) = 0.13424 0.34386
# Poissons Ratio (y) = 0.15469 0.21595
# Poissons Ratio (z) = 0.29102 0.15861
#
# Static dielectric constant tensor:
#      x y z
#    x 1.531600 0.000000 -0.002930 
#    y 0.000000 1.539820 0.000000 
#    z -0.002930 0.000000 1.537110 
# 
# From -- ./inp_files/19393.got.cif
#   From: 2010.05.17/outbox.cif.g08.bks.cpg/sg13_10_cif.got.tgz:19393.got - 2010.06.03 16:44:36.
