data_PCOD9237859
_publ_section_title
;
Structure prediction by ZEFSAII (Michael W. Deem and Ramdas Pophale) SiO2 
 PCOD9237859
Probable space group: P 2/C
;
_chemical_formula_sum "Si O2"
_cell_formula_units_Z 22
_cell_length_a 12.396053
_cell_length_b 11.465295
_cell_length_c 12.709653
_cell_angle_alpha 90.000000
_cell_angle_beta 144.705764
_cell_angle_gamma 90.000000
_cell_volume 1043.665883
_symmetry_space_group_name_H-M "P 2/C"
_symmetry_group_IT_number 13
_symmetry_cell_setting 'monoclinic'
loop_
_space_group_symop_operation_xyz
x,y,z
-x,y,1/2-z
-x,-y,-z
x,-y,1/2+z
loop_
_atom_site_type_symbol
_atom_site_label
_atom_site_fract_x
_atom_site_fract_y
_atom_site_fract_z
Si Si1 0.944995 0.637753 0.328835
Si Si2 0.629488 0.745048 0.501881
Si Si3 0.500000 0.431342 0.750000
Si Si4 0.280303 0.427907 0.247750
Si Si5 0.765442 0.138898 0.793323
Si Si6 0.077542 0.934121 0.709107
O O1 0.125008 0.628433 0.548199
O O2 0.000000 0.637057 0.250000
O O3 0.819668 0.525170 0.259074
O O4 0.841101 0.755099 0.282047
O O5 0.649817 0.655549 0.421382
O O6 0.620681 0.666994 0.600456
O O7 0.442182 0.822005 0.339779
O O8 0.805590 0.826413 0.654993
O O9 0.580970 0.506953 0.720714
O O10 0.783721 0.018879 0.743307
O O11 0.909318 0.113165 0.002992
O O12 0.000000 0.999766 0.750000
#
# Coordination Sequence:
#
# PCOD9237859 Si02
#       6
#     4   4   2   4   4   4
#     4  11  23  43  67  96 138 182 224 278 342 406
#     4  12  24  44  70 100 137 179 226 279 338 404
#     4  12  24  40  68 102 140 178 222 280 328 408
#     4  11  25  41  65 104 134 184 225 276 338 406
#     4  11  24  46  67 100 135 174 230 280 341 405
#     4  11  25  45  71  97 134 179 228 284 342 403
#
# _framework density 21.079542
#
# number of rings (size 3 to 8) (size 9 to 14) (size 15 to 20)
#    0.000    0.727    3.636    3.818    2.545    0.727 
#    0.000    0.000    0.000    0.000    0.000    0.000 
#    0.000    0.000    0.000    0.000    0.000    0.000 
#
# Total GULP energy -123060.272921 kJ/mol
# GULP energy per Si atom -5593.648769 kJ/mol
# Density = 2.103156 g / cm^3
# Si number density = 21.079542 Si / 1000 Ang^3
#
#
#
# Elastic Constant Matrix: (Units=GPa)
#
#
# Indices 1 2 3 4 5 6 
#
# 1 75.1721 1.0849 10.0521 0.0000 -17.8746 0.0000
# 2 1.0849 55.1598 23.3031 0.0000 -5.4494 0.0000
# 3 10.0521 23.3031 68.9260 0.0000 2.4549 0.0000
# 4 0.0000 0.0000 0.0000 24.3594 0.0000 -6.6192
# 5 -17.8746 -5.4494 2.4549 0.0000 32.0337 0.0000
# 6 0.0000 0.0000 0.0000 -6.6192 0.0000 27.2523
#
#
#
# Elastic Compliance Matrix: (Units=1/GPa)
#
#
# Indices 1 2 3 4 5 6 
#
# 1 0.015988 0.002048 -0.003363 0.000000 0.009528 0.000000
# 2 0.002048 0.021979 -0.007925 0.000000 0.005489 0.000000
# 3 -0.003363 -0.007925 0.017842 0.000000 -0.004592 0.000000
# 4 0.000000 0.000000 0.000000 0.043953 0.000000 0.010676
# 5 0.009528 0.005489 -0.004592 0.000000 0.037819 0.000000
# 6 0.000000 0.000000 0.000000 0.010676 0.000000 0.039287
#
#
# Mechanical properties :
#
#
# Convention : Reuss Voigt Hill
#
# Bulk Modulus (GPa) = 26.78953 29.79310 28.29132
# Shear Modulus (GPa) = 24.06246 27.71694 25.88970
#
# Velocity S-wave (km/s) = 3.38229 3.63005 3.50836
# Velocity P-wave (km/s) = 5.29051 5.63330 5.46459
#
# Compressibility (1/GPa) = 0.03732801
#
# Stress axis : x y z
#
# Youngs Moduli (GPa) = 62.54496 45.49758 56.04833
#
# Poissons Ratio (x) = -0.09317 0.18851
# Poissons Ratio (y) = -0.12807 0.44418
# Poissons Ratio (z) = 0.21036 0.36057
#
# Static dielectric constant tensor:
#      x y z
#    x 1.775880 0.000000 -0.000100 
#    y 0.000000 1.740880 0.000000 
#    z -0.000100 0.000000 1.758090 
# 
# From -- ./inp_files/34043.got.cif
#   From: 2010.05.17/outbox.cif.g08.bks.cpg/sg13_18_cif.got.tgz:34043.got - 2010.06.03 16:44:36.
