data_PCOD9237467
_publ_section_title
;
Structure prediction by ZEFSAII (Michael W. Deem and Ramdas Pophale) SiO2 
 PCOD9237467
Probable space group: P 2/C
;
_chemical_formula_sum "Si O2"
_cell_formula_units_Z 20
_cell_length_a 21.665271
_cell_length_b 5.207230
_cell_length_c 13.094675
_cell_angle_alpha 90.000000
_cell_angle_beta 31.906330
_cell_angle_gamma 90.000000
_cell_volume 780.794958
_symmetry_space_group_name_H-M "P 2/C"
_symmetry_group_IT_number 13
_symmetry_cell_setting 'monoclinic'
loop_
_space_group_symop_operation_xyz
x,y,z
-x,y,1/2-z
-x,-y,-z
x,-y,1/2+z
loop_
_atom_site_type_symbol
_atom_site_label
_atom_site_fract_x
_atom_site_fract_y
_atom_site_fract_z
Si Si1 0.598034 0.780851 0.965207
Si Si2 0.720576 0.281064 0.727822
Si Si3 0.096641 0.792135 0.701885
Si Si4 0.158078 0.295936 0.726988
Si Si5 0.608586 0.473616 0.653629
O O1 0.669691 0.568335 0.802256
O O2 0.626989 0.061889 0.887477
O O3 0.464339 0.683445 0.159782
O O4 0.642517 0.737220 0.019293
O O5 0.784167 0.226485 0.532198
O O6 0.811940 0.272083 0.695445
O O7 0.091271 0.551592 0.785383
O O8 0.000000 0.785175 0.750000
O O9 0.095905 0.050338 0.767660
O O10 0.284332 0.335187 0.493186
O O11 0.500000 0.621508 0.750000
#
# Coordination Sequence:
#
# PCOD9237467 Si02
#       5
#     4   4   4   4   4
#     4   8  18  33  63  93 128 165 195 258 309 381
#     4  11  21  42  65  93 131 166 215 266 315 389
#     4  12  28  44  64  96 128 167 231 278 308 379
#     4  11  23  44  69  93 129 178 207 261 341 369
#     4   7  17  36  65  98 126 167 207 248 316 396
#
# _framework density 25.614917999999999
#
# number of rings (size 3 to 8) (size 9 to 14) (size 15 to 20)
#    1.200    0.800    0.000    4.200    0.000    9.600 
#    0.000    6.000    0.000    0.000    0.000    0.000 
#    0.000    0.000    0.000    0.000    0.000    0.000 
#
# Total GULP energy -111877.629892 kJ/mol
# GULP energy per Si atom -5593.881495 kJ/mol
# Density = 2.555662 g / cm^3
# Si number density = 25.614918 Si / 1000 Ang^3
#
#
#
# Elastic Constant Matrix: (Units=GPa)
#
#
# Indices 1 2 3 4 5 6 
#
# 1 123.2480 55.1330 3.7594 0.0000 15.8350 0.0000
# 2 55.1330 157.1311 10.5570 0.0000 5.1621 0.0000
# 3 3.7594 10.5570 81.7941 0.0000 12.1700 0.0000
# 4 0.0000 0.0000 0.0000 -9.7811 0.0000 -5.8492
# 5 15.8350 5.1621 12.1700 0.0000 52.4111 0.0000
# 6 0.0000 0.0000 0.0000 -5.8492 0.0000 34.3610
#
#
#
# Elastic Compliance Matrix: (Units=1/GPa)
#
#
# Indices 1 2 3 4 5 6 
#
# 1 0.009999 -0.003444 0.000398 0.000000 -0.002774 0.000000
# 2 -0.003444 0.007616 -0.000899 0.000000 0.000499 0.000000
# 3 0.000398 -0.000899 0.012769 0.000000 -0.002997 0.000000
# 4 0.000000 0.000000 0.000000 -0.092792 0.000000 -0.015796
# 5 -0.002774 0.000499 -0.002997 0.000000 0.020565 0.000000
# 6 0.000000 0.000000 0.000000 -0.015796 0.000000 0.026414
#
#
# Mechanical properties :
#
#
# Convention : Reuss Voigt Hill
#
# Bulk Modulus (GPa) = 44.45600 55.67468 50.06534
# Shear Modulus (GPa) = -123616.50587 34.91311 -61790.79638
#
# Velocity S-wave (km/s) = -219.91895 3.69589 -155.48422
# Velocity P-wave (km/s) = 253.90628 6.32418 179.48315
#
# Compressibility (1/GPa) = 0.02249415
#
# Stress axis : x y z
#
# Youngs Moduli (GPa) = 100.01475 131.29475 78.31193
#
# Poissons Ratio (x) = 0.45215 -0.03114
# Poissons Ratio (y) = 0.34443 0.07040
# Poissons Ratio (z) = -0.03977 0.11804
#
# Static dielectric constant tensor:
#      x y z
#    x 2.199450 0.000000 -0.056610 
#    y 0.000000 1.912150 0.000000 
#    z -0.056610 0.000000 2.062650 
# 
# From -- ./inp_files/58153.got.cif
#   From: 2010.05.17/outbox.cif.g08.bks.cpg/sg13_30_cif.got.tgz:58153.got - 2010.06.03 16:44:36.
