data_PCOD9237759
_publ_section_title
;
Structure prediction by ZEFSAII (Michael W. Deem and Ramdas Pophale) SiO2 
 PCOD9237759
Probable space group: P 2/C
;
_chemical_formula_sum "Si O2"
_cell_formula_units_Z 24
_cell_length_a 14.706871
_cell_length_b 8.232008
_cell_length_c 14.707375
_cell_angle_alpha 90.000000
_cell_angle_beta 136.446543
_cell_angle_gamma 90.000000
_cell_volume 1226.874179
_symmetry_space_group_name_H-M "P 2/C"
_symmetry_group_IT_number 13
_symmetry_cell_setting 'monoclinic'
loop_
_space_group_symop_operation_xyz
x,y,z
-x,y,1/2-z
-x,-y,-z
x,-y,1/2+z
loop_
_atom_site_type_symbol
_atom_site_label
_atom_site_fract_x
_atom_site_fract_y
_atom_site_fract_z
Si Si1 0.885681 0.072380 0.355734
Si Si2 0.148660 0.561903 0.594742
Si Si3 0.593303 0.052669 0.148509
Si Si4 0.000000 0.165584 0.250000
Si Si5 0.500000 0.150074 0.750000
Si Si6 0.638479 0.417354 0.116674
Si Si7 0.751201 0.362569 0.997149
O O1 0.863002 0.250644 0.383315
O O2 0.743433 0.988085 0.255602
O O3 0.927800 0.075402 0.280604
O O4 0.000000 0.000000 0.500000
O O5 0.255636 0.490812 0.743516
O O6 0.206681 0.511675 0.538269
O O7 0.000000 0.500000 0.500000
O O8 0.606347 0.246772 0.144018
O O9 0.528323 0.972034 0.188398
O O10 0.500000 0.000000 0.000000
O O11 0.113151 0.264877 0.385908
O O12 0.629902 0.260489 0.864685
O O13 0.500000 0.500000 0.000000
O O14 0.702606 0.399193 0.063914
#
# Coordination Sequence:
#
# PCOD9237759 Si02
#       7
#     4   4   4   2   2   4   4
#     4  11  24  42  68  99 137 172 222 285 337 400
#     4  11  23  40  67  98 129 173 224 274 329 409
#     4  11  23  42  63  99 131 175 225 274 335 404
#     4  12  20  44  68  92 134 178 216 276 346 388
#     4  12  24  40  72  98 132 186 226 278 344 408
#     4  11  24  42  64  96 137 172 220 286 334 398
#     4  12  22  42  68  95 129 182 220 270 349 394
#
# _framework density 19.561907999999999
#
# number of rings (size 3 to 8) (size 9 to 14) (size 15 to 20)
#    0.000    0.667    6.667    2.000    0.000    2.667 
#    0.000    2.500    0.000    0.000    0.000    0.000 
#    0.000    0.000    0.000    0.000    0.000    0.000 
#
# Total GULP energy -133766.681118 kJ/mol
# GULP energy per Si atom -5573.611713 kJ/mol
# Density = 1.951738 g / cm^3
# Si number density = 19.561908 Si / 1000 Ang^3
#
#
#
# Elastic Constant Matrix: (Units=GPa)
#
#
# Indices 1 2 3 4 5 6 
#
# 1 111.0544 23.5998 21.6403 0.0000 -4.4994 0.0000
# 2 23.5998 35.4641 20.7619 0.0000 7.1665 0.0000
# 3 21.6403 20.7619 159.4122 0.0000 25.5200 0.0000
# 4 0.0000 0.0000 0.0000 115.0726 0.0000 -242.4136
# 5 -4.4994 7.1665 25.5200 0.0000 51.1931 0.0000
# 6 0.0000 0.0000 0.0000 -242.4136 0.0000 840.9355
#
#
#
# Elastic Compliance Matrix: (Units=1/GPa)
#
#
# Indices 1 2 3 4 5 6 
#
# 1 0.010797 -0.007132 -0.000922 0.000000 0.002407 0.000000
# 2 -0.007132 0.035530 -0.003002 0.000000 -0.004104 0.000000
# 3 -0.000922 -0.003002 0.007319 0.000000 -0.003309 0.000000
# 4 0.000000 0.000000 0.000000 0.022127 0.000000 0.006379
# 5 0.002407 -0.004104 -0.003309 0.000000 0.021970 0.000000
# 6 0.000000 0.000000 0.000000 0.006379 0.000000 0.003028
#
#
# Mechanical properties :
#
#
# Convention : Reuss Voigt Hill
#
# Bulk Modulus (GPa) = 31.71161 48.65942 40.18551
# Shear Modulus (GPa) = 37.48247 217.43549 127.45898
#
# Velocity S-wave (km/s) = 4.38207 10.55433 8.08073
# Velocity P-wave (km/s) = 6.46912 13.17018 10.37553
#
# Compressibility (1/GPa) = 0.03153419
#
# Stress axis : x y z
#
# Youngs Moduli (GPa) = 92.61521 28.14495 136.62968
#
# Poissons Ratio (x) = 0.20072 0.12601
# Poissons Ratio (y) = 0.66050 0.41021
# Poissons Ratio (z) = 0.08542 0.08450
#
# Static dielectric constant tensor:
#      x y z
#    x 1.739710 0.000000 0.045790 
#    y 0.000000 1.689370 0.000000 
#    z 0.045790 0.000000 1.723050 
# 
# From -- ./inp_files/53245.got.cif
#   From: 2010.05.17/outbox.cif.g08.bks.cpg/sg13_27_cif.got.tgz:53245.got - 2010.06.03 16:44:36.
