data_PCOD9237306
_publ_section_title
;
Structure prediction by ZEFSAII (Michael W. Deem and Ramdas Pophale) SiO2 
 PCOD9237306
Probable space group: P 2/C
;
_chemical_formula_sum "Si O2"
_cell_formula_units_Z 26
_cell_length_a 8.236515
_cell_length_b 9.899732
_cell_length_c 24.908912
_cell_angle_alpha 90.000000
_cell_angle_beta 138.169032
_cell_angle_gamma 90.000000
_cell_volume 1354.582289
_symmetry_space_group_name_H-M "P 2/C"
_symmetry_group_IT_number 13
_symmetry_cell_setting 'monoclinic'
loop_
_space_group_symop_operation_xyz
x,y,z
-x,y,1/2-z
-x,-y,-z
x,-y,1/2+z
loop_
_atom_site_type_symbol
_atom_site_label
_atom_site_fract_x
_atom_site_fract_y
_atom_site_fract_z
Si Si1 0.000000 0.420151 0.250000
Si Si2 0.912176 0.990724 0.354571
Si Si3 0.508181 0.146997 0.694758
Si Si4 0.854658 0.492758 0.519338
Si Si5 0.139557 0.721525 0.893997
Si Si6 0.719418 0.755914 0.053988
Si Si7 0.375549 0.628577 0.359997
O O1 0.912599 0.331201 0.178651
O O2 0.786635 0.524687 0.213303
O O3 0.985994 0.145102 0.369110
O O4 0.726988 0.949892 0.357408
O O5 0.751395 0.942726 0.263180
O O6 0.152775 0.900081 0.418102
O O7 0.500000 0.226875 0.750000
O O8 0.517826 0.249651 0.648811
O O9 0.933563 0.602165 0.583078
O O10 0.845783 0.345477 0.543224
O O11 0.582164 0.538126 0.437906
O O12 0.000000 0.500000 0.500000
O O13 0.428224 0.753542 0.972607
O O14 0.764935 0.695609 0.124646
#
# Coordination Sequence:
#
# PCOD9237306 Si02
#       7
#     2   4   4   4   4   4   4
#     4  12  22  36  64  96 132 152 220 266 336 362
#     4   9  21  41  62  89 131 166 208 261 314 388
#     4   8  21  39  61  90 127 165 217 246 318 385
#     4  11  23  41  62  91 125 164 214 261 315 380
#     4  11  23  41  61  96 128 162 207 271 318 381
#     4  11  20  41  64  93 122 162 224 249 318 378
#     4  11  20  38  64  90 118 168 205 272 297 385
#
# _framework density 19.194109000000001
#
# number of rings (size 3 to 8) (size 9 to 14) (size 15 to 20)
#    0.923    0.615    3.077    3.231    0.000    1.231 
#    5.538    8.462    0.000    0.000    0.000    0.000 
#    0.000    0.000    0.000    0.000    0.000    0.000 
#
# Total GULP energy -144917.322086 kJ/mol
# GULP energy per Si atom -5573.743157 kJ/mol
# Density = 1.915042 g / cm^3
# Si number density = 19.194109 Si / 1000 Ang^3
#
#
#
# Elastic Constant Matrix: (Units=GPa)
#
#
# Indices 1 2 3 4 5 6 
#
# 1 78.6945 27.5363 16.2708 0.0000 -10.1695 0.0000
# 2 27.5363 96.8949 33.8477 0.0000 2.8875 0.0000
# 3 16.2708 33.8477 70.8858 0.0000 -2.0725 0.0000
# 4 0.0000 0.0000 0.0000 15.3963 0.0000 7.2276
# 5 -10.1695 2.8875 -2.0725 0.0000 20.6878 0.0000
# 6 0.0000 0.0000 0.0000 7.2276 0.0000 29.9339
#
#
#
# Elastic Compliance Matrix: (Units=1/GPa)
#
#
# Indices 1 2 3 4 5 6 
#
# 1 0.015485 -0.004179 -0.001323 0.000000 0.008063 0.000000
# 2 -0.004179 0.013627 -0.005680 0.000000 -0.004525 0.000000
# 3 -0.001323 -0.005680 0.017178 0.000000 0.001863 0.000000
# 4 0.000000 0.000000 0.000000 0.073254 0.000000 -0.017687
# 5 0.008063 -0.004525 0.001863 0.000000 0.053119 0.000000
# 6 0.000000 0.000000 0.000000 -0.017687 0.000000 0.037678
#
#
# Mechanical properties :
#
#
# Convention : Reuss Voigt Hill
#
# Bulk Modulus (GPa) = 41.79611 44.64275 43.21943
# Shear Modulus (GPa) = 20.77455 24.45832 22.61644
#
# Velocity S-wave (km/s) = 3.29346 3.57355 3.43636
# Velocity P-wave (km/s) = 6.02373 6.35107 6.18956
#
# Compressibility (1/GPa) = 0.02392567
#
# Stress axis : x y z
#
# Youngs Moduli (GPa) = 64.57835 73.38383 58.21540
#
# Poissons Ratio (x) = 0.30665 0.07704
# Poissons Ratio (y) = 0.26985 0.33066
# Poissons Ratio (z) = 0.08546 0.41682
#
# Static dielectric constant tensor:
#      x y z
#    x 1.629820 0.000000 0.018630 
#    y 0.000000 1.656080 0.000000 
#    z 0.018630 0.000000 1.698950 
# 
# From -- ./inp_files/91332.got.cif
#   From: 2010.05.17/outbox.cif.g08.bks.cpg/sg13_46_cif.got.tgz:91332.got - 2010.06.03 16:44:36.
