data_PCOD9237109
_publ_section_title
;
Structure prediction by ZEFSAII (Michael W. Deem and Ramdas Pophale) SiO2 
 PCOD9237109
Probable space group: P 2/C
;
_chemical_formula_sum "Si O2"
_cell_formula_units_Z 18
_cell_length_a 8.280266
_cell_length_b 8.829973
_cell_length_c 12.299203
_cell_angle_alpha 90.000000
_cell_angle_beta 58.586616
_cell_angle_gamma 90.000000
_cell_volume 767.446421
_symmetry_space_group_name_H-M "P 2/C"
_symmetry_group_IT_number 13
_symmetry_cell_setting 'monoclinic'
loop_
_space_group_symop_operation_xyz
x,y,z
-x,y,1/2-z
-x,-y,-z
x,-y,1/2+z
loop_
_atom_site_type_symbol
_atom_site_label
_atom_site_fract_x
_atom_site_fract_y
_atom_site_fract_z
Si Si1 0.500000 0.770334 0.250000
Si Si2 0.981792 0.161754 0.061797
Si Si3 0.635204 0.141199 0.477992
Si Si4 0.669318 0.668005 0.769420
Si Si5 0.117973 0.366425 0.814537
O O1 0.391440 0.849940 0.383741
O O2 0.665877 0.689085 0.258774
O O3 0.136470 0.150622 0.103939
O O4 0.771104 0.186598 0.180966
O O5 0.024230 0.294115 0.956023
O O6 0.000000 0.000000 0.000000
O O7 0.586039 0.281518 0.415186
O O8 0.500000 0.000000 0.500000
O O9 0.500000 0.617069 0.750000
O O10 0.840089 0.545997 0.709166
O O11 0.000000 0.318458 0.750000
#
# Coordination Sequence:
#
# PCOD9237109 Si02
#       5
#     2   4   4   4   4
#     4  10  26  48  68 112 142 194 244 304 370 452
#     4  11  26  46  71 108 146 192 250 306 375 450
#     4  11  26  45  75 104 153 189 250 307 376 445
#     4  12  26  46  73 108 148 197 250 308 377 445
#     4  11  25  46  75 104 150 192 247 306 375 443
#
# _framework density 23.454405999999999
#
# number of rings (size 3 to 8) (size 9 to 14) (size 15 to 20)
#    0.000    0.889    1.111    4.000   14.000    2.667 
#    0.000    0.000    0.000    0.000    0.000    0.000 
#    0.000    0.000    0.000    0.000    0.000    0.000 
#
# Total GULP energy -100294.238565 kJ/mol
# GULP energy per Si atom -5571.902142 kJ/mol
# Density = 2.340102 g / cm^3
# Si number density = 23.454406 Si / 1000 Ang^3
#
#
#
# Elastic Constant Matrix: (Units=GPa)
#
#
# Indices 1 2 3 4 5 6 
#
# 1 170.8745 16.1047 26.7933 0.0000 23.9262 0.0000
# 2 16.1047 79.7049 36.4639 0.0000 14.8815 0.0000
# 3 26.7933 36.4639 118.1420 0.0000 4.7562 0.0000
# 4 0.0000 0.0000 0.0000 12.5324 0.0000 -8.8595
# 5 23.9262 14.8815 4.7562 0.0000 40.3693 0.0000
# 6 0.0000 0.0000 0.0000 -8.8595 0.0000 39.2378
#
#
#
# Elastic Compliance Matrix: (Units=1/GPa)
#
#
# Indices 1 2 3 4 5 6 
#
# 1 0.006587 -0.000021 -0.001337 0.000000 -0.003739 0.000000
# 2 -0.000021 0.015632 -0.004610 0.000000 -0.005207 0.000000
# 3 -0.001337 -0.004610 0.010138 0.000000 0.001297 0.000000
# 4 0.000000 0.000000 0.000000 0.094948 0.000000 0.021438
# 5 -0.003739 -0.005207 0.001297 0.000000 0.028754 0.000000
# 6 0.000000 0.000000 0.000000 0.021438 0.000000 0.030326
#
#
# Mechanical properties :
#
#
# Convention : Reuss Voigt Hill
#
# Bulk Modulus (GPa) = 48.97001 58.60503 53.78752
# Shear Modulus (GPa) = 24.37482 37.71853 31.04667
#
# Velocity S-wave (km/s) = 3.22723 4.01454 3.64222
# Velocity P-wave (km/s) = 5.90007 6.82127 6.37733
#
# Compressibility (1/GPa) = 0.02042066
#
# Stress axis : x y z
#
# Youngs Moduli (GPa) = 151.80487 63.97203 98.63621
#
# Poissons Ratio (x) = 0.00137 0.13186
# Poissons Ratio (y) = 0.00324 0.45474
# Poissons Ratio (z) = 0.20294 0.29493
#
# Static dielectric constant tensor:
#      x y z
#    x 2.159170 0.000000 -0.099990 
#    y 0.000000 2.027050 0.000000 
#    z -0.099990 0.000000 1.991530 
# 
# From -- ./inp_files/28044.got.cif
#   From: 2010.05.17/outbox.cif.g08.bks.cpg/sg13_15_cif.got.tgz:28044.got - 2010.06.03 16:44:36.
