data_PCOD9237397
_publ_section_title
;
Structure prediction by ZEFSAII (Michael W. Deem and Ramdas Pophale) SiO2 
 PCOD9237397
Probable space group: P 2/C
;
_chemical_formula_sum "Si O2"
_cell_formula_units_Z 20
_cell_length_a 9.150839
_cell_length_b 8.391350
_cell_length_c 24.643770
_cell_angle_alpha 90.000000
_cell_angle_beta 34.279521
_cell_angle_gamma 90.000000
_cell_volume 1065.825851
_symmetry_space_group_name_H-M "P 2/C"
_symmetry_group_IT_number 13
_symmetry_cell_setting 'monoclinic'
loop_
_space_group_symop_operation_xyz
x,y,z
-x,y,1/2-z
-x,-y,-z
x,-y,1/2+z
loop_
_atom_site_type_symbol
_atom_site_label
_atom_site_fract_x
_atom_site_fract_y
_atom_site_fract_z
Si Si1 0.000000 0.650074 0.250000
Si Si2 0.008223 0.194054 0.418364
Si Si3 0.399198 0.557733 0.841040
Si Si4 0.939217 0.334825 0.210322
Si Si5 0.521084 0.222524 0.632514
Si Si6 0.500000 0.965211 0.250000
O O1 0.982765 0.521595 0.304979
O O2 0.257113 0.752413 0.179770
O O3 0.145511 0.338379 0.409079
O O4 0.934692 0.258389 0.381076
O O5 0.240480 0.068884 0.338959
O O6 0.753408 0.139566 0.528361
O O7 0.500000 0.511381 0.750000
O O8 0.630572 0.664584 0.794855
O O9 0.382563 0.400898 0.882008
O O10 0.000000 0.258469 0.250000
O O11 0.463833 0.136371 0.706609
#
# Coordination Sequence:
#
# PCOD9237397 Si02
#       6
#     2   4   4   4   4   2
#     4   8  20  40  58  88 120 150 188 256 296 334
#     4  11  21  38  62  89 115 157 203 237 296 353
#     4   9  16  36  60  86 114 148 196 255 287 325
#     4   8  16  34  61  81 116 146 180 249 297 323
#     4  11  22  38  62  87 117 159 198 241 296 350
#     4  12  24  40  56  84 132 154 190 246 286 358
#
# _framework density 18.764792
#
# number of rings (size 3 to 8) (size 9 to 14) (size 15 to 20)
#    0.600    1.600    4.000    1.200    0.000    0.800 
#    1.800    1.000    0.000    0.000    0.000    0.000 
#    0.000    0.000    0.000    0.000    0.000    0.000 
#
# Total GULP energy -111396.836710 kJ/mol
# GULP energy per Si atom -5569.841835 kJ/mol
# Density = 1.872208 g / cm^3
# Si number density = 18.764792 Si / 1000 Ang^3
#
#
#
# Elastic Constant Matrix: (Units=GPa)
#
#
# Indices 1 2 3 4 5 6 
#
# 1 123.1159 14.7813 50.9965 0.0000 -2.7737 0.0000
# 2 14.7813 33.5742 22.6061 0.0000 -8.7186 0.0000
# 3 50.9965 22.6061 110.4119 0.0000 -13.5685 0.0000
# 4 0.0000 0.0000 0.0000 -10.7408 0.0000 -48.3154
# 5 -2.7737 -8.7186 -13.5685 0.0000 16.3397 0.0000
# 6 0.0000 0.0000 0.0000 -48.3154 0.0000 -106.3945
#
#
#
# Elastic Compliance Matrix: (Units=1/GPa)
#
#
# Indices 1 2 3 4 5 6 
#
# 1 0.010258 -0.002224 -0.004693 0.000000 -0.003343 0.000000
# 2 -0.002224 0.038160 -0.004822 0.000000 0.015980 0.000000
# 3 -0.004693 -0.004822 0.013139 0.000000 0.007541 0.000000
# 4 0.000000 0.000000 0.000000 0.089287 0.000000 -0.040546
# 5 -0.003343 0.015980 0.007541 0.000000 0.075422 0.000000
# 6 0.000000 0.000000 0.000000 -0.040546 0.000000 0.009014
#
#
# Mechanical properties :
#
#
# Convention : Reuss Voigt Hill
#
# Bulk Modulus (GPa) = 26.26176 49.31885 37.79030
# Shear Modulus (GPa) = 18.41951 -8.24459 5.08746
#
# Velocity S-wave (km/s) = 3.13645 -2.09838 1.64835
# Velocity P-wave (km/s) = 5.20980 4.52424 4.87908
#
# Compressibility (1/GPa) = 0.03807818
#
# Stress axis : x y z
#
# Youngs Moduli (GPa) = 97.48250 26.20512 76.11081
#
# Poissons Ratio (x) = 0.05828 0.35722
# Poissons Ratio (y) = 0.21682 0.36701
# Poissons Ratio (z) = 0.45753 0.12636
#
# Static dielectric constant tensor:
#      x y z
#    x 1.657330 0.000000 -0.000350 
#    y 0.000000 1.673570 0.000000 
#    z -0.000350 0.000000 1.645820 
# 
# From -- ./inp_files/52554.got.cif
#   From: 2010.05.17/outbox.cif.g08.bks.cpg/sg13_27_cif.got.tgz:52554.got - 2010.06.03 16:44:36.
