data_PCOD9237680
_publ_section_title
;
Structure prediction by ZEFSAII (Michael W. Deem and Ramdas Pophale) SiO2 
 PCOD9237680
Probable space group: P 2/C
;
_chemical_formula_sum "Si O2"
_cell_formula_units_Z 20
_cell_length_a 7.043788
_cell_length_b 14.560721
_cell_length_c 7.523599
_cell_angle_alpha 90.000000
_cell_angle_beta 87.978493
_cell_angle_gamma 90.000000
_cell_volume 771.159889
_symmetry_space_group_name_H-M "P 2/C"
_symmetry_group_IT_number 13
_symmetry_cell_setting 'monoclinic'
loop_
_space_group_symop_operation_xyz
x,y,z
-x,y,1/2-z
-x,-y,-z
x,-y,1/2+z
loop_
_atom_site_type_symbol
_atom_site_label
_atom_site_fract_x
_atom_site_fract_y
_atom_site_fract_z
Si Si1 0.815414 0.137301 0.362757
Si Si2 0.654014 0.029569 0.639067
Si Si3 0.299764 0.551226 0.691660
Si Si4 0.732765 0.698202 0.086684
Si Si5 0.831189 0.362253 0.942320
O O1 0.834530 0.078602 0.545865
O O2 0.690484 0.218515 0.451884
O O3 0.000000 0.169580 0.250000
O O4 0.723293 0.062679 0.233440
O O5 0.500000 0.092021 0.750000
O O6 0.500000 0.000000 0.500000
O O7 0.500000 0.515040 0.750000
O O8 0.340098 0.609586 0.514181
O O9 0.171594 0.465007 0.641510
O O10 0.225821 0.617676 0.851908
O O11 0.705762 0.695705 0.302045
O O12 0.963116 0.684664 0.063676
#
# Coordination Sequence:
#
# PCOD9237680 Si02
#       5
#     4   4   4   4   4
#     4  11  22  45  70 107 139 178 241 291 347 429
#     4   9  21  44  73 101 138 183 217 279 369 430
#     4  12  24  41  70 100 138 191 242 296 354 420
#     4  11  26  43  68 103 140 184 238 297 348 415
#     4  11  24  44  67  95 140 186 238 288 360 412
#
# _framework density 25.934958000000002
#
# number of rings (size 3 to 8) (size 9 to 14) (size 15 to 20)
#    0.000    1.200    2.000    3.600    2.800    2.400 
#   28.800    0.000    0.000    0.000    0.000    0.000 
#    0.000    0.000    0.000    0.000    0.000    0.000 
#
# Total GULP energy -111394.517701 kJ/mol
# GULP energy per Si atom -5569.725885 kJ/mol
# Density = 2.587593 g / cm^3
# Si number density = 25.934958 Si / 1000 Ang^3
#
#
#
# Elastic Constant Matrix: (Units=GPa)
#
#
# Indices 1 2 3 4 5 6 
#
# 1 26.4718 -12.3442 10.6825 0.0000 -10.3032 0.0000
# 2 -12.3442 94.2413 27.7207 0.0000 -5.9514 0.0000
# 3 10.6825 27.7207 138.0596 0.0000 -22.6415 0.0000
# 4 0.0000 0.0000 0.0000 69.3955 0.0000 -4.8842
# 5 -10.3032 -5.9514 -22.6415 0.0000 47.1737 0.0000
# 6 0.0000 0.0000 0.0000 -4.8842 0.0000 22.3122
#
#
#
# Elastic Compliance Matrix: (Units=1/GPa)
#
#
# Indices 1 2 3 4 5 6 
#
# 1 0.046506 0.007748 -0.003612 0.000000 0.009401 0.000000
# 2 0.007748 0.012574 -0.002807 0.000000 0.001931 0.000000
# 3 -0.003612 -0.002807 0.008574 0.000000 0.002972 0.000000
# 4 0.000000 0.000000 0.000000 0.014636 0.000000 0.003204
# 5 0.009401 0.001931 0.002972 0.000000 0.024922 0.000000
# 6 0.000000 0.000000 0.000000 0.003204 0.000000 0.045520
#
#
# Mechanical properties :
#
#
# Convention : Reuss Voigt Hill
#
# Bulk Modulus (GPa) = 14.22292 34.54343 24.38317
# Shear Modulus (GPa) = 28.81668 43.29051 36.05360
#
# Velocity S-wave (km/s) = 3.33695 4.09001 3.73252
# Velocity P-wave (km/s) = 4.51032 5.97097 5.29129
#
# Compressibility (1/GPa) = 0.07030906
#
# Stress axis : x y z
#
# Youngs Moduli (GPa) = 21.50277 79.53148 116.63375
#
# Poissons Ratio (x) = -0.61619 0.42132
# Poissons Ratio (y) = -0.16660 0.32744
# Poissons Ratio (z) = 0.07768 0.22328
#
# Static dielectric constant tensor:
#      x y z
#    x 2.151670 0.000000 -0.055590 
#    y 0.000000 2.073860 0.000000 
#    z -0.055590 0.000000 2.190200 
# 
# From -- ./inp_files/12347.got.cif
#   From: 2010.05.17/outbox.cif.g08.bks.cpg/sg13_7_cif.got.tgz:12347.got - 2010.06.03 16:44:36.
