data_PCOD9237945
_publ_section_title
;
Structure prediction by ZEFSAII (Michael W. Deem and Ramdas Pophale) SiO2 
 PCOD9237945
Probable space group: P 2/C
;
_chemical_formula_sum "Si O2"
_cell_formula_units_Z 18
_cell_length_a 5.076327
_cell_length_b 5.469287
_cell_length_c 25.991367
_cell_angle_alpha 90.000000
_cell_angle_beta 102.950632
_cell_angle_gamma 90.000000
_cell_volume 703.265932
_symmetry_space_group_name_H-M "P 2/C"
_symmetry_group_IT_number 13
_symmetry_cell_setting 'monoclinic'
loop_
_space_group_symop_operation_xyz
x,y,z
-x,y,1/2-z
-x,-y,-z
x,-y,1/2+z
loop_
_atom_site_type_symbol
_atom_site_label
_atom_site_fract_x
_atom_site_fract_y
_atom_site_fract_z
Si Si1 0.466613 0.543786 0.059070
Si Si2 0.216032 0.056811 0.170045
Si Si3 0.500000 0.685821 0.250000
Si Si4 0.735138 0.635695 0.669141
Si Si5 0.828082 0.042231 0.441456
O O1 0.695628 0.479575 0.110736
O O2 0.248512 0.329594 0.062723
O O3 0.393658 0.827420 0.062735
O O4 0.500000 0.500000 0.000000
O O5 0.513927 0.146109 0.165523
O O6 0.059703 0.988362 0.110684
O O7 0.037601 0.268308 0.187176
O O8 0.270112 0.848190 0.212877
O O9 0.361972 0.540950 0.290269
O O10 0.000000 0.000000 0.500000
#
# Coordination Sequence:
#
# PCOD9237945 Si02
#       5
#     4   4   2   4   4
#     4  11  23  45  75 118 158 208 262 333 407 487
#     4  11  27  49  77 115 154 208 271 333 407 492
#     4  12  26  54  80 108 164 214 278 338 424 486
#     4  11  27  49  77 115 154 208 271 333 407 492
#     4  11  23  45  75 118 158 208 262 333 407 487
#
# _framework density 25.594871000000001
#
# number of rings (size 3 to 8) (size 9 to 14) (size 15 to 20)
#    0.000    0.889    2.222    3.333    0.000   10.667 
#    0.000    0.000    0.000    0.000    0.000    0.000 
#    0.000    0.000    0.000    0.000    0.000    0.000 
#
# Total GULP energy -100747.803687 kJ/mol
# GULP energy per Si atom -5597.100205 kJ/mol
# Density = 2.553662 g / cm^3
# Si number density = 25.594871 Si / 1000 Ang^3
#
#
#
# Elastic Constant Matrix: (Units=GPa)
#
#
# Indices 1 2 3 4 5 6 
#
# 1 73.6923 36.1620 25.1476 0.0000 -6.3455 0.0000
# 2 36.1620 80.7939 61.1005 0.0000 0.7431 0.0000
# 3 25.1476 61.1005 225.4175 0.0000 -4.1572 0.0000
# 4 0.0000 0.0000 0.0000 58.8399 0.0000 2.7378
# 5 -6.3455 0.7431 -4.1572 0.0000 31.1128 0.0000
# 6 0.0000 0.0000 0.0000 2.7378 0.0000 46.8651
#
#
#
# Elastic Compliance Matrix: (Units=1/GPa)
#
#
# Indices 1 2 3 4 5 6 
#
# 1 0.017852 -0.008269 0.000321 0.000000 0.003881 0.000000
# 2 -0.008269 0.019426 -0.004394 0.000000 -0.002737 0.000000
# 3 0.000321 -0.004394 0.005608 0.000000 0.000920 0.000000
# 4 0.000000 0.000000 0.000000 0.017042 0.000000 -0.000996
# 5 0.003881 -0.002737 0.000920 0.000000 0.033121 0.000000
# 6 0.000000 0.000000 0.000000 -0.000996 0.000000 0.021396
#
#
# Mechanical properties :
#
#
# Convention : Reuss Voigt Hill
#
# Bulk Modulus (GPa) = 54.93289 69.41376 62.17333
# Shear Modulus (GPa) = 34.43626 44.52978 39.48302
#
# Velocity S-wave (km/s) = 3.67200 4.17561 3.93187
# Velocity P-wave (km/s) = 6.28388 7.10117 6.70499
#
# Compressibility (1/GPa) = 0.01820403
#
# Stress axis : x y z
#
# Youngs Moduli (GPa) = 56.01520 51.47715 178.31004
#
# Poissons Ratio (x) = 0.42567 -0.05730
# Poissons Ratio (y) = 0.46320 0.78341
# Poissons Ratio (z) = -0.01800 0.22617
#
# Static dielectric constant tensor:
#      x y z
#    x 2.033460 0.000000 0.007180 
#    y 0.000000 2.059910 0.000000 
#    z 0.007180 0.000000 2.023130 
# 
# From -- ./inp_files/83007.got.cif
#   From: 2010.05.17/outbox.cif.g08.bks.cpg/sg13_42_cif.got.tgz:83007.got - 2010.06.03 16:44:36.
