data_PCOD9237371
_publ_section_title
;
Structure prediction by ZEFSAII (Michael W. Deem and Ramdas Pophale) SiO2 
 PCOD9237371
Probable space group: P 2/C
;
_chemical_formula_sum "Si O2"
_cell_formula_units_Z 26
_cell_length_a 10.839687
_cell_length_b 13.985566
_cell_length_c 9.407361
_cell_angle_alpha 90.000000
_cell_angle_beta 66.734225
_cell_angle_gamma 90.000000
_cell_volume 1310.177205
_symmetry_space_group_name_H-M "P 2/C"
_symmetry_group_IT_number 13
_symmetry_cell_setting 'monoclinic'
loop_
_space_group_symop_operation_xyz
x,y,z
-x,y,1/2-z
-x,-y,-z
x,-y,1/2+z
loop_
_atom_site_type_symbol
_atom_site_label
_atom_site_fract_x
_atom_site_fract_y
_atom_site_fract_z
Si Si1 0.747197 0.287338 0.989072
Si Si2 0.945460 0.885291 0.419719
Si Si3 0.056628 0.372848 0.365652
Si Si4 0.500000 0.801591 0.750000
Si Si5 0.200784 0.067740 0.919919
Si Si6 0.876229 0.590402 0.208862
Si Si7 0.636944 0.961261 0.872180
O O1 0.825440 0.329581 0.091514
O O2 0.596901 0.258993 0.102672
O O3 0.840606 0.194606 0.920721
O O4 0.756201 0.357089 0.847053
O O5 0.000000 0.931829 0.250000
O O6 0.081805 0.857505 0.441064
O O7 0.869510 0.963394 0.545568
O O8 0.118390 0.475439 0.288575
O O9 0.000000 0.322895 0.250000
O O10 0.926483 0.386546 0.527401
O O11 0.599210 0.872465 0.789698
O O12 0.304032 0.050332 0.745049
O O13 0.270018 0.074257 0.040948
O O14 0.000000 0.624517 0.250000
O O15 0.500000 0.000000 0.000000
#
# Coordination Sequence:
#
# PCOD9237371 Si02
#       7
#     4   4   4   2   4   4   4
#     4  11  22  39  58  87 123 161 203 258 310 363
#     4  11  21  36  59  90 122 151 199 267 312 352
#     4   9  17  33  63  93 117 143 187 247 315 378
#     4  12  26  40  60  82 122 172 220 250 304 370
#     4  11  23  37  62  87 117 163 213 249 310 361
#     4   8  16  34  61  90 116 151 188 237 315 382
#     4  12  21  42  60  82 117 172 214 247 293 367
#
# _framework density 19.844646000000001
#
# number of rings (size 3 to 8) (size 9 to 14) (size 15 to 20)
#    0.000    1.538    4.615    2.308    0.000    1.231 
#    0.000    0.769    0.000    0.000    0.000    0.000 
#    0.000    0.000    0.000    0.000    0.000    0.000 
#
# Total GULP energy -144832.428709 kJ/mol
# GULP energy per Si atom -5570.478027 kJ/mol
# Density = 1.979948 g / cm^3
# Si number density = 19.844646 Si / 1000 Ang^3
#
#
#
# Elastic Constant Matrix: (Units=GPa)
#
#
# Indices 1 2 3 4 5 6 
#
# 1 83.7033 5.7222 31.5505 0.0000 7.1663 0.0000
# 2 5.7222 48.3894 24.3777 0.0000 -13.5909 0.0000
# 3 31.5505 24.3777 105.0594 0.0000 -4.5663 0.0000
# 4 0.0000 0.0000 0.0000 36.0039 0.0000 -4.6937
# 5 7.1663 -13.5909 -4.5663 0.0000 41.9792 0.0000
# 6 0.0000 0.0000 0.0000 -4.6937 0.0000 16.0165
#
#
#
# Elastic Compliance Matrix: (Units=1/GPa)
#
#
# Indices 1 2 3 4 5 6 
#
# 1 0.013801 -0.000341 -0.004192 0.000000 -0.002922 0.000000
# 2 -0.000341 0.025666 -0.005516 0.000000 0.007768 0.000000
# 3 -0.004192 -0.005516 0.012068 0.000000 0.000243 0.000000
# 4 0.000000 0.000000 0.000000 0.028878 0.000000 0.008463
# 5 -0.002922 0.007768 0.000243 0.000000 0.026861 0.000000
# 6 0.000000 0.000000 0.000000 0.008463 0.000000 0.064915
#
#
# Mechanical properties :
#
#
# Convention : Reuss Voigt Hill
#
# Bulk Modulus (GPa) = 31.80926 40.05032 35.92979
# Shear Modulus (GPa) = 24.65892 30.50005 27.57948
#
# Velocity S-wave (km/s) = 3.52887 3.92464 3.73201
# Velocity P-wave (km/s) = 5.71558 6.38457 6.05932
#
# Compressibility (1/GPa) = 0.03143739
#
# Stress axis : x y z
#
# Youngs Moduli (GPa) = 72.46003 38.96154 82.86482
#
# Poissons Ratio (x) = 0.01327 0.34741
# Poissons Ratio (y) = 0.02468 0.45705
# Poissons Ratio (z) = 0.30379 0.21490
#
# Static dielectric constant tensor:
#      x y z
#    x 1.757620 0.000000 -0.084170 
#    y 0.000000 1.755380 0.000000 
#    z -0.084170 0.000000 2.109990 
# 
# From -- ./inp_files/16414.got.cif
#   From: 2010.05.17/outbox.cif.g08.bks.cpg/sg13_9_cif.got.tgz:16414.got - 2010.06.03 16:44:36.
