data_PCOD9237623
_publ_section_title
;
Structure prediction by ZEFSAII (Michael W. Deem and Ramdas Pophale) SiO2 
 PCOD9237623
Probable space group: P 2/C
;
_chemical_formula_sum "Si O2"
_cell_formula_units_Z 32
_cell_length_a 16.551498
_cell_length_b 12.025623
_cell_length_c 13.611967
_cell_angle_alpha 90.000000
_cell_angle_beta 145.353848
_cell_angle_gamma 90.000000
_cell_volume 1540.285722
_symmetry_space_group_name_H-M "P 2/C"
_symmetry_group_IT_number 13
_symmetry_cell_setting 'monoclinic'
loop_
_space_group_symop_operation_xyz
x,y,z
-x,y,1/2-z
-x,-y,-z
x,-y,1/2+z
loop_
_atom_site_type_symbol
_atom_site_label
_atom_site_fract_x
_atom_site_fract_y
_atom_site_fract_z
Si Si1 0.629580 0.342440 0.129818
Si Si2 0.422622 0.525854 0.273094
Si Si3 0.088227 0.868833 0.054158
Si Si4 0.604978 0.826189 0.771151
Si Si5 0.295721 0.756752 0.141529
Si Si6 0.794172 0.177387 0.157917
Si Si7 0.485412 0.946851 0.092067
Si Si8 0.085919 0.914326 0.434891
O O1 0.658346 0.430383 0.246819
O O2 0.569724 0.238971 0.134626
O O3 0.743504 0.282333 0.173650
O O4 0.531119 0.412488 0.957048
O O5 0.500000 0.488210 0.250000
O O6 0.324671 0.629461 0.147826
O O7 0.947114 0.852041 0.849553
O O8 0.145169 0.984282 0.063122
O O9 0.202882 0.775859 0.145246
O O10 0.034978 0.867877 0.112115
O O11 0.500000 0.777255 0.750000
O O12 0.561052 0.954701 0.725336
O O13 0.778384 0.834116 0.952049
O O14 0.436046 0.831916 0.299240
O O15 0.212022 0.800572 0.963486
O O16 0.680293 0.078653 0.058894
O O17 0.500000 0.000000 0.000000
O O18 0.000000 0.945056 0.250000
#
# Coordination Sequence:
#
# PCOD9237623 Si02
#       8
#     4   4   4   4   4   4   4   4
#     4  11  23  41  66  95 128 167 207 271 328 370
#     4  11  22  42  67  95 126 162 218 274 327 374
#     4  11  25  41  62  91 133 174 211 255 313 386
#     4  12  24  41  63  97 132 168 214 263 316 380
#     4  12  22  40  65  98 118 174 217 258 317 376
#     4  12  22  42  63  92 133 165 215 264 317 375
#     4  12  22  36  60  94 132 163 209 267 310 366
#     4  11  24  42  60  89 134 182 206 250 319 387
#
# _framework density 20.775366000000002
#
# number of rings (size 3 to 8) (size 9 to 14) (size 15 to 20)
#    0.000    0.500    6.250    2.625    3.500    1.000 
#    0.000    0.625    0.000    0.000    0.000    0.000 
#    0.000    0.000    0.000    0.000    0.000    0.000 
#
# Total GULP energy -178388.041933 kJ/mol
# GULP energy per Si atom -5574.626310 kJ/mol
# Density = 2.072808 g / cm^3
# Si number density = 20.775366 Si / 1000 Ang^3
#
#
#
# Elastic Constant Matrix: (Units=GPa)
#
#
# Indices 1 2 3 4 5 6 
#
# 1 133.3576 17.7263 22.1905 0.0000 -8.0185 0.0000
# 2 17.7263 80.2436 -2.2805 0.0000 3.6438 0.0000
# 3 22.1905 -2.2805 56.5518 0.0000 -5.1106 0.0000
# 4 0.0000 0.0000 0.0000 10.7819 0.0000 -9.7301
# 5 -8.0185 3.6438 -5.1106 0.0000 31.1785 0.0000
# 6 0.0000 0.0000 0.0000 -9.7301 0.0000 32.6079
#
#
#
# Elastic Compliance Matrix: (Units=1/GPa)
#
#
# Indices 1 2 3 4 5 6 
#
# 1 0.008417 -0.002036 -0.003215 0.000000 0.001876 0.000000
# 2 -0.002036 0.013029 0.001156 0.000000 -0.001857 0.000000
# 3 -0.003215 0.001156 0.019189 0.000000 0.002183 0.000000
# 4 0.000000 0.000000 0.000000 0.126928 0.000000 0.037875
# 5 0.001876 -0.001857 0.002183 0.000000 0.033131 0.000000
# 6 0.000000 0.000000 0.000000 0.037875 0.000000 0.041969
#
#
# Mechanical properties :
#
#
# Convention : Reuss Voigt Hill
#
# Bulk Modulus (GPa) = 30.82147 38.38062 34.60104
# Shear Modulus (GPa) = 19.10825 30.41477 24.76151
#
# Velocity S-wave (km/s) = 3.03604 3.83035 3.45609
# Velocity P-wave (km/s) = 5.21132 6.17060 5.71114
#
# Compressibility (1/GPa) = 0.03244492
#
# Stress axis : x y z
#
# Youngs Moduli (GPa) = 118.80614 76.75197 52.11440
#
# Poissons Ratio (x) = 0.15626 0.16757
# Poissons Ratio (y) = 0.24188 -0.06027
# Poissons Ratio (z) = 0.38201 -0.08876
#
# Static dielectric constant tensor:
#      x y z
#    x 1.821650 0.000000 -0.020740 
#    y 0.000000 1.794180 0.000000 
#    z -0.020740 0.000000 1.744130 
# 
# From -- ./inp_files/55842.got.cif
#   From: 2010.05.17/outbox.cif.g08.bks.cpg/sg13_28_cif.got.tgz:55842.got - 2010.06.03 16:44:36.
