data_PCOD9237857
_publ_section_title
;
Structure prediction by ZEFSAII (Michael W. Deem and Ramdas Pophale) SiO2 
 PCOD9237857
Probable space group: P 2/C
;
_chemical_formula_sum "Si O2"
_cell_formula_units_Z 24
_cell_length_a 14.540033
_cell_length_b 6.572081
_cell_length_c 13.079494
_cell_angle_alpha 90.000000
_cell_angle_beta 111.163199
_cell_angle_gamma 90.000000
_cell_volume 1165.558584
_symmetry_space_group_name_H-M "P 2/C"
_symmetry_group_IT_number 13
_symmetry_cell_setting 'monoclinic'
loop_
_space_group_symop_operation_xyz
x,y,z
-x,y,1/2-z
-x,-y,-z
x,-y,1/2+z
loop_
_atom_site_type_symbol
_atom_site_label
_atom_site_fract_x
_atom_site_fract_y
_atom_site_fract_z
Si Si1 0.113845 0.451675 0.069061
Si Si2 0.764060 0.223393 0.755709
Si Si3 0.566685 0.007837 0.184123
Si Si4 0.111764 0.156881 0.260402
Si Si5 0.764377 0.482920 0.068061
Si Si6 0.435489 0.305939 0.503140
O O1 0.172111 0.647099 0.138142
O O2 0.116307 0.277642 0.155166
O O3 0.173548 0.395295 0.990977
O O4 0.000000 0.500000 0.000000
O O5 0.667150 0.106129 0.756692
O O6 0.735300 0.378109 0.653038
O O7 0.833526 0.054344 0.732878
O O8 0.500000 0.089792 0.250000
O O9 0.591248 0.181152 0.110807
O O10 0.498110 0.842991 0.099427
O O11 0.166353 0.302006 0.363317
O O12 0.000000 0.127776 0.250000
O O13 0.664315 0.386025 0.985660
O O14 0.500000 0.500000 0.500000
#
# Coordination Sequence:
#
# PCOD9237857 Si02
#       6
#     4   4   4   4   4   4
#     4  11  25  42  65  96 125 170 218 260 321 380
#     4  11  25  42  66  96 129 172 211 268 322 377
#     4  11  24  43  67  99 130 166 220 261 321 388
#     4  11  24  42  67  93 130 167 211 268 318 379
#     4  11  23  45  64  91 135 166 215 262 319 382
#     4  11  23  43  67  94 128 174 210 264 322 380
#
# _framework density 20.590983999999999
#
# number of rings (size 3 to 8) (size 9 to 14) (size 15 to 20)
#    0.000    1.000    5.000    1.000    2.333    4.000 
#    0.000    0.000    0.000    0.000    0.000    0.000 
#    0.000    0.000    0.000    0.000    0.000    0.000 
#
# Total GULP energy -134211.618532 kJ/mol
# GULP energy per Si atom -5592.150772 kJ/mol
# Density = 2.054412 g / cm^3
# Si number density = 20.590984 Si / 1000 Ang^3
#
#
#
# Elastic Constant Matrix: (Units=GPa)
#
#
# Indices 1 2 3 4 5 6 
#
# 1 132.0724 4.4090 14.5313 0.0000 15.5882 0.0000
# 2 4.4090 58.3069 3.6535 0.0000 15.0813 0.0000
# 3 14.5313 3.6535 53.0982 0.0000 10.9204 0.0000
# 4 0.0000 0.0000 0.0000 13.3224 0.0000 4.1913
# 5 15.5882 15.0813 10.9204 0.0000 34.0533 0.0000
# 6 0.0000 0.0000 0.0000 4.1913 0.0000 36.1716
#
#
#
# Elastic Compliance Matrix: (Units=1/GPa)
#
#
# Indices 1 2 3 4 5 6 
#
# 1 0.008130 0.000357 -0.001554 0.000000 -0.003381 0.000000
# 2 0.000357 0.019396 0.000394 0.000000 -0.008880 0.000000
# 3 -0.001554 0.000394 0.020471 0.000000 -0.006028 0.000000
# 4 0.000000 0.000000 0.000000 0.077902 0.000000 -0.009027
# 5 -0.003381 -0.008880 -0.006028 0.000000 0.036779 0.000000
# 6 0.000000 0.000000 0.000000 -0.009027 0.000000 0.028692
#
#
# Mechanical properties :
#
#
# Convention : Reuss Voigt Hill
#
# Bulk Modulus (GPa) = 21.55609 32.07389 26.81499
# Shear Modulus (GPa) = 23.98792 31.43504 27.71148
#
# Velocity S-wave (km/s) = 3.41687 3.91146 3.67250
# Velocity P-wave (km/s) = 5.10471 6.00082 5.57082
#
# Compressibility (1/GPa) = 0.04639060
#
# Stress axis : x y z
#
# Youngs Moduli (GPa) = 123.00502 51.55788 48.84979
#
# Poissons Ratio (x) = -0.01842 0.07591
# Poissons Ratio (y) = -0.04394 -0.01924
# Poissons Ratio (z) = 0.19115 -0.02031
#
# Static dielectric constant tensor:
#      x y z
#    x 1.714350 0.000000 -0.012360 
#    y 0.000000 1.695950 0.000000 
#    z -0.012360 0.000000 1.751020 
# 
# From -- ./inp_files/52336.got.cif
#   From: 2010.05.17/outbox.cif.g08.bks.cpg/sg13_27_cif.got.tgz:52336.got - 2010.06.03 16:44:36.
