data_PCOD9237287
_publ_section_title
;
Structure prediction by ZEFSAII (Michael W. Deem and Ramdas Pophale) SiO2 
 PCOD9237287
Probable space group: P 2/C
;
_chemical_formula_sum "Si O2"
_cell_formula_units_Z 32
_cell_length_a 11.071810
_cell_length_b 9.958569
_cell_length_c 13.835551
_cell_angle_alpha 90.000000
_cell_angle_beta 96.721217
_cell_angle_gamma 90.000000
_cell_volume 1515.015147
_symmetry_space_group_name_H-M "P 2/C"
_symmetry_group_IT_number 13
_symmetry_cell_setting 'monoclinic'
loop_
_space_group_symop_operation_xyz
x,y,z
-x,y,1/2-z
-x,-y,-z
x,-y,1/2+z
loop_
_atom_site_type_symbol
_atom_site_label
_atom_site_fract_x
_atom_site_fract_y
_atom_site_fract_z
Si Si1 0.483849 0.259621 0.633398
Si Si2 0.871521 0.488116 0.291078
Si Si3 0.215347 0.614142 0.525028
Si Si4 0.732198 0.862216 0.085315
Si Si5 0.235323 0.133166 0.528880
Si Si6 0.740097 0.638116 0.606615
Si Si7 0.867114 0.198605 0.784675
Si Si8 0.520474 0.418428 0.365205
O O1 0.500000 0.238238 0.750000
O O2 0.595996 0.192684 0.587841
O O3 0.358090 0.194449 0.587554
O O4 0.486271 0.420713 0.618779
O O5 0.875328 0.427256 0.398308
O O6 0.783242 0.397311 0.217928
O O7 0.827594 0.643559 0.290342
O O8 0.000000 0.487328 0.250000
O O9 0.190373 0.745957 0.460876
O O10 0.225323 0.491527 0.452404
O O11 0.348391 0.628665 0.586802
O O12 0.783481 0.876539 0.198588
O O13 0.739809 0.992106 0.019413
O O14 0.200527 0.235338 0.439784
O O15 0.142292 0.134602 0.609951
O O16 0.594041 0.650509 0.594080
O O17 0.000000 0.197672 0.750000
O O18 0.500000 0.395767 0.250000
#
# Coordination Sequence:
#
# PCOD9237287 Si02
#       8
#     4   4   4   4   4   4   4   4
#     4  11  20  39  69  93 129 173 210 262 329 386
#     4  11  24  42  68 101 128 163 221 281 319 366
#     4  12  22  40  67  96 127 167 215 265 322 377
#     4  12  26  43  66  98 134 174 213 260 325 393
#     4  12  26  43  66  98 134 174 213 260 325 393
#     4  12  22  40  67  96 127 167 215 265 322 377
#     4  11  24  46  70  93 126 173 223 267 321 384
#     4  11  20  36  67  98 131 167 212 266 324 382
#
# _framework density 21.121901999999999
#
# number of rings (size 3 to 8) (size 9 to 14) (size 15 to 20)
#    0.000    0.500    7.500    1.500    0.000    3.000 
#    0.000    2.500    0.000    0.000    0.000    0.000 
#    0.000    0.000    0.000    0.000    0.000    0.000 
#
# Total GULP energy -179061.137139 kJ/mol
# GULP energy per Si atom -5595.660536 kJ/mol
# Density = 2.107383 g / cm^3
# Si number density = 21.121902 Si / 1000 Ang^3
#
#
#
# Elastic Constant Matrix: (Units=GPa)
#
#
# Indices 1 2 3 4 5 6 
#
# 1 46.2337 8.0986 5.7069 0.0000 -19.5559 0.0000
# 2 8.0986 36.1427 33.5205 0.0000 -21.2461 0.0000
# 3 5.7069 33.5205 111.1380 0.0000 -34.9359 0.0000
# 4 0.0000 0.0000 0.0000 31.5487 0.0000 -6.4616
# 5 -19.5559 -21.2461 -34.9359 0.0000 35.4070 0.0000
# 6 0.0000 0.0000 0.0000 -6.4616 0.0000 6.1726
#
#
#
# Elastic Compliance Matrix: (Units=1/GPa)
#
#
# Indices 1 2 3 4 5 6 
#
# 1 0.030367 0.002007 0.005054 0.000000 0.022963 0.000000
# 2 0.002007 0.046999 -0.007342 0.000000 0.022066 0.000000
# 3 0.005054 -0.007342 0.015142 0.000000 0.013326 0.000000
# 4 0.000000 0.000000 0.000000 0.040347 0.000000 0.042236
# 5 0.022963 0.022066 0.013326 0.000000 0.067315 0.000000
# 6 0.000000 0.000000 0.000000 0.042236 0.000000 0.206218
#
#
# Mechanical properties :
#
#
# Convention : Reuss Voigt Hill
#
# Bulk Modulus (GPa) = 10.87607 32.01848 21.44728
# Shear Modulus (GPa) = 11.42597 24.37156 17.89876
#
# Velocity S-wave (km/s) = 2.32836 3.40053 2.91418
# Velocity P-wave (km/s) = 3.51976 5.53262 4.63674
#
# Compressibility (1/GPa) = 0.09194496
#
# Stress axis : x y z
#
# Youngs Moduli (GPa) = 32.93081 21.27696 66.04278
#
# Poissons Ratio (x) = -0.04271 -0.33375
# Poissons Ratio (y) = -0.06610 0.48489
# Poissons Ratio (z) = -0.16642 0.15622
#
# Static dielectric constant tensor:
#      x y z
#    x 1.815140 0.000000 0.015090 
#    y 0.000000 1.716870 0.000000 
#    z 0.015090 0.000000 1.787360 
# 
# From -- ./inp_files/50342.got.cif
#   From: 2010.05.17/outbox.cif.g08.bks.cpg/sg13_26_cif.got.tgz:50342.got - 2010.06.03 16:44:36.
