data_PCOD9237554
_publ_section_title
;
Structure prediction by ZEFSAII (Michael W. Deem and Ramdas Pophale) SiO2 
 PCOD9237554
Probable space group: P 2/C
;
_chemical_formula_sum "Si O2"
_cell_formula_units_Z 28
_cell_length_a 8.446901
_cell_length_b 20.286084
_cell_length_c 15.363042
_cell_angle_alpha 90.000000
_cell_angle_beta 149.871581
_cell_angle_gamma 90.000000
_cell_volume 1321.370085
_symmetry_space_group_name_H-M "P 2/C"
_symmetry_group_IT_number 13
_symmetry_cell_setting 'monoclinic'
loop_
_space_group_symop_operation_xyz
x,y,z
-x,y,1/2-z
-x,-y,-z
x,-y,1/2+z
loop_
_atom_site_type_symbol
_atom_site_label
_atom_site_fract_x
_atom_site_fract_y
_atom_site_fract_z
Si Si1 0.880162 0.707884 0.917653
Si Si2 0.121220 0.146859 0.076673
Si Si3 0.087882 0.654655 0.385096
Si Si4 0.164662 0.949413 0.920196
Si Si5 0.226810 0.469268 0.680693
Si Si6 0.108005 0.093486 0.711114
Si Si7 0.783688 0.395456 0.231462
O O1 0.500000 0.705250 0.750000
O O2 0.966260 0.780875 0.928115
O O3 0.955041 0.648633 0.887249
O O4 0.004258 0.696275 0.073955
O O5 0.500000 0.144620 0.250000
O O6 0.010195 0.089330 0.086869
O O7 0.957221 0.136168 0.905172
O O8 0.461928 0.642756 0.559009
O O9 0.000000 0.682217 0.250000
O O10 0.924852 0.584245 0.328138
O O11 0.000000 0.931065 0.750000
O O12 0.532095 0.930629 0.104166
O O13 0.105628 0.027505 0.901338
O O14 0.500000 0.440155 0.750000
O O15 0.319068 0.533480 0.780320
O O16 0.000000 0.500000 0.500000
O O17 0.000000 0.126443 0.750000
O O18 0.000000 0.402989 0.250000
#
# Coordination Sequence:
#
# PCOD9237554 Si02
#       7
#     4   4   4   4   4   4   4
#     4   9  21  43  61  82 119 161 199 248 294 351
#     4  11  22  39  64  88 120 163 206 247 303 357
#     4  11  24  40  62  90 118 152 201 245 299 355
#     4  11  22  39  62  92 126 159 201 249 303 358
#     4  12  22  39  65  88 122 155 193 247 302 356
#     4  11  22  39  62  92 126 159 201 250 302 358
#     4  11  23  41  62  87 119 158 196 242 300 361
#
# _framework density 21.190128999999999
#
# number of rings (size 3 to 8) (size 9 to 14) (size 15 to 20)
#    0.000    1.143    2.857    5.143    2.000    2.286 
#    0.000    7.143    0.000    0.000    0.000    0.000 
#    0.000    0.000    0.000    0.000    0.000    0.000 
#
# Total GULP energy -156429.780690 kJ/mol
# GULP energy per Si atom -5586.777882 kJ/mol
# Density = 2.114190 g / cm^3
# Si number density = 21.190129 Si / 1000 Ang^3
#
#
#
# Elastic Constant Matrix: (Units=GPa)
#
#
# Indices 1 2 3 4 5 6 
#
# 1 98.6025 13.9984 13.2943 0.0000 -13.0027 0.0000
# 2 13.9984 50.3321 1.4813 0.0000 -12.3796 0.0000
# 3 13.2943 1.4813 87.0848 0.0000 -5.2571 0.0000
# 4 0.0000 0.0000 0.0000 5.2916 0.0000 8.5101
# 5 -13.0027 -12.3796 -5.2571 0.0000 40.9260 0.0000
# 6 0.0000 0.0000 0.0000 8.5101 0.0000 -1.2647
#
#
#
# Elastic Compliance Matrix: (Units=1/GPa)
#
#
# Indices 1 2 3 4 5 6 
#
# 1 0.011022 -0.002385 -0.001486 0.000000 0.002590 0.000000
# 2 -0.002385 0.021981 0.000349 0.000000 0.005936 0.000000
# 3 -0.001486 0.000349 0.011773 0.000000 0.001146 0.000000
# 4 0.000000 0.000000 0.000000 0.015985 0.000000 0.107568
# 5 0.002590 0.005936 0.001146 0.000000 0.027200 0.000000
# 6 0.000000 0.000000 0.000000 0.107568 0.000000 -0.066886
#
#
# Mechanical properties :
#
#
# Convention : Reuss Voigt Hill
#
# Bulk Modulus (GPa) = 26.50252 32.61858 29.56055
# Shear Modulus (GPa) = 122.85901 22.80694 72.83297
#
# Velocity S-wave (km/s) = 7.62268 3.28426 5.86905
# Velocity P-wave (km/s) = 9.48724 5.45972 7.74004
#
# Compressibility (1/GPa) = 0.03773226
#
# Stress axis : x y z
#
# Youngs Moduli (GPa) = 90.72678 45.49366 84.93935
#
# Poissons Ratio (x) = 0.10849 0.12620
# Poissons Ratio (y) = 0.21637 -0.02960
# Poissons Ratio (z) = 0.13480 -0.01585
#
# Static dielectric constant tensor:
#      x y z
#    x 1.746860 0.000000 0.009970 
#    y 0.000000 1.748420 0.000000 
#    z 0.009970 0.000000 1.821780 
# 
# From -- ./inp_files/48251.got.cif
#   From: 2010.05.17/outbox.cif.g08.bks.cpg/sg13_25_cif.got.tgz:48251.got - 2010.06.03 16:44:36.
