data_PCOD9237904
_publ_section_title
;
Structure prediction by ZEFSAII (Michael W. Deem and Ramdas Pophale) SiO2 
 PCOD9237904
Probable space group: P 2/C
;
_chemical_formula_sum "Si O2"
_cell_formula_units_Z 20
_cell_length_a 20.430455
_cell_length_b 5.329558
_cell_length_c 10.205071
_cell_angle_alpha 90.000000
_cell_angle_beta 43.822228
_cell_angle_gamma 90.000000
_cell_volume 769.408233
_symmetry_space_group_name_H-M "P 2/C"
_symmetry_group_IT_number 13
_symmetry_cell_setting 'monoclinic'
loop_
_space_group_symop_operation_xyz
x,y,z
-x,y,1/2-z
-x,-y,-z
x,-y,1/2+z
loop_
_atom_site_type_symbol
_atom_site_label
_atom_site_fract_x
_atom_site_fract_y
_atom_site_fract_z
Si Si1 0.261189 0.143219 0.965393
Si Si2 0.090320 0.953456 0.528478
Si Si3 0.640674 0.500113 0.844294
Si Si4 0.406050 0.788308 0.841025
Si Si5 0.840648 0.443586 0.180789
O O1 0.180417 0.026293 0.993959
O O2 0.208716 0.374722 0.111380
O O3 0.347561 0.241833 0.753195
O O4 0.310243 0.950449 0.994364
O O5 0.110693 0.711265 0.408701
O O6 0.000000 0.915638 0.750000
O O7 0.089200 0.213964 0.451803
O O8 0.593995 0.688347 0.808239
O O9 0.749639 0.566208 0.716855
O O10 0.597386 0.438400 0.047841
O O11 0.500000 0.932400 0.750000
#
# Coordination Sequence:
#
# PCOD9237904 Si02
#       5
#     4   4   4   4   4
#     4  11  24  44  71 100 152 193 248 304 376 437
#     4  11  25  43  72 109 146 194 246 304 369 444
#     4  11  24  46  72 104 148 197 244 310 372 438
#     4  12  26  45  73 109 147 198 254 308 371 442
#     4  11  23  44  71 103 147 194 243 300 371 440
#
# _framework density 25.994004
#
# number of rings (size 3 to 8) (size 9 to 14) (size 15 to 20)
#    0.000    0.800    4.000    3.600    0.000    3.200 
#    0.000    0.000    0.000    0.000    0.000    0.000 
#    0.000    0.000    0.000    0.000    0.000    0.000 
#
# Total GULP energy -111971.858608 kJ/mol
# GULP energy per Si atom -5598.592930 kJ/mol
# Density = 2.593484 g / cm^3
# Si number density = 25.994004 Si / 1000 Ang^3
#
#
#
# Elastic Constant Matrix: (Units=GPa)
#
#
# Indices 1 2 3 4 5 6 
#
# 1 98.2273 27.0153 25.5528 0.0000 -4.4667 0.0000
# 2 27.0153 114.9290 44.2440 0.0000 -3.1928 0.0000
# 3 25.5528 44.2440 109.1127 0.0000 11.9837 0.0000
# 4 0.0000 0.0000 0.0000 29.0969 0.0000 10.7327
# 5 -4.4667 -3.1928 11.9837 0.0000 48.4233 0.0000
# 6 0.0000 0.0000 0.0000 10.7327 0.0000 10.8218
#
#
#
# Elastic Compliance Matrix: (Units=1/GPa)
#
#
# Indices 1 2 3 4 5 6 
#
# 1 0.011282 -0.001818 -0.002062 0.000000 0.001431 0.000000
# 2 -0.001818 0.010752 -0.004105 0.000000 0.001557 0.000000
# 3 -0.002062 -0.004105 0.011680 0.000000 -0.003351 0.000000
# 4 0.000000 0.000000 0.000000 0.054193 0.000000 -0.053747
# 5 0.001431 0.001557 -0.003351 0.000000 0.021715 0.000000
# 6 0.000000 0.000000 0.000000 -0.053747 0.000000 0.145711
#
#
# Mechanical properties :
#
#
# Convention : Reuss Voigt Hill
#
# Bulk Modulus (GPa) = 56.35801 57.32144 56.83973
# Shear Modulus (GPa) = 18.03625 32.69886 25.36755
#
# Velocity S-wave (km/s) = 2.63698 3.55059 3.12733
# Velocity P-wave (km/s) = 5.56775 6.23768 5.91221
#
# Compressibility (1/GPa) = 0.01774371
#
# Stress axis : x y z
#
# Youngs Moduli (GPa) = 88.63641 93.00591 85.61407
#
# Poissons Ratio (x) = 0.16913 0.17653
# Poissons Ratio (y) = 0.16118 0.35144
# Poissons Ratio (z) = 0.18276 0.38179
#
# Static dielectric constant tensor:
#      x y z
#    x 2.074230 0.000000 0.028000 
#    y 0.000000 2.094010 0.000000 
#    z 0.028000 0.000000 2.099380 
# 
# From -- ./inp_files/39748.got.cif
#   From: 2010.05.17/outbox.cif.g08.bks.cpg/sg13_20_cif.got.tgz:39748.got - 2010.06.03 16:44:36.
