data_PCOD9237573
_publ_section_title
;
Structure prediction by ZEFSAII (Michael W. Deem and Ramdas Pophale) SiO2 
 PCOD9237573
Probable space group: P 2/C
;
_chemical_formula_sum "Si O2"
_cell_formula_units_Z 32
_cell_length_a 13.528840
_cell_length_b 12.214721
_cell_length_c 16.485334
_cell_angle_alpha 90.000000
_cell_angle_beta 33.458529
_cell_angle_gamma 90.000000
_cell_volume 1501.952033
_symmetry_space_group_name_H-M "P 2/C"
_symmetry_group_IT_number 13
_symmetry_cell_setting 'monoclinic'
loop_
_space_group_symop_operation_xyz
x,y,z
-x,y,1/2-z
-x,-y,-z
x,-y,1/2+z
loop_
_atom_site_type_symbol
_atom_site_label
_atom_site_fract_x
_atom_site_fract_y
_atom_site_fract_z
Si Si1 0.054775 0.101111 0.617333
Si Si2 0.736412 0.272088 0.245376
Si Si3 0.653072 0.267637 0.048721
Si Si4 0.844265 0.573892 0.530241
Si Si5 0.552041 0.393364 0.515980
Si Si6 0.299568 0.353409 0.918372
Si Si7 0.814114 0.297929 0.758552
Si Si8 0.959875 0.849834 0.875419
O O1 0.237907 0.168584 0.486282
O O2 0.000000 0.099111 0.750000
O O3 0.905188 0.179755 0.677989
O O4 0.080893 0.975963 0.576081
O O5 0.552323 0.239079 0.326712
O O6 0.824964 0.365198 0.129143
O O7 0.669072 0.322347 0.375319
O O8 0.874472 0.180938 0.179280
O O9 0.689708 0.371328 0.080196
O O10 0.749045 0.293437 0.896756
O O11 0.807091 0.445439 0.559120
O O12 0.031719 0.612181 0.362075
O O13 0.500000 0.500000 0.500000
O O14 0.669390 0.408813 0.514854
O O15 0.367163 0.330039 0.663409
O O16 0.500000 0.334361 0.750000
O O17 0.190596 0.241143 0.002682
O O18 0.000000 0.843051 0.750000
#
# Coordination Sequence:
#
# PCOD9237573 Si02
#       8
#     4   4   4   4   4   4   4   4
#     4   8  17  39  65  90 123 165 213 265 305 368
#     4  11  23  40  62  97 124 165 210 258 311 381
#     4   9  18  39  65  95 123 158 211 261 315 363
#     4  11  22  39  67  93 124 160 208 262 314 375
#     4  11  23  40  62  94 130 163 212 259 318 388
#     4  12  26  42  60  88 132 167 201 259 326 375
#     4   9  20  38  66  93 123 165 211 259 314 372
#     4  11  24  44  62  91 129 170 212 257 312 378
#
# _framework density 21.305606999999998
#
# number of rings (size 3 to 8) (size 9 to 14) (size 15 to 20)
#    0.000    1.750    1.250    4.500    3.500    1.500 
#    2.250    7.500    0.000    0.000    0.000    0.000 
#    0.000    0.000    0.000    0.000    0.000    0.000 
#
# Total GULP energy -178782.229204 kJ/mol
# GULP energy per Si atom -5586.944663 kJ/mol
# Density = 2.125711 g / cm^3
# Si number density = 21.305607 Si / 1000 Ang^3
#
#
#
# Elastic Constant Matrix: (Units=GPa)
#
#
# Indices 1 2 3 4 5 6 
#
# 1 87.3070 35.9660 26.5917 0.0000 -17.1997 0.0000
# 2 35.9660 171.1540 54.6509 0.0000 -16.7711 0.0000
# 3 26.5917 54.6509 113.1831 0.0000 -13.5450 0.0000
# 4 0.0000 0.0000 0.0000 -2.0557 0.0000 1.0130
# 5 -17.1997 -16.7711 -13.5450 0.0000 20.9112 0.0000
# 6 0.0000 0.0000 0.0000 1.0130 0.0000 26.9263
#
#
#
# Elastic Compliance Matrix: (Units=1/GPa)
#
#
# Indices 1 2 3 4 5 6 
#
# 1 0.014470 -0.001630 -0.001458 0.000000 0.009651 0.000000
# 2 -0.001630 0.007360 -0.002846 0.000000 0.002719 0.000000
# 3 -0.001458 -0.002846 0.010987 0.000000 0.003635 0.000000
# 4 0.000000 0.000000 0.000000 -0.477594 0.000000 0.017968
# 5 0.009651 0.002719 0.003635 0.000000 0.060295 0.000000
# 6 0.000000 0.000000 0.000000 0.017968 0.000000 0.036462
#
#
# Mechanical properties :
#
#
# Convention : Reuss Voigt Hill
#
# Bulk Modulus (GPa) = 47.72998 67.34013 57.53505
# Shear Modulus (GPa) = -15.18976 26.11873 5.46448
#
# Velocity S-wave (km/s) = -2.67300 3.50510 1.60324
# Velocity P-wave (km/s) = 3.59508 6.93227 5.52182
#
# Compressibility (1/GPa) = 0.02095119
#
# Stress axis : x y z
#
# Youngs Moduli (GPa) = 69.10650 135.86534 91.01811
#
# Poissons Ratio (x) = 0.22140 0.13270
# Poissons Ratio (y) = 0.11262 0.25900
# Poissons Ratio (z) = 0.10075 0.38662
#
# Static dielectric constant tensor:
#      x y z
#    x 1.780380 0.000000 0.025140 
#    y 0.000000 1.801260 0.000000 
#    z 0.025140 0.000000 1.792410 
# 
# From -- ./inp_files/68646.got.cif
#   From: 2010.05.17/outbox.cif.g08.bks.cpg/sg13_35_cif.got.tgz:68646.got - 2010.06.03 16:44:36.
