data_PCOD9237054
_publ_section_title
;
Structure prediction by ZEFSAII (Michael W. Deem and Ramdas Pophale) SiO2 
 PCOD9237054
Probable space group: P 2/C
;
_chemical_formula_sum "Si O2"
_cell_formula_units_Z 18
_cell_length_a 11.634053
_cell_length_b 10.963096
_cell_length_c 7.900691
_cell_angle_alpha 90.000000
_cell_angle_beta 46.026384
_cell_angle_gamma 90.000000
_cell_volume 725.197767
_symmetry_space_group_name_H-M "P 2/C"
_symmetry_group_IT_number 13
_symmetry_cell_setting 'monoclinic'
loop_
_space_group_symop_operation_xyz
x,y,z
-x,y,1/2-z
-x,-y,-z
x,-y,1/2+z
loop_
_atom_site_type_symbol
_atom_site_label
_atom_site_fract_x
_atom_site_fract_y
_atom_site_fract_z
Si Si1 0.500000 0.464717 0.750000
Si Si2 0.671436 0.666042 0.762526
Si Si3 0.654536 0.918572 0.862997
Si Si4 0.983445 0.358949 0.466622
Si Si5 0.168648 0.869928 0.480085
O O1 0.640665 0.558255 0.661172
O O2 0.571662 0.384881 0.525804
O O3 0.619011 0.802476 0.781400
O O4 0.857126 0.689425 0.609274
O O5 0.698567 0.868979 0.005811
O O6 0.796035 0.009223 0.662353
O O7 0.500000 0.000000 0.000000
O O8 0.844114 0.255313 0.620120
O O9 0.000000 0.366302 0.250000
O O10 0.000000 0.500000 0.500000
O O11 0.000000 0.879545 0.750000
#
# Coordination Sequence:
#
# PCOD9237054 Si02
#       5
#     2   4   4   4   4
#     4  10  26  44  70 102 148 190 242 312 360 446
#     4  11  24  45  69 103 140 190 244 297 370 434
#     4  12  27  45  73 104 147 195 244 302 372 440
#     4  11  23  45  73 103 140 183 241 296 364 426
#     4  11  25  48  70 106 143 189 244 304 361 441
#
# _framework density 24.820816000000001
#
# number of rings (size 3 to 8) (size 9 to 14) (size 15 to 20)
#    0.000    0.889    4.444    2.667    6.222    1.778 
#    4.000    0.000    0.000    0.000    0.000    0.000 
#    0.000    0.000    0.000    0.000    0.000    0.000 
#
# Total GULP energy -100477.563592 kJ/mol
# GULP energy per Si atom -5582.086866 kJ/mol
# Density = 2.476432 g / cm^3
# Si number density = 24.820816 Si / 1000 Ang^3
#
#
#
# Elastic Constant Matrix: (Units=GPa)
#
#
# Indices 1 2 3 4 5 6 
#
# 1 142.1939 41.8490 4.1469 0.0000 -19.8777 0.0000
# 2 41.8490 241.3503 43.5570 0.0000 -5.6370 0.0000
# 3 4.1469 43.5570 27.4030 0.0000 -12.9140 0.0000
# 4 0.0000 0.0000 0.0000 80.8095 0.0000 -2.8937
# 5 -19.8777 -5.6370 -12.9140 0.0000 22.6362 0.0000
# 6 0.0000 0.0000 0.0000 -2.8937 0.0000 54.8422
#
#
#
# Elastic Compliance Matrix: (Units=1/GPa)
#
#
# Indices 1 2 3 4 5 6 
#
# 1 0.009477 -0.003068 0.009579 0.000000 0.013023 0.000000
# 2 -0.003068 0.007294 -0.015787 0.000000 -0.009884 0.000000
# 3 0.009579 -0.015787 0.085137 0.000000 0.053051 0.000000
# 4 0.000000 0.000000 0.000000 0.012398 0.000000 0.000654
# 5 0.013023 -0.009884 0.053051 0.000000 0.083417 0.000000
# 6 0.000000 0.000000 0.000000 0.000654 0.000000 0.018269
#
#
# Mechanical properties :
#
#
# Convention : Reuss Voigt Hill
#
# Bulk Modulus (GPa) = 11.99666 65.56144 38.77905
# Shear Modulus (GPa) = 19.06020 53.08388 36.07204
#
# Velocity S-wave (km/s) = 2.77413 4.62961 3.81635
# Velocity P-wave (km/s) = 3.88650 7.41950 5.92257
#
# Compressibility (1/GPa) = 0.08335656
#
# Stress axis : x y z
#
# Youngs Moduli (GPa) = 105.52203 137.10800 11.74583
#
# Poissons Ratio (x) = 0.42063 -0.11252
# Poissons Ratio (y) = 0.32373 0.18543
# Poissons Ratio (z) = -1.01085 2.16449
#
# Static dielectric constant tensor:
#      x y z
#    x 2.024870 0.000000 -0.062280 
#    y 0.000000 2.294200 0.000000 
#    z -0.062280 0.000000 2.566480 
# 
# From -- ./inp_files/15482.got.cif
#   From: 2010.05.17/outbox.cif.g08.bks.cpg/sg13_8_cif.got.tgz:15482.got - 2010.06.03 16:44:36.
