data_PCOD9237221
_publ_section_title
;
Structure prediction by ZEFSAII (Michael W. Deem and Ramdas Pophale) SiO2 
 PCOD9237221
Probable space group: P 2/C
;
_chemical_formula_sum "Si O2"
_cell_formula_units_Z 28
_cell_length_a 8.935019
_cell_length_b 7.546402
_cell_length_c 19.340074
_cell_angle_alpha 90.000000
_cell_angle_beta 98.254617
_cell_angle_gamma 90.000000
_cell_volume 1290.537743
_symmetry_space_group_name_H-M "P 2/C"
_symmetry_group_IT_number 13
_symmetry_cell_setting 'monoclinic'
loop_
_space_group_symop_operation_xyz
x,y,z
-x,y,1/2-z
-x,-y,-z
x,-y,1/2+z
loop_
_atom_site_type_symbol
_atom_site_label
_atom_site_fract_x
_atom_site_fract_y
_atom_site_fract_z
Si Si1 0.828904 0.061022 0.239244
Si Si2 0.706652 0.712349 0.193258
Si Si3 0.857919 0.615362 0.640349
Si Si4 0.392373 0.831359 0.676246
Si Si5 0.566838 0.647235 0.410707
Si Si6 0.564587 0.260901 0.056777
Si Si7 0.198931 0.479632 0.660678
O O1 0.832483 0.258265 0.206200
O O2 0.752603 0.055266 0.309801
O O3 0.000000 0.001533 0.250000
O O4 0.744852 0.916775 0.187801
O O5 0.786773 0.578613 0.145699
O O6 0.529601 0.694548 0.164119
O O7 0.776212 0.641535 0.270107
O O8 0.745619 0.715482 0.579992
O O9 0.035466 0.573787 0.642327
O O10 0.500000 0.851235 0.750000
O O11 0.481381 0.854384 0.610673
O O12 0.323848 0.634437 0.673819
O O13 0.506535 0.454851 0.431105
O O14 0.537036 0.773551 0.474274
O O15 0.742172 0.630739 0.401386
#
# Coordination Sequence:
#
# PCOD9237221 Si02
#       7
#     4   4   4   4   4   4   4
#     4  12  22  36  60  93 121 159 205 259 321 371
#     4  11  22  37  61  88 125 157 204 259 310 372
#     4  11  20  38  61  89 123 158 201 255 315 369
#     4  11  19  33  60  86 117 155 203 252 310 364
#     4   9  20  37  59  89 121 164 209 249 309 372
#     4   9  19  37  60  87 121 164 206 249 311 379
#     4  11  19  35  61  90 121 157 201 263 307 367
#
# _framework density 21.696382
#
# number of rings (size 3 to 8) (size 9 to 14) (size 15 to 20)
#    0.000    1.429    4.286    3.429    0.000    1.714 
#    0.000    0.714    0.000    0.857    0.000    0.000 
#    0.000    0.000    0.000    0.000    0.000    0.000 
#
# Total GULP energy -155928.898243 kJ/mol
# GULP energy per Si atom -5568.889223 kJ/mol
# Density = 2.164700 g / cm^3
# Si number density = 21.696382 Si / 1000 Ang^3
#
#
#
# Elastic Constant Matrix: (Units=GPa)
#
#
# Indices 1 2 3 4 5 6 
#
# 1 140.7207 26.7175 46.9739 0.0000 -10.7610 0.0000
# 2 26.7175 77.6917 17.3186 0.0000 -8.2404 0.0000
# 3 46.9739 17.3186 74.4468 0.0000 -8.4164 0.0000
# 4 0.0000 0.0000 0.0000 12.6082 0.0000 7.7038
# 5 -10.7610 -8.2404 -8.4164 0.0000 15.0188 0.0000
# 6 0.0000 0.0000 0.0000 7.7038 0.0000 10.9000
#
#
#
# Elastic Compliance Matrix: (Units=1/GPa)
#
#
# Indices 1 2 3 4 5 6 
#
# 1 0.009394 -0.001771 -0.005193 0.000000 0.002849 0.000000
# 2 -0.001771 0.014447 -0.001592 0.000000 0.005766 0.000000
# 3 -0.005193 -0.001592 0.017680 0.000000 0.005313 0.000000
# 4 0.000000 0.000000 0.000000 0.139597 0.000000 -0.098662
# 5 0.002849 0.005766 0.005313 0.000000 0.074766 0.000000
# 6 0.000000 0.000000 0.000000 -0.098662 0.000000 0.161474
#
#
# Mechanical properties :
#
#
# Convention : Reuss Voigt Hill
#
# Bulk Modulus (GPa) = 40.96758 52.76436 46.86597
# Shear Modulus (GPa) = 11.29675 21.16203 16.22939
#
# Velocity S-wave (km/s) = 2.28430 3.12648 2.73797
# Velocity P-wave (km/s) = 5.08730 6.11600 5.62521
#
# Compressibility (1/GPa) = 0.02440955
#
# Stress axis : x y z
#
# Youngs Moduli (GPa) = 106.45231 69.22010 56.56046
#
# Poissons Ratio (x) = 0.12256 0.29373
# Poissons Ratio (y) = 0.18849 0.09003
# Poissons Ratio (z) = 0.55284 0.11018
#
# Static dielectric constant tensor:
#      x y z
#    x 1.859870 0.000000 0.003820 
#    y 0.000000 1.816590 0.000000 
#    z 0.003820 0.000000 1.840070 
# 
# From -- ./inp_files/75307.got.cif
#   From: 2010.05.17/outbox.cif.g08.bks.cpg/sg13_38_cif.got.tgz:75307.got - 2010.06.03 16:44:36.
