data_PCOD9237714
_publ_section_title
;
Structure prediction by ZEFSAII (Michael W. Deem and Ramdas Pophale) SiO2 
 PCOD9237714
Probable space group: P 2/C
;
_chemical_formula_sum "Si O2"
_cell_formula_units_Z 26
_cell_length_a 31.177832
_cell_length_b 5.212675
_cell_length_c 21.787397
_cell_angle_alpha 90.000000
_cell_angle_beta 160.277490
_cell_angle_gamma 90.000000
_cell_volume 1194.925387
_symmetry_space_group_name_H-M "P 2/C"
_symmetry_group_IT_number 13
_symmetry_cell_setting 'monoclinic'
loop_
_space_group_symop_operation_xyz
x,y,z
-x,y,1/2-z
-x,-y,-z
x,-y,1/2+z
loop_
_atom_site_type_symbol
_atom_site_label
_atom_site_fract_x
_atom_site_fract_y
_atom_site_fract_z
Si Si1 0.515847 0.006076 0.683609
Si Si2 0.960064 0.542092 0.767779
Si Si3 0.775051 0.426076 0.809357
Si Si4 0.626821 0.941326 0.633415
Si Si5 0.195135 0.044843 0.902927
Si Si6 0.707034 0.309995 0.576710
Si Si7 0.500000 0.520986 0.250000
O O1 0.447992 0.769047 0.628847
O O2 0.426320 0.007196 0.505330
O O3 0.491741 0.274901 0.681279
O O4 0.663817 0.960339 0.877498
O O5 0.879733 0.285305 0.669916
O O6 0.000000 0.564921 0.750000
O O7 0.882490 0.792120 0.684457
O O8 0.083385 0.519330 0.977937
O O9 0.685029 0.657377 0.712006
O O10 0.759037 0.392525 0.712986
O O11 0.731742 0.161012 0.783332
O O12 0.500000 0.000000 0.500000
O O13 0.215304 0.095830 0.856097
O O14 0.666912 0.505533 0.470470
#
# Coordination Sequence:
#
# PCOD9237714 Si02
#       7
#     4   4   4   4   4   4   2
#     4  11  23  37  69 108 137 169 221 292 356 408
#     4  12  30  48  68  94 140 196 238 281 322 410
#     4  11  26  47  65 100 143 178 229 295 335 401
#     4  11  25  42  71 100 135 182 224 286 354 410
#     4  12  25  44  74 100 133 191 231 278 346 419
#     4  11  23  40  71 105 141 168 224 300 356 412
#     4  12  16  40  62 104 148 164 204 284 376 396
#
# _framework density 21.758682
#
# number of rings (size 3 to 8) (size 9 to 14) (size 15 to 20)
#    0.000    0.615    4.615    2.769    4.308    1.231 
#    0.000    0.000    0.000    0.000    0.000    0.000 
#    0.000    0.000    0.000    0.000    0.000    0.000 
#
# Total GULP energy -144761.331514 kJ/mol
# GULP energy per Si atom -5567.743520 kJ/mol
# Density = 2.170916 g / cm^3
# Si number density = 21.758682 Si / 1000 Ang^3
#
#
#
# Elastic Constant Matrix: (Units=GPa)
#
#
# Indices 1 2 3 4 5 6 
#
# 1 58.0046 50.8653 38.5989 0.0000 16.2715 0.0000
# 2 50.8653 131.1819 30.1588 0.0000 13.9850 0.0000
# 3 38.5989 30.1588 128.4140 0.0000 7.3969 0.0000
# 4 0.0000 0.0000 0.0000 29.5842 0.0000 31.8994
# 5 16.2715 13.9850 7.3969 0.0000 29.3209 0.0000
# 6 0.0000 0.0000 0.0000 31.8994 0.0000 21.8565
#
#
#
# Elastic Compliance Matrix: (Units=1/GPa)
#
#
# Indices 1 2 3 4 5 6 
#
# 1 0.034762 -0.010479 -0.007270 0.000000 -0.012459 0.000000
# 2 -0.010479 0.011569 0.000422 0.000000 0.000191 0.000000
# 3 -0.007270 0.000422 0.009795 0.000000 0.001362 0.000000
# 4 0.000000 0.000000 0.000000 -0.058917 0.000000 0.085990
# 5 -0.012459 0.000191 0.001362 0.000000 0.040584 0.000000
# 6 0.000000 0.000000 0.000000 0.085990 0.000000 -0.079749
#
#
# Mechanical properties :
#
#
# Convention : Reuss Voigt Hill
#
# Bulk Modulus (GPa) = 46.57424 61.87185 54.22304
# Shear Modulus (GPa) = -35063.74629 29.35082 -17517.19774
#
# Velocity S-wave (km/s) = -127.08192 3.67676 -89.82287
# Velocity P-wave (km/s) = 146.66845 6.82070 103.59805
#
# Compressibility (1/GPa) = 0.02147110
#
# Stress axis : x y z
#
# Youngs Moduli (GPa) = 28.76668 86.43793 102.09244
#
# Poissons Ratio (x) = 0.90582 0.74223
# Poissons Ratio (y) = 0.30146 -0.04307
# Poissons Ratio (z) = 0.20914 -0.03646
#
# Static dielectric constant tensor:
#      x y z
#    x 1.756980 0.000000 0.031110 
#    y 0.000000 1.754580 0.000000 
#    z 0.031110 0.000000 1.774700 
# 
# From -- ./inp_files/82691.got.cif
#   From: 2010.05.17/outbox.cif.g08.bks.cpg/sg13_42_cif.got.tgz:82691.got - 2010.06.03 16:44:36.
