data_PCOD9237505
_publ_section_title
;
Structure prediction by ZEFSAII (Michael W. Deem and Ramdas Pophale) SiO2 
 PCOD9237505
Probable space group: P 2/C
;
_chemical_formula_sum "Si O2"
_cell_formula_units_Z 28
_cell_length_a 25.958713
_cell_length_b 7.842009
_cell_length_c 9.440599
_cell_angle_alpha 90.000000
_cell_angle_beta 137.900504
_cell_angle_gamma 90.000000
_cell_volume 1288.418837
_symmetry_space_group_name_H-M "P 2/C"
_symmetry_group_IT_number 13
_symmetry_cell_setting 'monoclinic'
loop_
_space_group_symop_operation_xyz
x,y,z
-x,y,1/2-z
-x,-y,-z
x,-y,1/2+z
loop_
_atom_site_type_symbol
_atom_site_label
_atom_site_fract_x
_atom_site_fract_y
_atom_site_fract_z
Si Si1 0.673613 0.797147 0.774216
Si Si2 0.422666 0.693186 0.664502
Si Si3 0.425571 0.303518 0.676847
Si Si4 0.836398 0.809534 0.100539
Si Si5 0.168603 0.824013 0.752522
Si Si6 0.324990 0.807119 0.218126
Si Si7 0.002315 0.819063 0.423873
O O1 0.610723 0.786969 0.768291
O O2 0.641426 0.699652 0.574923
O O3 0.683964 0.995806 0.755822
O O4 0.756881 0.724601 0.987638
O O5 0.500000 0.763956 0.750000
O O6 0.441096 0.499622 0.746882
O O7 0.354368 0.701014 0.410770
O O8 0.500000 0.230732 0.750000
O O9 0.393790 0.205108 0.745610
O O10 0.921114 0.729842 0.294809
O O11 0.837118 0.986461 0.190716
O O12 0.826492 0.833458 0.909028
O O13 0.086243 0.739092 0.622696
O O14 0.245835 0.750559 0.981141
O O15 0.000000 0.851860 0.250000
O O16 0.000000 0.000000 0.500000
#
# Coordination Sequence:
#
# PCOD9237505 Si02
#       7
#     4   4   4   4   4   4   4
#     4  11  22  36  58  86 113 139 183 232 280 323
#     4  11  25  41  57  78 107 150 190 227 277 333
#     4  11  23  41  59  78 109 146 186 227 273 341
#     4   9  17  29  49  78 112 144 177 222 275 324
#     4   9  17  29  49  78 112 144 177 222 275 324
#     4  11  22  36  58  86 113 139 183 232 280 323
#     4   8  14  26  44  72 109 145 174 210 268 329
#
# _framework density 21.732063
#
# number of rings (size 3 to 8) (size 9 to 14) (size 15 to 20)
#    0.000    2.000    1.429    2.571    6.000    5.714 
#    0.000    0.000    0.000    0.000    0.000    6.000 
#    0.000    0.000    0.000    0.000    0.000    0.000 
#
# Total GULP energy -156071.611973 kJ/mol
# GULP energy per Si atom -5573.986142 kJ/mol
# Density = 2.168260 g / cm^3
# Si number density = 21.732063 Si / 1000 Ang^3
#
#
#
# Elastic Constant Matrix: (Units=GPa)
#
#
# Indices 1 2 3 4 5 6 
#
# 1 83.9699 8.5140 18.2250 0.0000 22.7527 0.0000
# 2 8.5140 31.9338 5.0650 0.0000 2.6061 0.0000
# 3 18.2250 5.0650 92.6962 0.0000 12.9031 0.0000
# 4 0.0000 0.0000 0.0000 22.9132 0.0000 -17.1832
# 5 22.7527 2.6061 12.9031 0.0000 40.0529 0.0000
# 6 0.0000 0.0000 0.0000 -17.1832 0.0000 -109.3562
#
#
#
# Elastic Compliance Matrix: (Units=1/GPa)
#
#
# Indices 1 2 3 4 5 6 
#
# 1 0.014628 -0.003019 -0.001656 0.000000 -0.007580 0.000000
# 2 -0.003019 0.032306 -0.001170 0.000000 -0.000010 0.000000
# 3 -0.001656 -0.001170 0.011554 0.000000 -0.002705 0.000000
# 4 0.000000 0.000000 0.000000 0.039042 0.000000 -0.006135
# 5 -0.007580 -0.000010 -0.002705 0.000000 0.030145 0.000000
# 6 0.000000 0.000000 0.000000 -0.006135 0.000000 -0.008180
#
#
# Mechanical properties :
#
#
# Convention : Reuss Voigt Hill
#
# Bulk Modulus (GPa) = 21.36835 30.24533 25.80684
# Shear Modulus (GPa) = 34.06333 2.50837 18.28585
#
# Velocity S-wave (km/s) = 3.96336 1.07551 2.90388
# Velocity P-wave (km/s) = 5.54962 3.93572 4.81083
#
# Compressibility (1/GPa) = 0.04679818
#
# Stress axis : x y z
#
# Youngs Moduli (GPa) = 68.35992 30.95388 86.54991
#
# Poissons Ratio (x) = 0.09345 0.14333
# Poissons Ratio (y) = 0.20637 0.10129
# Poissons Ratio (z) = 0.11321 0.03622
#
# Static dielectric constant tensor:
#      x y z
#    x 1.828990 0.000000 0.064230 
#    y 0.000000 1.743050 0.000000 
#    z 0.064230 0.000000 1.857980 
# 
# From -- ./inp_files/24606.got.cif
#   From: 2010.05.17/outbox.cif.g08.bks.cpg/sg13_13_cif.got.tgz:24606.got - 2010.06.03 16:44:36.
