data_PCOD9237393
_publ_section_title
;
Structure prediction by ZEFSAII (Michael W. Deem and Ramdas Pophale) SiO2 
 PCOD9237393
Probable space group: P 2/C
;
_chemical_formula_sum "Si O2"
_cell_formula_units_Z 24
_cell_length_a 18.431065
_cell_length_b 8.867120
_cell_length_c 23.742837
_cell_angle_alpha 90.000000
_cell_angle_beta 161.384275
_cell_angle_gamma 90.000000
_cell_volume 1238.668020
_symmetry_space_group_name_H-M "P 2/C"
_symmetry_group_IT_number 13
_symmetry_cell_setting 'monoclinic'
loop_
_space_group_symop_operation_xyz
x,y,z
-x,y,1/2-z
-x,-y,-z
x,-y,1/2+z
loop_
_atom_site_type_symbol
_atom_site_label
_atom_site_fract_x
_atom_site_fract_y
_atom_site_fract_z
Si Si1 0.574157 0.777590 0.956199
Si Si2 0.137244 0.900637 0.025108
Si Si3 0.202352 0.329875 0.768695
Si Si4 0.885916 0.393367 0.368641
Si Si5 0.332370 0.066704 0.787556
Si Si6 0.737392 0.830990 0.953423
O O1 0.328062 0.700445 0.764133
O O2 0.712975 0.797462 0.001249
O O3 0.524804 0.945906 0.943291
O O4 0.698979 0.686413 0.096541
O O5 0.314876 0.917398 0.207199
O O6 0.221325 0.992860 0.032674
O O7 0.061400 0.726825 0.970940
O O8 0.907102 0.990128 0.872022
O O9 0.202586 0.496779 0.744940
O O10 0.341049 0.222134 0.827627
O O11 0.945449 0.265316 0.581619
O O12 0.000000 0.500000 0.500000
O O13 0.500000 0.787734 0.750000
#
# Coordination Sequence:
#
# PCOD9237393 Si02
#       6
#     4   4   4   4   4   4
#     4  11  22  37  60  89 121 161 203 254 309 361
#     4   9  18  34  58  86 112 149 203 252 284 354
#     4  11  22  37  59  91 126 157 197 254 316 370
#     4  11  21  38  62  88 121 164 205 248 305 376
#     4   9  17  34  59  84 112 150 205 249 289 345
#     4  11  21  38  61  84 115 159 205 252 300 361
#
# _framework density 19.37565
#
# number of rings (size 3 to 8) (size 9 to 14) (size 15 to 20)
#    0.000    1.667    3.333    2.500    0.000    0.000 
#    0.000    4.167    0.000    6.000    0.000    0.000 
#    0.000    0.000    0.000    0.000    0.000    0.000 
#
# Total GULP energy -133906.787671 kJ/mol
# GULP energy per Si atom -5579.449486 kJ/mol
# Density = 1.933155 g / cm^3
# Si number density = 19.375650 Si / 1000 Ang^3
#
#
#
# Elastic Constant Matrix: (Units=GPa)
#
#
# Indices 1 2 3 4 5 6 
#
# 1 106.6867 42.6403 8.4329 0.0000 -7.4060 0.0000
# 2 42.6403 97.9747 9.9840 0.0000 0.5810 0.0000
# 3 8.4329 9.9840 36.6791 0.0000 -1.8633 0.0000
# 4 0.0000 0.0000 0.0000 28.4222 0.0000 -5.7444
# 5 -7.4060 0.5810 -1.8633 0.0000 32.5528 0.0000
# 6 0.0000 0.0000 0.0000 -5.7444 0.0000 28.6454
#
#
#
# Elastic Compliance Matrix: (Units=1/GPa)
#
#
# Indices 1 2 3 4 5 6 
#
# 1 0.011634 -0.004958 -0.001190 0.000000 0.002667 0.000000
# 2 -0.004958 0.012615 -0.002369 0.000000 -0.001489 0.000000
# 3 -0.001190 -0.002369 0.028253 0.000000 0.001389 0.000000
# 4 0.000000 0.000000 0.000000 0.036670 0.000000 0.007354
# 5 0.002667 -0.001489 0.001389 0.000000 0.031432 0.000000
# 6 0.000000 0.000000 0.000000 0.007354 0.000000 0.036384
#
#
# Mechanical properties :
#
#
# Convention : Reuss Voigt Hill
#
# Bulk Modulus (GPa) = 28.19520 40.38389 34.28955
# Shear Modulus (GPa) = 26.90423 29.94297 28.42360
#
# Velocity S-wave (km/s) = 3.73038 3.93541 3.83427
# Velocity P-wave (km/s) = 5.75654 6.44498 6.11047
#
# Compressibility (1/GPa) = 0.03546703
#
# Stress axis : x y z
#
# Youngs Moduli (GPa) = 85.95501 79.27222 35.39507
#
# Poissons Ratio (x) = 0.39302 0.04211
# Poissons Ratio (y) = 0.42616 0.08387
# Poissons Ratio (z) = 0.10227 0.18783
#
# Static dielectric constant tensor:
#      x y z
#    x 1.682460 0.000000 -0.003600 
#    y 0.000000 1.674130 0.000000 
#    z -0.003600 0.000000 1.706630 
# 
# From -- ./inp_files/63378.got.cif
#   From: 2010.05.17/outbox.cif.g08.bks.cpg/sg13_32_cif.got.tgz:63378.got - 2010.06.03 16:44:36.
