data_PCOD9237937
_publ_section_title
;
Structure prediction by ZEFSAII (Michael W. Deem and Ramdas Pophale) SiO2 
 PCOD9237937
Probable space group: P 2/C
;
_chemical_formula_sum "Si O2"
_cell_formula_units_Z 20
_cell_length_a 15.194746
_cell_length_b 11.057632
_cell_length_c 10.261620
_cell_angle_alpha 90.000000
_cell_angle_beta 31.138417
_cell_angle_gamma 90.000000
_cell_volume 891.563355
_symmetry_space_group_name_H-M "P 2/C"
_symmetry_group_IT_number 13
_symmetry_cell_setting 'monoclinic'
loop_
_space_group_symop_operation_xyz
x,y,z
-x,y,1/2-z
-x,-y,-z
x,-y,1/2+z
loop_
_atom_site_type_symbol
_atom_site_label
_atom_site_fract_x
_atom_site_fract_y
_atom_site_fract_z
Si Si1 0.884041 0.482582 0.274743
Si Si2 0.237441 0.769537 0.564916
Si Si3 0.661056 0.913518 0.825476
Si Si4 0.849027 0.853376 0.098439
Si Si5 0.308809 0.268724 0.450471
O O1 0.753332 0.372815 0.417421
O O2 0.797006 0.608149 0.423484
O O3 0.000000 0.443817 0.250000
O O4 0.000000 0.500000 0.000000
O O5 0.345789 0.850234 0.525686
O O6 0.256590 0.794080 0.387353
O O7 0.042076 0.809786 0.842158
O O8 0.684023 0.810247 0.688949
O O9 0.822663 0.003736 0.616918
O O10 0.500000 0.000000 0.000000
O O11 0.772916 0.811711 0.331539
O O12 0.500000 0.298739 0.250000
#
# Coordination Sequence:
#
# PCOD9237937 Si02
#       5
#     4   4   4   4   4
#     4  12  23  48  75 103 142 191 256 308 353 435
#     4  11  24  46  71 106 139 192 243 309 357 427
#     4  12  26  45  71 107 151 191 234 296 371 447
#     4  11  23  45  72 102 147 183 245 298 366 432
#     4  12  26  46  70 109 146 195 241 303 375 440
#
# _framework density 22.432506
#
# number of rings (size 3 to 8) (size 9 to 14) (size 15 to 20)
#    0.000    0.400    6.000    3.000    0.000    1.600 
#    3.600    3.000    0.000    0.000    0.000    0.000 
#    0.000    0.000    0.000    0.000    0.000    0.000 
#
# Total GULP energy -112041.593891 kJ/mol
# GULP energy per Si atom -5602.079695 kJ/mol
# Density = 2.238145 g / cm^3
# Si number density = 22.432506 Si / 1000 Ang^3
#
#
#
# Elastic Constant Matrix: (Units=GPa)
#
#
# Indices 1 2 3 4 5 6 
#
# 1 122.5636 43.7062 30.5857 0.0000 14.7818 0.0000
# 2 43.7062 172.7901 29.0221 0.0000 1.2546 0.0000
# 3 30.5857 29.0221 76.1377 0.0000 6.9662 0.0000
# 4 0.0000 0.0000 0.0000 19.7315 0.0000 41.2876
# 5 14.7818 1.2546 6.9662 0.0000 35.1290 0.0000
# 6 0.0000 0.0000 0.0000 41.2876 0.0000 -71.6901
#
#
#
# Elastic Compliance Matrix: (Units=1/GPa)
#
#
# Indices 1 2 3 4 5 6 
#
# 1 0.010044 -0.002021 -0.002937 0.000000 -0.003571 0.000000
# 2 -0.002021 0.006592 -0.001790 0.000000 0.000970 0.000000
# 3 -0.002937 -0.001790 0.015152 0.000000 -0.001705 0.000000
# 4 0.000000 0.000000 0.000000 0.022983 0.000000 0.013237
# 5 -0.003571 0.000970 -0.001705 0.000000 0.030273 0.000000
# 6 0.000000 0.000000 0.000000 0.013237 0.000000 -0.006326
#
#
# Mechanical properties :
#
#
# Convention : Reuss Voigt Hill
#
# Bulk Modulus (GPa) = 54.67006 64.23548 59.45277
# Shear Modulus (GPa) = 50.85855 14.51258 32.68557
#
# Velocity S-wave (km/s) = 4.76666 2.54627 3.82129
# Velocity P-wave (km/s) = 7.39720 6.11080 6.78455
#
# Compressibility (1/GPa) = 0.01829155
#
# Stress axis : x y z
#
# Youngs Moduli (GPa) = 99.56638 151.69565 65.99673
#
# Poissons Ratio (x) = 0.30660 0.19386
# Poissons Ratio (y) = 0.20124 0.11811
# Poissons Ratio (z) = 0.29247 0.27148
#
# Static dielectric constant tensor:
#      x y z
#    x 1.791200 0.000000 -0.053970 
#    y 0.000000 1.831350 0.000000 
#    z -0.053970 0.000000 1.840590 
# 
# From -- ./inp_files/37083.got.cif
#   From: 2010.05.17/outbox.cif.g08.bks.cpg/sg13_19_cif.got.tgz:37083.got - 2010.06.03 16:44:36.
