data_PCOD9237725
_publ_section_title
;
Structure prediction by ZEFSAII (Michael W. Deem and Ramdas Pophale) SiO2 
 PCOD9237725
Probable space group: P 2/C
;
_chemical_formula_sum "Si O2"
_cell_formula_units_Z 28
_cell_length_a 6.745792
_cell_length_b 7.196793
_cell_length_c 26.806029
_cell_angle_alpha 90.000000
_cell_angle_beta 67.474500
_cell_angle_gamma 90.000000
_cell_volume 1202.097445
_symmetry_space_group_name_H-M "P 2/C"
_symmetry_group_IT_number 13
_symmetry_cell_setting 'monoclinic'
loop_
_space_group_symop_operation_xyz
x,y,z
-x,y,1/2-z
-x,-y,-z
x,-y,1/2+z
loop_
_atom_site_type_symbol
_atom_site_label
_atom_site_fract_x
_atom_site_fract_y
_atom_site_fract_z
Si Si1 0.974759 0.653798 0.940245
Si Si2 0.500000 0.229762 0.250000
Si Si3 0.614096 0.836403 0.422196
Si Si4 0.362355 0.494026 0.453234
Si Si5 0.752927 0.106286 0.014928
Si Si6 0.734472 0.011544 0.306372
Si Si7 0.023874 0.652732 0.818602
Si Si8 0.000000 0.684348 0.250000
O O1 0.171087 0.509340 0.931122
O O2 0.971304 0.679825 0.881914
O O3 0.050938 0.831361 0.967725
O O4 0.764098 0.567970 0.985768
O O5 0.720872 0.335517 0.217178
O O6 0.543503 0.107793 0.294972
O O7 0.558907 0.621211 0.420748
O O8 0.772571 0.874427 0.453302
O O9 0.683342 0.925981 0.364559
O O10 0.384023 0.927492 0.458484
O O11 0.411010 0.278162 0.456568
O O12 0.810165 0.836431 0.265410
O O13 0.901789 0.176733 0.303490
O O14 0.961955 0.454868 0.799989
#
# Coordination Sequence:
#
# PCOD9237725 Si02
#       8
#     4   2   4   4   4   4   4   2
#     4   9  22  42  68  94 145 182 221 285 356 410
#     4  12  24  54  72  96 150 176 246 310 350 434
#     4  11  23  38  70  95 142 184 226 280 358 410
#     4   9  21  42  58 103 137 174 230 277 322 438
#     4   9  21  41  58 104 132 180 224 275 337 423
#     4  12  28  49  70 111 140 185 242 310 352 433
#     4  12  26  51  73 103 144 186 231 309 370 413
#     4  12  26  50  76 100 138 184 244 300 368 414
#
# _framework density 23.292621
#
# number of rings (size 3 to 8) (size 9 to 14) (size 15 to 20)
#    0.857    0.571    2.857    1.286    6.000    4.571 
#    5.143    0.000    0.000    0.000    0.000    0.000 
#    0.000    0.000    0.000    0.000    0.000    0.000 
#
# Total GULP energy -156292.434962 kJ/mol
# GULP energy per Si atom -5581.872677 kJ/mol
# Density = 2.323961 g / cm^3
# Si number density = 23.292621 Si / 1000 Ang^3
#
#
#
# Elastic Constant Matrix: (Units=GPa)
#
#
# Indices 1 2 3 4 5 6 
#
# 1 76.1304 26.3546 11.4920 0.0000 5.1357 0.0000
# 2 26.3546 95.0802 8.1726 0.0000 5.9717 0.0000
# 3 11.4920 8.1726 88.9701 0.0000 28.8642 0.0000
# 4 0.0000 0.0000 0.0000 25.4335 0.0000 10.1115
# 5 5.1357 5.9717 28.8642 0.0000 27.6758 0.0000
# 6 0.0000 0.0000 0.0000 10.1115 0.0000 26.3135
#
#
#
# Elastic Compliance Matrix: (Units=1/GPa)
#
#
# Indices 1 2 3 4 5 6 
#
# 1 0.014739 -0.003938 -0.001406 0.000000 -0.000419 0.000000
# 2 -0.003938 0.011722 0.000023 0.000000 -0.001823 0.000000
# 3 -0.001406 0.000023 0.017133 0.000000 -0.017613 0.000000
# 4 0.000000 0.000000 0.000000 0.046408 0.000000 -0.017833
# 5 -0.000419 -0.001823 -0.017613 0.000000 0.054973 0.000000
# 6 0.000000 0.000000 0.000000 -0.017833 0.000000 0.044856
#
#
# Mechanical properties :
#
#
# Convention : Reuss Voigt Hill
#
# Bulk Modulus (GPa) = 30.34739 39.13546 34.74142
# Shear Modulus (GPa) = 23.64536 30.16200 26.90368
#
# Velocity S-wave (km/s) = 3.18959 3.60240 3.40226
# Velocity P-wave (km/s) = 5.15962 5.84304 5.51193
#
# Compressibility (1/GPa) = 0.03295176
#
# Stress axis : x y z
#
# Youngs Moduli (GPa) = 67.84616 85.31310 58.36558
#
# Poissons Ratio (x) = 0.33599 0.08207
# Poissons Ratio (y) = 0.26720 -0.00136
# Poissons Ratio (z) = 0.09541 -0.00199
#
# Static dielectric constant tensor:
#      x y z
#    x 1.937150 0.000000 -0.011410 
#    y 0.000000 1.905490 0.000000 
#    z -0.011410 0.000000 1.878610 
# 
# From -- ./inp_files/95621.got.cif
#   From: 2010.05.17/outbox.cif.g08.bks.cpg/sg13_48_cif.got.tgz:95621.got - 2010.06.03 16:44:36.
