data_PCOD9237217
_publ_section_title
;
Structure prediction by ZEFSAII (Michael W. Deem and Ramdas Pophale) SiO2 
 PCOD9237217
Probable space group: P 2/C
;
_chemical_formula_sum "Si O2"
_cell_formula_units_Z 20
_cell_length_a 7.562928
_cell_length_b 22.270697
_cell_length_c 5.066118
_cell_angle_alpha 90.000000
_cell_angle_beta 69.302832
_cell_angle_gamma 90.000000
_cell_volume 798.224393
_symmetry_space_group_name_H-M "P 2/C"
_symmetry_group_IT_number 13
_symmetry_cell_setting 'monoclinic'
loop_
_space_group_symop_operation_xyz
x,y,z
-x,y,1/2-z
-x,-y,-z
x,-y,1/2+z
loop_
_atom_site_type_symbol
_atom_site_label
_atom_site_fract_x
_atom_site_fract_y
_atom_site_fract_z
Si Si1 0.730050 0.964281 0.133446
Si Si2 0.764108 0.247157 0.986122
Si Si3 0.188609 0.630434 0.767239
Si Si4 0.720159 0.170014 0.534396
Si Si5 0.500000 0.316191 0.750000
Si Si6 0.500000 0.542587 0.750000
O O1 0.500000 0.963365 0.250000
O O2 0.791622 0.898014 0.015896
O O3 0.787123 0.985252 0.393128
O O4 0.858770 0.306890 0.059330
O O5 0.736111 0.199118 0.236195
O O6 0.830695 0.211786 0.687018
O O7 0.576004 0.277091 0.953043
O O8 0.325723 0.647338 0.452978
O O9 0.316678 0.585371 0.864970
O O10 0.000000 0.602886 0.750000
O O11 0.500000 0.167026 0.750000
O O12 0.500000 0.500000 0.500000
#
# Coordination Sequence:
#
# PCOD9237217 Si02
#       6
#     4   4   4   4   2   2
#     4   9  17  28  41  68 117 176 233 290 350 417
#     4  12  22  38  64  99 135 182 232 297 369 435
#     4  12  27  48  79 110 149 195 238 297 369 428
#     4  11  19  30  54  86 127 180 238 292 363 433
#     4  12  21  46  70 104 150 187 236 292 364 444
#     4  12  29  54  80 110 152 195 246 296 340 420
#
# _framework density 25.055612
#
# number of rings (size 3 to 8) (size 9 to 14) (size 15 to 20)
#    0.000    0.800    5.000    3.600    0.000    4.800 
#    0.000    0.000    0.000    0.000    0.000    0.000 
#    0.000   16.000    0.000    4.200    0.000    0.400 
#
# Total GULP energy -111966.330310 kJ/mol
# GULP energy per Si atom -5598.316516 kJ/mol
# Density = 2.499858 g / cm^3
# Si number density = 25.055612 Si / 1000 Ang^3
#
#
#
# Elastic Constant Matrix: (Units=GPa)
#
#
# Indices 1 2 3 4 5 6 
#
# 1 104.1385 29.4661 25.9304 0.0000 -3.5756 0.0000
# 2 29.4661 163.1513 56.4544 0.0000 12.0144 0.0000
# 3 25.9304 56.4544 168.2351 0.0000 26.6412 0.0000
# 4 0.0000 0.0000 0.0000 35.0867 0.0000 16.3377
# 5 -3.5756 12.0144 26.6412 0.0000 43.6547 0.0000
# 6 0.0000 0.0000 0.0000 16.3377 0.0000 6.9568
#
#
#
# Elastic Compliance Matrix: (Units=1/GPa)
#
#
# Indices 1 2 3 4 5 6 
#
# 1 0.010474 -0.001554 -0.001435 0.000000 0.002161 0.000000
# 2 -0.001554 0.007177 -0.002032 0.000000 -0.000862 0.000000
# 3 -0.001435 -0.002032 0.007502 0.000000 -0.004137 0.000000
# 4 0.000000 0.000000 0.000000 -0.304715 0.000000 0.715611
# 5 0.002161 -0.000862 -0.004137 0.000000 0.025846 0.000000
# 6 0.000000 0.000000 0.000000 0.715611 0.000000 -1.536839
#
#
# Mechanical properties :
#
#
# Convention : Reuss Voigt Hill
#
# Bulk Modulus (GPa) = 66.18195 73.24740 69.71467
# Shear Modulus (GPa) = -2.81615 38.71792 17.95089
#
# Velocity S-wave (km/s) = -1.06132 3.93527 2.67955
# Velocity P-wave (km/s) = 4.99695 7.06724 6.12027
#
# Compressibility (1/GPa) = 0.01510986
#
# Stress axis : x y z
#
# Youngs Moduli (GPa) = 95.47530 139.34059 133.29333
#
# Poissons Ratio (x) = 0.21657 0.19129
# Poissons Ratio (y) = 0.14839 0.27087
# Poissons Ratio (z) = 0.13701 0.28316
#
# Static dielectric constant tensor:
#      x y z
#    x 2.153370 0.000000 -0.102370 
#    y 0.000000 1.962730 0.000000 
#    z -0.102370 0.000000 2.001940 
# 
# From -- ./inp_files/2064.got.cif
#   From: 2010.05.17/outbox.cif.g08.bks.cpg/sg13_2_cif.got.tgz:2064.got - 2010.06.03 16:44:36.
