data_PCOD9237629
_publ_section_title
;
Structure prediction by ZEFSAII (Michael W. Deem and Ramdas Pophale) SiO2 
 PCOD9237629
Probable space group: P 2/C
;
_chemical_formula_sum "Si O2"
_cell_formula_units_Z 20
_cell_length_a 20.852612
_cell_length_b 5.635910
_cell_length_c 14.979442
_cell_angle_alpha 90.000000
_cell_angle_beta 155.820392
_cell_angle_gamma 90.000000
_cell_volume 721.071574
_symmetry_space_group_name_H-M "P 2/C"
_symmetry_group_IT_number 13
_symmetry_cell_setting 'monoclinic'
loop_
_space_group_symop_operation_xyz
x,y,z
-x,y,1/2-z
-x,-y,-z
x,-y,1/2+z
loop_
_atom_site_type_symbol
_atom_site_label
_atom_site_fract_x
_atom_site_fract_y
_atom_site_fract_z
Si Si1 0.344870 0.578371 0.553681
Si Si2 0.573912 0.795400 0.492133
Si Si3 0.227081 0.415294 0.101605
Si Si4 0.208137 0.094795 0.526305
Si Si5 0.154024 0.046603 0.751463
O O1 0.500000 0.747511 0.750000
O O2 0.399619 0.369624 0.560175
O O3 0.310823 0.545779 0.613341
O O4 0.183118 0.679126 0.310938
O O5 0.644791 0.633479 0.660707
O O6 0.701546 0.995361 0.632347
O O7 0.601351 0.105432 0.717304
O O8 0.143508 0.672684 0.997197
O O9 0.147716 0.156388 0.989910
O O10 0.176458 0.078593 0.378274
O O11 0.000000 0.000000 0.500000
#
# Coordination Sequence:
#
# PCOD9237629 Si02
#       5
#     4   4   4   4   4
#     4  11  22  42  69 101 134 175 234 298 352 415
#     4  12  23  41  73 103 135 187 235 298 365 414
#     4  11  24  40  72 106 143 171 236 297 357 414
#     4  11  23  45  67 107 139 178 236 301 345 419
#     4  11  25  44  68  95 146 192 236 284 359 434
#
# _framework density 27.736497
#
# number of rings (size 3 to 8) (size 9 to 14) (size 15 to 20)
#    0.000    0.800    4.000    4.200    2.800    0.800 
#    0.000    4.000    0.000    0.000    0.000    0.000 
#    0.000    0.000    0.000    0.000    0.000    0.000 
#
# Total GULP energy -111723.012130 kJ/mol
# GULP energy per Si atom -5586.150606 kJ/mol
# Density = 2.767337 g / cm^3
# Si number density = 27.736497 Si / 1000 Ang^3
#
#
#
# Elastic Constant Matrix: (Units=GPa)
#
#
# Indices 1 2 3 4 5 6 
#
# 1 60.7214 23.3433 43.3451 0.0000 -15.3428 0.0000
# 2 23.3433 154.0922 20.6704 0.0000 -6.2243 0.0000
# 3 43.3451 20.6704 184.5042 0.0000 -7.9675 0.0000
# 4 0.0000 0.0000 0.0000 20.3716 0.0000 -9.4231
# 5 -15.3428 -6.2243 -7.9675 0.0000 56.6893 0.0000
# 6 0.0000 0.0000 0.0000 -9.4231 0.0000 10.4015
#
#
#
# Elastic Compliance Matrix: (Units=1/GPa)
#
#
# Indices 1 2 3 4 5 6 
#
# 1 0.022046 -0.002509 -0.004681 0.000000 0.005033 0.000000
# 2 -0.002509 0.006896 -0.000181 0.000000 0.000053 0.000000
# 3 -0.004681 -0.000181 0.006524 0.000000 -0.000370 0.000000
# 4 0.000000 0.000000 0.000000 0.084496 0.000000 0.076548
# 5 0.005033 0.000053 -0.000370 0.000000 0.018956 0.000000
# 6 0.000000 0.000000 0.000000 0.076548 0.000000 0.165488
#
#
# Mechanical properties :
#
#
# Convention : Reuss Voigt Hill
#
# Bulk Modulus (GPa) = 48.24996 63.78169 56.01582
# Shear Modulus (GPa) = 15.33480 38.28975 26.81228
#
# Velocity S-wave (km/s) = 2.35388 3.71952 3.11252
# Velocity P-wave (km/s) = 4.98209 6.44142 5.75818
#
# Compressibility (1/GPa) = 0.02072540
#
# Stress axis : x y z
#
# Youngs Moduli (GPa) = 45.35931 145.01064 153.28260
#
# Poissons Ratio (x) = 0.36376 0.71749
# Poissons Ratio (y) = 0.11379 0.02774
# Poissons Ratio (z) = 0.21232 0.02624
#
# Static dielectric constant tensor:
#      x y z
#    x 2.122700 0.000000 0.053640 
#    y 0.000000 2.521830 0.000000 
#    z 0.053640 0.000000 2.336530 
# 
# From -- ./inp_files/58242.got.cif
#   From: 2010.05.17/outbox.cif.g08.bks.cpg/sg13_30_cif.got.tgz:58242.got - 2010.06.03 16:44:36.
