data_PCOD9237572
_publ_section_title
;
Structure prediction by ZEFSAII (Michael W. Deem and Ramdas Pophale) SiO2 
 PCOD9237572
Probable space group: P 2/C
;
_chemical_formula_sum "Si O2"
_cell_formula_units_Z 32
_cell_length_a 9.666633
_cell_length_b 23.315038
_cell_length_c 15.642972
_cell_angle_alpha 90.000000
_cell_angle_beta 151.526131
_cell_angle_gamma 90.000000
_cell_volume 1680.848344
_symmetry_space_group_name_H-M "P 2/C"
_symmetry_group_IT_number 13
_symmetry_cell_setting 'monoclinic'
loop_
_space_group_symop_operation_xyz
x,y,z
-x,y,1/2-z
-x,-y,-z
x,-y,1/2+z
loop_
_atom_site_type_symbol
_atom_site_label
_atom_site_fract_x
_atom_site_fract_y
_atom_site_fract_z
Si Si1 0.328002 0.951940 0.461049
Si Si2 0.993409 0.471960 0.144123
Si Si3 0.846207 0.870089 0.758375
Si Si4 0.658065 0.352994 0.927270
Si Si5 0.584078 0.571811 0.889397
Si Si6 0.122779 0.741789 0.720344
Si Si7 0.669516 0.672620 0.071320
Si Si8 0.790867 0.032959 0.949337
O O1 0.522199 0.894993 0.570510
O O2 0.000000 0.943078 0.250000
O O3 0.500000 0.000000 0.500000
O O4 0.307673 0.983275 0.540068
O O5 0.311250 0.462755 0.279060
O O6 0.000000 0.480479 0.250000
O O7 0.814931 0.413681 0.029360
O O8 0.843498 0.526766 0.020517
O O9 0.863728 0.806450 0.806883
O O10 0.000000 0.868280 0.750000
O O11 0.026179 0.917094 0.907843
O O12 0.500000 0.354381 0.750000
O O13 0.451397 0.341174 0.898295
O O14 0.905949 0.303466 0.058567
O O15 0.500000 0.595822 0.750000
O O16 0.661386 0.617642 0.004203
O O17 0.000000 0.745272 0.750000
O O18 0.442461 0.716076 0.904970
O O19 0.000000 0.693702 0.250000
O O20 0.500000 0.057594 0.750000
O O21 0.000000 0.000000 0.000000
#
# Coordination Sequence:
#
# PCOD9237572 Si02
#       8
#     4   4   4   4   4   4   4   4
#     4  12  20  37  61  91 122 162 208 247 306 378
#     4  12  23  43  63  95 135 168 211 270 320 387
#     4  11  22  39  67  92 121 168 215 255 307 386
#     4  11  23  43  70  92 126 173 211 262 326 387
#     4  12  26  40  65  97 135 166 214 266 327 385
#     4   9  21  45  65  89 124 167 215 260 314 381
#     4  11  24  42  68  95 127 167 214 267 326 375
#     4  12  22  35  59  90 130 161 193 256 319 363
#
# _framework density 19.038004999999998
#
# number of rings (size 3 to 8) (size 9 to 14) (size 15 to 20)
#    0.000    0.750    6.250    1.875    3.500    1.000 
#    0.000    0.000    8.250    0.000    0.000    0.000 
#    0.000    0.000    0.000    0.000    0.000    0.000 
#
# Total GULP energy -178745.958908 kJ/mol
# GULP energy per Si atom -5585.811216 kJ/mol
# Density = 1.899467 g / cm^3
# Si number density = 19.038005 Si / 1000 Ang^3
#
#
#
# Elastic Constant Matrix: (Units=GPa)
#
#
# Indices 1 2 3 4 5 6 
#
# 1 70.7729 3.1683 13.7132 0.0000 0.8697 0.0000
# 2 3.1683 102.1871 30.4367 0.0000 1.9835 0.0000
# 3 13.7132 30.4367 121.8014 0.0000 9.1740 0.0000
# 4 0.0000 0.0000 0.0000 -69.0649 0.0000 58.0976
# 5 0.8697 1.9835 9.1740 0.0000 40.7310 0.0000
# 6 0.0000 0.0000 0.0000 58.0976 0.0000 -19.6265
#
#
#
# Elastic Compliance Matrix: (Units=1/GPa)
#
#
# Indices 1 2 3 4 5 6 
#
# 1 0.014445 0.000040 -0.001641 0.000000 0.000059 0.000000
# 2 0.000040 0.010573 -0.002653 0.000000 0.000082 0.000000
# 3 -0.001641 -0.002653 0.009201 0.000000 -0.001908 0.000000
# 4 0.000000 0.000000 0.000000 0.009717 0.000000 0.028764
# 5 0.000059 0.000082 -0.001908 0.000000 0.024976 0.000000
# 6 0.000000 0.000000 0.000000 0.028764 0.000000 0.034193
#
#
# Mechanical properties :
#
#
# Convention : Reuss Voigt Hill
#
# Bulk Modulus (GPa) = 38.89198 43.26644 41.07921
# Shear Modulus (GPa) = 41.60273 6.90413 24.25343
#
# Velocity S-wave (km/s) = 4.67973 1.90640 3.57311
# Velocity P-wave (km/s) = 7.04789 5.25562 6.21668
#
# Compressibility (1/GPa) = 0.02571224
#
# Stress axis : x y z
#
# Youngs Moduli (GPa) = 69.22758 94.57793 108.67879
#
# Poissons Ratio (x) = -0.00375 0.17831
# Poissons Ratio (y) = -0.00275 0.28830
# Poissons Ratio (z) = 0.11358 0.25089
#
# Static dielectric constant tensor:
#      x y z
#    x 1.654190 0.000000 -0.006330 
#    y 0.000000 1.652610 0.000000 
#    z -0.006330 0.000000 1.672870 
# 
# From -- ./inp_files/48309.got.cif
#   From: 2010.05.17/outbox.cif.g08.bks.cpg/sg13_25_cif.got.tgz:48309.got - 2010.06.03 16:44:36.
