data_PCOD9237895
_publ_section_title
;
Structure prediction by ZEFSAII (Michael W. Deem and Ramdas Pophale) SiO2 
 PCOD9237895
Probable space group: P 2/C
;
_chemical_formula_sum "Si O2"
_cell_formula_units_Z 28
_cell_length_a 8.107252
_cell_length_b 6.939176
_cell_length_c 26.378453
_cell_angle_alpha 90.000000
_cell_angle_beta 68.236212
_cell_angle_gamma 90.000000
_cell_volume 1378.211472
_symmetry_space_group_name_H-M "P 2/C"
_symmetry_group_IT_number 13
_symmetry_cell_setting 'monoclinic'
loop_
_space_group_symop_operation_xyz
x,y,z
-x,y,1/2-z
-x,-y,-z
x,-y,1/2+z
loop_
_atom_site_type_symbol
_atom_site_label
_atom_site_fract_x
_atom_site_fract_y
_atom_site_fract_z
Si Si1 0.931947 0.345154 0.702495
Si Si2 0.790356 0.104527 0.888657
Si Si3 0.799333 0.056248 0.007151
Si Si4 0.856812 0.575726 0.558267
Si Si5 0.017952 0.249611 0.349301
Si Si6 0.668562 0.055148 0.699158
Si Si7 0.593688 0.220704 0.598426
O O1 0.963430 0.569834 0.689938
O O2 0.738291 0.254142 0.716738
O O3 0.000000 0.288002 0.750000
O O4 0.046881 0.237458 0.646732
O O5 0.616981 0.208648 0.886105
O O6 0.783888 0.093310 0.949804
O O7 0.842429 0.885732 0.865600
O O8 0.756323 0.248739 0.042776
O O9 0.674550 0.887554 0.040646
O O10 0.000000 0.000000 0.000000
O O11 0.954299 0.661672 0.597128
O O12 0.710449 0.415222 0.589257
O O13 0.000000 0.500000 0.500000
O O14 0.178820 0.105082 0.318534
O O15 0.500000 0.987255 0.750000
O O16 0.628630 0.102094 0.645521
#
# Coordination Sequence:
#
# PCOD9237895 Si02
#       7
#     4   4   4   4   4   4   4
#     4  11  24  44  67  94 129 176 225 277 336 399
#     4  11  25  42  66  98 137 172 221 282 335 398
#     4  12  21  40  67  95 132 176 219 269 336 408
#     4  12  22  38  69  95 130 177 219 266 337 407
#     4  11  23  44  67  95 131 179 224 271 342 405
#     4  11  24  44  68  95 133 175 222 278 341 400
#     4  12  24  41  65 100 134 171 225 277 336 403
#
# _framework density 20.316185999999998
#
# number of rings (size 3 to 8) (size 9 to 14) (size 15 to 20)
#    0.000    0.571    5.714    3.000    0.000    5.714 
#    2.571    0.000    0.000    0.000    0.000    0.000 
#    0.000    0.000    0.000    0.000    0.000    0.000 
#
# Total GULP energy -156384.177523 kJ/mol
# GULP energy per Si atom -5585.149197 kJ/mol
# Density = 2.026995 g / cm^3
# Si number density = 20.316186 Si / 1000 Ang^3
#
#
#
# Elastic Constant Matrix: (Units=GPa)
#
#
# Indices 1 2 3 4 5 6 
#
# 1 59.8646 6.0523 4.0181 0.0000 -10.5366 0.0000
# 2 6.0523 90.4573 9.3165 0.0000 -9.9145 0.0000
# 3 4.0181 9.3165 74.7207 0.0000 0.9385 0.0000
# 4 0.0000 0.0000 0.0000 37.9241 0.0000 3.8470
# 5 -10.5366 -9.9145 0.9385 0.0000 37.4272 0.0000
# 6 0.0000 0.0000 0.0000 3.8470 0.0000 30.1421
#
#
#
# Elastic Compliance Matrix: (Units=1/GPa)
#
#
# Indices 1 2 3 4 5 6 
#
# 1 0.017678 -0.000554 -0.000943 0.000000 0.004854 0.000000
# 2 -0.000554 0.011564 -0.001449 0.000000 0.002944 0.000000
# 3 -0.000943 -0.001449 0.013627 0.000000 -0.000991 0.000000
# 4 0.000000 0.000000 0.000000 0.026714 0.000000 -0.003410
# 5 0.004854 0.002944 -0.000991 0.000000 0.028890 0.000000
# 6 0.000000 0.000000 0.000000 -0.003410 0.000000 0.033611
#
#
# Mechanical properties :
#
#
# Convention : Reuss Voigt Hill
#
# Bulk Modulus (GPa) = 27.04301 29.31293 28.17797
# Shear Modulus (GPa) = 33.26666 34.80907 34.03787
#
# Velocity S-wave (km/s) = 4.05093 4.14377 4.09761
# Velocity P-wave (km/s) = 5.93464 6.11181 6.02388
#
# Compressibility (1/GPa) = 0.03697814
#
# Stress axis : x y z
#
# Youngs Moduli (GPa) = 56.56784 86.47623 73.38389
#
# Poissons Ratio (x) = 0.04788 0.06917
# Poissons Ratio (y) = 0.03132 0.10634
# Poissons Ratio (z) = 0.05332 0.12531
#
# Static dielectric constant tensor:
#      x y z
#    x 1.787540 0.000000 -0.007810 
#    y 0.000000 1.766730 0.000000 
#    z -0.007810 0.000000 1.735010 
# 
# From -- ./inp_files/95587.got.cif
#   From: 2010.05.17/outbox.cif.g08.bks.cpg/sg13_48_cif.got.tgz:95587.got - 2010.06.03 16:44:36.
