data_PCOD9237776
_publ_section_title
;
Structure prediction by ZEFSAII (Michael W. Deem and Ramdas Pophale) SiO2 
 PCOD9237776
Probable space group: P 2/C
;
_chemical_formula_sum "Si O2"
_cell_formula_units_Z 28
_cell_length_a 31.012158
_cell_length_b 5.395355
_cell_length_c 9.150910
_cell_angle_alpha 90.000000
_cell_angle_beta 54.781698
_cell_angle_gamma 90.000000
_cell_volume 1250.885265
_symmetry_space_group_name_H-M "P 2/C"
_symmetry_group_IT_number 13
_symmetry_cell_setting 'monoclinic'
loop_
_space_group_symop_operation_xyz
x,y,z
-x,y,1/2-z
-x,-y,-z
x,-y,1/2+z
loop_
_atom_site_type_symbol
_atom_site_label
_atom_site_fract_x
_atom_site_fract_y
_atom_site_fract_z
Si Si1 0.518973 0.746745 0.380985
Si Si2 0.636933 0.251914 0.558859
Si Si3 0.721846 0.372575 0.803796
Si Si4 0.671058 0.986095 0.737183
Si Si5 0.776011 0.265664 0.991729
Si Si6 0.101286 0.779671 0.204017
Si Si7 0.063009 0.280216 0.114358
O O1 0.500000 0.757708 0.250000
O O2 0.500000 0.500000 0.500000
O O3 0.582283 0.711369 0.245220
O O4 0.500000 0.000000 0.500000
O O5 0.685941 0.436769 0.469087
O O6 0.659150 0.002741 0.592102
O O7 0.630790 0.186372 0.400810
O O8 0.674218 0.254215 0.801373
O O9 0.761328 0.481597 0.604000
O O10 0.760669 0.263621 0.851383
O O11 0.731085 0.907448 0.650092
O O12 0.835584 0.196545 0.904534
O O13 0.087540 0.530794 0.138038
O O14 0.078820 0.747167 0.412688
O O15 0.080051 0.029510 0.167463
O O16 0.000000 0.303654 0.250000
#
# Coordination Sequence:
#
# PCOD9237776 Si02
#       7
#     4   4   4   4   4   4   4
#     4  12  29  49  75 108 144 187 242 311 360 427
#     4  11  25  41  72  92 136 179 232 277 359 412
#     4  11  23  41  63  96 133 178 219 281 332 438
#     4  11  23  41  65  96 131 177 222 279 334 435
#     4  11  25  40  65 100 138 174 229 277 356 412
#     4  12  27  44  77 105 148 191 236 308 360 424
#     4  12  26  50  74 108 143 196 250 299 357 424
#
# _framework density 22.384146000000001
#
# number of rings (size 3 to 8) (size 9 to 14) (size 15 to 20)
#    0.000    0.571    2.857    4.286    8.000    0.000 
#    0.000    0.000    0.000    0.000    0.000    0.000 
#    0.000    0.000    0.000    0.000    0.000    0.000 
#
# Total GULP energy -156158.081646 kJ/mol
# GULP energy per Si atom -5577.074344 kJ/mol
# Density = 2.233320 g / cm^3
# Si number density = 22.384146 Si / 1000 Ang^3
#
#
#
# Elastic Constant Matrix: (Units=GPa)
#
#
# Indices 1 2 3 4 5 6 
#
# 1 88.9081 13.4538 17.2582 0.0000 -0.3716 0.0000
# 2 13.4538 89.3632 22.9495 0.0000 20.3486 0.0000
# 3 17.2582 22.9495 94.8158 0.0000 6.5002 0.0000
# 4 0.0000 0.0000 0.0000 28.8080 0.0000 9.5468
# 5 -0.3716 20.3486 6.5002 0.0000 57.0822 0.0000
# 6 0.0000 0.0000 0.0000 9.5468 0.0000 33.0359
#
#
#
# Elastic Compliance Matrix: (Units=1/GPa)
#
#
# Indices 1 2 3 4 5 6 
#
# 1 0.011836 -0.001494 -0.001849 0.000000 0.000820 0.000000
# 2 -0.001494 0.013078 -0.002593 0.000000 -0.004376 0.000000
# 3 -0.001849 -0.002593 0.011539 0.000000 -0.000401 0.000000
# 4 0.000000 0.000000 0.000000 0.038389 0.000000 -0.011094
# 5 0.000820 -0.004376 -0.000401 0.000000 0.019130 0.000000
# 6 0.000000 0.000000 0.000000 -0.011094 0.000000 0.033476
#
#
# Mechanical properties :
#
#
# Convention : Reuss Voigt Hill
#
# Bulk Modulus (GPa) = 40.68400 42.26780 41.47590
# Shear Modulus (GPa) = 33.89532 38.41357 36.15445
#
# Velocity S-wave (km/s) = 3.89557 4.14709 4.02329
# Velocity P-wave (km/s) = 6.20070 6.46954 6.33655
#
# Compressibility (1/GPa) = 0.02457969
#
# Stress axis : x y z
#
# Youngs Moduli (GPa) = 84.48824 76.46584 86.66587
#
# Poissons Ratio (x) = 0.11423 0.16025
# Poissons Ratio (y) = 0.12621 0.22476
# Poissons Ratio (z) = 0.15622 0.19831
#
# Static dielectric constant tensor:
#      x y z
#    x 1.809800 0.000000 0.019660 
#    y 0.000000 2.072520 0.000000 
#    z 0.019660 0.000000 1.834390 
# 
# From -- ./inp_files/24776.got.cif
#   From: 2010.05.17/outbox.cif.g08.bks.cpg/sg13_13_cif.got.tgz:24776.got - 2010.06.03 16:44:36.
