data_PCOD9237511
_publ_section_title
;
Structure prediction by ZEFSAII (Michael W. Deem and Ramdas Pophale) SiO2 
 PCOD9237511
Probable space group: P 2/C
;
_chemical_formula_sum "Si O2"
_cell_formula_units_Z 28
_cell_length_a 10.747933
_cell_length_b 10.855983
_cell_length_c 19.739433
_cell_angle_alpha 90.000000
_cell_angle_beta 143.829253
_cell_angle_gamma 90.000000
_cell_volume 1359.324879
_symmetry_space_group_name_H-M "P 2/C"
_symmetry_group_IT_number 13
_symmetry_cell_setting 'monoclinic'
loop_
_space_group_symop_operation_xyz
x,y,z
-x,y,1/2-z
-x,-y,-z
x,-y,1/2+z
loop_
_atom_site_type_symbol
_atom_site_label
_atom_site_fract_x
_atom_site_fract_y
_atom_site_fract_z
Si Si1 0.360407 0.533187 0.522595
Si Si2 0.036440 0.725056 0.446124
Si Si3 0.687102 0.479954 0.779386
Si Si4 0.259206 0.751521 0.673233
Si Si5 0.837579 0.850434 0.237257
Si Si6 0.525892 0.300214 0.979356
Si Si7 0.216188 0.138342 0.305003
O O1 0.220615 0.628065 0.504768
O O2 0.576972 0.507493 0.658805
O O3 0.299411 0.391404 0.477653
O O4 0.390969 0.606666 0.466509
O O5 0.104115 0.791450 0.544941
O O6 0.837365 0.634344 0.356539
O O7 0.973093 0.828243 0.363993
O O8 0.500000 0.464718 0.750000
O O9 0.799433 0.607690 0.845567
O O10 0.500000 0.762227 0.750000
O O11 0.235632 0.810619 0.736916
O O12 0.000000 0.811355 0.250000
O O13 0.772369 0.991023 0.196078
O O14 0.627722 0.767663 0.140409
O O15 0.612486 0.200807 0.070718
O O16 0.000000 0.166939 0.250000
#
# Coordination Sequence:
#
# PCOD9237511 Si02
#       7
#     4   4   4   4   4   4   4
#     4  11  22  36  66 101 127 168 215 272 331 402
#     4  12  23  41  68  92 139 171 218 276 330 402
#     4  11  22  38  60  95 128 167 215 265 341 391
#     4  11  23  44  69  95 132 181 221 267 339 397
#     4  11  24  43  66  96 132 180 218 273 331 384
#     4  11  22  41  65  99 133 167 221 269 328 398
#     4  11  26  44  68  98 133 176 231 274 321 388
#
# _framework density 20.598461
#
# number of rings (size 3 to 8) (size 9 to 14) (size 15 to 20)
#    0.000    0.857    7.143    0.857    2.000    0.571 
#    0.000    0.714    0.000    0.000    0.000    0.000 
#    0.000    0.000    0.000    0.000    0.000    0.000 
#
# Total GULP energy -156099.847847 kJ/mol
# GULP energy per Si atom -5574.994566 kJ/mol
# Density = 2.055158 g / cm^3
# Si number density = 20.598461 Si / 1000 Ang^3
#
#
#
# Elastic Constant Matrix: (Units=GPa)
#
#
# Indices 1 2 3 4 5 6 
#
# 1 65.6440 3.0193 21.1829 0.0000 -10.8882 0.0000
# 2 3.0193 61.9290 29.1165 0.0000 7.2863 0.0000
# 3 21.1829 29.1165 122.6673 0.0000 -34.4353 0.0000
# 4 0.0000 0.0000 0.0000 23.7041 0.0000 0.2267
# 5 -10.8882 7.2863 -34.4353 0.0000 31.9469 0.0000
# 6 0.0000 0.0000 0.0000 0.2267 0.0000 12.7879
#
#
#
# Elastic Compliance Matrix: (Units=1/GPa)
#
#
# Indices 1 2 3 4 5 6 
#
# 1 0.016435 -0.000527 -0.001587 0.000000 0.004011 0.000000
# 2 -0.000527 0.022595 -0.009706 0.000000 -0.015795 0.000000
# 3 -0.001587 -0.009706 0.016059 0.000000 0.018983 0.000000
# 4 0.000000 0.000000 0.000000 0.042194 0.000000 -0.000748
# 5 0.004011 -0.015795 0.018983 0.000000 0.056733 0.000000
# 6 0.000000 0.000000 0.000000 -0.000748 0.000000 0.078212
#
#
# Mechanical properties :
#
#
# Convention : Reuss Voigt Hill
#
# Bulk Modulus (GPa) = 31.79791 39.65307 35.72549
# Shear Modulus (GPa) = 18.77214 26.81588 22.79401
#
# Velocity S-wave (km/s) = 3.02211 3.61202 3.33015
# Velocity P-wave (km/s) = 5.25814 6.05705 5.67168
#
# Compressibility (1/GPa) = 0.03144861
#
# Stress axis : x y z
#
# Youngs Moduli (GPa) = 60.84447 44.25723 62.27052
#
# Poissons Ratio (x) = 0.02332 0.09883
# Poissons Ratio (y) = 0.03207 0.60442
# Poissons Ratio (z) = 0.09657 0.42958
#
# Static dielectric constant tensor:
#      x y z
#    x 1.793520 0.000000 -0.002980 
#    y 0.000000 1.745960 0.000000 
#    z -0.002980 0.000000 1.780750 
# 
# From -- ./inp_files/78587.got.cif
#   From: 2010.05.17/outbox.cif.g08.bks.cpg/sg13_40_cif.got.tgz:78587.got - 2010.06.03 16:44:36.
