data_PCOD9237547
_publ_section_title
;
Structure prediction by ZEFSAII (Michael W. Deem and Ramdas Pophale) SiO2 
 PCOD9237547
Probable space group: P 2/C
;
_chemical_formula_sum "Si O2"
_cell_formula_units_Z 32
_cell_length_a 13.809883
_cell_length_b 12.085839
_cell_length_c 15.833908
_cell_angle_alpha 90.000000
_cell_angle_beta 144.207979
_cell_angle_gamma 90.000000
_cell_volume 1545.594255
_symmetry_space_group_name_H-M "P 2/C"
_symmetry_group_IT_number 13
_symmetry_cell_setting 'monoclinic'
loop_
_space_group_symop_operation_xyz
x,y,z
-x,y,1/2-z
-x,-y,-z
x,-y,1/2+z
loop_
_atom_site_type_symbol
_atom_site_label
_atom_site_fract_x
_atom_site_fract_y
_atom_site_fract_z
Si Si1 0.133280 0.687519 0.484714
Si Si2 0.168084 0.330836 0.204132
Si Si3 0.693461 0.469403 0.897447
Si Si4 0.414340 0.894926 0.100327
Si Si5 0.619763 0.842379 0.914334
Si Si6 0.212649 0.415588 0.728382
Si Si7 0.868032 0.732585 0.584814
Si Si8 0.509419 0.745392 0.015465
O O1 0.202966 0.683602 0.629720
O O2 0.216523 0.577905 0.503356
O O3 0.200681 0.795862 0.486376
O O4 0.938059 0.665325 0.353644
O O5 0.163545 0.461105 0.223668
O O6 0.317188 0.281185 0.363184
O O7 0.992494 0.271732 0.093982
O O8 0.500000 0.490235 0.750000
O O9 0.766168 0.436090 0.857022
O O10 0.732522 0.363646 0.981864
O O11 0.500000 0.864795 0.250000
O O12 0.511807 0.836896 0.091896
O O13 0.400518 0.026723 0.086256
O O14 0.230413 0.844547 0.972543
O O15 0.500000 0.812569 0.750000
O O16 0.573992 0.787078 0.970760
O O17 0.381720 0.361064 0.881126
O O18 0.000000 0.707843 0.750000
#
# Coordination Sequence:
#
# PCOD9237547 Si02
#       8
#     4   4   4   4   4   4   4   4
#     4  11  22  44  66  96 138 179 218 273 335 404
#     4  11  22  41  66  98 140 174 216 272 338 413
#     4  11  22  38  67  98 136 180 219 268 338 405
#     4  11  26  47  69  97 130 176 234 287 336 398
#     4  11  25  47  70  95 132 182 234 279 333 401
#     4  11  23  41  64 102 140 172 218 275 336 409
#     4  12  22  39  63  97 133 170 219 277 335 400
#     4  12  24  44  70  98 135 176 228 282 340 396
#
# _framework density 20.704011000000001
#
# number of rings (size 3 to 8) (size 9 to 14) (size 15 to 20)
#    0.000    0.750    5.000    3.750    1.750    1.500 
#    2.250    0.625    0.000    0.000    0.000    0.000 
#    0.000    0.000    0.000    0.000    0.000    0.000 
#
# Total GULP energy -178780.989289 kJ/mol
# GULP energy per Si atom -5586.905915 kJ/mol
# Density = 2.065689 g / cm^3
# Si number density = 20.704011 Si / 1000 Ang^3
#
#
#
# Elastic Constant Matrix: (Units=GPa)
#
#
# Indices 1 2 3 4 5 6 
#
# 1 93.8520 28.5946 10.7973 0.0000 1.0988 0.0000
# 2 28.5946 36.0956 0.2080 0.0000 -10.0805 0.0000
# 3 10.7973 0.2080 53.2908 0.0000 8.3906 0.0000
# 4 0.0000 0.0000 0.0000 15.3274 0.0000 6.4356
# 5 1.0988 -10.0805 8.3906 0.0000 40.9280 0.0000
# 6 0.0000 0.0000 0.0000 6.4356 0.0000 26.3442
#
#
#
# Elastic Compliance Matrix: (Units=1/GPa)
#
#
# Indices 1 2 3 4 5 6 
#
# 1 0.014795 -0.012538 -0.002480 0.000000 -0.002977 0.000000
# 2 -0.012538 0.040464 0.000786 0.000000 0.010142 0.000000
# 3 -0.002480 0.000786 0.019865 0.000000 -0.003812 0.000000
# 4 0.000000 0.000000 0.000000 0.072699 0.000000 -0.017760
# 5 -0.002977 0.010142 -0.003812 0.000000 0.027793 0.000000
# 6 0.000000 0.000000 0.000000 -0.017760 0.000000 0.042297
#
#
# Mechanical properties :
#
#
# Convention : Reuss Voigt Hill
#
# Bulk Modulus (GPa) = 21.43176 29.15979 25.29578
# Shear Modulus (GPa) = 19.08899 26.09582 22.59240
#
# Velocity S-wave (km/s) = 3.03973 3.55410 3.30693
# Velocity P-wave (km/s) = 4.76381 5.56389 5.17932
#
# Compressibility (1/GPa) = 0.04665971
#
# Stress axis : x y z
#
# Youngs Moduli (GPa) = 67.58946 24.71316 50.34071
#
# Poissons Ratio (x) = 0.30985 0.12485
# Poissons Ratio (y) = 0.84742 -0.03954
# Poissons Ratio (z) = 0.16762 -0.01941
#
# Static dielectric constant tensor:
#      x y z
#    x 1.844180 0.000000 -0.014770 
#    y 0.000000 1.712180 0.000000 
#    z -0.014770 0.000000 1.737680 
# 
# From -- ./inp_files/68697.got.cif
#   From: 2010.05.17/outbox.cif.g08.bks.cpg/sg13_35_cif.got.tgz:68697.got - 2010.06.03 16:44:36.
