data_PCOD9237474
_publ_section_title
;
Structure prediction by ZEFSAII (Michael W. Deem and Ramdas Pophale) SiO2 
 PCOD9237474
Probable space group: P 2/C
;
_chemical_formula_sum "Si O2"
_cell_formula_units_Z 22
_cell_length_a 14.512931
_cell_length_b 11.275741
_cell_length_c 17.025602
_cell_angle_alpha 90.000000
_cell_angle_beta 20.429285
_cell_angle_gamma 90.000000
_cell_volume 972.504605
_symmetry_space_group_name_H-M "P 2/C"
_symmetry_group_IT_number 13
_symmetry_cell_setting 'monoclinic'
loop_
_space_group_symop_operation_xyz
x,y,z
-x,y,1/2-z
-x,-y,-z
x,-y,1/2+z
loop_
_atom_site_type_symbol
_atom_site_label
_atom_site_fract_x
_atom_site_fract_y
_atom_site_fract_z
Si Si1 0.500000 0.860845 0.250000
Si Si2 0.162562 0.616572 0.356403
Si Si3 0.746543 0.223771 0.268960
Si Si4 0.291316 0.660439 0.535133
Si Si5 0.176495 0.249588 0.685119
Si Si6 0.993680 0.996911 0.098937
O O1 0.357629 0.774168 0.427219
O O2 0.269379 0.946636 0.404762
O O3 0.435424 0.590091 0.184521
O O4 0.172142 0.650433 0.256645
O O5 0.000000 0.500000 0.500000
O O6 0.011284 0.729582 0.515671
O O7 0.713810 0.307589 0.369372
O O8 0.489684 0.229889 0.419128
O O9 0.770914 0.096029 0.290889
O O10 0.000000 0.612413 0.750000
O O11 0.000000 0.276014 0.750000
O O12 0.069938 0.126955 0.809297
O O13 0.000000 0.000000 0.000000
#
# Coordination Sequence:
#
# PCOD9237474 Si02
#       6
#     2   4   4   4   4   4
#     4  12  24  40  68 108 140 184 232 288 350 434
#     4  11  25  50  73  97 141 193 239 298 351 413
#     4  11  23  45  67  97 142 183 236 285 362 422
#     4  11  21  42  69 104 137 172 242 295 346 421
#     4  11  27  43  69 106 143 186 236 289 360 429
#     4  12  23  41  68 101 145 187 223 290 362 426
#
# _framework density 22.622
#
# number of rings (size 3 to 8) (size 9 to 14) (size 15 to 20)
#    0.000    0.727    5.455    1.636    5.091    3.636 
#    0.000    9.091    0.000    0.000    0.000    0.000 
#    0.000    0.000    0.000    0.000    0.000    0.000 
#
# Total GULP energy -122811.719148 kJ/mol
# GULP energy per Si atom -5582.350870 kJ/mol
# Density = 2.257051 g / cm^3
# Si number density = 22.622000 Si / 1000 Ang^3
#
#
#
# Elastic Constant Matrix: (Units=GPa)
#
#
# Indices 1 2 3 4 5 6 
#
# 1 127.1415 19.8072 55.4096 0.0000 -44.4390 0.0000
# 2 19.8072 81.1116 26.5708 0.0000 -26.1303 0.0000
# 3 55.4096 26.5708 121.9955 0.0000 -49.5727 0.0000
# 4 0.0000 0.0000 0.0000 24.3246 0.0000 -8.7574
# 5 -44.4390 -26.1303 -49.5727 0.0000 57.3806 0.0000
# 6 0.0000 0.0000 0.0000 -8.7574 0.0000 18.6531
#
#
#
# Elastic Compliance Matrix: (Units=1/GPa)
#
#
# Indices 1 2 3 4 5 6 
#
# 1 0.011231 0.000210 -0.002425 0.000000 0.006698 0.000000
# 2 0.000210 0.014494 -0.000777 0.000000 0.006092 0.000000
# 3 -0.002425 -0.000777 0.013192 0.000000 0.009165 0.000000
# 4 0.000000 0.000000 0.000000 0.049473 0.000000 0.023227
# 5 0.006698 0.006092 0.009165 0.000000 0.033307 0.000000
# 6 0.000000 0.000000 0.000000 0.023227 0.000000 0.064515
#
#
# Mechanical properties :
#
#
# Convention : Reuss Voigt Hill
#
# Bulk Modulus (GPa) = 30.36424 59.31375 44.83900
# Shear Modulus (GPa) = 24.60956 35.30240 29.95598
#
# Velocity S-wave (km/s) = 3.30185 3.95465 3.64290
# Velocity P-wave (km/s) = 5.29036 6.86504 6.12848
#
# Compressibility (1/GPa) = 0.03293348
#
# Stress axis : x y z
#
# Youngs Moduli (GPa) = 89.04323 68.99188 75.80512
#
# Poissons Ratio (x) = -0.01447 0.18380
# Poissons Ratio (y) = -0.01867 0.05888
# Poissons Ratio (z) = 0.21590 0.05359
#
# Static dielectric constant tensor:
#      x y z
#    x 1.827010 0.000000 0.012900 
#    y 0.000000 1.176830 0.000000 
#    z 0.012900 0.000000 1.958430 
# 
# From -- ./inp_files/68499.got.cif
#   From: 2010.05.17/outbox.cif.g08.bks.cpg/sg13_35_cif.got.tgz:68499.got - 2010.06.03 16:44:36.
