data_PCOD9237559
_publ_section_title
;
Structure prediction by ZEFSAII (Michael W. Deem and Ramdas Pophale) SiO2 
 PCOD9237559
Probable space group: P 2/C
;
_chemical_formula_sum "Si O2"
_cell_formula_units_Z 28
_cell_length_a 14.572803
_cell_length_b 12.365668
_cell_length_c 8.678414
_cell_angle_alpha 90.000000
_cell_angle_beta 68.676774
_cell_angle_gamma 90.000000
_cell_volume 1456.814873
_symmetry_space_group_name_H-M "P 2/C"
_symmetry_group_IT_number 13
_symmetry_cell_setting 'monoclinic'
loop_
_space_group_symop_operation_xyz
x,y,z
-x,y,1/2-z
-x,-y,-z
x,-y,1/2+z
loop_
_atom_site_type_symbol
_atom_site_label
_atom_site_fract_x
_atom_site_fract_y
_atom_site_fract_z
Si Si1 0.889228 0.442631 0.879077
Si Si2 0.604829 0.641291 0.742542
Si Si3 0.395957 0.599224 0.389226
Si Si4 0.074511 0.947575 0.078818
Si Si5 0.808720 0.644850 0.114921
Si Si6 0.809722 0.253999 0.120464
Si Si7 0.111578 0.817934 0.620746
O O1 0.823365 0.402201 0.776213
O O2 0.000000 0.450480 0.750000
O O3 0.854105 0.555200 0.971793
O O4 0.876507 0.352639 0.019062
O O5 0.500000 0.685987 0.750000
O O6 0.618003 0.527701 0.644263
O O7 0.697806 0.716591 0.650430
O O8 0.603081 0.616387 0.927281
O O9 0.500000 0.631075 0.250000
O O10 0.304930 0.657763 0.361647
O O11 0.000000 0.900411 0.250000
O O12 0.130395 0.054148 0.105086
O O13 0.146523 0.856127 0.975098
O O14 0.000000 0.000000 0.000000
O O15 0.868097 0.755952 0.050412
O O16 0.820251 0.240093 0.296310
O O17 0.000000 0.804647 0.750000
#
# Coordination Sequence:
#
# PCOD9237559 Si02
#       7
#     4   4   4   4   4   4   4
#     4  12  25  37  57  88 134 170 206 246 315 383
#     4  11  23  40  64  93 128 166 212 263 316 379
#     4  11  22  39  64  90 125 165 211 257 310 373
#     4  11  23  42  65  92 123 165 214 260 308 371
#     4  12  23  39  59  91 127 170 204 257 313 379
#     4  12  23  40  64  92 126 164 208 264 317 367
#     4  11  22  40  63  88 127 163 209 257 309 374
#
# _framework density 19.220013000000002
#
# number of rings (size 3 to 8) (size 9 to 14) (size 15 to 20)
#    0.000    0.571    5.714    5.571    4.000    0.000 
#    0.000    0.000    0.000    1.714    0.000    0.000 
#    0.000    0.000    0.000    0.000    0.000    0.000 
#
# Total GULP energy -156582.763148 kJ/mol
# GULP energy per Si atom -5592.241541 kJ/mol
# Density = 1.917627 g / cm^3
# Si number density = 19.220013 Si / 1000 Ang^3
#
#
#
# Elastic Constant Matrix: (Units=GPa)
#
#
# Indices 1 2 3 4 5 6 
#
# 1 95.2410 21.4103 26.4244 0.0000 -13.7263 0.0000
# 2 21.4103 87.0888 27.5507 0.0000 -17.8237 0.0000
# 3 26.4244 27.5507 83.5988 0.0000 -1.1249 0.0000
# 4 0.0000 0.0000 0.0000 24.7921 0.0000 -0.4082
# 5 -13.7263 -17.8237 -1.1249 0.0000 36.4527 0.0000
# 6 0.0000 0.0000 0.0000 -0.4082 0.0000 25.9739
#
#
#
# Elastic Compliance Matrix: (Units=1/GPa)
#
#
# Indices 1 2 3 4 5 6 
#
# 1 0.012283 -0.001111 -0.003463 0.000000 0.003975 0.000000
# 2 -0.001111 0.014458 -0.004326 0.000000 0.006518 0.000000
# 3 -0.003463 -0.004326 0.014442 0.000000 -0.002974 0.000000
# 4 0.000000 0.000000 0.000000 0.040346 0.000000 0.000634
# 5 0.003975 0.006518 -0.002974 0.000000 0.032025 0.000000
# 6 0.000000 0.000000 0.000000 0.000634 0.000000 0.038510
#
#
# Mechanical properties :
#
#
# Convention : Reuss Voigt Hill
#
# Bulk Modulus (GPa) = 42.76430 46.29994 44.53212
# Shear Modulus (GPa) = 28.14396 30.14662 29.14529
#
# Velocity S-wave (km/s) = 3.83078 3.96473 3.89833
# Velocity P-wave (km/s) = 6.47029 6.71569 6.59413
#
# Compressibility (1/GPa) = 0.02338399
#
# Stress axis : x y z
#
# Youngs Moduli (GPa) = 81.41285 69.16585 69.24169
#
# Poissons Ratio (x) = 0.07682 0.23978
# Poissons Ratio (y) = 0.09042 0.29954
# Poissons Ratio (z) = 0.28193 0.29921
#
# Static dielectric constant tensor:
#      x y z
#    x 1.711350 0.000000 0.029600 
#    y 0.000000 1.683980 0.000000 
#    z 0.029600 0.000000 1.730350 
# 
# From -- ./inp_files/18747.got.cif
#   From: 2010.05.17/outbox.cif.g08.bks.cpg/sg13_10_cif.got.tgz:18747.got - 2010.06.03 16:44:36.
