data_PCOD9237100
_publ_section_title
;
Structure prediction by ZEFSAII (Michael W. Deem and Ramdas Pophale) SiO2 
 PCOD9237100
Probable space group: P 2/C
;
_chemical_formula_sum "Si O2"
_cell_formula_units_Z 16
_cell_length_a 22.945101
_cell_length_b 5.197583
_cell_length_c 29.213183
_cell_angle_alpha 90.000000
_cell_angle_beta 169.982765
_cell_angle_gamma 90.000000
_cell_volume 606.011347
_symmetry_space_group_name_H-M "P 2/C"
_symmetry_group_IT_number 13
_symmetry_cell_setting 'monoclinic'
loop_
_space_group_symop_operation_xyz
x,y,z
-x,y,1/2-z
-x,-y,-z
x,-y,1/2+z
loop_
_atom_site_type_symbol
_atom_site_label
_atom_site_fract_x
_atom_site_fract_y
_atom_site_fract_z
Si Si1 0.203498 0.199000 0.779756
Si Si2 0.302130 0.149833 0.556236
Si Si3 0.807557 0.816856 0.886772
Si Si4 0.758448 0.460906 0.598757
O O1 0.896770 0.061029 0.568545
O O2 0.055319 0.289612 0.617199
O O3 0.320477 0.387446 0.909872
O O4 0.500000 0.000000 0.000000
O O5 0.500000 0.303820 0.750000
O O6 0.555028 0.013907 0.717242
O O7 0.017565 0.307278 0.309652
O O8 0.595430 0.585116 0.700143
O O9 0.000000 0.000000 0.000000
O O10 0.000000 0.301766 0.750000
#
# Coordination Sequence:
#
# PCOD9237100 Si02
#       4
#     4   4   4   4
#     4  11  24  47  72 102 148 188 241 301 364 431
#     4  10  26  47  70 106 148 187 243 303 365 434
#     4  11  24  49  76 105 145 195 241 300 366 436
#     4  12  26  42  75 103 141 191 243 297 363 426
#
# _framework density 26.402145999999998
#
# number of rings (size 3 to 8) (size 9 to 14) (size 15 to 20)
#    0.000    1.000    5.000    0.000    7.000    1.000 
#    0.000    2.500    0.000    0.000    0.000    0.000 
#    0.000    0.000    0.000    0.000    0.000    0.000 
#
# Total GULP energy -89420.408008 kJ/mol
# GULP energy per Si atom -5588.775500 kJ/mol
# Density = 2.634205 g / cm^3
# Si number density = 26.402146 Si / 1000 Ang^3
#
#
#
# Elastic Constant Matrix: (Units=GPa)
#
#
# Indices 1 2 3 4 5 6 
#
# 1 205.3202 53.0768 102.4462 0.0001 -20.2251 0.0001
# 2 53.0768 72.9928 68.9455 0.0000 -13.7591 0.0000
# 3 102.4462 68.9455 183.3130 0.0001 -39.0226 0.0001
# 4 0.0001 0.0000 0.0001 67.2503 0.0000 5.3188
# 5 -20.2251 -13.7591 -39.0226 0.0000 95.5512 0.0000
# 6 0.0001 0.0000 0.0001 5.3188 0.0000 32.9998
#
#
#
# Elastic Compliance Matrix: (Units=1/GPa)
#
#
# Indices 1 2 3 4 5 6 
#
# 1 0.006966 -0.002151 -0.003106 0.000000 -0.000104 0.000000
# 2 -0.002151 0.021917 -0.007082 0.000000 -0.000192 0.000000
# 3 -0.003106 -0.007082 0.010402 0.000000 0.002571 0.000000
# 4 0.000000 0.000000 0.000000 0.015062 0.000000 -0.002428
# 5 -0.000104 -0.000192 0.002571 0.000000 0.011466 0.000000
# 6 0.000000 0.000000 0.000000 -0.002428 0.000000 0.030694
#
#
# Mechanical properties :
#
#
# Convention : Reuss Voigt Hill
#
# Bulk Modulus (GPa) = 68.46005 101.17368 84.81687
# Shear Modulus (GPa) = 39.66532 54.97076 47.31804
#
# Velocity S-wave (km/s) = 3.88022 4.56791 4.23804
# Velocity P-wave (km/s) = 6.78682 8.13784 7.49284
#
# Compressibility (1/GPa) = 0.01460706
#
# Stress axis : x y z
#
# Youngs Moduli (GPa) = 143.55192 45.62613 96.13662
#
# Poissons Ratio (x) = 0.09815 0.29861
# Poissons Ratio (y) = 0.30879 0.68083
# Poissons Ratio (z) = 0.44589 0.32312
#
# Static dielectric constant tensor:
#      x y z
#    x 2.135270 0.000000 -0.123220 
#    y 0.000000 2.210220 0.000000 
#    z -0.123220 0.000000 2.089710 
# 
# From -- ./inp_files/97610.got.cif
#   From: 2010.05.17/outbox.cif.g08.bks.cpg/sg13_49_cif.got.tgz:97610.got - 2010.06.03 16:44:36.
