data_PCOD9237103
_publ_section_title
;
Structure prediction by ZEFSAII (Michael W. Deem and Ramdas Pophale) SiO2 
 PCOD9237103
Probable space group: P 2/C
;
_chemical_formula_sum "Si O2"
_cell_formula_units_Z 20
_cell_length_a 14.364909
_cell_length_b 5.449313
_cell_length_c 20.335503
_cell_angle_alpha 90.000000
_cell_angle_beta 150.132110
_cell_angle_gamma 90.000000
_cell_volume 792.739487
_symmetry_space_group_name_H-M "P 2/C"
_symmetry_group_IT_number 13
_symmetry_cell_setting 'monoclinic'
loop_
_space_group_symop_operation_xyz
x,y,z
-x,y,1/2-z
-x,-y,-z
x,-y,1/2+z
loop_
_atom_site_type_symbol
_atom_site_label
_atom_site_fract_x
_atom_site_fract_y
_atom_site_fract_z
Si Si1 0.629993 0.708285 0.042833
Si Si2 0.500000 0.733561 0.250000
Si Si3 0.377643 0.641683 0.774361
Si Si4 0.136364 0.932961 0.728205
Si Si5 0.000000 0.594441 0.750000
Si Si6 0.851594 0.920917 0.964959
O O1 0.819977 0.569409 0.144593
O O2 0.695229 0.934717 0.129345
O O3 0.500000 0.500000 0.000000
O O4 0.543828 0.767581 0.918140
O O5 0.542096 0.613757 0.202983
O O6 0.304144 0.873836 0.117282
O O7 0.215475 0.728998 0.725487
O O8 0.284759 0.717427 0.647969
O O9 0.000800 0.778601 0.690179
O O10 0.999585 0.135242 0.612476
O O11 0.000000 0.000000 0.000000
#
# Coordination Sequence:
#
# PCOD9237103 Si02
#       6
#     4   2   4   4   2   4
#     4  12  27  48  78 110 152 201 253 309 385 453
#     4  12  26  46  78 116 148 202 262 304 390 446
#     4  11  26  47  76 107 152 199 249 311 374 448
#     4  11  26  49  73 109 155 197 253 312 380 447
#     4  12  26  44  78 112 148 198 250 320 372 456
#     4  10  26  47  74 104 153 196 247 318 371 446
#
# _framework density 25.228967000000001
#
# number of rings (size 3 to 8) (size 9 to 14) (size 15 to 20)
#    0.000    0.800    2.000    3.000    5.600   11.200 
#    0.000    0.000    0.000    0.000    0.000    0.000 
#    0.000    0.000    0.000    0.000    0.000    0.000 
#
# Total GULP energy -111364.615731 kJ/mol
# GULP energy per Si atom -5568.230787 kJ/mol
# Density = 2.517155 g / cm^3
# Si number density = 25.228967 Si / 1000 Ang^3
#
#
#
# Elastic Constant Matrix: (Units=GPa)
#
#
# Indices 1 2 3 4 5 6 
#
# 1 90.4126 35.0419 29.8970 0.0000 26.7816 0.0000
# 2 35.0419 41.5414 -0.5143 0.0000 11.0792 0.0000
# 3 29.8970 -0.5143 174.8023 0.0000 9.4300 0.0000
# 4 0.0000 0.0000 0.0000 25.2457 0.0000 -6.8844
# 5 26.7816 11.0792 9.4300 0.0000 44.8891 0.0000
# 6 0.0000 0.0000 0.0000 -6.8844 0.0000 15.1203
#
#
#
# Elastic Compliance Matrix: (Units=1/GPa)
#
#
# Indices 1 2 3 4 5 6 
#
# 1 0.020169 -0.015002 -0.003079 0.000000 -0.007684 0.000000
# 2 -0.015002 0.036959 0.002715 0.000000 -0.000741 0.000000
# 3 -0.003079 0.002715 0.006263 0.000000 -0.000149 0.000000
# 4 0.000000 0.000000 0.000000 0.045226 0.000000 0.020592
# 5 -0.007684 -0.000741 -0.000149 0.000000 0.027076 0.000000
# 6 0.000000 0.000000 0.000000 0.020592 0.000000 0.075512
#
#
# Mechanical properties :
#
#
# Convention : Reuss Voigt Hill
#
# Bulk Modulus (GPa) = 30.62085 48.40063 39.51074
# Shear Modulus (GPa) = 19.77653 33.20646 26.49150
#
# Velocity S-wave (km/s) = 2.80283 3.63189 3.24395
# Velocity P-wave (km/s) = 4.75794 6.06743 5.45214
#
# Compressibility (1/GPa) = 0.03265748
#
# Stress axis : x y z
#
# Youngs Moduli (GPa) = 49.58029 27.05705 159.65743
#
# Poissons Ratio (x) = 0.40592 0.49163
# Poissons Ratio (y) = 0.74383 -0.43342
# Poissons Ratio (z) = 0.15267 -0.07345
#
# Static dielectric constant tensor:
#      x y z
#    x 2.006680 0.000000 -0.053810 
#    y 0.000000 1.745470 0.000000 
#    z -0.053810 0.000000 1.986320 
# 
# From -- ./inp_files/56407.got.cif
#   From: 2010.05.17/outbox.cif.g08.bks.cpg/sg13_29_cif.got.tgz:56407.got - 2010.06.03 16:44:36.
