data_PCOD9237684
_publ_section_title
;
Structure prediction by ZEFSAII (Michael W. Deem and Ramdas Pophale) SiO2 
 PCOD9237684
Probable space group: P 2/C
;
_chemical_formula_sum "Si O2"
_cell_formula_units_Z 24
_cell_length_a 13.759021
_cell_length_b 7.017056
_cell_length_c 18.738633
_cell_angle_alpha 90.000000
_cell_angle_beta 36.114736
_cell_angle_gamma 90.000000
_cell_volume 1066.334764
_symmetry_space_group_name_H-M "P 2/C"
_symmetry_group_IT_number 13
_symmetry_cell_setting 'monoclinic'
loop_
_space_group_symop_operation_xyz
x,y,z
-x,y,1/2-z
-x,-y,-z
x,-y,1/2+z
loop_
_atom_site_type_symbol
_atom_site_label
_atom_site_fract_x
_atom_site_fract_y
_atom_site_fract_z
Si Si1 0.825660 0.746597 0.566311
Si Si2 0.500000 0.517287 0.750000
Si Si3 0.268861 0.383224 0.626003
Si Si4 0.823334 0.110040 0.475800
Si Si5 0.000000 0.084896 0.750000
Si Si6 0.952601 0.436361 0.127811
Si Si7 0.533504 0.682746 0.085189
O O1 0.656854 0.649266 0.641360
O O2 0.844204 0.690837 0.638217
O O3 0.986711 0.641085 0.437695
O O4 0.817023 0.963393 0.545029
O O5 0.535776 0.388341 0.797928
O O6 0.147098 0.523457 0.741654
O O7 0.364022 0.509536 0.511869
O O8 0.390615 0.288318 0.611944
O O9 0.157774 0.220982 0.657996
O O10 0.654797 0.141797 0.531662
O O11 0.878536 0.319448 0.465909
O O12 0.969851 0.041128 0.337145
#
# Coordination Sequence:
#
# PCOD9237684 Si02
#       7
#     4   2   4   4   2   4   4
#     4  11  24  42  70 100 136 186 228 284 350 413
#     4  12  22  48  64 100 142 186 222 282 354 422
#     4  11  23  47  73 100 137 192 228 285 355 415
#     4  12  24  43  67 108 133 180 234 291 347 406
#     4  12  24  42  70 100 138 176 236 292 334 412
#     4  11  22  45  72  97 140 179 235 287 342 419
#     4  11  25  43  74 100 141 186 229 282 356 418
#
# _framework density 22.507002
#
# number of rings (size 3 to 8) (size 9 to 14) (size 15 to 20)
#    0.000    0.667    5.000    3.500    0.000    1.333 
#    6.000    0.000    0.000    0.000    0.000    0.000 
#    0.000    0.000    0.000    0.000    0.000    0.000 
#
# Total GULP energy -134196.067829 kJ/mol
# GULP energy per Si atom -5591.502826 kJ/mol
# Density = 2.245578 g / cm^3
# Si number density = 22.507002 Si / 1000 Ang^3
#
#
#
# Elastic Constant Matrix: (Units=GPa)
#
#
# Indices 1 2 3 4 5 6 
#
# 1 83.1088 19.3438 -7.5534 0.0000 -6.7618 0.0000
# 2 19.3438 70.9661 6.6525 0.0000 -2.7068 0.0000
# 3 -7.5534 6.6525 51.1322 0.0000 8.2182 0.0000
# 4 0.0000 0.0000 0.0000 15.5085 0.0000 -5.3624
# 5 -6.7618 -2.7068 8.2182 0.0000 39.1859 0.0000
# 6 0.0000 0.0000 0.0000 -5.3624 0.0000 32.1356
#
#
#
# Elastic Compliance Matrix: (Units=1/GPa)
#
#
# Indices 1 2 3 4 5 6 
#
# 1 0.013232 -0.003753 0.002191 0.000000 0.001565 0.000000
# 2 -0.003753 0.015406 -0.002717 0.000000 0.000987 0.000000
# 3 0.002191 -0.002717 0.020909 0.000000 -0.004195 0.000000
# 4 0.000000 0.000000 0.000000 0.068429 0.000000 0.011419
# 5 0.001565 0.000987 -0.004195 0.000000 0.026737 0.000000
# 6 0.000000 0.000000 0.000000 0.011419 0.000000 0.033023
#
#
# Mechanical properties :
#
#
# Convention : Reuss Voigt Hill
#
# Bulk Modulus (GPa) = 24.39594 26.89922 25.64758
# Shear Modulus (GPa) = 25.00532 29.81696 27.41114
#
# Velocity S-wave (km/s) = 3.33679 3.64371 3.49362
# Velocity P-wave (km/s) = 5.07034 5.44790 5.26250
#
# Compressibility (1/GPa) = 0.04099043
#
# Stress axis : x y z
#
# Youngs Moduli (GPa) = 75.57263 64.90786 47.82729
#
# Poissons Ratio (x) = 0.24357 -0.10481
# Poissons Ratio (y) = 0.28359 0.12996
# Poissons Ratio (z) = -0.16562 0.17638
#
# Static dielectric constant tensor:
#      x y z
#    x 1.882910 0.000000 -0.031310 
#    y 0.000000 1.799410 0.000000 
#    z -0.031310 0.000000 1.806740 
# 
# From -- ./inp_files/79253.got.cif
#   From: 2010.05.17/outbox.cif.g08.bks.cpg/sg13_40_cif.got.tgz:79253.got - 2010.06.03 16:44:36.
