data_PCOD9237792
_publ_section_title
;
Structure prediction by ZEFSAII (Michael W. Deem and Ramdas Pophale) SiO2 
 PCOD9237792
Probable space group: P 2/C
;
_chemical_formula_sum "Si O2"
_cell_formula_units_Z 18
_cell_length_a 11.295540
_cell_length_b 11.126390
_cell_length_c 11.714428
_cell_angle_alpha 90.000000
_cell_angle_beta 142.023569
_cell_angle_gamma 90.000000
_cell_volume 905.931966
_symmetry_space_group_name_H-M "P 2/C"
_symmetry_group_IT_number 13
_symmetry_cell_setting 'monoclinic'
loop_
_space_group_symop_operation_xyz
x,y,z
-x,y,1/2-z
-x,-y,-z
x,-y,1/2+z
loop_
_atom_site_type_symbol
_atom_site_label
_atom_site_fract_x
_atom_site_fract_y
_atom_site_fract_z
Si Si1 0.500000 0.884637 0.750000
Si Si2 0.899981 0.026038 0.049715
Si Si3 0.631134 0.586783 0.245191
Si Si4 0.420953 0.684416 0.867906
Si Si5 0.012689 0.699301 0.886054
O O1 0.307981 0.963783 0.610189
O O2 0.506661 0.793097 0.861327
O O3 0.000000 0.990994 0.250000
O O4 0.888760 0.170417 0.047283
O O5 0.000000 0.000000 0.000000
O O6 0.500000 0.629507 0.250000
O O7 0.598486 0.444463 0.208382
O O8 0.852598 0.616902 0.434840
O O9 0.553157 0.655136 0.075952
O O10 0.203185 0.717317 0.735638
O O11 0.000000 0.644358 0.750000
#
# Coordination Sequence:
#
# PCOD9237792 Si02
#       5
#     2   4   4   4   4
#     4  12  26  44  70  96 134 174 222 272 336 392
#     4  11  27  46  68 100 134 176 228 275 332 396
#     4  11  23  41  68  97 129 172 216 268 333 389
#     4  11  24  43  65  98 133 168 219 271 328 398
#     4  11  23  43  66  95 131 171 220 272 327 394
#
# _framework density 19.869043000000001
#
# number of rings (size 3 to 8) (size 9 to 14) (size 15 to 20)
#    0.000    0.889    5.556    0.667    4.667    0.889 
#    0.000    1.111    0.000    0.000    0.000    0.000 
#    0.000    0.000    0.000    0.000    0.000    0.000 
#
# Total GULP energy -100470.061104 kJ/mol
# GULP energy per Si atom -5581.670061 kJ/mol
# Density = 1.982382 g / cm^3
# Si number density = 19.869043 Si / 1000 Ang^3
#
#
#
# Elastic Constant Matrix: (Units=GPa)
#
#
# Indices 1 2 3 4 5 6 
#
# 1 119.6550 44.1182 60.6935 0.0000 7.5674 0.0000
# 2 44.1182 64.1701 79.1550 0.0000 -8.9311 0.0000
# 3 60.6935 79.1550 142.2460 0.0000 0.7554 0.0000
# 4 0.0000 0.0000 0.0000 28.0604 0.0000 8.1209
# 5 7.5674 -8.9311 0.7554 0.0000 28.0270 0.0000
# 6 0.0000 0.0000 0.0000 8.1209 0.0000 34.8511
#
#
#
# Elastic Compliance Matrix: (Units=1/GPa)
#
#
# Indices 1 2 3 4 5 6 
#
# 1 0.012150 -0.009120 -0.000076 0.000000 -0.006185 0.000000
# 2 -0.009120 0.065661 -0.032776 0.000000 0.024269 0.000000
# 3 -0.000076 -0.032776 0.025360 0.000000 -0.011107 0.000000
# 4 0.000000 0.000000 0.000000 0.038214 0.000000 -0.008905
# 5 -0.006185 0.024269 -0.011107 0.000000 0.045383 0.000000
# 6 0.000000 0.000000 0.000000 -0.008905 0.000000 0.030768
#
#
# Mechanical properties :
#
#
# Convention : Reuss Voigt Hill
#
# Bulk Modulus (GPa) = 52.00974 77.11161 64.56068
# Shear Modulus (GPa) = 16.23963 27.66133 21.95048
#
# Velocity S-wave (km/s) = 2.86201 3.73524 3.32740
# Velocity P-wave (km/s) = 6.09545 7.58267 6.87937
#
# Compressibility (1/GPa) = 0.01922717
#
# Stress axis : x y z
#
# Youngs Moduli (GPa) = 82.30589 15.22981 39.43189
#
# Poissons Ratio (x) = 0.13889 0.00301
# Poissons Ratio (y) = 0.75061 1.29240
# Poissons Ratio (z) = 0.00629 0.49917
#
# Static dielectric constant tensor:
#      x y z
#    x 1.743730 0.000000 -0.028770 
#    y 0.000000 1.673110 0.000000 
#    z -0.028770 0.000000 1.689600 
# 
# From -- ./inp_files/25669.got.cif
#   From: 2010.05.17/outbox.cif.g08.bks.cpg/sg13_13_cif.got.tgz:25669.got - 2010.06.03 16:44:36.
