data_PCOD9237847
_publ_section_title
;
Structure prediction by ZEFSAII (Michael W. Deem and Ramdas Pophale) SiO2 
 PCOD9237847
Probable space group: P 2/C
;
_chemical_formula_sum "Si O2"
_cell_formula_units_Z 20
_cell_length_a 7.855184
_cell_length_b 24.227358
_cell_length_c 9.144373
_cell_angle_alpha 90.000000
_cell_angle_beta 146.084605
_cell_angle_gamma 90.000000
_cell_volume 971.014529
_symmetry_space_group_name_H-M "P 2/C"
_symmetry_group_IT_number 13
_symmetry_cell_setting 'monoclinic'
loop_
_space_group_symop_operation_xyz
x,y,z
-x,y,1/2-z
-x,-y,-z
x,-y,1/2+z
loop_
_atom_site_type_symbol
_atom_site_label
_atom_site_fract_x
_atom_site_fract_y
_atom_site_fract_z
Si Si1 0.396142 0.235113 0.339049
Si Si2 0.142113 0.949488 0.013391
Si Si3 0.219346 0.171143 0.663439
Si Si4 0.637502 0.551489 0.009461
Si Si5 0.644515 0.348347 0.012648
O O1 0.500000 0.249543 0.250000
O O2 0.638938 0.193007 0.584403
O O3 0.380029 0.289510 0.425683
O O4 0.063393 0.207761 0.090705
O O5 0.500000 0.960015 0.250000
O O6 0.112328 0.892255 0.081331
O O7 0.000000 0.942706 0.750000
O O8 0.000000 0.000000 0.000000
O O9 0.500000 0.175508 0.750000
O O10 0.000000 0.547302 0.250000
O O11 0.500000 0.552480 0.750000
O O12 0.500000 0.500000 0.000000
O O13 0.536691 0.606300 0.023521
O O14 0.000000 0.364045 0.250000
O O15 0.500000 0.344372 0.750000
#
# Coordination Sequence:
#
# PCOD9237847 Si02
#       5
#     4   4   4   4   4
#     4  12  25  41  64  96 128 164 211 265 316 373
#     4  11  24  42  65  92 125 163 209 260 316 377
#     4  11  23  43  65  90 125 169 210 255 316 383
#     4  12  25  45  70  99 134 171 217 267 316 374
#     4  12  25  43  67  95 130 173 214 259 318 379
#
# _framework density 20.597014000000001
#
# number of rings (size 3 to 8) (size 9 to 14) (size 15 to 20)
#    0.000    0.400    0.000   10.800    0.000    4.000 
#    0.000    0.000    0.000    0.000    0.000    0.000 
#    0.000    0.000    0.000    0.000    0.000    0.000 
#
# Total GULP energy -112065.096438 kJ/mol
# GULP energy per Si atom -5603.254822 kJ/mol
# Density = 2.055013 g / cm^3
# Si number density = 20.597014 Si / 1000 Ang^3
#
#
#
# Elastic Constant Matrix: (Units=GPa)
#
#
# Indices 1 2 3 4 5 6 
#
# 1 124.3995 84.0489 82.6141 0.0000 0.0147 0.0000
# 2 84.0489 146.8827 71.1509 0.0000 10.8076 0.0000
# 3 82.6141 71.1509 202.8950 0.0000 1.8868 0.0000
# 4 0.0000 0.0000 0.0000 97.2248 0.0000 -96.1259
# 5 0.0147 10.8076 1.8868 0.0000 49.4641 0.0000
# 6 0.0000 0.0000 0.0000 -96.1259 0.0000 189.3244
#
#
#
# Elastic Compliance Matrix: (Units=1/GPa)
#
#
# Indices 1 2 3 4 5 6 
#
# 1 0.015315 -0.007058 -0.003776 0.000000 0.001682 0.000000
# 2 -0.007058 0.011596 -0.001170 0.000000 -0.002487 0.000000
# 3 -0.003776 -0.001170 0.006877 0.000000 -0.000006 0.000000
# 4 0.000000 0.000000 0.000000 0.020653 0.000000 0.010486
# 5 0.001682 -0.002487 -0.000006 0.000000 0.020760 0.000000
# 6 0.000000 0.000000 0.000000 0.010486 0.000000 0.010606
#
#
# Mechanical properties :
#
#
# Convention : Reuss Voigt Hill
#
# Bulk Modulus (GPa) = 102.25092 105.53391 103.89241
# Shear Modulus (GPa) = 44.21843 82.96022 63.58932
#
# Velocity S-wave (km/s) = 4.63842 6.35336 5.56238
# Velocity P-wave (km/s) = 8.85652 10.25519 9.58141
#
# Compressibility (1/GPa) = 0.00977986
#
# Stress axis : x y z
#
# Youngs Moduli (GPa) = 65.29568 86.23378 145.42104
#
# Poissons Ratio (x) = 0.60863 0.54918
# Poissons Ratio (y) = 0.46085 0.17010
# Poissons Ratio (z) = 0.24659 0.10087
#
# Static dielectric constant tensor:
#      x y z
#    x 1.500320 0.000000 0.121240 
#    y 0.000000 1.720640 0.000000 
#    z 0.121240 0.000000 1.610400 
# 
# From -- ./inp_files/13842.got.cif
#   From: 2010.05.17/outbox.cif.g08.bks.cpg/sg13_7_cif.got.tgz:13842.got - 2010.06.03 16:44:36.
