data_PCOD9237713
_publ_section_title
;
Structure prediction by ZEFSAII (Michael W. Deem and Ramdas Pophale) SiO2 
 PCOD9237713
Probable space group: P 2/C
;
_chemical_formula_sum "Si O2"
_cell_formula_units_Z 20
_cell_length_a 12.648911
_cell_length_b 10.048405
_cell_length_c 15.359242
_cell_angle_alpha 90.000000
_cell_angle_beta 152.014176
_cell_angle_gamma 90.000000
_cell_volume 916.066905
_symmetry_space_group_name_H-M "P 2/C"
_symmetry_group_IT_number 13
_symmetry_cell_setting 'monoclinic'
loop_
_space_group_symop_operation_xyz
x,y,z
-x,y,1/2-z
-x,-y,-z
x,-y,1/2+z
loop_
_atom_site_type_symbol
_atom_site_label
_atom_site_fract_x
_atom_site_fract_y
_atom_site_fract_z
Si Si1 0.905704 0.732615 0.048333
Si Si2 0.587354 0.645072 0.665200
Si Si3 0.792288 0.061283 0.796012
Si Si4 0.352515 0.084093 0.998197
Si Si5 0.165655 0.519063 0.810994
O O1 0.115483 0.789198 0.145300
O O2 0.014586 0.608183 0.175389
O O3 0.708986 0.680697 0.843180
O O4 0.799350 0.847447 0.035506
O O5 0.478476 0.783385 0.554992
O O6 0.764526 0.594557 0.724380
O O7 0.390512 0.534932 0.521807
O O8 0.768265 0.023373 0.675257
O O9 0.556960 0.017165 0.669255
O O10 0.000000 0.000000 0.000000
O O11 0.000000 0.604814 0.750000
#
# Coordination Sequence:
#
# PCOD9237713 Si02
#       5
#     4   4   4   4   4
#     4  12  22  43  69  93 126 178 218 261 332 390
#     4  11  23  39  66  98 128 165 227 268 311 402
#     4  11  23  37  64  95 127 163 220 270 317 384
#     4  11  23  40  65  96 126 169 220 266 319 396
#     4  11  23  40  65  96 130 173 214 267 329 383
#
# _framework density 21.832467000000001
#
# number of rings (size 3 to 8) (size 9 to 14) (size 15 to 20)
#    0.000    0.800    6.000    1.800    0.000    0.000 
#    0.000    4.000    4.400    0.000    0.000    0.000 
#    0.000    0.000    0.000    0.000    0.000    0.000 
#
# Total GULP energy -111424.782885 kJ/mol
# GULP energy per Si atom -5571.239144 kJ/mol
# Density = 2.178278 g / cm^3
# Si number density = 21.832467 Si / 1000 Ang^3
#
#
#
# Elastic Constant Matrix: (Units=GPa)
#
#
# Indices 1 2 3 4 5 6 
#
# 1 118.0182 38.1652 52.8869 0.0000 28.3013 0.0000
# 2 38.1652 33.1894 10.2804 0.0000 5.9516 0.0000
# 3 52.8869 10.2804 155.2706 0.0000 -17.6806 0.0000
# 4 0.0000 0.0000 0.0000 17.1227 0.0000 -15.7135
# 5 28.3013 5.9516 -17.6806 0.0000 42.4888 0.0000
# 6 0.0000 0.0000 0.0000 -15.7135 0.0000 -208.6975
#
#
#
# Elastic Compliance Matrix: (Units=1/GPa)
#
#
# Indices 1 2 3 4 5 6 
#
# 1 0.022379 -0.020495 -0.008016 0.000000 -0.015372 0.000000
# 2 -0.020495 0.050764 0.004582 0.000000 0.008447 0.000000
# 3 -0.008016 0.004582 0.009870 0.000000 0.008805 0.000000
# 4 0.000000 0.000000 0.000000 0.054628 0.000000 -0.004113
# 5 -0.015372 0.008447 0.008805 0.000000 0.036255 0.000000
# 6 0.000000 0.000000 0.000000 -0.004113 0.000000 -0.004482
#
#
# Mechanical properties :
#
#
# Convention : Reuss Voigt Hill
#
# Bulk Modulus (GPa) = 28.44596 56.57146 42.50871
# Shear Modulus (GPa) = 21.83490 -16.14082 2.84704
#
# Velocity S-wave (km/s) = 3.16588 -2.72196 1.14318
# Velocity P-wave (km/s) = 5.14016 4.01112 4.61033
#
# Compressibility (1/GPa) = 0.03515438
#
# Stress axis : x y z
#
# Youngs Moduli (GPa) = 44.68387 19.69900 101.31755
#
# Poissons Ratio (x) = 0.40373 0.81217
# Poissons Ratio (y) = 0.91580 -0.46421
# Poissons Ratio (z) = 0.35819 -0.09026
#
# Static dielectric constant tensor:
#      x y z
#    x 2.011050 0.000000 -0.043320 
#    y 0.000000 1.819120 0.000000 
#    z -0.043320 0.000000 1.903670 
# 
# From -- ./inp_files/51054.got.cif
#   From: 2010.05.17/outbox.cif.g08.bks.cpg/sg13_26_cif.got.tgz:51054.got - 2010.06.03 16:44:36.
