data_PCOD9237737
_publ_section_title
;
Structure prediction by ZEFSAII (Michael W. Deem and Ramdas Pophale) SiO2 
 PCOD9237737
Probable space group: P 2/C
;
_chemical_formula_sum "Si O2"
_cell_formula_units_Z 16
_cell_length_a 5.032622
_cell_length_b 8.528661
_cell_length_c 18.203172
_cell_angle_alpha 90.000000
_cell_angle_beta 106.584657
_cell_angle_gamma 90.000000
_cell_volume 748.804780
_symmetry_space_group_name_H-M "P 2/C"
_symmetry_group_IT_number 13
_symmetry_cell_setting 'monoclinic'
loop_
_space_group_symop_operation_xyz
x,y,z
-x,y,1/2-z
-x,-y,-z
x,-y,1/2+z
loop_
_atom_site_type_symbol
_atom_site_label
_atom_site_fract_x
_atom_site_fract_y
_atom_site_fract_z
Si Si1 0.509455 0.766703 0.566481
Si Si2 0.195391 0.726493 0.195264
Si Si3 0.861357 0.938111 0.065298
Si Si4 0.959904 0.567589 0.914904
O O1 0.353410 0.801709 0.476729
O O2 0.262128 0.709933 0.599284
O O3 0.740150 0.632573 0.583617
O O4 0.680616 0.927434 0.590277
O O5 0.500000 0.747282 0.250000
O O6 0.156185 0.567370 0.146049
O O7 0.000000 0.719596 0.250000
O O8 0.094386 0.866285 0.134784
O O9 0.000000 0.000000 0.000000
O O10 0.000000 0.500000 0.000000
#
# Coordination Sequence:
#
# PCOD9237737 Si02
#       4
#     4   4   4   4
#     4  11  23  39  75 102 133 173 254 283 327 406
#     4  12  29  46  71 106 149 182 229 303 373 414
#     4  11  24  45  75 109 136 188 244 288 346 437
#     4  12  23  43  72 103 135 189 237 284 342 429
#
# _framework density 21.367386
#
# number of rings (size 3 to 8) (size 9 to 14) (size 15 to 20)
#    0.000    0.500    5.000    2.250   10.500    0.000 
#    0.000    5.000    0.000    0.000    0.000    0.000 
#    0.000    0.000    0.000    0.000    0.000    0.000 
#
# Total GULP energy -89495.581134 kJ/mol
# GULP energy per Si atom -5593.473821 kJ/mol
# Density = 2.131875 g / cm^3
# Si number density = 21.367386 Si / 1000 Ang^3
#
#
#
# Elastic Constant Matrix: (Units=GPa)
#
#
# Indices 1 2 3 4 5 6 
#
# 1 138.9692 36.9851 63.5549 0.0000 26.7734 0.0000
# 2 36.9851 92.0883 69.8697 0.0000 14.0026 0.0000
# 3 63.5549 69.8697 148.7823 0.0000 30.5108 0.0000
# 4 0.0000 0.0000 0.0000 51.9725 0.0000 6.9047
# 5 26.7734 14.0026 30.5108 0.0000 48.3361 0.0000
# 6 0.0000 0.0000 0.0000 6.9047 0.0000 45.8472
#
#
#
# Elastic Compliance Matrix: (Units=1/GPa)
#
#
# Indices 1 2 3 4 5 6 
#
# 1 0.009394 -0.001148 -0.002843 0.000000 -0.003076 0.000000
# 2 -0.001148 0.017011 -0.007602 0.000000 0.000507 0.000000
# 3 -0.002843 -0.007602 0.012327 0.000000 -0.004004 0.000000
# 4 0.000000 0.000000 0.000000 0.019634 0.000000 -0.002957
# 5 -0.003076 0.000507 -0.004004 0.000000 0.024773 0.000000
# 6 0.000000 0.000000 0.000000 -0.002957 0.000000 0.022257
#
#
# Mechanical properties :
#
#
# Convention : Reuss Voigt Hill
#
# Bulk Modulus (GPa) = 64.32569 80.07323 72.19946
# Shear Modulus (GPa) = 37.37936 43.19319 40.28627
#
# Velocity S-wave (km/s) = 4.18708 4.50094 4.34684
# Velocity P-wave (km/s) = 7.31748 8.03537 7.68481
#
# Compressibility (1/GPa) = 0.01554589
#
# Stress axis : x y z
#
# Youngs Moduli (GPa) = 106.44832 58.78522 81.12529
#
# Poissons Ratio (x) = 0.06750 0.23062
# Poissons Ratio (y) = 0.12223 0.61671
# Poissons Ratio (z) = 0.30261 0.44688
#
# Static dielectric constant tensor:
#      x y z
#    x 1.772960 0.000000 0.000380 
#    y 0.000000 1.875720 0.000000 
#    z 0.000380 0.000000 1.730770 
# 
# From -- ./inp_files/55137.got.cif
#   From: 2010.05.17/outbox.cif.g08.bks.cpg/sg13_28_cif.got.tgz:55137.got - 2010.06.03 16:44:36.
