data_PCOD9237263
_publ_section_title
;
Structure prediction by ZEFSAII (Michael W. Deem and Ramdas Pophale) SiO2 
 PCOD9237263
Probable space group: P 2/C
;
_chemical_formula_sum "Si O2"
_cell_formula_units_Z 32
_cell_length_a 22.101174
_cell_length_b 11.229732
_cell_length_c 22.162308
_cell_angle_alpha 90.000000
_cell_angle_beta 19.059450
_cell_angle_gamma 90.000000
_cell_volume 1796.172914
_symmetry_space_group_name_H-M "P 2/C"
_symmetry_group_IT_number 13
_symmetry_cell_setting 'monoclinic'
loop_
_space_group_symop_operation_xyz
x,y,z
-x,y,1/2-z
-x,-y,-z
x,-y,1/2+z
loop_
_atom_site_type_symbol
_atom_site_label
_atom_site_fract_x
_atom_site_fract_y
_atom_site_fract_z
Si Si1 0.606867 0.403750 0.467100
Si Si2 0.072462 0.299933 0.421070
Si Si3 0.542581 0.754338 0.143587
Si Si4 0.304721 0.088844 0.620705
Si Si5 0.134657 0.058703 0.175479
Si Si6 0.269832 0.361206 0.694706
Si Si7 0.150046 0.154141 0.966044
Si Si8 0.256758 0.938596 0.786109
O O1 0.762979 0.355409 0.273474
O O2 0.609837 0.336576 0.528134
O O3 0.411115 0.379525 0.617941
O O4 0.652871 0.543862 0.426351
O O5 0.162389 0.189554 0.372221
O O6 0.944037 0.381231 0.584535
O O7 0.926023 0.242484 0.512800
O O8 0.500000 0.702187 0.250000
O O9 0.349691 0.807045 0.301035
O O10 0.692133 0.861010 0.009107
O O11 0.275594 0.225679 0.666196
O O12 0.525077 0.071465 0.407663
O O13 0.208928 0.042954 0.650270
O O14 0.239554 0.003842 0.737299
O O15 0.000000 0.012199 0.250000
O O16 0.002438 0.145933 0.338526
O O17 0.170679 0.024716 0.916655
#
# Coordination Sequence:
#
# PCOD9237263 Si02
#       8
#     4   4   4   4   4   4   4   4
#     4  11  23  39  58  90 120 156 204 251 291 350
#     4  12  20  35  59  91 123 156 191 236 308 365
#     4  12  23  39  60  85 120 155 201 251 295 347
#     4  11  20  36  58  87 126 154 190 241 296 366
#     4  12  24  38  60  87 120 158 198 241 299 360
#     4  11  23  38  60  87 125 159 194 249 306 342
#     4  12  21  34  57  90 124 150 184 243 302 363
#     4  11  20  32  59  92 121 156 184 237 311 361
#
# _framework density 17.815656000000001
#
# number of rings (size 3 to 8) (size 9 to 14) (size 15 to 20)
#    0.000    0.500    8.750    1.500    0.000    0.000 
#    0.000    0.000    0.000    4.500    0.000    0.000 
#    0.000    0.000    0.000    0.000    0.000    0.000 
#
# Total GULP energy -178700.745855 kJ/mol
# GULP energy per Si atom -5584.398308 kJ/mol
# Density = 1.777511 g / cm^3
# Si number density = 17.815656 Si / 1000 Ang^3
#
#
#
# Elastic Constant Matrix: (Units=GPa)
#
#
# Indices 1 2 3 4 5 6 
#
# 1 94.0324 23.5295 17.2933 0.0000 -10.9245 0.0000
# 2 23.5295 67.8435 20.2802 0.0000 -3.1985 0.0000
# 3 17.2933 20.2802 95.1657 0.0000 -3.6049 0.0000
# 4 0.0000 0.0000 0.0000 27.4505 0.0000 2.1525
# 5 -10.9245 -3.1985 -3.6049 0.0000 26.2088 0.0000
# 6 0.0000 0.0000 0.0000 2.1525 0.0000 14.8899
#
#
#
# Elastic Compliance Matrix: (Units=1/GPa)
#
#
# Indices 1 2 3 4 5 6 
#
# 1 0.012314 -0.003674 -0.001284 0.000000 0.004508 0.000000
# 2 -0.003674 0.016895 -0.002928 0.000000 0.000128 0.000000
# 3 -0.001284 -0.002928 0.011391 0.000000 0.000674 0.000000
# 4 0.000000 0.000000 0.000000 0.036847 0.000000 -0.005327
# 5 0.004508 0.000128 0.000674 0.000000 0.040142 0.000000
# 6 0.000000 0.000000 0.000000 -0.005327 0.000000 0.067930
#
#
# Mechanical properties :
#
#
# Convention : Reuss Voigt Hill
#
# Bulk Modulus (GPa) = 40.27765 42.13862 41.20814
# Shear Modulus (GPa) = 23.85867 26.77242 25.31555
#
# Velocity S-wave (km/s) = 3.66347 3.88073 3.77367
# Velocity P-wave (km/s) = 6.36803 6.61695 6.49368
#
# Compressibility (1/GPa) = 0.02482766
#
# Stress axis : x y z
#
# Youngs Moduli (GPa) = 81.20912 59.18765 87.79028
#
# Poissons Ratio (x) = 0.21748 0.11271
# Poissons Ratio (y) = 0.29840 0.25704
# Poissons Ratio (z) = 0.10426 0.17330
#
# Static dielectric constant tensor:
#      x y z
#    x 1.608710 0.000000 0.013580 
#    y 0.000000 1.622070 0.000000 
#    z 0.013580 0.000000 1.652880 
# 
# From -- ./inp_files/81814.got.cif
#   From: 2010.05.17/outbox.cif.g08.bks.cpg/sg13_41_cif.got.tgz:81814.got - 2010.06.03 16:44:36.
