data_PCOD9237816
_publ_section_title
;
Structure prediction by ZEFSAII (Michael W. Deem and Ramdas Pophale) SiO2 
 PCOD9237816
Probable space group: P 2/C
;
_chemical_formula_sum "Si O2"
_cell_formula_units_Z 12
_cell_length_a 8.153260
_cell_length_b 13.638353
_cell_length_c 9.407472
_cell_angle_alpha 90.000000
_cell_angle_beta 148.419426
_cell_angle_gamma 90.000000
_cell_volume 547.830644
_symmetry_space_group_name_H-M "P 2/C"
_symmetry_group_IT_number 13
_symmetry_cell_setting 'monoclinic'
loop_
_space_group_symop_operation_xyz
x,y,z
-x,y,1/2-z
-x,-y,-z
x,-y,1/2+z
loop_
_atom_site_type_symbol
_atom_site_label
_atom_site_fract_x
_atom_site_fract_y
_atom_site_fract_z
Si Si1 0.700385 0.564399 0.755984
Si Si2 0.863059 0.753003 0.000943
Si Si3 0.298930 0.066621 0.743892
O O1 0.500000 0.571007 0.750000
O O2 0.500000 0.500000 0.500000
O O3 0.825692 0.676716 0.841647
O O4 0.000000 0.500000 0.000000
O O5 0.500000 0.791520 0.750000
O O6 0.000000 0.705293 0.250000
O O7 0.132431 0.833356 0.173046
O O8 0.500000 0.083567 0.750000
O O9 0.000000 0.000000 0.500000
O O10 0.500000 0.000000 0.000000
#
# Coordination Sequence:
#
# PCOD9237816 Si02
#       3
#     4   4   4
#     4  11  23  42  67  96 133 178 225 279 337 397
#     4  11  23  43  68  97 136 182 226 278 337 398
#     4  12  25  43  69 101 136 176 223 277 336 403
#
# _framework density 21.904581
#
# number of rings (size 3 to 8) (size 9 to 14) (size 15 to 20)
#    0.000    0.667    0.000   11.000    0.000    1.333 
#    0.000   10.000    0.000    0.000    0.000    0.000 
#    0.000    0.000    0.000    0.000    0.000    0.000 
#
# Total GULP energy -66848.597511 kJ/mol
# GULP energy per Si atom -5570.716459 kJ/mol
# Density = 2.185473 g / cm^3
# Si number density = 21.904581 Si / 1000 Ang^3
#
#
#
# Elastic Constant Matrix: (Units=GPa)
#
#
# Indices 1 2 3 4 5 6 
#
# 1 78.4756 38.4534 37.3433 0.0000 22.4964 0.0000
# 2 38.4534 152.9711 70.3392 0.0000 2.6556 0.0000
# 3 37.3433 70.3392 225.6554 0.0000 19.0639 0.0000
# 4 0.0000 0.0000 0.0000 54.7619 0.0000 10.5726
# 5 22.4964 2.6556 19.0639 0.0000 41.8006 0.0000
# 6 0.0000 0.0000 0.0000 10.5726 0.0000 40.5130
#
#
#
# Elastic Compliance Matrix: (Units=1/GPa)
#
#
# Indices 1 2 3 4 5 6 
#
# 1 0.017599 -0.003821 -0.000979 0.000000 -0.008782 0.000000
# 2 -0.003821 0.008476 -0.002224 0.000000 0.002532 0.000000
# 3 -0.000979 -0.002224 0.005440 0.000000 -0.001813 0.000000
# 4 0.000000 0.000000 0.000000 0.019230 0.000000 -0.005018
# 5 -0.008782 0.002532 -0.001813 0.000000 0.029315 0.000000
# 6 0.000000 0.000000 0.000000 -0.005018 0.000000 0.025993
#
#
# Mechanical properties :
#
#
# Convention : Reuss Voigt Hill
#
# Bulk Modulus (GPa) = 57.25253 83.26378 70.25815
# Shear Modulus (GPa) = 39.70665 48.14618 43.92641
#
# Velocity S-wave (km/s) = 4.26221 4.69337 4.48297
# Velocity P-wave (km/s) = 7.10042 8.21370 7.67726
#
# Compressibility (1/GPa) = 0.01746648
#
# Stress axis : x y z
#
# Youngs Moduli (GPa) = 56.82229 117.97640 183.82690
#
# Poissons Ratio (x) = 0.45080 0.18004
# Poissons Ratio (y) = 0.21712 0.40878
# Poissons Ratio (z) = 0.05565 0.26235
#
# Static dielectric constant tensor:
#      x y z
#    x 2.733260 0.000000 0.577600 
#    y 0.000000 2.009750 0.000000 
#    z 0.577600 0.000000 2.093260 
# 
# From -- ./inp_files/12048.got.cif
#   From: 2010.05.17/outbox.cif.g08.bks.cpg/sg13_7_cif.got.tgz:12048.got - 2010.06.03 16:44:36.
