data_PCOD9237068
_publ_section_title
;
Structure prediction by ZEFSAII (Michael W. Deem and Ramdas Pophale) SiO2 
 PCOD9237068
Probable space group: P 2/C
;
_chemical_formula_sum "Si O2"
_cell_formula_units_Z 18
_cell_length_a 27.127272
_cell_length_b 5.005933
_cell_length_c 10.470882
_cell_angle_alpha 90.000000
_cell_angle_beta 148.871233
_cell_angle_gamma 90.000000
_cell_volume 735.079024
_symmetry_space_group_name_H-M "P 2/C"
_symmetry_group_IT_number 13
_symmetry_cell_setting 'monoclinic'
loop_
_space_group_symop_operation_xyz
x,y,z
-x,y,1/2-z
-x,-y,-z
x,-y,1/2+z
loop_
_atom_site_type_symbol
_atom_site_label
_atom_site_fract_x
_atom_site_fract_y
_atom_site_fract_z
Si Si1 0.563072 0.507915 0.512674
Si Si2 0.000000 0.082279 0.750000
Si Si3 0.308535 0.005937 0.678375
Si Si4 0.180283 0.278250 0.717727
Si Si5 0.848149 0.665239 0.070693
O O1 0.500000 0.500000 0.500000
O O2 0.609265 0.798877 0.599606
O O3 0.351794 0.703664 0.280861
O O4 0.500000 0.440242 0.250000
O O5 0.913269 0.901652 0.509071
O O6 0.953499 0.259971 0.758168
O O7 0.270410 0.905796 0.455405
O O8 0.215980 0.066370 0.058298
O O9 0.193479 0.476537 0.630406
O O10 0.158961 0.444137 0.801471
#
# Coordination Sequence:
#
# PCOD9237068 Si02
#       5
#     4   2   4   4   4
#     4  12  28  52  84 117 155 199 259 332 396 488
#     4  12  24  40  74 112 156 208 280 312 406 434
#     4  10  28  49  82 108 166 198 262 311 416 447
#     4  10  26  45  73 108 158 210 266 323 391 472
#     4  10  26  45  73 107 159 208 267 324 384 474
#
# _framework density 24.487165999999998
#
# number of rings (size 3 to 8) (size 9 to 14) (size 15 to 20)
#    1.333    0.000    0.000    2.667    9.333    5.333 
#    0.000    0.000    0.000    0.000    0.000    0.000 
#    0.000    0.000    0.000    0.000    0.000    0.000 
#
# Total GULP energy -100782.562953 kJ/mol
# GULP energy per Si atom -5599.031275 kJ/mol
# Density = 2.443143 g / cm^3
# Si number density = 24.487166 Si / 1000 Ang^3
#
#
#
# Elastic Constant Matrix: (Units=GPa)
#
#
# Indices 1 2 3 4 5 6 
#
# 1 137.8651 38.4789 28.2927 0.0000 -3.3293 0.0000
# 2 38.4789 73.8998 23.4297 0.0000 -5.3712 0.0000
# 3 28.2927 23.4297 118.5757 0.0000 -10.4234 0.0000
# 4 0.0000 0.0000 0.0000 60.1547 0.0000 2.9827
# 5 -3.3293 -5.3712 -10.4234 0.0000 56.6079 0.0000
# 6 0.0000 0.0000 0.0000 2.9827 0.0000 0.5349
#
#
#
# Elastic Compliance Matrix: (Units=1/GPa)
#
#
# Indices 1 2 3 4 5 6 
#
# 1 0.008659 -0.004116 -0.001263 0.000000 -0.000114 0.000000
# 2 -0.004116 0.016434 -0.002185 0.000000 0.000915 0.000000
# 3 -0.001263 -0.002185 0.009292 0.000000 0.001429 0.000000
# 4 0.000000 0.000000 0.000000 0.022977 0.000000 -0.128127
# 5 -0.000114 0.000915 0.001429 0.000000 0.018009 0.000000
# 6 0.000000 0.000000 0.000000 -0.128127 0.000000 2.584021
#
#
# Mechanical properties :
#
#
# Convention : Reuss Voigt Hill
#
# Bulk Modulus (GPa) = 51.92757 56.74923 54.33840
# Shear Modulus (GPa) = 1.86502 39.46880 20.66691
#
# Velocity S-wave (km/s) = 0.87366 4.01910 2.90830
# Velocity P-wave (km/s) = 4.71909 6.69051 5.78933
#
# Compressibility (1/GPa) = 0.01925759
#
# Stress axis : x y z
#
# Youngs Moduli (GPa) = 115.48984 60.84802 107.61915
#
# Poissons Ratio (x) = 0.25048 0.13588
# Poissons Ratio (y) = 0.47541 0.23511
# Poissons Ratio (z) = 0.14582 0.13293
#
# Static dielectric constant tensor:
#      x y z
#    x 1.954780 0.000000 -0.011920 
#    y 0.000000 1.960320 0.000000 
#    z -0.011920 0.000000 1.902530 
# 
# From -- ./inp_files/42002.got.cif
#   From: 2010.05.17/outbox.cif.g08.bks.cpg/sg13_22_cif.got.tgz:42002.got - 2010.06.03 16:44:36.
