data_PCOD9237056
_publ_section_title
;
Structure prediction by ZEFSAII (Michael W. Deem and Ramdas Pophale) SiO2 
 PCOD9237056
Probable space group: P 2/C
;
_chemical_formula_sum "Si O2"
_cell_formula_units_Z 18
_cell_length_a 19.279543
_cell_length_b 5.089860
_cell_length_c 9.695834
_cell_angle_alpha 90.000000
_cell_angle_beta 127.306450
_cell_angle_gamma 90.000000
_cell_volume 756.791422
_symmetry_space_group_name_H-M "P 2/C"
_symmetry_group_IT_number 13
_symmetry_cell_setting 'monoclinic'
loop_
_space_group_symop_operation_xyz
x,y,z
-x,y,1/2-z
-x,-y,-z
x,-y,1/2+z
loop_
_atom_site_type_symbol
_atom_site_label
_atom_site_fract_x
_atom_site_fract_y
_atom_site_fract_z
Si Si1 0.579958 0.802996 0.097091
Si Si2 0.235108 0.031287 0.110187
Si Si3 0.920169 0.199914 0.924433
Si Si4 0.500000 0.519266 0.750000
Si Si5 0.150409 0.541892 0.907706
O O1 0.669903 0.954470 0.224773
O O2 0.559353 0.628578 0.207549
O O3 0.568679 0.664594 0.934735
O O4 0.500000 0.000000 0.000000
O O5 0.164010 0.976640 0.142726
O O6 0.203441 0.814611 0.958842
O O7 0.220184 0.327804 0.046005
O O8 0.897217 0.396061 0.773595
O O9 0.079797 0.617005 0.939779
O O10 0.000000 0.000000 0.000000
#
# Coordination Sequence:
#
# PCOD9237056 Si02
#       5
#     4   4   4   2   4
#     4  11  25  45  73 110 154 205 254 320 382 462
#     4  10  27  46  80 107 157 200 262 316 388 457
#     4  10  26  52  80 113 155 199 260 318 396 462
#     4  10  26  44  70 114 154 204 258 314 392 456
#     4  10  26  50  76 115 150 203 255 321 384 467
#
# _framework density 23.784627
#
# number of rings (size 3 to 8) (size 9 to 14) (size 15 to 20)
#    1.333    0.444    0.000    0.667   12.444    3.556 
#    4.000    1.111    0.000    0.000    0.000    0.000 
#    0.000    0.000    0.000    0.000    0.000    0.000 
#
# Total GULP energy -100495.740494 kJ/mol
# GULP energy per Si atom -5583.096694 kJ/mol
# Density = 2.373049 g / cm^3
# Si number density = 23.784627 Si / 1000 Ang^3
#
#
#
# Elastic Constant Matrix: (Units=GPa)
#
#
# Indices 1 2 3 4 5 6 
#
# 1 73.5397 26.0028 76.7157 0.0000 4.9158 0.0000
# 2 26.0028 102.4581 39.2917 0.0000 -11.0727 0.0000
# 3 76.7157 39.2917 150.0554 0.0000 -1.1272 0.0000
# 4 0.0000 0.0000 0.0000 51.0696 0.0000 4.4154
# 5 4.9158 -11.0727 -1.1272 0.0000 61.2272 0.0000
# 6 0.0000 0.0000 0.0000 4.4154 0.0000 29.9120
#
#
#
# Elastic Compliance Matrix: (Units=1/GPa)
#
#
# Indices 1 2 3 4 5 6 
#
# 1 0.030029 -0.002289 -0.014776 0.000000 -0.003097 0.000000
# 2 -0.002289 0.011252 -0.001760 0.000000 0.002186 0.000000
# 3 -0.014776 -0.001760 0.014688 0.000000 0.001139 0.000000
# 4 0.000000 0.000000 0.000000 0.019834 0.000000 -0.002928
# 5 -0.003097 0.002186 0.001139 0.000000 0.016998 0.000000
# 6 0.000000 0.000000 0.000000 -0.002928 0.000000 0.033864
#
#
# Mechanical properties :
#
#
# Convention : Reuss Voigt Hill
#
# Bulk Modulus (GPa) = 54.58812 67.78594 61.18703
# Shear Modulus (GPa) = 29.33929 40.71129 35.02529
#
# Velocity S-wave (km/s) = 3.51599 4.14171 3.84161
# Velocity P-wave (km/s) = 6.28361 7.17172 6.74230
#
# Compressibility (1/GPa) = 0.01831900
#
# Stress axis : x y z
#
# Youngs Moduli (GPa) = 33.30143 88.87216 68.08403
#
# Poissons Ratio (x) = 0.20345 1.00601
# Poissons Ratio (y) = 0.07623 0.11980
# Poissons Ratio (z) = 0.49206 0.15638
#
# Static dielectric constant tensor:
#      x y z
#    x 1.740410 0.000000 -0.032580 
#    y 0.000000 1.828360 0.000000 
#    z -0.032580 0.000000 1.859300 
# 
# From -- ./inp_files/39652.got.cif
#   From: 2010.05.17/outbox.cif.g08.bks.cpg/sg13_20_cif.got.tgz:39652.got - 2010.06.03 16:44:36.
