data_PCOD9237507
_publ_section_title
;
Structure prediction by ZEFSAII (Michael W. Deem and Ramdas Pophale) SiO2 
 PCOD9237507
Probable space group: P 2/C
;
_chemical_formula_sum "Si O2"
_cell_formula_units_Z 28
_cell_length_a 10.950376
_cell_length_b 9.543207
_cell_length_c 15.889606
_cell_angle_alpha 90.000000
_cell_angle_beta 59.074990
_cell_angle_gamma 90.000000
_cell_volume 1424.436624
_symmetry_space_group_name_H-M "P 2/C"
_symmetry_group_IT_number 13
_symmetry_cell_setting 'monoclinic'
loop_
_space_group_symop_operation_xyz
x,y,z
-x,y,1/2-z
-x,-y,-z
x,-y,1/2+z
loop_
_atom_site_type_symbol
_atom_site_label
_atom_site_fract_x
_atom_site_fract_y
_atom_site_fract_z
Si Si1 0.556635 0.648794 0.011721
Si Si2 0.170796 0.885413 0.356093
Si Si3 0.699100 0.294107 0.141420
Si Si4 0.161982 0.914661 0.015186
Si Si5 0.342164 0.903125 0.121742
Si Si6 0.589753 0.808283 0.844210
Si Si7 0.339329 0.615474 0.342440
O O1 0.431496 0.760212 0.079006
O O2 0.646897 0.624402 0.062358
O O3 0.500000 0.500000 0.000000
O O4 0.640650 0.718942 0.905203
O O5 0.242978 0.905771 0.239536
O O6 0.222078 0.727019 0.356539
O O7 0.004920 0.923373 0.407020
O O8 0.213915 0.975079 0.424826
O O9 0.553583 0.260969 0.141826
O O10 0.695085 0.203508 0.228266
O O11 0.699727 0.456010 0.165829
O O12 0.816989 0.236609 0.036893
O O13 0.251176 0.926016 0.069341
O O14 0.439890 0.037257 0.110100
O O15 0.500000 0.646093 0.250000
#
# Coordination Sequence:
#
# PCOD9237507 Si02
#       7
#     4   4   4   4   4   4   4
#     4  12  22  37  61  97 132 156 202 264 326 384
#     4  11  26  41  66  91 125 171 219 261 312 389
#     4  11  22  40  63  90 133 163 204 265 323 385
#     4  11  24  46  61  90 127 172 217 260 315 381
#     4  12  23  39  67  94 127 166 211 265 322 381
#     4  11  22  36  61  96 121 166 201 260 324 378
#     4  12  22  39  63  96 128 164 204 268 328 378
#
# _framework density 19.656893
#
# number of rings (size 3 to 8) (size 9 to 14) (size 15 to 20)
#    0.000    0.571    7.143    1.714    2.000    0.571 
#    0.000    0.000    0.000    0.000    0.000    0.000 
#    0.000    0.000    0.000    0.000    0.000    0.000 
#
# Total GULP energy -156222.780198 kJ/mol
# GULP energy per Si atom -5579.385007 kJ/mol
# Density = 1.961215 g / cm^3
# Si number density = 19.656893 Si / 1000 Ang^3
#
#
#
# Elastic Constant Matrix: (Units=GPa)
#
#
# Indices 1 2 3 4 5 6 
#
# 1 43.6329 30.2253 21.2755 0.0000 19.6495 0.0000
# 2 30.2253 133.1791 36.2281 0.0000 7.1111 0.0000
# 3 21.2755 36.2281 110.5315 0.0000 27.2937 0.0000
# 4 0.0000 0.0000 0.0000 29.7831 0.0000 8.6459
# 5 19.6495 7.1111 27.2937 0.0000 28.1376 0.0000
# 6 0.0000 0.0000 0.0000 8.6459 0.0000 25.3502
#
#
#
# Elastic Compliance Matrix: (Units=1/GPa)
#
#
# Indices 1 2 3 4 5 6 
#
# 1 0.040155 -0.008116 0.001774 0.000000 -0.027711 0.000000
# 2 -0.008116 0.009895 -0.003239 0.000000 0.006309 0.000000
# 3 0.001774 -0.003239 0.012980 0.000000 -0.013011 0.000000
# 4 0.000000 0.000000 0.000000 0.037266 0.000000 -0.012710
# 5 -0.027711 0.006309 -0.013011 0.000000 0.065918 0.000000
# 6 0.000000 0.000000 0.000000 -0.012710 0.000000 0.043782
#
#
# Mechanical properties :
#
#
# Convention : Reuss Voigt Hill
#
# Bulk Modulus (GPa) = 22.79579 51.42237 37.10908
# Shear Modulus (GPa) = 20.51023 29.96181 25.23602
#
# Velocity S-wave (km/s) = 3.23369 3.90839 3.58694
# Velocity P-wave (km/s) = 5.05612 6.82525 6.00618
#
# Compressibility (1/GPa) = 0.04386775
#
# Stress axis : x y z
#
# Youngs Moduli (GPa) = 24.90337 101.06276 77.04069
#
# Poissons Ratio (x) = 0.82024 -0.13665
# Poissons Ratio (y) = 0.20212 0.24952
# Poissons Ratio (z) = -0.04417 0.32732
#
# Static dielectric constant tensor:
#      x y z
#    x 1.670990 0.000000 -0.017290 
#    y 0.000000 1.742410 0.000000 
#    z -0.017290 0.000000 1.741560 
# 
# From -- ./inp_files/50095.got.cif
#   From: 2010.05.17/outbox.cif.g08.bks.cpg/sg13_26_cif.got.tgz:50095.got - 2010.06.03 16:44:36.
