data_PCOD9237453
_publ_section_title
;
Structure prediction by ZEFSAII (Michael W. Deem and Ramdas Pophale) SiO2 
 PCOD9237453
Probable space group: P 2/C
;
_chemical_formula_sum "Si O2"
_cell_formula_units_Z 24
_cell_length_a 27.617223
_cell_length_b 8.937568
_cell_length_c 20.041800
_cell_angle_alpha 90.000000
_cell_angle_beta 14.906038
_cell_angle_gamma 90.000000
_cell_volume 1272.522666
_symmetry_space_group_name_H-M "P 2/C"
_symmetry_group_IT_number 13
_symmetry_cell_setting 'monoclinic'
loop_
_space_group_symop_operation_xyz
x,y,z
-x,y,1/2-z
-x,-y,-z
x,-y,1/2+z
loop_
_atom_site_type_symbol
_atom_site_label
_atom_site_fract_x
_atom_site_fract_y
_atom_site_fract_z
Si Si1 0.211039 0.792522 0.493565
Si Si2 0.548498 0.648137 0.973641
Si Si3 0.737937 0.873307 0.623436
Si Si4 0.115865 0.163438 0.707453
Si Si5 0.271595 0.855466 0.557508
Si Si6 0.907816 0.646776 0.589254
O O1 0.205401 0.771059 0.579695
O O2 0.000000 0.775666 0.750000
O O3 0.286824 0.957616 0.370254
O O4 0.364194 0.684243 0.260513
O O5 0.592951 0.784986 0.863150
O O6 0.726927 0.618233 0.783380
O O7 0.500000 0.500000 0.000000
O O8 0.762251 0.788499 0.519694
O O9 0.923633 0.881745 0.423606
O O10 0.201928 0.024511 0.634308
O O11 0.062519 0.285248 0.832932
O O12 0.500000 0.853136 0.250000
O O13 0.172094 0.773170 0.752321
O O14 0.000000 0.500000 0.500000
#
# Coordination Sequence:
#
# PCOD9237453 Si02
#       6
#     4   4   4   4   4   4
#     4  11  21  41  67  91 117 156 207 259 306 359
#     4  11  25  41  60  92 124 166 206 246 303 368
#     4   9  18  40  66  89 118 150 209 258 294 356
#     4   9  19  40  64  91 114 159 204 251 306 353
#     4  11  21  41  63  90 123 157 204 258 306 356
#     4  11  25  42  59  88 132 166 200 247 306 371
#
# _framework density 18.860175000000002
#
# number of rings (size 3 to 8) (size 9 to 14) (size 15 to 20)
#    0.000    1.667    5.000    1.000    2.333    1.333 
#    9.000    0.000    0.000    0.000    0.000    0.000 
#    0.000    0.000    0.000    0.000    0.000    0.000 
#
# Total GULP energy -133630.487400 kJ/mol
# GULP energy per Si atom -5567.936975 kJ/mol
# Density = 1.881725 g / cm^3
# Si number density = 18.860175 Si / 1000 Ang^3
#
#
#
# Elastic Constant Matrix: (Units=GPa)
#
#
# Indices 1 2 3 4 5 6 
#
# 1 128.3873 38.9182 39.5587 0.0000 -1.5020 0.0000
# 2 38.9182 37.3440 19.8466 0.0000 -14.1846 0.0000
# 3 39.5587 19.8466 80.6401 0.0000 -7.4021 0.0000
# 4 0.0000 0.0000 0.0000 31.4835 0.0000 26.7867
# 5 -1.5020 -14.1846 -7.4021 0.0000 12.3873 0.0000
# 6 0.0000 0.0000 0.0000 26.7867 0.0000 96.2868
#
#
#
# Elastic Compliance Matrix: (Units=1/GPa)
#
#
# Indices 1 2 3 4 5 6 
#
# 1 0.017335 -0.028078 -0.004605 0.000000 -0.032802 0.000000
# 2 -0.028078 0.097011 -0.000230 0.000000 0.107545 0.000000
# 3 -0.004605 -0.000230 0.015490 0.000000 0.008435 0.000000
# 4 0.000000 0.000000 0.000000 0.041612 0.000000 -0.011576
# 5 -0.032802 0.107545 0.008435 0.000000 0.204939 0.000000
# 6 0.000000 0.000000 0.000000 -0.011576 0.000000 0.013606
#
#
# Mechanical properties :
#
#
# Convention : Reuss Voigt Hill
#
# Bulk Modulus (GPa) = 15.62213 49.22427 32.42320
# Shear Modulus (GPa) = 10.47873 37.90138 24.19006
#
# Velocity S-wave (km/s) = 2.35968 4.48772 3.58523
# Velocity P-wave (km/s) = 3.96550 7.28073 5.86235
#
# Compressibility (1/GPa) = 0.06401175
#
# Stress axis : x y z
#
# Youngs Moduli (GPa) = 57.68555 10.30806 64.55609
#
# Poissons Ratio (x) = 0.28943 0.29725
# Poissons Ratio (y) = 1.61971 0.01484
# Poissons Ratio (z) = 0.26561 0.00237
#
# Static dielectric constant tensor:
#      x y z
#    x 1.650150 0.000000 0.014420 
#    y 0.000000 1.640860 0.000000 
#    z 0.014420 0.000000 1.648880 
# 
# From -- ./inp_files/71254.got.cif
#   From: 2010.05.17/outbox.cif.g08.bks.cpg/sg13_36_cif.got.tgz:71254.got - 2010.06.03 16:44:36.
