data_PCOD9237455
_publ_section_title
;
Structure prediction by ZEFSAII (Michael W. Deem and Ramdas Pophale) SiO2 
 PCOD9237455
Probable space group: P 2/C
;
_chemical_formula_sum "Si O2"
_cell_formula_units_Z 28
_cell_length_a 8.934804
_cell_length_b 11.173872
_cell_length_c 15.934784
_cell_angle_alpha 90.000000
_cell_angle_beta 125.539039
_cell_angle_gamma 90.000000
_cell_volume 1294.522827
_symmetry_space_group_name_H-M "P 2/C"
_symmetry_group_IT_number 13
_symmetry_cell_setting 'monoclinic'
loop_
_space_group_symop_operation_xyz
x,y,z
-x,y,1/2-z
-x,-y,-z
x,-y,1/2+z
loop_
_atom_site_type_symbol
_atom_site_label
_atom_site_fract_x
_atom_site_fract_y
_atom_site_fract_z
Si Si1 0.111548 0.964419 0.953753
Si Si2 0.688622 0.389909 0.889011
Si Si3 0.914399 0.480214 0.814003
Si Si4 0.186015 0.818743 0.356635
Si Si5 0.514831 0.135371 0.849253
Si Si6 0.053348 0.719775 0.598904
Si Si7 0.737111 0.632599 0.983586
O O1 0.004315 0.847714 0.885144
O O2 0.119068 0.077262 0.896236
O O3 0.317486 0.925929 0.047022
O O4 0.000000 0.000000 0.000000
O O5 0.744092 0.420476 0.810013
O O6 0.557311 0.277012 0.856208
O O7 0.871323 0.335265 0.994335
O O8 0.627471 0.515534 0.913718
O O9 0.000000 0.463102 0.750000
O O10 0.885673 0.621972 0.814149
O O11 0.077824 0.432942 0.926121
O O12 0.323844 0.874731 0.334757
O O13 0.297613 0.719049 0.448076
O O14 0.000000 0.774222 0.250000
O O15 0.500000 0.087282 0.750000
O O16 0.209493 0.716919 0.577555
#
# Coordination Sequence:
#
# PCOD9237455 Si02
#       7
#     4   4   4   4   4   4   4
#     4  11  21  41  65  87 124 167 211 266 325 369
#     4   8  18  35  55  83 122 160 193 251 318 372
#     4   9  16  27  54  85 121 151 195 242 305 377
#     4  12  25  38  64  96 122 165 220 263 312 387
#     4  11  25  41  61  92 129 163 214 267 315 375
#     4   8  16  32  54  84 114 155 195 247 308 374
#     4   9  17  33  57  87 117 156 200 243 313 377
#
# _framework density 21.629591000000001
#
# number of rings (size 3 to 8) (size 9 to 14) (size 15 to 20)
#    0.000    2.286    1.429    3.429    6.000    1.143 
#    0.000    0.000    0.000    0.857    0.000    0.000 
#    0.000    0.000    0.000    0.000    0.000    0.000 
#
# Total GULP energy -155933.945631 kJ/mol
# GULP energy per Si atom -5569.069487 kJ/mol
# Density = 2.158036 g / cm^3
# Si number density = 21.629591 Si / 1000 Ang^3
#
#
#
# Elastic Constant Matrix: (Units=GPa)
#
#
# Indices 1 2 3 4 5 6 
#
# 1 82.6434 6.8493 17.7988 0.0000 -26.9869 0.0000
# 2 6.8493 83.4293 17.8313 0.0000 -14.0213 0.0000
# 3 17.7988 17.8313 49.6175 0.0000 -13.1509 0.0000
# 4 0.0000 0.0000 0.0000 42.4377 0.0000 -13.2303
# 5 -26.9869 -14.0213 -13.1509 0.0000 32.9985 0.0000
# 6 0.0000 0.0000 0.0000 -13.2303 0.0000 23.0367
#
#
#
# Elastic Compliance Matrix: (Units=1/GPa)
#
#
# Indices 1 2 3 4 5 6 
#
# 1 0.016985 0.001504 -0.003111 0.000000 0.013290 0.000000
# 2 0.001504 0.013630 -0.003999 0.000000 0.005428 0.000000
# 3 -0.003111 -0.003999 0.024132 0.000000 0.005374 0.000000
# 4 0.000000 0.000000 0.000000 0.028703 0.000000 0.016485
# 5 0.013290 0.005428 0.005374 0.000000 0.045621 0.000000
# 6 0.000000 0.000000 0.000000 0.016485 0.000000 0.052877
#
#
# Mechanical properties :
#
#
# Convention : Reuss Voigt Hill
#
# Bulk Modulus (GPa) = 22.97029 33.40544 28.18787
# Shear Modulus (GPa) = 24.07652 31.24196 27.65924
#
# Velocity S-wave (km/s) = 3.33998 3.80466 3.57987
# Velocity P-wave (km/s) = 5.05142 5.89732 5.49069
#
# Compressibility (1/GPa) = 0.04353449
#
# Stress axis : x y z
#
# Youngs Moduli (GPa) = 58.87399 73.36963 41.43947
#
# Poissons Ratio (x) = -0.11035 0.12892
# Poissons Ratio (y) = -0.08855 0.16572
# Poissons Ratio (z) = 0.18316 0.29341
#
# Static dielectric constant tensor:
#      x y z
#    x 1.759390 0.000000 -0.023030 
#    y 0.000000 1.830320 0.000000 
#    z -0.023030 0.000000 1.863680 
# 
# From -- ./inp_files/47332.got.cif
#   From: 2010.05.17/outbox.cif.g08.bks.cpg/sg13_24_cif.got.tgz:47332.got - 2010.06.03 16:44:36.
