data_PCOD9237143
_publ_section_title
;
Structure prediction by ZEFSAII (Michael W. Deem and Ramdas Pophale) SiO2 
 PCOD9237143
Probable space group: P 2/C
;
_chemical_formula_sum "Si O2"
_cell_formula_units_Z 18
_cell_length_a 15.352424
_cell_length_b 5.176275
_cell_length_c 9.639443
_cell_angle_alpha 90.000000
_cell_angle_beta 120.638104
_cell_angle_gamma 90.000000
_cell_volume 659.095439
_symmetry_space_group_name_H-M "P 2/C"
_symmetry_group_IT_number 13
_symmetry_cell_setting 'monoclinic'
loop_
_space_group_symop_operation_xyz
x,y,z
-x,y,1/2-z
-x,-y,-z
x,-y,1/2+z
loop_
_atom_site_type_symbol
_atom_site_label
_atom_site_fract_x
_atom_site_fract_y
_atom_site_fract_z
Si Si1 0.591872 0.802348 0.074122
Si Si2 0.206695 0.974299 0.149631
Si Si3 0.950841 0.320145 0.838622
Si Si4 0.500000 0.496673 0.750000
Si Si5 0.181875 0.453166 0.958985
O O1 0.700259 0.932567 0.170362
O O2 0.573409 0.653175 0.203833
O O3 0.572731 0.640629 0.919206
O O4 0.500000 0.000000 0.000000
O O5 0.099315 0.945526 0.143456
O O6 0.197474 0.732333 0.034691
O O7 0.235448 0.228137 0.085535
O O8 0.838284 0.481565 0.721506
O O9 0.000000 0.500000 0.000000
O O10 0.068472 0.307136 0.861206
#
# Coordination Sequence:
#
# PCOD9237143 Si02
#       5
#     4   4   4   2   4
#     4  11  27  46  77 102 147 189 248 310 373 439
#     4  12  23  42  70  97 136 182 233 284 360 425
#     4   8  22  40  65  99 142 179 225 285 346 425
#     4  10  26  50  70 104 144 182 246 310 376 428
#     4   9  24  39  63  99 137 177 225 281 340 425
#
# _framework density 27.310158000000001
#
# number of rings (size 3 to 8) (size 9 to 14) (size 15 to 20)
#    1.333    0.444    0.000    2.000    9.333    7.111 
#    0.000    0.000    0.000    0.000    0.000    0.000 
#    0.000    0.000    0.000    0.000    0.000    0.000 
#
# Total GULP energy -100251.487119 kJ/mol
# GULP energy per Si atom -5569.527062 kJ/mol
# Density = 2.724800 g / cm^3
# Si number density = 27.310158 Si / 1000 Ang^3
#
#
#
# Elastic Constant Matrix: (Units=GPa)
#
#
# Indices 1 2 3 4 5 6 
#
# 1 142.0155 36.5917 51.2196 0.0000 -11.5936 0.0000
# 2 36.5917 121.3790 32.4746 0.0000 -27.5881 0.0000
# 3 51.2196 32.4746 153.7427 0.0000 -13.4990 0.0000
# 4 0.0000 0.0000 0.0000 37.1582 0.0000 11.5721
# 5 -11.5936 -27.5881 -13.4990 0.0000 65.3824 0.0000
# 6 0.0000 0.0000 0.0000 11.5721 0.0000 16.0173
#
#
#
# Elastic Compliance Matrix: (Units=1/GPa)
#
#
# Indices 1 2 3 4 5 6 
#
# 1 0.008395 -0.001842 -0.002389 0.000000 0.000218 0.000000
# 2 -0.001842 0.009929 -0.001165 0.000000 0.003622 0.000000
# 3 -0.002389 -0.001165 0.007604 0.000000 0.000655 0.000000
# 4 0.000000 0.000000 0.000000 0.034725 0.000000 -0.025088
# 5 0.000218 0.003622 0.000655 0.000000 0.016997 0.000000
# 6 0.000000 0.000000 0.000000 -0.025088 0.000000 0.080558
#
#
# Mechanical properties :
#
#
# Convention : Reuss Voigt Hill
#
# Bulk Modulus (GPa) = 66.06956 73.07877 69.57416
# Shear Modulus (GPa) = 28.72798 43.50167 36.11482
#
# Velocity S-wave (km/s) = 3.24684 3.99541 3.64042
# Velocity P-wave (km/s) = 6.18876 6.93551 6.57275
#
# Compressibility (1/GPa) = 0.01513556
#
# Stress axis : x y z
#
# Youngs Moduli (GPa) = 119.11166 100.71323 131.51291
#
# Poissons Ratio (x) = 0.18554 0.31414
# Poissons Ratio (y) = 0.21944 0.15328
# Poissons Ratio (z) = 0.28452 0.11738
#
# Static dielectric constant tensor:
#      x y z
#    x 2.365590 0.000000 -0.041820 
#    y 0.000000 2.182890 0.000000 
#    z -0.041820 0.000000 1.851000 
# 
# From -- ./inp_files/39653.got.cif
#   From: 2010.05.17/outbox.cif.g08.bks.cpg/sg13_20_cif.got.tgz:39653.got - 2010.06.03 16:44:36.
