data_PCOD9237574
_publ_section_title
;
Structure prediction by ZEFSAII (Michael W. Deem and Ramdas Pophale) SiO2 
 PCOD9237574
Probable space group: P 2/C
;
_chemical_formula_sum "Si O2"
_cell_formula_units_Z 12
_cell_length_a 11.677327
_cell_length_b 8.185649
_cell_length_c 11.576791
_cell_angle_alpha 90.000000
_cell_angle_beta 155.278264
_cell_angle_gamma 90.000000
_cell_volume 462.786766
_symmetry_space_group_name_H-M "P 2/C"
_symmetry_group_IT_number 13
_symmetry_cell_setting 'monoclinic'
loop_
_space_group_symop_operation_xyz
x,y,z
-x,y,1/2-z
-x,-y,-z
x,-y,1/2+z
loop_
_atom_site_type_symbol
_atom_site_label
_atom_site_fract_x
_atom_site_fract_y
_atom_site_fract_z
Si Si1 0.700574 0.892175 0.526321
Si Si2 0.401543 0.229809 0.319164
Si Si3 0.938408 0.567434 0.314841
O O1 0.712880 0.795003 0.656908
O O2 0.000000 0.917932 0.750000
O O3 0.546866 0.061769 0.416463
O O4 0.500000 0.808136 0.250000
O O5 0.629976 0.369287 0.529419
O O6 0.152789 0.280582 0.009454
O O7 0.000000 0.474512 0.250000
O O8 0.000000 0.500000 0.500000
#
# Coordination Sequence:
#
# PCOD9237574 Si02
#       3
#     4   4   4
#     4  11  22  39  67  99 132 168 211 269 330 394
#     4  11  24  42  66  97 131 171 216 267 332 392
#     4  12  26  45  68  94 131 177 223 271 323 384
#
# _framework density 25.929869
#
# number of rings (size 3 to 8) (size 9 to 14) (size 15 to 20)
#    0.000    0.667    0.000    9.000    0.000    9.333 
#    0.000    0.000    0.000    0.000    0.000    0.000 
#    0.000    0.000    0.000    0.000    0.000    0.000 
#
# Total GULP energy -67300.582771 kJ/mol
# GULP energy per Si atom -5608.381898 kJ/mol
# Density = 2.587085 g / cm^3
# Si number density = 25.929869 Si / 1000 Ang^3
#
#
#
# Elastic Constant Matrix: (Units=GPa)
#
#
# Indices 1 2 3 4 5 6 
#
# 1 253.0887 32.6691 53.9242 0.0000 -9.1892 0.0000
# 2 32.6691 49.0498 11.1559 0.0000 -1.2991 0.0000
# 3 53.9242 11.1559 156.5594 0.0000 12.8446 0.0000
# 4 0.0000 0.0000 0.0000 45.2079 0.0000 -12.1863
# 5 -9.1892 -1.2991 12.8446 0.0000 57.2827 0.0000
# 6 0.0000 0.0000 0.0000 -12.1863 0.0000 19.3975
#
#
#
# Elastic Compliance Matrix: (Units=1/GPa)
#
#
# Indices 1 2 3 4 5 6 
#
# 1 0.004660 -0.002737 -0.001494 0.000000 0.001020 0.000000
# 2 -0.002737 0.022368 -0.000669 0.000000 0.000218 0.000000
# 3 -0.001494 -0.000669 0.007101 0.000000 -0.001847 0.000000
# 4 0.000000 0.000000 0.000000 0.026630 0.000000 0.016730
# 5 0.001020 0.000218 -0.001847 0.000000 0.018040 0.000000
# 6 0.000000 0.000000 0.000000 0.016730 0.000000 0.062063
#
#
# Mechanical properties :
#
#
# Convention : Reuss Voigt Hill
#
# Bulk Modulus (GPa) = 41.10195 72.68848 56.89522
# Shear Modulus (GPa) = 31.49183 48.44087 39.96635
#
# Velocity S-wave (km/s) = 3.48875 4.32690 3.93023
# Velocity P-wave (km/s) = 5.66693 7.28398 6.52573
#
# Compressibility (1/GPa) = 0.02432975
#
# Stress axis : x y z
#
# Youngs Moduli (GPa) = 214.60363 44.70628 140.82442
#
# Poissons Ratio (x) = 0.12235 0.21035
# Poissons Ratio (y) = 0.58733 0.09423
# Poissons Ratio (z) = 0.32055 0.02991
#
# Static dielectric constant tensor:
#      x y z
#    x 2.106700 0.000000 -0.047340 
#    y 0.000000 2.089660 0.000000 
#    z -0.047340 0.000000 1.946050 
# 
# From -- ./inp_files/25060.got.cif
#   From: 2010.05.17/outbox.cif.g08.bks.cpg/sg13_13_cif.got.tgz:25060.got - 2010.06.03 16:44:36.
