data_PCOD9237095
_publ_section_title
;
Structure prediction by ZEFSAII (Michael W. Deem and Ramdas Pophale) SiO2 
 PCOD9237095
Probable space group: P 2/C
;
_chemical_formula_sum "Si O2"
_cell_formula_units_Z 26
_cell_length_a 25.506819
_cell_length_b 5.391976
_cell_length_c 29.082319
_cell_angle_alpha 90.000000
_cell_angle_beta 163.999699
_cell_angle_gamma 90.000000
_cell_volume 1102.501823
_symmetry_space_group_name_H-M "P 2/C"
_symmetry_group_IT_number 13
_symmetry_cell_setting 'monoclinic'
loop_
_space_group_symop_operation_xyz
x,y,z
-x,y,1/2-z
-x,-y,-z
x,-y,1/2+z
loop_
_atom_site_type_symbol
_atom_site_label
_atom_site_fract_x
_atom_site_fract_y
_atom_site_fract_z
Si Si1 0.396289 0.442057 0.343602
Si Si2 0.005192 0.414880 0.859240
Si Si3 0.684784 0.222398 0.645225
Si Si4 0.500000 0.866219 0.250000
Si Si5 0.686151 0.578702 0.323395
Si Si6 0.923283 0.065734 0.133547
Si Si7 0.049656 0.168088 0.085145
O O1 0.524057 0.219152 0.470762
O O2 0.419137 0.676067 0.396707
O O3 0.429337 0.491845 0.318255
O O4 0.177633 0.376998 0.168880
O O5 0.034131 0.672830 0.856538
O O6 0.829210 0.426173 0.745658
O O7 0.975836 0.175832 0.802856
O O8 0.192501 0.368208 0.048351
O O9 0.816277 0.990763 0.767770
O O10 0.564089 0.707303 0.259703
O O11 0.696643 0.988151 0.434450
O O12 0.856076 0.750904 0.446660
O O13 0.000000 0.092266 0.250000
O O14 0.000000 0.000000 0.000000
#
# Coordination Sequence:
#
# PCOD9237095 Si02
#       7
#     4   4   4   2   4   4   4
#     4  11  24  40  67 103 138 188 235 300 363 440
#     4  11  24  46  75 104 144 191 237 309 366 445
#     4  11  23  41  65 103 143 176 240 296 370 436
#     4  10  26  46  76 110 142 192 254 304 364 450
#     4  11  23  47  72 101 143 191 248 301 369 443
#     4  11  26  50  75 105 147 193 252 303 372 431
#     4  12  22  42  68 101 143 191 234 296 372 443
#
# _framework density 23.582729
#
# number of rings (size 3 to 8) (size 9 to 14) (size 15 to 20)
#    0.000    0.923    3.077    4.154    2.154    2.462 
#    5.538    0.000    0.000    0.000    0.000    0.000 
#    0.000    0.000    0.000    0.000    0.000    0.000 
#
# Total GULP energy -145284.519335 kJ/mol
# GULP energy per Si atom -5587.866128 kJ/mol
# Density = 2.352905 g / cm^3
# Si number density = 23.582729 Si / 1000 Ang^3
#
#
#
# Elastic Constant Matrix: (Units=GPa)
#
#
# Indices 1 2 3 4 5 6 
#
# 1 150.2440 32.6020 38.3489 0.0000 -25.6909 0.0000
# 2 32.6020 84.5330 20.1372 0.0000 -10.8501 0.0000
# 3 38.3489 20.1372 98.3500 0.0000 -18.7624 0.0000
# 4 0.0000 0.0000 0.0000 16.6403 0.0000 -3.7788
# 5 -25.6909 -10.8501 -18.7624 0.0000 52.6902 0.0000
# 6 0.0000 0.0000 0.0000 -3.7788 0.0000 33.5113
#
#
#
# Elastic Compliance Matrix: (Units=1/GPa)
#
#
# Indices 1 2 3 4 5 6 
#
# 1 0.008180 -0.002279 -0.002201 0.000000 0.002735 0.000000
# 2 -0.002279 0.013228 -0.001622 0.000000 0.001035 0.000000
# 3 -0.002201 -0.001622 0.011898 0.000000 0.002829 0.000000
# 4 0.000000 0.000000 0.000000 0.061674 0.000000 0.006955
# 5 0.002735 0.001035 0.002829 0.000000 0.021533 0.000000
# 6 0.000000 0.000000 0.000000 0.006955 0.000000 0.030625
#
#
# Mechanical properties :
#
#
# Convention : Reuss Voigt Hill
#
# Bulk Modulus (GPa) = 47.39187 57.25592 52.32389
# Shear Modulus (GPa) = 30.05218 36.70429 33.37824
#
# Velocity S-wave (km/s) = 3.57365 3.94941 3.76622
# Velocity P-wave (km/s) = 6.09652 6.71778 6.41468
#
# Compressibility (1/GPa) = 0.02110067
#
# Stress axis : x y z
#
# Youngs Moduli (GPa) = 122.24983 75.59679 84.04811
#
# Poissons Ratio (x) = 0.17231 0.18499
# Poissons Ratio (y) = 0.27865 0.13635
# Poissons Ratio (z) = 0.26908 0.12264
#
# Static dielectric constant tensor:
#      x y z
#    x 1.887730 0.000000 -0.003170 
#    y 0.000000 1.955750 0.000000 
#    z -0.003170 0.000000 1.986660 
# 
# From -- ./inp_files/93766.got.cif
#   From: 2010.05.17/outbox.cif.g08.bks.cpg/sg13_47_cif.got.tgz:93766.got - 2010.06.03 16:44:36.
