data_PCOD9237533
_publ_section_title
;
Structure prediction by ZEFSAII (Michael W. Deem and Ramdas Pophale) SiO2 
 PCOD9237533
Probable space group: P 2/C
;
_chemical_formula_sum "Si O2"
_cell_formula_units_Z 30
_cell_length_a 17.364007
_cell_length_b 16.902832
_cell_length_c 8.862410
_cell_angle_alpha 90.000000
_cell_angle_beta 147.612976
_cell_angle_gamma 90.000000
_cell_volume 1393.255188
_symmetry_space_group_name_H-M "P 2/C"
_symmetry_group_IT_number 13
_symmetry_cell_setting 'monoclinic'
loop_
_space_group_symop_operation_xyz
x,y,z
-x,y,1/2-z
-x,-y,-z
x,-y,1/2+z
loop_
_atom_site_type_symbol
_atom_site_label
_atom_site_fract_x
_atom_site_fract_y
_atom_site_fract_z
Si Si1 0.316338 0.439698 0.838089
Si Si2 0.954015 0.917066 0.001052
Si Si3 0.359017 0.887615 0.443996
Si Si4 0.000000 0.496973 0.250000
Si Si5 0.900294 0.777874 0.446183
Si Si6 0.881257 0.345825 0.663390
Si Si7 0.644622 0.950393 0.400109
Si Si8 0.592065 0.401262 0.167102
O O1 0.383186 0.524996 0.902953
O O2 0.145810 0.447956 0.523393
O O3 0.422832 0.383562 0.912986
O O4 0.350372 0.423444 0.069009
O O5 0.000000 0.920761 0.250000
O O6 0.028086 0.845007 0.038804
O O7 0.783782 0.907601 0.696492
O O8 0.000000 0.000000 0.000000
O O9 0.242819 0.820233 0.234083
O O10 0.372981 0.931535 0.305854
O O11 0.326267 0.957189 0.511440
O O12 0.500000 0.849859 0.750000
O O13 0.943202 0.563685 0.277458
O O14 0.875492 0.700855 0.307575
O O15 0.000000 0.758868 0.750000
O O16 0.719922 0.342536 0.328393
O O17 0.000000 0.307330 0.750000
O O18 0.500000 0.929337 0.250000
#
# Coordination Sequence:
#
# PCOD9237533 Si02
#       8
#     4   4   4   2   4   4   4   4
#     4   9  17  33  63  92 127 152 197 256 315 358
#     4  12  23  37  64  96 126 163 215 284 330 375
#     4  11  23  39  61  91 124 163 208 274 331 387
#     4   8  18  38  60  94 126 162 206 254 312 392
#     4  12  24  43  63  88 123 169 226 267 317 390
#     4   9  21  42  57  86 128 177 208 248 319 391
#     4  11  22  38  60  92 130 156 206 267 345 389
#     4   9  18  36  59  93 125 159 202 255 308 379
#
# _framework density 21.532308
#
# number of rings (size 3 to 8) (size 9 to 14) (size 15 to 20)
#    0.400    1.333    2.667    3.200    1.867    2.133 
#    6.000    0.000    0.000    0.000    3.467    0.000 
#    0.000    0.000    0.000    0.000    0.000    0.000 
#
# Total GULP energy -167272.865325 kJ/mol
# GULP energy per Si atom -5575.762177 kJ/mol
# Density = 2.148330 g / cm^3
# Si number density = 21.532308 Si / 1000 Ang^3
#
#
#
# Elastic Constant Matrix: (Units=GPa)
#
#
# Indices 1 2 3 4 5 6 
#
# 1 79.4625 27.2922 37.0798 0.0000 13.5481 0.0000
# 2 27.2922 59.9619 25.6463 0.0000 1.1117 0.0000
# 3 37.0798 25.6463 135.9159 0.0000 24.0729 0.0000
# 4 0.0000 0.0000 0.0000 10.3167 0.0000 -17.2565
# 5 13.5481 1.1117 24.0729 0.0000 46.2772 0.0000
# 6 0.0000 0.0000 0.0000 -17.2565 0.0000 8.6158
#
#
#
# Elastic Compliance Matrix: (Units=1/GPa)
#
#
# Indices 1 2 3 4 5 6 
#
# 1 0.016598 -0.006315 -0.002757 0.000000 -0.003273 0.000000
# 2 -0.006315 0.020637 -0.002655 0.000000 0.002734 0.000000
# 3 -0.002757 -0.002655 0.009315 0.000000 -0.003974 0.000000
# 4 0.000000 0.000000 0.000000 -0.041244 0.000000 -0.082607
# 5 -0.003273 0.002734 -0.003974 0.000000 0.024569 0.000000
# 6 0.000000 0.000000 0.000000 -0.082607 0.000000 -0.049386
#
#
# Mechanical properties :
#
#
# Convention : Reuss Voigt Hill
#
# Bulk Modulus (GPa) = 43.29976 50.59744 46.94860
# Shear Modulus (GPa) = 429.49480 25.39672 227.44576
#
# Velocity S-wave (km/s) = 14.13854 3.43807 10.28880
# Velocity P-wave (km/s) = 16.93174 6.26975 12.76702
#
# Compressibility (1/GPa) = 0.02309481
#
# Stress axis : x y z
#
# Youngs Moduli (GPa) = 60.24818 48.45752 107.35829
#
# Poissons Ratio (x) = 0.30601 0.29597
# Poissons Ratio (y) = 0.38046 0.28509
# Poissons Ratio (z) = 0.16609 0.12868
#
# Static dielectric constant tensor:
#      x y z
#    x 1.886340 0.000000 0.099970 
#    y 0.000000 1.775890 0.000000 
#    z 0.099970 0.000000 1.840660 
# 
# From -- ./inp_files/22079.got.cif
#   From: 2010.05.17/outbox.cif.g08.bks.cpg/sg13_12_cif.got.tgz:22079.got - 2010.06.03 16:44:36.
