data_PCOD9237849
_publ_section_title
;
Structure prediction by ZEFSAII (Michael W. Deem and Ramdas Pophale) SiO2 
 PCOD9237849
Probable space group: P 2/C
;
_chemical_formula_sum "Si O2"
_cell_formula_units_Z 24
_cell_length_a 13.389773
_cell_length_b 9.296619
_cell_length_c 8.757538
_cell_angle_alpha 90.000000
_cell_angle_beta 78.652094
_cell_angle_gamma 90.000000
_cell_volume 1068.823372
_symmetry_space_group_name_H-M "P 2/C"
_symmetry_group_IT_number 13
_symmetry_cell_setting 'monoclinic'
loop_
_space_group_symop_operation_xyz
x,y,z
-x,y,1/2-z
-x,-y,-z
x,-y,1/2+z
loop_
_atom_site_type_symbol
_atom_site_label
_atom_site_fract_x
_atom_site_fract_y
_atom_site_fract_z
Si Si1 0.244748 0.933628 0.163829
Si Si2 0.313650 0.634727 0.600589
Si Si3 0.724465 0.335994 0.031322
Si Si4 0.967711 0.348502 0.937313
Si Si5 0.143195 0.171280 0.002641
Si Si6 0.560291 0.117538 0.384760
O O1 0.192346 0.858881 0.322787
O O2 0.332127 0.042923 0.190281
O O3 0.298935 0.814845 0.041935
O O4 0.162457 0.028252 0.095699
O O5 0.320230 0.471297 0.546240
O O6 0.306455 0.645536 0.784887
O O7 0.210902 0.702945 0.559373
O O8 0.407019 0.740657 0.530753
O O9 0.847231 0.337480 0.986904
O O10 0.000000 0.343358 0.750000
O O11 0.028984 0.225461 0.010739
O O12 0.000000 0.500000 0.000000
O O13 0.500000 0.154223 0.250000
O O14 0.500000 0.000000 0.500000
#
# Coordination Sequence:
#
# PCOD9237849 Si02
#       6
#     4   4   4   4   4   4
#     4  11  23  43  68  98 140 180 227 289 349 405
#     4  11  24  42  69 100 135 182 226 280 356 404
#     4  12  23  42  67 100 143 182 229 282 334 406
#     4  12  24  42  66 100 138 185 244 272 324 400
#     4  11  23  43  65  97 138 188 229 280 340 398
#     4  11  23  45  72  99 130 174 228 285 353 425
#
# _framework density 22.454601
#
# number of rings (size 3 to 8) (size 9 to 14) (size 15 to 20)
#    0.000    0.667    3.333    7.000    0.000    0.667 
#    0.000    4.167    0.000    0.000    0.000    0.000 
#    0.000    0.000    0.000    0.000    0.000    0.000 
#
# Total GULP energy -134408.587561 kJ/mol
# GULP energy per Si atom -5600.357815 kJ/mol
# Density = 2.240349 g / cm^3
# Si number density = 22.454601 Si / 1000 Ang^3
#
#
#
# Elastic Constant Matrix: (Units=GPa)
#
#
# Indices 1 2 3 4 5 6 
#
# 1 99.0276 42.1545 8.4382 0.0000 15.5886 0.0000
# 2 42.1545 143.2566 28.7035 0.0000 21.9356 0.0000
# 3 8.4382 28.7035 84.4609 0.0000 13.7506 0.0000
# 4 0.0000 0.0000 0.0000 35.4047 0.0000 9.8222
# 5 15.5886 21.9356 13.7506 0.0000 32.5751 0.0000
# 6 0.0000 0.0000 0.0000 9.8222 0.0000 40.0908
#
#
#
# Elastic Compliance Matrix: (Units=1/GPa)
#
#
# Indices 1 2 3 4 5 6 
#
# 1 0.011954 -0.003015 0.000463 0.000000 -0.003885 0.000000
# 2 -0.003015 0.008846 -0.002116 0.000000 -0.003621 0.000000
# 3 0.000463 -0.002116 0.013226 0.000000 -0.004380 0.000000
# 4 0.000000 0.000000 0.000000 0.030305 0.000000 -0.007425
# 5 -0.003885 -0.003621 -0.004380 0.000000 0.036845 0.000000
# 6 0.000000 0.000000 0.000000 -0.007425 0.000000 0.026762
#
#
# Mechanical properties :
#
#
# Convention : Reuss Voigt Hill
#
# Bulk Modulus (GPa) = 40.50253 53.92640 47.21446
# Shear Modulus (GPa) = 34.36358 38.11073 36.23715
#
# Velocity S-wave (km/s) = 3.91622 4.12422 4.02157
# Velocity P-wave (km/s) = 6.20691 6.83716 6.52965
#
# Compressibility (1/GPa) = 0.02468982
#
# Stress axis : x y z
#
# Youngs Moduli (GPa) = 83.65412 113.04425 75.61126
#
# Poissons Ratio (x) = 0.34087 -0.03501
# Poissons Ratio (y) = 0.25225 0.15996
# Poissons Ratio (z) = -0.03874 0.23915
#
# Static dielectric constant tensor:
#      x y z
#    x 1.852820 0.000000 -0.002800 
#    y 0.000000 1.875040 0.000000 
#    z -0.002800 0.000000 1.800530 
# 
# From -- ./inp_files/18051.got.cif
#   From: 2010.05.17/outbox.cif.g08.bks.cpg/sg13_10_cif.got.tgz:18051.got - 2010.06.03 16:44:36.
