data_PCOD9237706
_publ_section_title
;
Structure prediction by ZEFSAII (Michael W. Deem and Ramdas Pophale) SiO2 
 PCOD9237706
Probable space group: P 2/C
;
_chemical_formula_sum "Si O2"
_cell_formula_units_Z 26
_cell_length_a 13.526604
_cell_length_b 9.714504
_cell_length_c 10.415147
_cell_angle_alpha 90.000000
_cell_angle_beta 102.578836
_cell_angle_gamma 90.000000
_cell_volume 1335.744565
_symmetry_space_group_name_H-M "P 2/C"
_symmetry_group_IT_number 13
_symmetry_cell_setting 'monoclinic'
loop_
_space_group_symop_operation_xyz
x,y,z
-x,y,1/2-z
-x,-y,-z
x,-y,1/2+z
loop_
_atom_site_type_symbol
_atom_site_label
_atom_site_fract_x
_atom_site_fract_y
_atom_site_fract_z
Si Si1 0.500000 0.205990 0.750000
Si Si2 0.607102 0.717959 0.702776
Si Si3 0.607733 0.941604 0.487019
Si Si4 0.870547 0.430168 0.818867
Si Si5 0.265673 0.206500 0.022574
Si Si6 0.653699 0.597896 0.165917
Si Si7 0.924707 0.648011 0.051074
O O1 0.414000 0.112246 0.661993
O O2 0.441248 0.306843 0.827930
O O3 0.500000 0.735643 0.750000
O O4 0.621569 0.812641 0.583142
O O5 0.620418 0.559947 0.664414
O O6 0.694155 0.767328 0.824162
O O7 0.500000 0.000000 0.500000
O O8 0.688134 0.063952 0.514614
O O9 0.752228 0.390250 0.787818
O O10 0.895194 0.438867 0.672565
O O11 0.955605 0.326672 0.899395
O O12 0.894908 0.562308 0.914852
O O13 0.309057 0.338665 0.957323
O O14 0.145837 0.218739 0.970877
#
# Coordination Sequence:
#
# PCOD9237706 Si02
#       7
#     2   4   4   4   4   4   4
#     4  12  24  38  60  84 120 160 210 248 304 366
#     4  12  23  36  59  86 125 161 206 255 304 359
#     4  12  24  39  57  81 119 171 205 240 300 371
#     4   9  18  34  59  91 123 151 198 249 323 354
#     4  11  23  40  59  87 123 161 210 249 304 367
#     4  11  23  36  60  92 120 156 200 262 306 362
#     4   9  18  35  60  90 120 159 194 255 307 374
#
# _framework density 19.464798999999999
#
# number of rings (size 3 to 8) (size 9 to 14) (size 15 to 20)
#    0.000    1.231    5.385    0.923    2.154    1.231 
#    0.000    0.000    0.000    0.923    4.000    0.000 
#    0.000    0.000    0.000    0.000    0.000    0.000 
#
# Total GULP energy -144907.562352 kJ/mol
# GULP energy per Si atom -5573.367783 kJ/mol
# Density = 1.942050 g / cm^3
# Si number density = 19.464799 Si / 1000 Ang^3
#
#
#
# Elastic Constant Matrix: (Units=GPa)
#
#
# Indices 1 2 3 4 5 6 
#
# 1 52.0750 33.8353 14.3416 0.0000 21.8089 0.0000
# 2 33.8353 104.4947 32.7055 0.0000 7.7600 0.0000
# 3 14.3416 32.7055 94.5552 0.0000 12.2066 0.0000
# 4 0.0000 0.0000 0.0000 15.6393 0.0000 5.3771
# 5 21.8089 7.7600 12.2066 0.0000 22.0458 0.0000
# 6 0.0000 0.0000 0.0000 5.3771 0.0000 29.1039
#
#
#
# Elastic Compliance Matrix: (Units=1/GPa)
#
#
# Indices 1 2 3 4 5 6 
#
# 1 0.042628 -0.011708 0.002688 0.000000 -0.039537 0.000000
# 2 -0.011708 0.014018 -0.004234 0.000000 0.008992 0.000000
# 3 0.002688 -0.004234 0.012691 0.000000 -0.008196 0.000000
# 4 0.000000 0.000000 0.000000 0.068279 0.000000 -0.012615
# 5 -0.039537 0.008992 -0.008196 0.000000 0.085845 0.000000
# 6 0.000000 0.000000 0.000000 -0.012615 0.000000 0.036690
#
#
# Mechanical properties :
#
#
# Convention : Reuss Voigt Hill
#
# Bulk Modulus (GPa) = 23.34845 45.87665 34.61255
# Shear Modulus (GPa) = 16.61489 24.70731 20.66110
#
# Velocity S-wave (km/s) = 2.92479 3.56663 3.26154
# Velocity P-wave (km/s) = 4.84016 6.37035 5.65723
#
# Compressibility (1/GPa) = 0.04282939
#
# Stress axis : x y z
#
# Youngs Moduli (GPa) = 23.45873 71.33542 78.79886
#
# Poissons Ratio (x) = 0.83521 -0.21183
# Poissons Ratio (y) = 0.27466 0.33362
# Poissons Ratio (z) = -0.06306 0.30202
#
# Static dielectric constant tensor:
#      x y z
#    x 1.742080 0.000000 0.008170 
#    y 0.000000 1.681710 0.000000 
#    z 0.008170 0.000000 1.708000 
# 
# From -- ./inp_files/36304.got.cif
#   From: 2010.05.17/outbox.cif.g08.bks.cpg/sg13_19_cif.got.tgz:36304.got - 2010.06.03 16:44:36.
