data_PCOD9237424
_publ_section_title
;
Structure prediction by ZEFSAII (Michael W. Deem and Ramdas Pophale) SiO2 
 PCOD9237424
Probable space group: P 2/C
;
_chemical_formula_sum "Si O2"
_cell_formula_units_Z 24
_cell_length_a 14.273633
_cell_length_b 11.825441
_cell_length_c 13.346453
_cell_angle_alpha 90.000000
_cell_angle_beta 30.279016
_cell_angle_gamma 90.000000
_cell_volume 1135.874570
_symmetry_space_group_name_H-M "P 2/C"
_symmetry_group_IT_number 13
_symmetry_cell_setting 'monoclinic'
loop_
_space_group_symop_operation_xyz
x,y,z
-x,y,1/2-z
-x,-y,-z
x,-y,1/2+z
loop_
_atom_site_type_symbol
_atom_site_label
_atom_site_fract_x
_atom_site_fract_y
_atom_site_fract_z
Si Si1 0.805791 0.483179 0.989765
Si Si2 0.850132 0.702560 0.622399
Si Si3 0.791198 0.053269 0.201028
Si Si4 0.683133 0.497625 0.396714
Si Si5 0.502808 0.884044 0.126786
Si Si6 0.758402 0.686354 0.184925
O O1 0.659302 0.482036 0.034928
O O2 0.000000 0.490769 0.750000
O O3 0.821558 0.379026 0.052330
O O4 0.770383 0.596321 0.084945
O O5 0.759454 0.822329 0.682370
O O6 0.783484 0.618219 0.773024
O O7 0.046891 0.749410 0.484485
O O8 0.699833 0.076791 0.396475
O O9 0.651491 0.969919 0.272629
O O10 0.000000 0.000000 0.000000
O O11 0.500000 0.500000 0.500000
O O12 0.780403 0.608888 0.263577
O O13 0.500000 0.879841 0.250000
O O14 0.422396 0.763370 0.159915
#
# Coordination Sequence:
#
# PCOD9237424 Si02
#       6
#     4   4   4   4   4   4
#     4  11  21  39  65  98 139 186 231 280 358 434
#     4  11  22  42  67  98 135 185 235 287 358 426
#     4  11  25  51  72  99 143 188 234 302 361 416
#     4  11  23  39  61 100 139 179 226 293 354 425
#     4  11  27  48  73 105 137 182 247 300 354 432
#     4  11  22  39  68  98 135 178 233 292 349 419
#
# _framework density 21.129090999999999
#
# number of rings (size 3 to 8) (size 9 to 14) (size 15 to 20)
#    0.000    1.000    5.000    2.000    4.667    2.667 
#   12.000    0.000    0.000    0.000    0.000    0.000 
#    0.000    0.000    0.000    0.000    0.000    0.000 
#
# Total GULP energy -133661.919246 kJ/mol
# GULP energy per Si atom -5569.246635 kJ/mol
# Density = 2.108100 g / cm^3
# Si number density = 21.129091 Si / 1000 Ang^3
#
#
#
# Elastic Constant Matrix: (Units=GPa)
#
#
# Indices 1 2 3 4 5 6 
#
# 1 126.5586 39.9537 36.3930 0.0000 15.6350 0.0000
# 2 39.9537 152.1185 46.0719 0.0000 17.0519 0.0000
# 3 36.3930 46.0719 114.8124 0.0000 4.7529 0.0000
# 4 0.0000 0.0000 0.0000 21.7884 0.0000 -4.4838
# 5 15.6350 17.0519 4.7529 0.0000 33.0564 0.0000
# 6 0.0000 0.0000 0.0000 -4.4838 0.0000 10.1248
#
#
#
# Elastic Compliance Matrix: (Units=1/GPa)
#
#
# Indices 1 2 3 4 5 6 
#
# 1 0.009421 -0.001401 -0.002283 0.000000 -0.003405 0.000000
# 2 -0.001401 0.008104 -0.002678 0.000000 -0.003133 0.000000
# 3 -0.002283 -0.002678 0.010469 0.000000 0.000956 0.000000
# 4 0.000000 0.000000 0.000000 0.050498 0.000000 0.022363
# 5 -0.003405 -0.003133 0.000956 0.000000 0.033340 0.000000
# 6 0.000000 0.000000 0.000000 0.022363 0.000000 0.108671
#
#
# Mechanical properties :
#
#
# Convention : Reuss Voigt Hill
#
# Bulk Modulus (GPa) = 65.49273 70.92520 68.20897
# Shear Modulus (GPa) = 20.98041 31.06530 26.02285
#
# Velocity S-wave (km/s) = 3.15455 3.83856 3.51324
# Velocity P-wave (km/s) = 6.65823 7.29976 6.98636
#
# Compressibility (1/GPa) = 0.01526887
#
# Stress axis : x y z
#
# Youngs Moduli (GPa) = 106.14602 123.39338 95.52342
#
# Poissons Ratio (x) = 0.17291 0.21808
# Poissons Ratio (y) = 0.14874 0.25583
# Poissons Ratio (z) = 0.24233 0.33047
#
# Static dielectric constant tensor:
#      x y z
#    x 1.796550 0.000000 -0.102570 
#    y 0.000000 2.529820 0.000000 
#    z -0.102570 0.000000 1.371510 
# 
# From -- ./inp_files/53630.got.cif
#   From: 2010.05.17/outbox.cif.g08.bks.cpg/sg13_27_cif.got.tgz:53630.got - 2010.06.03 16:44:36.
