data_PCOD9237530
_publ_section_title
;
Structure prediction by ZEFSAII (Michael W. Deem and Ramdas Pophale) SiO2 
 PCOD9237530
Probable space group: P 2/C
;
_chemical_formula_sum "Si O2"
_cell_formula_units_Z 16
_cell_length_a 26.308752
_cell_length_b 4.480975
_cell_length_c 8.176722
_cell_angle_alpha 90.000000
_cell_angle_beta 144.600767
_cell_angle_gamma 90.000000
_cell_volume 558.384344
_symmetry_space_group_name_H-M "P 2/C"
_symmetry_group_IT_number 13
_symmetry_cell_setting 'monoclinic'
loop_
_space_group_symop_operation_xyz
x,y,z
-x,y,1/2-z
-x,-y,-z
x,-y,1/2+z
loop_
_atom_site_type_symbol
_atom_site_label
_atom_site_fract_x
_atom_site_fract_y
_atom_site_fract_z
Si Si1 0.561262 0.200714 0.778284
Si Si2 0.313947 0.183744 0.658280
Si Si3 0.062241 0.704412 0.274630
Si Si4 0.809330 0.786824 0.392991
O O1 0.500000 0.370576 0.750000
O O2 0.500000 0.000000 0.500000
O O3 0.627366 0.355970 0.822928
O O4 0.621130 0.995603 0.051284
O O5 0.253921 0.955700 0.398142
O O6 0.249002 0.345639 0.612900
O O7 0.121621 0.967335 0.357941
O O8 0.132652 0.472267 0.531628
O O9 0.000000 0.838304 0.250000
O O10 0.000000 0.500000 0.000000
#
# Coordination Sequence:
#
# PCOD9237530 Si02
#       4
#     4   4   4   4
#     4   8  14  28  54  90 120 154 192 234 286 344
#     4   9  18  32  54  87 120 154 192 239 286 342
#     4  12  24  40  60  84 116 154 196 244 292 344
#     4  11  22  38  58  87 116 154 196 239 290 342
#
# _framework density 28.654097
#
# number of rings (size 3 to 8) (size 9 to 14) (size 15 to 20)
#    0.000    2.000    0.000    4.500    0.000    0.000 
#    0.000    0.000    0.000    0.000    0.000  441.000 
#    0.000    0.000    0.000    0.000    0.000    0.000 
#
# Total GULP energy -89684.307707 kJ/mol
# GULP energy per Si atom -5605.269232 kJ/mol
# Density = 2.858888 g / cm^3
# Si number density = 28.654097 Si / 1000 Ang^3
#
#
#
# Elastic Constant Matrix: (Units=GPa)
#
#
# Indices 1 2 3 4 5 6 
#
# 1 229.2844 18.7875 49.5398 0.0000 39.5164 0.0000
# 2 18.7875 85.4952 57.8841 0.0000 5.4674 0.0000
# 3 49.5398 57.8841 209.9106 0.0000 -27.2542 0.0000
# 4 0.0000 0.0000 0.0000 62.1211 0.0000 -29.4920
# 5 39.5164 5.4674 -27.2542 0.0000 47.6472 0.0000
# 6 0.0000 0.0000 0.0000 -29.4920 0.0000 -13.8954
#
#
#
# Elastic Compliance Matrix: (Units=1/GPa)
#
#
# Indices 1 2 3 4 5 6 
#
# 1 0.005929 0.000758 -0.002439 0.000000 -0.006400 0.000000
# 2 0.000758 0.015315 -0.005090 0.000000 -0.005297 0.000000
# 3 -0.002439 -0.005090 0.007650 0.000000 0.006983 0.000000
# 4 0.000000 0.000000 0.000000 0.008018 0.000000 -0.017018
# 5 -0.006400 -0.005297 0.006983 0.000000 0.030897 0.000000
# 6 0.000000 0.000000 0.000000 -0.017018 0.000000 -0.035847
#
#
# Mechanical properties :
#
#
# Convention : Reuss Voigt Hill
#
# Bulk Modulus (GPa) = 65.14054 86.34587 75.74321
# Shear Modulus (GPa) = 98.77120 45.73985 72.25552
#
# Velocity S-wave (km/s) = 5.87750 3.99968 5.02705
# Velocity P-wave (km/s) = 8.29716 7.17838 7.75796
#
# Compressibility (1/GPa) = 0.01535142
#
# Stress axis : x y z
#
# Youngs Moduli (GPa) = 168.65444 65.29635 130.72354
#
# Poissons Ratio (x) = -0.04948 0.31886
# Poissons Ratio (y) = -0.12780 0.66535
# Poissons Ratio (z) = 0.41138 0.33234
#
# Static dielectric constant tensor:
#      x y z
#    x 2.174650 0.000000 0.038680 
#    y 0.000000 2.178290 0.000000 
#    z 0.038680 0.000000 2.204430 
# 
# From -- ./inp_files/20359.got.cif
#   From: 2010.05.17/outbox.cif.g08.bks.cpg/sg13_11_cif.got.tgz:20359.got - 2010.06.03 16:44:36.
