data_PCOD9237144
_publ_section_title
;
Structure prediction by ZEFSAII (Michael W. Deem and Ramdas Pophale) SiO2 
 PCOD9237144
Probable space group: P 2/C
;
_chemical_formula_sum "Si O2"
_cell_formula_units_Z 16
_cell_length_a 25.704713
_cell_length_b 6.382789
_cell_length_c 9.336267
_cell_angle_alpha 90.000000
_cell_angle_beta 29.118498
_cell_angle_gamma 90.000000
_cell_volume 745.391081
_symmetry_space_group_name_H-M "P 2/C"
_symmetry_group_IT_number 13
_symmetry_cell_setting 'monoclinic'
loop_
_space_group_symop_operation_xyz
x,y,z
-x,y,1/2-z
-x,-y,-z
x,-y,1/2+z
loop_
_atom_site_type_symbol
_atom_site_label
_atom_site_fract_x
_atom_site_fract_y
_atom_site_fract_z
Si Si1 0.420880 0.703496 0.690801
Si Si2 0.183146 0.352177 0.864491
Si Si3 0.000000 0.015322 0.250000
Si Si4 0.915491 0.644039 0.618989
Si Si5 0.500000 0.017185 0.750000
O O1 0.500000 0.500000 0.500000
O O2 0.429595 0.826756 0.518507
O O3 0.450052 0.863469 0.750307
O O4 0.298609 0.649465 0.017142
O O5 0.122617 0.547192 0.938251
O O6 0.184815 0.353502 0.032040
O O7 0.104169 0.158055 0.021989
O O8 0.968956 0.863444 0.454998
O O9 0.000000 0.500000 0.500000
#
# Coordination Sequence:
#
# PCOD9237144 Si02
#       5
#     4   4   2   4   2
#     4  11  27  48  74 103 144 187 238 303 353 419
#     4  12  28  42  74 101 141 187 231 286 355 419
#     4  12  24  44  70 102 142 180 232 288 340 426
#     4  12  24  46  65 107 144 180 231 279 351 421
#     4  10  26  50  70 106 136 186 252 284 362 428
#
# _framework density 21.465243000000001
#
# number of rings (size 3 to 8) (size 9 to 14) (size 15 to 20)
#    0.000    0.500    5.000    1.500   10.500    2.000 
#    0.000    0.000    0.000    0.000    0.000    0.000 
#    0.000    0.000    0.000    0.000    0.000    0.000 
#
# Total GULP energy -89328.602875 kJ/mol
# GULP energy per Si atom -5583.037680 kJ/mol
# Density = 2.141639 g / cm^3
# Si number density = 21.465243 Si / 1000 Ang^3
#
#
#
# Elastic Constant Matrix: (Units=GPa)
#
#
# Indices 1 2 3 4 5 6 
#
# 1 62.1994 37.4520 54.1893 0.0000 23.0347 0.0000
# 2 37.4520 121.3320 64.7320 0.0000 2.2962 0.0000
# 3 54.1893 64.7320 192.8009 0.0000 4.0735 0.0000
# 4 0.0000 0.0000 0.0000 38.5998 0.0000 17.8985
# 5 23.0347 2.2962 4.0735 0.0000 47.7182 0.0000
# 6 0.0000 0.0000 0.0000 17.8985 0.0000 30.4485
#
#
#
# Elastic Compliance Matrix: (Units=1/GPa)
#
#
# Indices 1 2 3 4 5 6 
#
# 1 0.029987 -0.005671 -0.006235 0.000000 -0.013670 0.000000
# 2 -0.005671 0.011115 -0.002188 0.000000 0.002389 0.000000
# 3 -0.006235 -0.002188 0.007622 0.000000 0.002465 0.000000
# 4 0.000000 0.000000 0.000000 0.035614 0.000000 -0.020935
# 5 -0.013670 0.002389 0.002465 0.000000 0.027230 0.000000
# 6 0.000000 0.000000 0.000000 -0.020935 0.000000 0.045149
#
#
# Mechanical properties :
#
#
# Convention : Reuss Voigt Hill
#
# Bulk Modulus (GPa) = 48.69911 76.56433 62.63172
# Shear Modulus (GPa) = 26.07565 38.01724 32.04644
#
# Velocity S-wave (km/s) = 3.48916 4.21302 3.86806
# Velocity P-wave (km/s) = 6.24251 7.70795 7.01361
#
# Compressibility (1/GPa) = 0.02053426
#
# Stress axis : x y z
#
# Youngs Moduli (GPa) = 33.34797 89.97248 131.20106
#
# Poissons Ratio (x) = 0.51021 0.81810
# Poissons Ratio (y) = 0.18911 0.28711
# Poissons Ratio (z) = 0.20794 0.19689
#
# Static dielectric constant tensor:
#      x y z
#    x 1.780750 0.000000 -0.002870 
#    y 0.000000 1.783800 0.000000 
#    z -0.002870 0.000000 1.606560 
# 
# From -- ./inp_files/14161.got.cif
#   From: 2010.05.17/outbox.cif.g08.bks.cpg/sg13_8_cif.got.tgz:14161.got - 2010.06.03 16:44:36.
