data_PCOD9237442
_publ_section_title
;
Structure prediction by ZEFSAII (Michael W. Deem and Ramdas Pophale) SiO2 
 PCOD9237442
Probable space group: P 2/C
;
_chemical_formula_sum "Si O2"
_cell_formula_units_Z 24
_cell_length_a 13.391156
_cell_length_b 14.479762
_cell_length_c 15.862511
_cell_angle_alpha 90.000000
_cell_angle_beta 23.778631
_cell_angle_gamma 90.000000
_cell_volume 1240.155914
_symmetry_space_group_name_H-M "P 2/C"
_symmetry_group_IT_number 13
_symmetry_cell_setting 'monoclinic'
loop_
_space_group_symop_operation_xyz
x,y,z
-x,y,1/2-z
-x,-y,-z
x,-y,1/2+z
loop_
_atom_site_type_symbol
_atom_site_label
_atom_site_fract_x
_atom_site_fract_y
_atom_site_fract_z
Si Si1 0.189988 0.253250 0.799409
Si Si2 0.000000 0.528475 0.750000
Si Si3 0.215074 0.324939 0.967045
Si Si4 0.000000 0.168716 0.250000
Si Si5 0.590049 0.896155 0.941700
Si Si6 0.269129 0.648614 0.072728
Si Si7 0.363151 0.799242 0.775718
O O1 0.160464 0.294959 0.914629
O O2 0.381110 0.168639 0.645897
O O3 0.284595 0.329026 0.659600
O O4 0.918760 0.219400 0.983157
O O5 0.044687 0.594057 0.635739
O O6 0.233108 0.459547 0.581941
O O7 0.500000 0.353937 0.750000
O O8 0.170797 0.237076 0.062143
O O9 0.831048 0.112356 0.315115
O O10 0.632232 0.855033 0.815409
O O11 0.500000 0.000000 0.000000
O O12 0.000000 0.686755 0.250000
O O13 0.487114 0.703985 0.858887
O O14 0.500000 0.844600 0.750000
#
# Coordination Sequence:
#
# PCOD9237442 Si02
#       7
#     4   2   4   2   4   4   4
#     4  11  22  40  66  90 124 176 214 258 336 386
#     4   9  22  38  61  96 132 164 223 272 308 391
#     4  11  22  40  65  89 124 177 217 261 324 390
#     4  11  22  46  65  90 134 166 209 268 324 385
#     4  11  26  43  67  99 128 164 217 274 324 395
#     4   9  20  39  58  92 129 164 207 270 312 369
#     4  11  21  40  67  92 132 173 209 263 333 386
#
# _framework density 19.352406999999999
#
# number of rings (size 3 to 8) (size 9 to 14) (size 15 to 20)
#    0.500    1.000    5.000    0.000    0.000    4.667 
#    3.000    1.667    0.000    0.000    0.000    0.000 
#    0.000    0.000    0.000    0.000    0.000    0.000 
#
# Total GULP energy -133879.040027 kJ/mol
# GULP energy per Si atom -5578.293334 kJ/mol
# Density = 1.930836 g / cm^3
# Si number density = 19.352407 Si / 1000 Ang^3
#
#
#
# Elastic Constant Matrix: (Units=GPa)
#
#
# Indices 1 2 3 4 5 6 
#
# 1 144.0957 50.8334 30.8945 0.0000 10.6366 0.0000
# 2 50.8334 110.2307 19.9614 0.0000 5.4343 0.0000
# 3 30.8945 19.9614 69.8504 0.0000 -1.9599 0.0000
# 4 0.0000 0.0000 0.0000 4.6973 0.0000 -4.6964
# 5 10.6366 5.4343 -1.9599 0.0000 43.3912 0.0000
# 6 0.0000 0.0000 0.0000 -4.6964 0.0000 15.8933
#
#
#
# Elastic Compliance Matrix: (Units=1/GPa)
#
#
# Indices 1 2 3 4 5 6 
#
# 1 0.008958 -0.003491 -0.003018 0.000000 -0.001895 0.000000
# 2 -0.003491 0.011004 -0.001617 0.000000 -0.000595 0.000000
# 3 -0.003018 -0.001617 0.016160 0.000000 0.001672 0.000000
# 4 0.000000 0.000000 0.000000 0.302162 0.000000 0.089288
# 5 -0.001895 -0.000595 0.001672 0.000000 0.023661 0.000000
# 6 0.000000 0.000000 0.000000 0.089288 0.000000 0.089304
#
#
# Mechanical properties :
#
#
# Convention : Reuss Voigt Hill
#
# Bulk Modulus (GPa) = 50.32667 58.61726 54.47197
# Shear Modulus (GPa) = 10.54575 27.62887 19.08731
#
# Velocity S-wave (km/s) = 2.33691 3.78255 3.14395
# Velocity P-wave (km/s) = 5.77437 7.03080 6.43333
#
# Compressibility (1/GPa) = 0.01987018
#
# Stress axis : x y z
#
# Youngs Moduli (GPa) = 111.62753 90.87506 61.88087
#
# Poissons Ratio (x) = 0.31727 0.18674
# Poissons Ratio (y) = 0.38973 0.10007
# Poissons Ratio (z) = 0.33686 0.14696
#
# Static dielectric constant tensor:
#      x y z
#    x 1.708140 0.000000 -0.015370 
#    y 0.000000 1.648590 0.000000 
#    z -0.015370 0.000000 1.672850 
# 
# From -- ./inp_files/51399.got.cif
#   From: 2010.05.17/outbox.cif.g08.bks.cpg/sg13_26_cif.got.tgz:51399.got - 2010.06.03 16:44:36.
