data_PCOD9237942
_publ_section_title
;
Structure prediction by ZEFSAII (Michael W. Deem and Ramdas Pophale) SiO2 
 PCOD9237942
Probable space group: P 2/C
;
_chemical_formula_sum "Si O2"
_cell_formula_units_Z 12
_cell_length_a 7.894783
_cell_length_b 7.152766
_cell_length_c 18.560649
_cell_angle_alpha 90.000000
_cell_angle_beta 150.377060
_cell_angle_gamma 90.000000
_cell_volume 518.070850
_symmetry_space_group_name_H-M "P 2/C"
_symmetry_group_IT_number 13
_symmetry_cell_setting 'monoclinic'
loop_
_space_group_symop_operation_xyz
x,y,z
-x,y,1/2-z
-x,-y,-z
x,-y,1/2+z
loop_
_atom_site_type_symbol
_atom_site_label
_atom_site_fract_x
_atom_site_fract_y
_atom_site_fract_z
Si Si1 0.609047 0.395869 0.614729
Si Si2 0.670156 0.214391 0.179339
Si Si3 0.892621 0.052533 0.040716
O O1 0.500000 0.500000 0.500000
O O2 0.607144 0.567667 0.670846
O O3 0.348563 0.234978 0.540674
O O4 0.000000 0.328137 0.750000
O O5 0.000000 0.206317 0.250000
O O6 0.781420 0.095206 0.289411
O O7 0.344060 0.119769 0.021596
O O8 0.000000 0.000000 0.000000
#
# Coordination Sequence:
#
# PCOD9237942 Si02
#       3
#     4   4   4
#     4  11  23  45  75 107 138 195 253 296 351 446
#     4  11  24  44  73 103 140 195 252 292 360 446
#     4  12  26  44  68 110 150 187 237 313 372 420
#
# _framework density 23.162853999999999
#
# number of rings (size 3 to 8) (size 9 to 14) (size 15 to 20)
#    0.000    0.667    6.667    3.000    4.667    1.333 
#    0.000    3.333    0.000    0.000    0.000    0.000 
#    0.000    0.000    0.000    0.000    0.000    0.000 
#
# Total GULP energy -67172.629577 kJ/mol
# GULP energy per Si atom -5597.719131 kJ/mol
# Density = 2.311013 g / cm^3
# Si number density = 23.162854 Si / 1000 Ang^3
#
#
#
# Elastic Constant Matrix: (Units=GPa)
#
#
# Indices 1 2 3 4 5 6 
#
# 1 86.8762 44.0245 26.8309 0.0000 -0.5491 0.0000
# 2 44.0245 119.7686 26.9797 0.0000 12.1618 0.0000
# 3 26.8309 26.9797 114.7104 0.0000 2.1428 0.0000
# 4 0.0000 0.0000 0.0000 42.4371 0.0000 -12.9941
# 5 -0.5491 12.1618 2.1428 0.0000 37.7120 0.0000
# 6 0.0000 0.0000 0.0000 -12.9941 0.0000 2.3832
#
#
#
# Elastic Compliance Matrix: (Units=1/GPa)
#
#
# Indices 1 2 3 4 5 6 
#
# 1 0.014838 -0.005140 -0.002299 0.000000 0.002004 0.000000
# 2 -0.005140 0.010887 -0.001293 0.000000 -0.003512 0.000000
# 3 -0.002299 -0.001293 0.009562 0.000000 -0.000160 0.000000
# 4 0.000000 0.000000 0.000000 -0.035196 0.000000 -0.191904
# 5 0.002004 -0.003512 -0.000160 0.000000 0.027688 0.000000
# 6 0.000000 0.000000 0.000000 -0.191904 0.000000 -0.626734
#
#
# Mechanical properties :
#
#
# Convention : Reuss Voigt Hill
#
# Bulk Modulus (GPa) = 56.10519 57.44728 56.77623
# Shear Modulus (GPa) = -8.68732 31.40780 11.36024
#
# Velocity S-wave (km/s) = -1.93873 3.68632 2.21701
# Velocity P-wave (km/s) = 4.38897 6.55545 5.57840
#
# Compressibility (1/GPa) = 0.01782366
#
# Stress axis : x y z
#
# Youngs Moduli (GPa) = 67.39483 91.85666 104.57604
#
# Poissons Ratio (x) = 0.47212 0.24044
# Poissons Ratio (y) = 0.34639 0.13519
# Poissons Ratio (z) = 0.15495 0.11874
#
# Static dielectric constant tensor:
#      x y z
#    x 1.968650 0.000000 -0.082020 
#    y 0.000000 1.908990 0.000000 
#    z -0.082020 0.000000 1.943540 
# 
# From -- ./inp_files/10560.got.cif
#   From: 2010.05.17/outbox.cif.g08.bks.cpg/sg13_6_cif.got.tgz:10560.got - 2010.06.03 16:44:36.
