data_PCOD9237388
_publ_section_title
;
Structure prediction by ZEFSAII (Michael W. Deem and Ramdas Pophale) SiO2 
 PCOD9237388
Probable space group: P 2/C
;
_chemical_formula_sum "Si O2"
_cell_formula_units_Z 30
_cell_length_a 8.659172
_cell_length_b 16.620615
_cell_length_c 10.976255
_cell_angle_alpha 90.000000
_cell_angle_beta 73.011461
_cell_angle_gamma 90.000000
_cell_volume 1510.777505
_symmetry_space_group_name_H-M "P 2/C"
_symmetry_group_IT_number 13
_symmetry_cell_setting 'monoclinic'
loop_
_space_group_symop_operation_xyz
x,y,z
-x,y,1/2-z
-x,-y,-z
x,-y,1/2+z
loop_
_atom_site_type_symbol
_atom_site_label
_atom_site_fract_x
_atom_site_fract_y
_atom_site_fract_z
Si Si1 0.554217 0.338778 0.974855
Si Si2 0.256305 0.468135 0.433645
Si Si3 0.696021 0.058383 0.835134
Si Si4 0.254276 0.755587 0.475533
Si Si5 0.188788 0.761915 0.209511
Si Si6 0.059021 0.394477 0.098652
Si Si7 0.305742 0.939827 0.443672
Si Si8 0.500000 0.558467 0.250000
O O1 0.410706 0.273874 0.016295
O O2 0.716470 0.290571 0.909342
O O3 0.506431 0.388091 0.866878
O O4 0.601951 0.407742 0.058278
O O5 0.200296 0.540619 0.536018
O O6 0.333640 0.509401 0.297412
O O7 0.094151 0.419405 0.446672
O O8 0.779664 0.144814 0.826880
O O9 0.734151 0.032215 0.686066
O O10 0.501583 0.069486 0.893265
O O11 0.740707 0.999443 0.935883
O O12 0.264065 0.744132 0.326160
O O13 0.117012 0.695016 0.552674
O O14 0.234183 0.851540 0.488878
O O15 0.000000 0.744127 0.250000
O O16 0.000000 0.399694 0.250000
#
# Coordination Sequence:
#
# PCOD9237388 Si02
#       8
#     4   4   4   4   4   4   4   2
#     4  12  21  37  62  89 118 154 211 255 304 358
#     4  11  25  38  61  90 118 164 208 256 303 371
#     4   9  18  35  61  92 118 160 200 258 308 377
#     4  11  21  39  61  90 117 164 203 255 310 367
#     4  11  21  37  61  91 123 155 205 258 309 371
#     4  11  24  43  59  85 130 164 199 253 324 368
#     4   9  18  36  64  88 122 156 210 252 310 375
#     4  12  22  38  64  88 116 158 216 252 304 356
#
# _framework density 19.857323999999998
#
# number of rings (size 3 to 8) (size 9 to 14) (size 15 to 20)
#    0.000    1.333    4.000    2.000    1.867    2.667 
#    0.000    6.000    2.933    0.000    0.000    0.000 
#    0.000    0.000    0.000    0.000    0.000    0.000 
#
# Total GULP energy -167304.739801 kJ/mol
# GULP energy per Si atom -5576.824660 kJ/mol
# Density = 1.981213 g / cm^3
# Si number density = 19.857324 Si / 1000 Ang^3
#
#
#
# Elastic Constant Matrix: (Units=GPa)
#
#
# Indices 1 2 3 4 5 6 
#
# 1 49.0232 30.9567 13.7461 0.0000 -8.6273 0.0000
# 2 30.9567 96.3374 62.1334 0.0000 0.3272 0.0000
# 3 13.7461 62.1334 87.9423 0.0000 -3.1281 0.0000
# 4 0.0000 0.0000 0.0000 32.1721 0.0000 -10.8990
# 5 -8.6273 0.3272 -3.1281 0.0000 28.1224 0.0000
# 6 0.0000 0.0000 0.0000 -10.8990 0.0000 34.9016
#
#
#
# Elastic Compliance Matrix: (Units=1/GPa)
#
#
# Indices 1 2 3 4 5 6 
#
# 1 0.028365 -0.011943 0.004336 0.000000 0.009323 0.000000
# 2 -0.011943 0.024182 -0.015420 0.000000 -0.005660 0.000000
# 3 0.004336 -0.015420 0.021728 0.000000 0.003926 0.000000
# 4 0.000000 0.000000 0.000000 0.034760 0.000000 0.010855
# 5 0.009323 -0.005660 0.003926 0.000000 0.038921 0.000000
# 6 0.000000 0.000000 0.000000 0.010855 0.000000 0.032042
#
#
# Mechanical properties :
#
#
# Convention : Reuss Voigt Hill
#
# Bulk Modulus (GPa) = 35.43467 49.66393 42.54930
# Shear Modulus (GPa) = 21.23514 27.47032 24.35273
#
# Velocity S-wave (km/s) = 3.27369 3.72342 3.50578
# Velocity P-wave (km/s) = 5.67211 6.59923 6.15316
#
# Compressibility (1/GPa) = 0.02822095
#
# Stress axis : x y z
#
# Youngs Moduli (GPa) = 35.25487 41.35266 46.02435
#
# Poissons Ratio (x) = 0.49386 -0.19955
# Poissons Ratio (y) = 0.42104 0.70969
# Poissons Ratio (z) = -0.15286 0.63766
#
# Static dielectric constant tensor:
#      x y z
#    x 1.953570 0.000000 0.021470 
#    y 0.000000 1.696360 0.000000 
#    z 0.021470 0.000000 1.696110 
# 
# From -- ./inp_files/30386.got.cif
#   From: 2010.05.17/outbox.cif.g08.bks.cpg/sg13_16_cif.got.tgz:30386.got - 2010.06.03 16:44:36.
