data_PCOD9237548
_publ_section_title
;
Structure prediction by ZEFSAII (Michael W. Deem and Ramdas Pophale) SiO2 
 PCOD9237548
Probable space group: P 2/C
;
_chemical_formula_sum "Si O2"
_cell_formula_units_Z 16
_cell_length_a 11.463896
_cell_length_b 10.320862
_cell_length_c 8.536605
_cell_angle_alpha 90.000000
_cell_angle_beta 125.484962
_cell_angle_gamma 90.000000
_cell_volume 822.433347
_symmetry_space_group_name_H-M "P 2/C"
_symmetry_group_IT_number 13
_symmetry_cell_setting 'monoclinic'
loop_
_space_group_symop_operation_xyz
x,y,z
-x,y,1/2-z
-x,-y,-z
x,-y,1/2+z
loop_
_atom_site_type_symbol
_atom_site_label
_atom_site_fract_x
_atom_site_fract_y
_atom_site_fract_z
Si Si1 0.939856 0.869814 0.031625
Si Si2 0.930342 0.375728 0.027257
Si Si3 0.342339 0.700841 0.686987
Si Si4 0.349863 0.436690 0.541792
O O1 0.000000 0.881778 0.250000
O O2 0.773711 0.817535 0.896131
O O3 0.021664 0.749818 0.022584
O O4 0.000000 0.000000 0.000000
O O5 0.000000 0.375277 0.250000
O O6 0.763568 0.369886 0.933082
O O7 0.000000 0.500000 0.000000
O O8 0.500000 0.744066 0.750000
O O9 0.303137 0.588816 0.526714
O O10 0.349631 0.626153 0.865637
O O11 0.500000 0.428233 0.750000
#
# Coordination Sequence:
#
# PCOD9237548 Si02
#       4
#     4   4   4   4
#     4  12  28  46  68  94 138 180 232 280 337 403
#     4  12  22  40  68 103 134 174 227 281 336 401
#     4  11  24  42  68 104 139 176 222 280 344 406
#     4  11  22  38  69 104 143 168 219 276 347 393
#
# _framework density 19.454464999999999
#
# number of rings (size 3 to 8) (size 9 to 14) (size 15 to 20)
#    0.000    0.500    5.000    4.500    7.000    0.000 
#    0.000    2.500    0.000    0.000    0.000    0.000 
#    0.000    0.000    0.000    0.000    0.000    0.000 
#
# Total GULP energy -89135.136127 kJ/mol
# GULP energy per Si atom -5570.946008 kJ/mol
# Density = 1.941019 g / cm^3
# Si number density = 19.454465 Si / 1000 Ang^3
#
#
#
# Elastic Constant Matrix: (Units=GPa)
#
#
# Indices 1 2 3 4 5 6 
#
# 1 199.1586 85.9543 52.1615 0.0000 3.4769 0.0000
# 2 85.9543 161.1311 67.0078 0.0000 -14.0565 0.0000
# 3 52.1615 67.0078 115.1193 0.0000 -30.3185 0.0000
# 4 0.0000 0.0000 0.0000 29.4679 0.0000 -2.9499
# 5 3.4769 -14.0565 -30.3185 0.0000 41.2943 0.0000
# 6 0.0000 0.0000 0.0000 -2.9499 0.0000 52.2376
#
#
#
# Elastic Compliance Matrix: (Units=1/GPa)
#
#
# Indices 1 2 3 4 5 6 
#
# 1 0.006998 -0.003089 -0.002237 0.000000 -0.003283 0.000000
# 2 -0.003089 0.009578 -0.004027 0.000000 0.000564 0.000000
# 3 -0.002237 -0.004027 0.014546 0.000000 0.009497 0.000000
# 4 0.000000 0.000000 0.000000 0.034128 0.000000 0.001927
# 5 -0.003283 0.000564 0.009497 0.000000 0.031658 0.000000
# 6 0.000000 0.000000 0.000000 0.001927 0.000000 0.019252
#
#
# Mechanical properties :
#
#
# Convention : Reuss Voigt Hill
#
# Bulk Modulus (GPa) = 80.55067 98.40624 89.47846
# Shear Modulus (GPa) = 35.97049 42.61899 39.29474
#
# Velocity S-wave (km/s) = 4.30462 4.68557 4.49913
# Velocity P-wave (km/s) = 8.13639 8.94234 8.54887
#
# Compressibility (1/GPa) = 0.01241455
#
# Stress axis : x y z
#
# Youngs Moduli (GPa) = 142.90782 104.41068 68.74934
#
# Poissons Ratio (x) = 0.32250 0.15383
# Poissons Ratio (y) = 0.44140 0.27684
# Poissons Ratio (z) = 0.31975 0.42045
#
# Static dielectric constant tensor:
#      x y z
#    x 1.721190 0.000000 -0.048340 
#    y 0.000000 1.666450 0.000000 
#    z -0.048340 0.000000 1.161730 
# 
# From -- ./inp_files/15053.got.cif
#   From: 2010.05.17/outbox.cif.g08.bks.cpg/sg13_8_cif.got.tgz:15053.got - 2010.06.03 16:44:36.
