data_PCOD9237883
_publ_section_title
;
Structure prediction by ZEFSAII (Michael W. Deem and Ramdas Pophale) SiO2 
 PCOD9237883
Probable space group: P 2/C
;
_chemical_formula_sum "Si O2"
_cell_formula_units_Z 28
_cell_length_a 12.146334
_cell_length_b 9.209670
_cell_length_c 18.968419
_cell_angle_alpha 90.000000
_cell_angle_beta 35.791664
_cell_angle_gamma 90.000000
_cell_volume 1240.958458
_symmetry_space_group_name_H-M "P 2/C"
_symmetry_group_IT_number 13
_symmetry_cell_setting 'monoclinic'
loop_
_space_group_symop_operation_xyz
x,y,z
-x,y,1/2-z
-x,-y,-z
x,-y,1/2+z
loop_
_atom_site_type_symbol
_atom_site_label
_atom_site_fract_x
_atom_site_fract_y
_atom_site_fract_z
Si Si1 0.887181 0.338057 0.878674
Si Si2 0.500000 0.739966 0.250000
Si Si3 0.500000 0.739796 0.750000
Si Si4 0.711671 0.145511 0.272942
Si Si5 0.811189 0.500773 0.051678
Si Si6 0.517532 0.666981 0.972995
Si Si7 0.051377 0.983419 0.139696
Si Si8 0.534529 0.892869 0.086934
O O1 0.000000 0.377525 0.750000
O O2 0.875519 0.471733 0.938198
O O3 0.677105 0.293672 0.964479
O O4 0.974752 0.188045 0.863620
O O5 0.679982 0.638396 0.137590
O O6 0.467550 0.836149 0.197706
O O7 0.406669 0.832174 0.736398
O O8 0.328829 0.635723 0.862624
O O9 0.683732 0.290075 0.333296
O O10 0.922185 0.089333 0.159929
O O11 0.609537 0.013405 0.366548
O O12 0.000000 0.500000 0.000000
O O13 0.500000 0.500000 0.000000
O O14 0.539829 0.757577 0.032047
O O15 0.000000 0.000783 0.250000
O O16 0.262850 0.032925 0.015819
#
# Coordination Sequence:
#
# PCOD9237883 Si02
#       8
#     4   2   2   4   4   4   4   4
#     4  11  24  46  72 109 144 193 247 311 374 443
#     4  11  29  46  68 104 148 198 252 302 372 460
#     4  11  25  48  70 102 152 196 242 298 370 444
#     4  12  25  47  74 108 152 199 245 310 372 447
#     4  11  26  47  69 102 152 193 241 305 375 442
#     4  12  25  45  74 104 153 194 243 306 377 443
#     4  11  23  43  78 114 145 187 253 312 373 440
#     4  12  24  47  72 107 148 195 249 307 371 437
#
# _framework density 22.563206000000001
#
# number of rings (size 3 to 8) (size 9 to 14) (size 15 to 20)
#    0.000    0.571    4.286    3.429    8.000    0.000 
#    2.571    2.143    0.000    0.000    0.000    0.000 
#    0.000    0.000    0.000    0.000    0.000    0.000 
#
# Total GULP energy -156698.158443 kJ/mol
# GULP energy per Si atom -5596.362802 kJ/mol
# Density = 2.251185 g / cm^3
# Si number density = 22.563206 Si / 1000 Ang^3
#
#
#
# Elastic Constant Matrix: (Units=GPa)
#
#
# Indices 1 2 3 4 5 6 
#
# 1 90.0392 25.3298 28.0502 0.0000 2.4659 0.0000
# 2 25.3298 109.7804 33.1273 0.0000 9.3785 0.0000
# 3 28.0502 33.1273 89.3566 0.0000 -0.5746 0.0000
# 4 0.0000 0.0000 0.0000 30.4522 0.0000 1.1432
# 5 2.4659 9.3785 -0.5746 0.0000 46.1268 0.0000
# 6 0.0000 0.0000 0.0000 1.1432 0.0000 23.3383
#
#
#
# Elastic Compliance Matrix: (Units=1/GPa)
#
#
# Indices 1 2 3 4 5 6 
#
# 1 0.012672 -0.001908 -0.003273 0.000000 -0.000330 0.000000
# 2 -0.001908 0.010758 -0.003403 0.000000 -0.002128 0.000000
# 3 -0.003273 -0.003403 0.013487 0.000000 0.001035 0.000000
# 4 0.000000 0.000000 0.000000 0.032899 0.000000 -0.001611
# 5 -0.000330 -0.002128 0.001035 0.000000 0.022143 0.000000
# 6 0.000000 0.000000 0.000000 -0.001611 0.000000 0.042927
#
#
# Mechanical properties :
#
#
# Convention : Reuss Voigt Hill
#
# Bulk Modulus (GPa) = 50.63532 51.35453 50.99493
# Shear Modulus (GPa) = 31.51892 33.49472 32.50682
#
# Velocity S-wave (km/s) = 3.74159 3.85708 3.79977
# Velocity P-wave (km/s) = 6.41531 6.53038 6.47310
#
# Compressibility (1/GPa) = 0.01974906
#
# Stress axis : x y z
#
# Youngs Moduli (GPa) = 78.91670 92.95396 74.14724
#
# Poissons Ratio (x) = 0.17736 0.24265
# Poissons Ratio (y) = 0.15057 0.25233
# Poissons Ratio (z) = 0.25826 0.31633
#
# Static dielectric constant tensor:
#      x y z
#    x 1.871640 0.000000 -0.008340 
#    y 0.000000 1.843780 0.000000 
#    z -0.008340 0.000000 1.906960 
# 
# From -- ./inp_files/78234.got.cif
#   From: 2010.05.17/outbox.cif.g08.bks.cpg/sg13_40_cif.got.tgz:78234.got - 2010.06.03 16:44:36.
