data_PCOD9237542
_publ_section_title
;
Structure prediction by ZEFSAII (Michael W. Deem and Ramdas Pophale) SiO2 
 PCOD9237542
Probable space group: P 2/C
;
_chemical_formula_sum "Si O2"
_cell_formula_units_Z 20
_cell_length_a 14.515689
_cell_length_b 9.986621
_cell_length_c 10.224319
_cell_angle_alpha 90.000000
_cell_angle_beta 40.738189
_cell_angle_gamma 90.000000
_cell_volume 967.252948
_symmetry_space_group_name_H-M "P 2/C"
_symmetry_group_IT_number 13
_symmetry_cell_setting 'monoclinic'
loop_
_space_group_symop_operation_xyz
x,y,z
-x,y,1/2-z
-x,-y,-z
x,-y,1/2+z
loop_
_atom_site_type_symbol
_atom_site_label
_atom_site_fract_x
_atom_site_fract_y
_atom_site_fract_z
Si Si1 0.698058 0.944486 0.288447
Si Si2 0.458202 0.798205 0.443319
Si Si3 0.839217 0.097829 0.898230
Si Si4 0.333920 0.469416 0.153055
Si Si5 0.831668 0.585060 0.418066
O O1 0.603961 0.811864 0.367382
O O2 0.816488 0.916907 0.267526
O O3 0.607291 0.056363 0.462521
O O4 0.746272 0.007466 0.098013
O O5 0.500000 0.773290 0.250000
O O6 0.346460 0.688238 0.606126
O O7 0.814421 0.254721 0.953867
O O8 0.000000 0.061965 0.750000
O O9 0.248844 0.540782 0.127685
O O10 0.248677 0.487857 0.377729
O O11 0.500000 0.500000 0.000000
O O12 0.000000 0.556985 0.250000
#
# Coordination Sequence:
#
# PCOD9237542 Si02
#       5
#     4   4   4   4   4
#     4  11  22  40  63  92 128 164 210 268 324 379
#     4  11  22  38  64  91 126 162 212 268 326 381
#     4  11  23  42  65  93 129 172 216 261 324 398
#     4  12  24  43  68  97 131 171 224 277 324 389
#     4  11  25  45  67  96 135 177 219 271 334 394
#
# _framework density 20.677114
#
# number of rings (size 3 to 8) (size 9 to 14) (size 15 to 20)
#    0.000    0.800    4.000    4.200    0.000    0.000 
#    0.000    1.000    0.000    0.000    0.000    0.000 
#    0.000    0.000    0.000    0.000    0.000    0.000 
#
# Total GULP energy -111598.143538 kJ/mol
# GULP energy per Si atom -5579.907177 kJ/mol
# Density = 2.063005 g / cm^3
# Si number density = 20.677114 Si / 1000 Ang^3
#
#
#
# Elastic Constant Matrix: (Units=GPa)
#
#
# Indices 1 2 3 4 5 6 
#
# 1 141.8372 14.2214 43.4811 0.0000 2.1278 0.0000
# 2 14.2214 25.9654 18.3244 0.0000 -7.1134 0.0000
# 3 43.4811 18.3244 104.8215 0.0000 11.2309 0.0000
# 4 0.0000 0.0000 0.0000 12.8783 0.0000 -6.7569
# 5 2.1278 -7.1134 11.2309 0.0000 37.7632 0.0000
# 6 0.0000 0.0000 0.0000 -6.7569 0.0000 32.2739
#
#
#
# Elastic Compliance Matrix: (Units=1/GPa)
#
#
# Indices 1 2 3 4 5 6 
#
# 1 0.008205 -0.002397 -0.002982 0.000000 -0.000027 0.000000
# 2 -0.002397 0.049461 -0.008950 0.000000 0.012114 0.000000
# 3 -0.002982 -0.008950 0.012916 0.000000 -0.005359 0.000000
# 4 0.000000 0.000000 0.000000 0.087232 0.000000 0.018263
# 5 -0.000027 0.012114 -0.005359 0.000000 0.030358 0.000000
# 6 0.000000 0.000000 0.000000 0.018263 0.000000 0.034808
#
#
# Mechanical properties :
#
#
# Convention : Reuss Voigt Hill
#
# Bulk Modulus (GPa) = 23.85286 47.18641 35.51964
# Shear Modulus (GPa) = 18.82451 29.68958 24.25704
#
# Velocity S-wave (km/s) = 3.02056 3.79339 3.42882
# Velocity P-wave (km/s) = 4.87093 6.48511 5.73509
#
# Compressibility (1/GPa) = 0.04192369
#
# Stress axis : x y z
#
# Youngs Moduli (GPa) = 121.87500 20.21815 77.42582
#
# Poissons Ratio (x) = 0.04847 0.23085
# Poissons Ratio (y) = 0.29217 0.69296
# Poissons Ratio (z) = 0.36338 0.18095
#
# Static dielectric constant tensor:
#      x y z
#    x 1.801320 0.000000 -0.022330 
#    y 0.000000 1.774670 0.000000 
#    z -0.022330 0.000000 1.712250 
# 
# From -- ./inp_files/11790.got.cif
#   From: 2010.05.17/outbox.cif.g08.bks.cpg/sg13_6_cif.got.tgz:11790.got - 2010.06.03 16:44:36.
