data_PCOD9237754
_publ_section_title
;
Structure prediction by ZEFSAII (Michael W. Deem and Ramdas Pophale) SiO2 
 PCOD9237754
Probable space group: P 2/C
;
_chemical_formula_sum "Si O2"
_cell_formula_units_Z 26
_cell_length_a 11.634518
_cell_length_b 11.627753
_cell_length_c 9.547125
_cell_angle_alpha 90.000000
_cell_angle_beta 90.019694
_cell_angle_gamma 90.000000
_cell_volume 1291.566514
_symmetry_space_group_name_H-M "P 2/C"
_symmetry_group_IT_number 13
_symmetry_cell_setting 'monoclinic'
loop_
_space_group_symop_operation_xyz
x,y,z
-x,y,1/2-z
-x,-y,-z
x,-y,1/2+z
loop_
_atom_site_type_symbol
_atom_site_label
_atom_site_fract_x
_atom_site_fract_y
_atom_site_fract_z
Si Si1 0.907639 0.920521 0.923337
Si Si2 0.636650 0.485298 0.974618
Si Si3 0.609167 0.152795 0.152976
Si Si4 0.000000 0.712362 0.750000
Si Si5 0.763971 0.061873 0.694469
Si Si6 0.388249 0.759254 0.153511
Si Si7 0.250479 0.626352 0.761207
O O1 0.965352 0.801932 0.873361
O O2 0.853946 0.990833 0.792015
O O3 0.812986 0.902445 0.043800
O O4 0.000000 0.000000 0.000000
O O5 0.648752 0.369479 0.883674
O O6 0.696283 0.586619 0.886917
O O7 0.500000 0.500000 0.000000
O O8 0.697741 0.458709 0.121542
O O9 0.500000 0.168742 0.250000
O O10 0.703107 0.246631 0.201032
O O11 0.660541 0.026880 0.169113
O O12 0.580875 0.179660 0.992719
O O13 0.113276 0.635660 0.770254
O O14 0.714783 0.170202 0.777092
O O15 0.500000 0.757456 0.250000
#
# Coordination Sequence:
#
# PCOD9237754 Si02
#       7
#     4   4   4   2   4   4   4
#     4  12  23  43  67  94 134 188 229 269 342 414
#     4  11  24  46  74  98 136 180 233 295 353 418
#     4  11  23  40  65  97 138 182 222 285 357 421
#     4  12  26  44  74  96 140 186 234 288 348 416
#     4  12  24  41  66  99 137 176 227 282 342 426
#     4  11  25  40  63 102 135 172 227 276 350 425
#     4  11  24  45  70 100 134 181 237 282 352 420
#
# _framework density 20.130593000000001
#
# number of rings (size 3 to 8) (size 9 to 14) (size 15 to 20)
#    0.000    0.615    4.615    3.692    4.308    4.308 
#    0.000    0.000    0.000    0.000    0.000    0.000 
#    0.000    0.000    0.000    0.000    0.000    0.000 
#
# Total GULP energy -145437.404834 kJ/mol
# GULP energy per Si atom -5593.746340 kJ/mol
# Density = 2.008477 g / cm^3
# Si number density = 20.130593 Si / 1000 Ang^3
#
#
#
# Elastic Constant Matrix: (Units=GPa)
#
#
# Indices 1 2 3 4 5 6 
#
# 1 108.1307 -1.1391 35.2056 0.0000 -9.1416 0.0000
# 2 -1.1391 45.3914 22.6336 0.0000 -7.4280 0.0000
# 3 35.2056 22.6336 88.6642 0.0000 -21.0109 0.0000
# 4 0.0000 0.0000 0.0000 4.2865 0.0000 -23.7237
# 5 -9.1416 -7.4280 -21.0109 0.0000 36.1533 0.0000
# 6 0.0000 0.0000 0.0000 -23.7237 0.0000 30.3904
#
#
#
# Elastic Compliance Matrix: (Units=1/GPa)
#
#
# Indices 1 2 3 4 5 6 
#
# 1 0.010928 0.002818 -0.004948 0.000000 0.000467 0.000000
# 2 0.002818 0.026058 -0.007345 0.000000 0.001798 0.000000
# 3 -0.004948 -0.007345 0.016774 0.000000 0.006988 0.000000
# 4 0.000000 0.000000 0.000000 -0.070260 0.000000 -0.054847
# 5 0.000467 0.001798 0.006988 0.000000 0.032209 0.000000
# 6 0.000000 0.000000 0.000000 -0.054847 0.000000 -0.009910
#
#
# Mechanical properties :
#
#
# Convention : Reuss Voigt Hill
#
# Bulk Modulus (GPa) = 28.72699 39.50961 34.11830
# Shear Modulus (GPa) = 137.54455 26.53179 82.03817
#
# Velocity S-wave (km/s) = 8.27493 3.63434 6.39073
# Velocity P-wave (km/s) = 10.27621 6.10578 8.45225
#
# Compressibility (1/GPa) = 0.03481046
#
# Stress axis : x y z
#
# Youngs Moduli (GPa) = 91.50665 38.37619 59.61570
#
# Poissons Ratio (x) = -0.10814 0.29497
# Poissons Ratio (y) = -0.25785 0.43786
# Poissons Ratio (z) = 0.45277 0.28186
#
# Static dielectric constant tensor:
#      x y z
#    x 1.704980 0.000000 0.004110 
#    y 0.000000 1.698710 0.000000 
#    z 0.004110 0.000000 1.719630 
# 
# From -- ./inp_files/15917.got.cif
#   From: 2010.05.17/outbox.cif.g08.bks.cpg/sg13_8_cif.got.tgz:15917.got - 2010.06.03 16:44:36.
