data_PCOD9237913
_publ_section_title
;
Structure prediction by ZEFSAII (Michael W. Deem and Ramdas Pophale) SiO2 
 PCOD9237913
Probable space group: P 2/C
;
_chemical_formula_sum "Si O2"
_cell_formula_units_Z 14
_cell_length_a 15.004157
_cell_length_b 6.018808
_cell_length_c 15.391444
_cell_angle_alpha 90.000000
_cell_angle_beta 151.430111
_cell_angle_gamma 90.000000
_cell_volume 664.719804
_symmetry_space_group_name_H-M "P 2/C"
_symmetry_group_IT_number 13
_symmetry_cell_setting 'monoclinic'
loop_
_space_group_symop_operation_xyz
x,y,z
-x,y,1/2-z
-x,-y,-z
x,-y,1/2+z
loop_
_atom_site_type_symbol
_atom_site_label
_atom_site_fract_x
_atom_site_fract_y
_atom_site_fract_z
Si Si1 0.081402 0.616511 0.482826
Si Si2 0.561829 0.300715 0.116798
Si Si3 0.214005 0.019470 0.821379
Si Si4 0.000000 0.306867 0.250000
O O1 0.300352 0.635948 0.688183
O O2 0.966069 0.843910 0.366808
O O3 0.000000 0.500000 0.500000
O O4 0.049974 0.459760 0.373834
O O5 0.687188 0.125659 0.169072
O O6 0.500000 0.500000 0.000000
O O7 0.370327 0.193251 0.983933
O O8 0.160108 0.855957 0.852478
#
# Coordination Sequence:
#
# PCOD9237913 Si02
#       4
#     4   4   4   2
#     4  12  24  47  75  99 145 191 237 298 359 435
#     4  11  23  44  75 103 136 190 242 291 365 432
#     4  11  24  44  72 104 139 188 242 296 364 428
#     4  12  26  44  70 108 144 184 248 298 356 428
#
# _framework density 21.061505
#
# number of rings (size 3 to 8) (size 9 to 14) (size 15 to 20)
#    0.000    0.571    5.714    1.714    0.000    0.000 
#    0.000   21.429    0.000    0.000    0.000    0.000 
#    0.000    0.000    0.000    0.000    0.000    0.000 
#
# Total GULP energy -78305.318792 kJ/mol
# GULP energy per Si atom -5593.237057 kJ/mol
# Density = 2.101357 g / cm^3
# Si number density = 21.061505 Si / 1000 Ang^3
#
#
#
# Elastic Constant Matrix: (Units=GPa)
#
#
# Indices 1 2 3 4 5 6 
#
# 1 82.2348 36.4268 48.0687 0.0000 -25.5713 0.0000
# 2 36.4268 119.2289 78.6242 0.0000 -11.1132 0.0000
# 3 48.0687 78.6242 180.2688 0.0000 -2.0041 0.0000
# 4 0.0000 0.0000 0.0000 27.4524 0.0000 15.2172
# 5 -25.5713 -11.1132 -2.0041 0.0000 27.1742 0.0000
# 6 0.0000 0.0000 0.0000 15.2172 0.0000 51.5627
#
#
#
# Elastic Compliance Matrix: (Units=1/GPa)
#
#
# Indices 1 2 3 4 5 6 
#
# 1 0.021794 -0.001618 -0.004889 0.000000 0.019486 0.000000
# 2 -0.001618 0.012454 -0.004965 0.000000 0.003204 0.000000
# 3 -0.004889 -0.004965 0.008950 0.000000 -0.005971 0.000000
# 4 0.000000 0.000000 0.000000 0.043551 0.000000 -0.012853
# 5 0.019486 0.003204 -0.005971 0.000000 0.056007 0.000000
# 6 0.000000 0.000000 0.000000 -0.012853 0.000000 0.023187
#
#
# Mechanical properties :
#
#
# Convention : Reuss Voigt Hill
#
# Bulk Modulus (GPa) = 49.37209 78.66357 64.01783
# Shear Modulus (GPa) = 25.55726 35.81204 30.68465
#
# Velocity S-wave (km/s) = 3.48725 4.12801 3.82109
# Velocity P-wave (km/s) = 6.30137 7.75572 7.06606
#
# Compressibility (1/GPa) = 0.02025436
#
# Stress axis : x y z
#
# Youngs Moduli (GPa) = 45.88351 80.29353 111.73266
#
# Poissons Ratio (x) = 0.12994 0.54626
# Poissons Ratio (y) = 0.07425 0.55473
# Poissons Ratio (z) = 0.22432 0.39864
#
# Static dielectric constant tensor:
#      x y z
#    x 1.780450 0.000000 0.015660 
#    y 0.000000 1.739510 0.000000 
#    z 0.015660 0.000000 1.759860 
# 
# From -- ./inp_files/51811.got.cif
#   From: 2010.05.17/outbox.cif.g08.bks.cpg/sg13_26_cif.got.tgz:51811.got - 2010.06.03 16:44:36.
