data_PCOD9237005
_publ_section_title
;
Structure prediction by ZEFSAII (Michael W. Deem and Ramdas Pophale) SiO2 
 PCOD9237005
Probable space group: P 2/C
;
_chemical_formula_sum "Si O2"
_cell_formula_units_Z 20
_cell_length_a 7.460751
_cell_length_b 6.248028
_cell_length_c 22.378406
_cell_angle_alpha 90.000000
_cell_angle_beta 122.547712
_cell_angle_gamma 90.000000
_cell_volume 879.332743
_symmetry_space_group_name_H-M "P 2/C"
_symmetry_group_IT_number 13
_symmetry_cell_setting 'monoclinic'
loop_
_space_group_symop_operation_xyz
x,y,z
-x,y,1/2-z
-x,-y,-z
x,-y,1/2+z
loop_
_atom_site_type_symbol
_atom_site_label
_atom_site_fract_x
_atom_site_fract_y
_atom_site_fract_z
Si Si1 0.935413 0.302460 0.838341
Si Si2 0.375143 0.382415 0.285514
Si Si3 0.267538 0.968300 0.856324
Si Si4 0.658704 0.281733 0.900504
Si Si5 0.725670 0.377764 0.041790
O O1 0.101960 0.470134 0.896374
O O2 0.780785 0.433163 0.766800
O O3 0.799217 0.212353 0.869364
O O4 0.066740 0.120212 0.829224
O O5 0.500000 0.296004 0.250000
O O6 0.256649 0.201105 0.300776
O O7 0.544305 0.498513 0.359085
O O8 0.294532 0.833143 0.921833
O O9 0.473936 0.113286 0.881543
O O10 0.783976 0.321563 0.984173
O O11 0.500000 0.500000 0.000000
#
# Coordination Sequence:
#
# PCOD9237005 Si02
#       5
#     4   4   4   4   4
#     4  11  27  46  74 107 140 187 237 290 354 419
#     4  10  25  48  71 100 144 186 230 295 355 417
#     4  12  25  46  74 101 141 182 242 284 356 417
#     4  11  25  47  71 103 145 184 236 289 350 424
#     4  12  24  46  71 106 146 188 228 294 353 413
#
# _framework density 22.744517999999999
#
# number of rings (size 3 to 8) (size 9 to 14) (size 15 to 20)
#    0.000    0.800    4.000    1.200    0.000   12.800 
#    0.000    2.000    0.000    0.000    0.000    0.000 
#    0.000    0.000    0.000    0.000    0.000    0.000 
#
# Total GULP energy -112169.317825 kJ/mol
# GULP energy per Si atom -5608.465891 kJ/mol
# Density = 2.269275 g / cm^3
# Si number density = 22.744518 Si / 1000 Ang^3
#
#
#
# Elastic Constant Matrix: (Units=GPa)
#
#
# Indices 1 2 3 4 5 6 
#
# 1 151.4694 74.0373 38.4855 0.0000 -25.7676 0.0000
# 2 74.0373 82.4033 30.8422 0.0000 -33.7265 0.0000
# 3 38.4855 30.8422 91.9232 0.0000 -33.9690 0.0000
# 4 0.0000 0.0000 0.0000 30.8041 0.0000 -12.3645
# 5 -25.7676 -33.7265 -33.9690 0.0000 38.9206 0.0000
# 6 0.0000 0.0000 0.0000 -12.3645 0.0000 18.1563
#
#
#
# Elastic Compliance Matrix: (Units=1/GPa)
#
#
# Indices 1 2 3 4 5 6 
#
# 1 0.012393 -0.011973 -0.002913 0.000000 -0.004713 0.000000
# 2 -0.011973 0.030384 0.002389 0.000000 0.020487 0.000000
# 3 -0.002913 0.002389 0.016752 0.000000 0.014763 0.000000
# 4 0.000000 0.000000 0.000000 0.044675 0.000000 0.030424
# 5 -0.004713 0.020487 0.014763 0.000000 0.053211 0.000000
# 6 0.000000 0.000000 0.000000 0.030424 0.000000 0.075796
#
#
# Mechanical properties :
#
#
# Convention : Reuss Voigt Hill
#
# Bulk Modulus (GPa) = 28.95620 68.05844 48.50732
# Shear Modulus (GPa) = 18.53801 29.73826 24.13813
#
# Velocity S-wave (km/s) = 2.85801 3.61985 3.26125
# Velocity P-wave (km/s) = 4.86309 6.88905 5.96275
#
# Compressibility (1/GPa) = 0.03453492
#
# Stress axis : x y z
#
# Youngs Moduli (GPa) = 80.69185 32.91191 59.69510
#
# Poissons Ratio (x) = 0.39407 0.17388
# Poissons Ratio (y) = 0.96615 -0.14262
# Poissons Ratio (z) = 0.23504 -0.07863
#
# Static dielectric constant tensor:
#      x y z
#    x 1.845730 0.000000 -0.016250 
#    y 0.000000 1.804910 0.000000 
#    z -0.016250 0.000000 1.826160 
# 
# From -- ./inp_files/90904.got.cif
#   From: 2010.05.17/outbox.cif.g08.bks.cpg/sg13_46_cif.got.tgz:90904.got - 2010.06.03 16:44:36.
