data_PCOD9237978
_publ_section_title
;
Structure prediction by ZEFSAII (Michael W. Deem and Ramdas Pophale) SiO2 
 PCOD9237978
Probable space group: P 2/C
;
_chemical_formula_sum "Si O2"
_cell_formula_units_Z 16
_cell_length_a 5.764350
_cell_length_b 4.996487
_cell_length_c 21.930600
_cell_angle_alpha 90.000000
_cell_angle_beta 75.051846
_cell_angle_gamma 90.000000
_cell_volume 610.259439
_symmetry_space_group_name_H-M "P 2/C"
_symmetry_group_IT_number 13
_symmetry_cell_setting 'monoclinic'
loop_
_space_group_symop_operation_xyz
x,y,z
-x,y,1/2-z
-x,-y,-z
x,-y,1/2+z
loop_
_atom_site_type_symbol
_atom_site_label
_atom_site_fract_x
_atom_site_fract_y
_atom_site_fract_z
Si Si1 0.281510 0.801332 0.028291
Si Si2 0.155802 0.186425 0.405492
Si Si3 0.841102 0.524098 0.348743
Si Si4 0.612305 0.984910 0.808415
O O1 0.308629 0.576419 0.078191
O O2 0.203461 0.688065 0.968249
O O3 0.067531 0.987390 0.069411
O O4 0.500000 0.000000 0.000000
O O5 0.384714 0.016454 0.369282
O O6 0.088338 0.404852 0.358708
O O7 0.730258 0.301609 0.312420
O O8 0.808641 0.797112 0.314365
O O9 0.500000 0.024348 0.750000
#
# Coordination Sequence:
#
# PCOD9237978 Si02
#       4
#     4   4   4   4
#     4  11  23  47  75 113 152 189 247 311 383 450
#     4  11  25  45  78 109 148 199 240 312 385 443
#     4  12  25  50  72 111 145 191 251 307 371 450
#     4  12  29  51  73 106 152 197 256 309 367 452
#
# _framework density 26.218357000000001
#
# number of rings (size 3 to 8) (size 9 to 14) (size 15 to 20)
#    0.000    0.500    5.000    1.500    3.500    5.000 
#    4.500    0.000    0.000    0.000    0.000    0.000 
#    0.000    0.000    0.000    0.000    0.000    0.000 
#
# Total GULP energy -89710.662105 kJ/mol
# GULP energy per Si atom -5606.916382 kJ/mol
# Density = 2.615868 g / cm^3
# Si number density = 26.218357 Si / 1000 Ang^3
#
#
#
# Elastic Constant Matrix: (Units=GPa)
#
#
# Indices 1 2 3 4 5 6 
#
# 1 53.8099 23.4979 26.1348 0.0000 -0.2803 0.0000
# 2 23.4979 99.1641 23.1498 0.0000 8.7187 0.0000
# 3 26.1348 23.1498 149.3935 0.0000 46.7900 0.0000
# 4 0.0000 0.0000 0.0000 22.0388 0.0000 16.6270
# 5 -0.2803 8.7187 46.7900 0.0000 72.2697 0.0000
# 6 0.0000 0.0000 0.0000 16.6270 0.0000 29.5495
#
#
#
# Elastic Compliance Matrix: (Units=1/GPa)
#
#
# Indices 1 2 3 4 5 6 
#
# 1 0.022755 -0.004683 -0.004340 0.000000 0.003463 0.000000
# 2 -0.004683 0.011431 -0.000645 0.000000 -0.000979 0.000000
# 3 -0.004340 -0.000645 0.009450 0.000000 -0.006057 0.000000
# 4 0.000000 0.000000 0.000000 0.078845 0.000000 -0.044364
# 5 0.003463 -0.000979 -0.006057 0.000000 0.017890 0.000000
# 6 0.000000 0.000000 0.000000 -0.044364 0.000000 0.058805
#
#
# Mechanical properties :
#
#
# Convention : Reuss Voigt Hill
#
# Bulk Modulus (GPa) = 41.15343 49.77028 45.46186
# Shear Modulus (GPa) = 22.06421 40.07727 31.07074
#
# Velocity S-wave (km/s) = 2.90411 3.91397 3.44623
# Velocity P-wave (km/s) = 5.19380 6.28090 5.76304
#
# Compressibility (1/GPa) = 0.02429931
#
# Stress axis : x y z
#
# Youngs Moduli (GPa) = 43.94682 87.48286 105.82002
#
# Poissons Ratio (x) = 0.40971 0.45921
# Poissons Ratio (y) = 0.20582 0.06828
# Poissons Ratio (z) = 0.19071 0.05645
#
# Static dielectric constant tensor:
#      x y z
#    x 2.059830 0.000000 0.028770 
#    y 0.000000 2.039400 0.000000 
#    z 0.028770 0.000000 2.087840 
# 
# From -- ./inp_files/72591.got.cif
#   From: 2010.05.17/outbox.cif.g08.bks.cpg/sg13_37_cif.got.tgz:72591.got - 2010.06.03 16:44:36.
