data_PCOD9237907
_publ_section_title
;
Structure prediction by ZEFSAII (Michael W. Deem and Ramdas Pophale) SiO2 
 PCOD9237907
Probable space group: P 2/C
;
_chemical_formula_sum "Si O2"
_cell_formula_units_Z 20
_cell_length_a 11.926418
_cell_length_b 7.534850
_cell_length_c 9.665308
_cell_angle_alpha 90.000000
_cell_angle_beta 108.165175
_cell_angle_gamma 90.000000
_cell_volume 825.273431
_symmetry_space_group_name_H-M "P 2/C"
_symmetry_group_IT_number 13
_symmetry_cell_setting 'monoclinic'
loop_
_space_group_symop_operation_xyz
x,y,z
-x,y,1/2-z
-x,-y,-z
x,-y,1/2+z
loop_
_atom_site_type_symbol
_atom_site_label
_atom_site_fract_x
_atom_site_fract_y
_atom_site_fract_z
Si Si1 0.667373 0.319387 0.763755
Si Si2 0.269499 0.580859 0.920489
Si Si3 0.503931 0.209467 0.467716
Si Si4 0.720434 0.930574 0.910852
Si Si5 0.865587 0.895147 0.702448
O O1 0.750937 0.407943 0.679151
O O2 0.550678 0.308014 0.623987
O O3 0.681792 0.120966 0.830133
O O4 0.688147 0.440203 0.906017
O O5 0.377850 0.698823 0.894590
O O6 0.155250 0.705186 0.877557
O O7 0.500000 0.000000 0.500000
O O8 0.607769 0.194964 0.394089
O O9 0.818061 0.869904 0.839315
O O10 0.781878 0.974781 0.080951
O O11 0.000000 0.952783 0.750000
#
# Coordination Sequence:
#
# PCOD9237907 Si02
#       5
#     4   4   4   4   4
#     4  11  24  44  64 105 138 181 220 273 351 409
#     4  11  26  43  68 100 144 177 224 277 349 409
#     4  12  22  42  70  99 139 173 225 284 334 408
#     4  11  23  44  71  99 134 178 232 281 335 399
#     4  11  24  45  69  97 132 179 235 284 332 399
#
# _framework density 24.234390999999999
#
# number of rings (size 3 to 8) (size 9 to 14) (size 15 to 20)
#    0.000    0.800    6.000    1.800    2.800    2.400 
#    0.000    5.000    0.000    0.000    0.000    0.000 
#    0.000    0.000    0.000    0.000    0.000    0.000 
#
# Total GULP energy -111633.406790 kJ/mol
# GULP energy per Si atom -5581.670339 kJ/mol
# Density = 2.417923 g / cm^3
# Si number density = 24.234391 Si / 1000 Ang^3
#
#
#
# Elastic Constant Matrix: (Units=GPa)
#
#
# Indices 1 2 3 4 5 6 
#
# 1 77.9481 -16.2185 26.4984 0.0000 1.9264 0.0000
# 2 -16.2185 81.2157 8.1791 0.0000 2.5515 0.0000
# 3 26.4984 8.1791 144.3478 0.0000 -22.6325 0.0000
# 4 0.0000 0.0000 0.0000 34.9903 0.0000 -14.1442
# 5 1.9264 2.5515 -22.6325 0.0000 38.9189 0.0000
# 6 0.0000 0.0000 0.0000 -14.1442 0.0000 25.2439
#
#
#
# Elastic Compliance Matrix: (Units=1/GPa)
#
#
# Indices 1 2 3 4 5 6 
#
# 1 0.014742 0.003373 -0.003352 0.000000 -0.002900 0.000000
# 2 0.003373 0.013219 -0.001684 0.000000 -0.002013 0.000000
# 3 -0.003352 -0.001684 0.008452 0.000000 0.005192 0.000000
# 4 0.000000 0.000000 0.000000 0.036948 0.000000 0.020702
# 5 -0.002900 -0.002013 0.005192 0.000000 0.028989 0.000000
# 6 0.000000 0.000000 0.000000 0.020702 0.000000 0.051213
#
#
# Mechanical properties :
#
#
# Convention : Reuss Voigt Hill
#
# Bulk Modulus (GPa) = 30.22309 37.82553 34.02431
# Shear Modulus (GPa) = 29.77630 38.83412 34.30521
#
# Velocity S-wave (km/s) = 3.50906 4.00739 3.76647
# Velocity P-wave (km/s) = 5.37738 6.08723 5.74328
#
# Compressibility (1/GPa) = 0.03308729
#
# Stress axis : x y z
#
# Youngs Moduli (GPa) = 67.83352 75.64766 118.30857
#
# Poissons Ratio (x) = -0.25513 0.39658
# Poissons Ratio (y) = -0.22878 0.19920
# Poissons Ratio (z) = 0.22738 0.12737
#
# Static dielectric constant tensor:
#      x y z
#    x 1.969910 0.000000 -0.080710 
#    y 0.000000 2.039580 0.000000 
#    z -0.080710 0.000000 1.984100 
# 
# From -- ./inp_files/14985.got.cif
#   From: 2010.05.17/outbox.cif.g08.bks.cpg/sg13_8_cif.got.tgz:14985.got - 2010.06.03 16:44:36.
