data_PCOD9237021
_publ_section_title
;
Structure prediction by ZEFSAII (Michael W. Deem and Ramdas Pophale) SiO2 
 PCOD9237021
Probable space group: P 2/C
;
_chemical_formula_sum "Si O2"
_cell_formula_units_Z 14
_cell_length_a 5.285134
_cell_length_b 9.756508
_cell_length_c 10.823421
_cell_angle_alpha 90.000000
_cell_angle_beta 103.444236
_cell_angle_gamma 90.000000
_cell_volume 542.809869
_symmetry_space_group_name_H-M "P 2/C"
_symmetry_group_IT_number 13
_symmetry_cell_setting 'monoclinic'
loop_
_space_group_symop_operation_xyz
x,y,z
-x,y,1/2-z
-x,-y,-z
x,-y,1/2+z
loop_
_atom_site_type_symbol
_atom_site_label
_atom_site_fract_x
_atom_site_fract_y
_atom_site_fract_z
Si Si1 0.153326 0.531348 0.647765
Si Si2 0.500000 0.000507 0.250000
Si Si3 0.418242 0.767460 0.544480
Si Si4 0.836353 0.767012 0.376024
O O1 0.377067 0.631482 0.623022
O O2 0.215840 0.377171 0.697800
O O3 0.000000 0.593187 0.750000
O O4 0.132634 0.785182 0.452329
O O5 0.259665 0.897315 0.210788
O O6 0.510710 0.100944 0.366822
O O7 0.646419 0.754730 0.472249
O O8 0.000000 0.500000 0.500000
#
# Coordination Sequence:
#
# PCOD9237021 Si02
#       4
#     4   2   4   4
#     4  10  25  49  81 111 152 198 260 321 377 449
#     4  12  28  44  84 100 166 194 256 304 396 452
#     4  11  27  49  74 114 151 197 257 313 382 454
#     4  11  27  49  74 114 151 197 257 313 382 454
#
# _framework density 25.791720000000002
#
# number of rings (size 3 to 8) (size 9 to 14) (size 15 to 20)
#    0.000    1.143    0.000    2.571   16.000    3.429 
#    0.000    0.000    0.000    0.000    0.000    0.000 
#    0.000    0.000    0.000    0.000    0.000    0.000 
#
# Total GULP energy -78406.645957 kJ/mol
# GULP energy per Si atom -5600.474711 kJ/mol
# Density = 2.573302 g / cm^3
# Si number density = 25.791720 Si / 1000 Ang^3
#
#
#
# Elastic Constant Matrix: (Units=GPa)
#
#
# Indices 1 2 3 4 5 6 
#
# 1 139.4140 30.8747 97.2965 0.0000 -29.3204 0.0000
# 2 30.8747 186.1210 50.6010 0.0000 -16.3262 0.0000
# 3 97.2965 50.6010 145.2398 0.0000 -36.5077 0.0000
# 4 0.0000 0.0000 0.0000 364.5433 0.0000 145.2653
# 5 -29.3204 -16.3262 -36.5077 0.0000 64.6842 0.0000
# 6 0.0000 0.0000 0.0000 145.2653 0.0000 94.9458
#
#
#
# Elastic Compliance Matrix: (Units=1/GPa)
#
#
# Indices 1 2 3 4 5 6 
#
# 1 0.013561 0.000269 -0.008875 0.000000 0.001206 0.000000
# 2 0.000269 0.005949 -0.002150 0.000000 0.000410 0.000000
# 3 -0.008875 -0.002150 0.014487 0.000000 0.003611 0.000000
# 4 0.000000 0.000000 0.000000 0.007028 0.000000 -0.010753
# 5 0.001206 0.000410 0.003611 0.000000 0.018148 0.000000
# 6 0.000000 0.000000 0.000000 -0.010753 0.000000 0.026984
#
#
# Mechanical properties :
#
#
# Convention : Reuss Voigt Hill
#
# Bulk Modulus (GPa) = 80.09386 92.03545 86.06466
# Shear Modulus (GPa) = 44.71122 124.30151 84.50637
#
# Velocity S-wave (km/s) = 4.16811 6.94975 5.73027
# Velocity P-wave (km/s) = 7.36788 10.00801 8.78766
#
# Compressibility (1/GPa) = 0.01248535
#
# Stress axis : x y z
#
# Youngs Moduli (GPa) = 73.74242 168.10638 69.02656
#
# Poissons Ratio (x) = -0.04524 0.61261
# Poissons Ratio (y) = -0.01985 0.14838
# Poissons Ratio (z) = 0.65447 0.36137
#
# Static dielectric constant tensor:
#      x y z
#    x 2.052960 0.000000 0.033280 
#    y 0.000000 2.025210 0.000000 
#    z 0.033280 0.000000 2.151300 
# 
# From -- ./inp_files/25448.got.cif
#   From: 2010.05.17/outbox.cif.g08.bks.cpg/sg13_13_cif.got.tgz:25448.got - 2010.06.03 16:44:36.
