data_PCOD9237030
_publ_section_title
;
Structure prediction by ZEFSAII (Michael W. Deem and Ramdas Pophale) SiO2 
 PCOD9237030
Probable space group: P 2/C
;
_chemical_formula_sum "Si O2"
_cell_formula_units_Z 16
_cell_length_a 12.381506
_cell_length_b 5.227005
_cell_length_c 24.038413
_cell_angle_alpha 90.000000
_cell_angle_beta 157.621058
_cell_angle_gamma 90.000000
_cell_volume 592.311149
_symmetry_space_group_name_H-M "P 2/C"
_symmetry_group_IT_number 13
_symmetry_cell_setting 'monoclinic'
loop_
_space_group_symop_operation_xyz
x,y,z
-x,y,1/2-z
-x,-y,-z
x,-y,1/2+z
loop_
_atom_site_type_symbol
_atom_site_label
_atom_site_fract_x
_atom_site_fract_y
_atom_site_fract_z
Si Si1 0.736712 0.310029 0.086631
Si Si2 0.196550 0.162169 0.134681
Si Si3 0.154175 0.523596 0.474366
Si Si4 0.495470 0.036336 0.623937
O O1 0.908230 0.468423 0.120242
O O2 0.000000 0.217224 0.250000
O O3 0.554431 0.097947 0.965074
O O4 0.500000 0.500000 0.000000
O O5 0.500000 0.168843 0.250000
O O6 0.218563 0.025354 0.206430
O O7 0.093285 0.446602 0.101786
O O8 0.000000 0.000000 0.000000
O O9 0.315834 0.786273 0.551902
O O10 0.375509 0.294916 0.593273
#
# Coordination Sequence:
#
# PCOD9237030 Si02
#       4
#     4   4   4   4
#     4  10  25  51  85 122 167 223 278 354 441 511
#     4  12  25  55  85 128 171 235 289 370 439 511
#     4  10  26  49  79 117 170 213 285 346 425 519
#     4  10  26  51  79 121 169 212 292 341 427 522
#
# _framework density 27.012830999999998
#
# number of rings (size 3 to 8) (size 9 to 14) (size 15 to 20)
#    1.500    0.000    2.500    0.000    3.500    7.000 
#    4.500    0.000    0.000    0.000    0.000    0.000 
#    0.000    0.000    0.000    0.000    0.000    0.000 
#
# Total GULP energy -89379.814134 kJ/mol
# GULP energy per Si atom -5586.238383 kJ/mol
# Density = 2.695135 g / cm^3
# Si number density = 27.012831 Si / 1000 Ang^3
#
#
#
# Elastic Constant Matrix: (Units=GPa)
#
#
# Indices 1 2 3 4 5 6 
#
# 1 144.1491 49.1965 76.1931 0.0000 -16.4152 0.0000
# 2 49.1965 185.2028 83.0959 0.0000 -0.0288 0.0000
# 3 76.1931 83.0959 188.2927 0.0000 -36.6349 0.0000
# 4 0.0000 0.0000 0.0000 41.8120 0.0000 6.4725
# 5 -16.4152 -0.0288 -36.6349 0.0000 62.3368 0.0000
# 6 0.0000 0.0000 0.0000 6.4725 0.0000 61.9982
#
#
#
# Elastic Compliance Matrix: (Units=1/GPa)
#
#
# Indices 1 2 3 4 5 6 
#
# 1 0.008970 -0.001000 -0.003081 0.000000 0.000551 0.000000
# 2 -0.001000 0.007065 -0.003121 0.000000 -0.002094 0.000000
# 3 -0.003081 -0.003121 0.008781 0.000000 0.004348 0.000000
# 4 0.000000 0.000000 0.000000 0.024309 0.000000 -0.002538
# 5 0.000551 -0.002094 0.004348 0.000000 0.018741 0.000000
# 6 0.000000 0.000000 0.000000 -0.002538 0.000000 0.016394
#
#
# Mechanical properties :
#
#
# Convention : Reuss Voigt Hill
#
# Bulk Modulus (GPa) = 96.04485 103.84619 99.94552
# Shear Modulus (GPa) = 48.95488 53.84000 51.39744
#
# Velocity S-wave (km/s) = 4.26171 4.46929 4.36673
# Velocity P-wave (km/s) = 7.73619 8.07214 7.90595
#
# Compressibility (1/GPa) = 0.01041180
#
# Stress axis : x y z
#
# Youngs Moduli (GPa) = 111.48325 141.54345 113.88647
#
# Poissons Ratio (x) = 0.14158 0.35090
# Poissons Ratio (y) = 0.11151 0.35539
# Poissons Ratio (z) = 0.34349 0.44169
#
# Static dielectric constant tensor:
#      x y z
#    x 2.253510 0.000000 -0.028720 
#    y 0.000000 2.120170 0.000000 
#    z -0.028720 0.000000 2.229180 
# 
# From -- ./inp_files/92597.got.cif
#   From: 2010.05.17/outbox.cif.g08.bks.cpg/sg13_47_cif.got.tgz:92597.got - 2010.06.03 16:44:36.
