data_PCOD9237471
_publ_section_title
;
Structure prediction by ZEFSAII (Michael W. Deem and Ramdas Pophale) SiO2 
 PCOD9237471
Probable space group: P 2/C
;
_chemical_formula_sum "Si O2"
_cell_formula_units_Z 16
_cell_length_a 8.366123
_cell_length_b 18.568512
_cell_length_c 5.347552
_cell_angle_alpha 90.000000
_cell_angle_beta 121.189424
_cell_angle_gamma 90.000000
_cell_volume 710.650398
_symmetry_space_group_name_H-M "P 2/C"
_symmetry_group_IT_number 13
_symmetry_cell_setting 'monoclinic'
loop_
_space_group_symop_operation_xyz
x,y,z
-x,y,1/2-z
-x,-y,-z
x,-y,1/2+z
loop_
_atom_site_type_symbol
_atom_site_label
_atom_site_fract_x
_atom_site_fract_y
_atom_site_fract_z
Si Si1 0.000000 0.746706 0.250000
Si Si2 0.500000 0.699470 0.250000
Si Si3 0.368054 0.169590 0.929807
Si Si4 0.500000 0.547316 0.750000
Si Si5 0.500000 0.048559 0.750000
Si Si6 0.166658 0.374693 0.233456
O O1 0.830088 0.799716 0.162315
O O2 0.063618 0.693076 0.522886
O O3 0.522803 0.756641 0.048789
O O4 0.680314 0.651797 0.441918
O O5 0.343976 0.109798 0.691657
O O6 0.500000 0.136731 0.250000
O O7 0.500000 0.500000 0.500000
O O8 0.695840 0.590580 0.866512
O O9 0.500000 0.000000 0.500000
O O10 0.000000 0.415707 0.250000
#
# Coordination Sequence:
#
# PCOD9237471 Si02
#       6
#     2   2   4   2   2   4
#     4  12  24  42  72 120 138 178 248 312 398 432
#     4  11  21  42  68 112 145 183 238 312 386 435
#     4  11  22  40  72 105 151 185 236 313 367 437
#     4  12  31  54  74 106 153 208 260 300 364 462
#     4  11  24  46  72  98 144 211 250 282 358 443
#     4  12  26  45  79 108 152 192 246 318 386 450
#
# _framework density 22.514588
#
# number of rings (size 3 to 8) (size 9 to 14) (size 15 to 20)
#    0.000    0.500    6.250    2.250    3.500    1.000 
#    0.000    1.250    0.000    0.000    0.000    0.000 
#    0.000    0.000    0.000    0.000    0.000    0.000 
#
# Total GULP energy -89113.393777 kJ/mol
# GULP energy per Si atom -5569.587111 kJ/mol
# Density = 2.246334 g / cm^3
# Si number density = 22.514588 Si / 1000 Ang^3
#
#
#
# Elastic Constant Matrix: (Units=GPa)
#
#
# Indices 1 2 3 4 5 6 
#
# 1 200.8128 70.5975 49.3690 0.0000 -0.5301 0.0000
# 2 70.5975 83.7658 42.6381 0.0000 -10.2602 0.0000
# 3 49.3690 42.6381 112.7318 0.0000 -9.6656 0.0000
# 4 0.0000 0.0000 0.0000 29.2796 0.0000 -11.8101
# 5 -0.5301 -10.2602 -9.6656 0.0000 43.1931 0.0000
# 6 0.0000 0.0000 0.0000 -11.8101 0.0000 1.9982
#
#
#
# Elastic Compliance Matrix: (Units=1/GPa)
#
#
# Indices 1 2 3 4 5 6 
#
# 1 0.007273 -0.005733 -0.001148 0.000000 -0.001529 0.000000
# 2 -0.005733 0.019532 -0.004573 0.000000 0.003546 0.000000
# 3 -0.001148 -0.004573 0.011224 0.000000 0.001411 0.000000
# 4 0.000000 0.000000 0.000000 -0.024678 0.000000 -0.145856
# 5 -0.001529 0.003546 0.001411 0.000000 0.024291 0.000000
# 6 0.000000 0.000000 0.000000 -0.145856 0.000000 -0.361607
#
#
# Mechanical properties :
#
#
# Convention : Reuss Voigt Hill
#
# Bulk Modulus (GPa) = 66.13072 80.27994 73.20533
# Shear Modulus (GPa) = -16.89093 30.54123 6.82515
#
# Velocity S-wave (km/s) = -2.74199 3.68708 1.74299
# Velocity P-wave (km/s) = 4.40585 7.33896 6.05276
#
# Compressibility (1/GPa) = 0.01512157
#
# Stress axis : x y z
#
# Youngs Moduli (GPa) = 137.48619 51.19879 89.09559
#
# Poissons Ratio (x) = 0.29352 0.10229
# Poissons Ratio (y) = 0.78821 0.40741
# Poissons Ratio (z) = 0.15784 0.23412
#
# Static dielectric constant tensor:
#      x y z
#    x 1.967160 0.000000 -0.035180 
#    y 0.000000 1.852400 0.000000 
#    z -0.035180 0.000000 2.014330 
# 
# From -- ./inp_files/1427.got.cif
#   From: 2010.05.17/outbox.cif.g08.bks.cpg/sg13_1_cif.got.tgz:1427.got - 2010.06.03 16:44:36.
