data_PCOD9237266
_publ_section_title
;
Structure prediction by ZEFSAII (Michael W. Deem and Ramdas Pophale) SiO2 
 PCOD9237266
Probable space group: P 2/C
;
_chemical_formula_sum "Si O2"
_cell_formula_units_Z 28
_cell_length_a 23.658047
_cell_length_b 7.878461
_cell_length_c 14.027633
_cell_angle_alpha 90.000000
_cell_angle_beta 155.004231
_cell_angle_gamma 90.000000
_cell_volume 1104.801238
_symmetry_space_group_name_H-M "P 2/C"
_symmetry_group_IT_number 13
_symmetry_cell_setting 'monoclinic'
loop_
_space_group_symop_operation_xyz
x,y,z
-x,y,1/2-z
-x,-y,-z
x,-y,1/2+z
loop_
_atom_site_type_symbol
_atom_site_label
_atom_site_fract_x
_atom_site_fract_y
_atom_site_fract_z
Si Si1 0.587755 0.612901 0.561517
Si Si2 0.108210 0.849521 0.683006
Si Si3 0.803211 0.654406 0.052935
Si Si4 0.852409 0.983982 0.567922
Si Si5 0.682823 0.659626 0.072472
Si Si6 0.025840 0.388703 0.399167
Si Si7 0.660729 0.037204 0.102697
O O1 0.500000 0.500000 0.500000
O O2 0.596039 0.490822 0.483591
O O3 0.561578 0.809459 0.485768
O O4 0.723615 0.628578 0.832344
O O5 0.024510 0.681804 0.573490
O O6 0.227734 0.869351 0.792660
O O7 0.164139 0.844181 0.876975
O O8 0.000000 0.000000 0.500000
O O9 0.828529 0.852319 0.095945
O O10 0.718567 0.616772 0.018088
O O11 0.943778 0.560699 0.263658
O O12 0.741124 0.978131 0.318557
O O13 0.000000 0.008517 0.750000
O O14 0.817949 0.641103 0.342801
O O15 0.627947 0.854026 0.003412
O O16 0.000000 0.317336 0.250000
#
# Coordination Sequence:
#
# PCOD9237266 Si02
#       7
#     4   4   4   4   4   4   4
#     4  11  28  50  71  98 135 188 255 305 345 407
#     4  12  20  34  57  97 142 176 215 267 343 437
#     4  11  24  40  68  99 142 184 231 293 355 431
#     4  11  20  33  57  95 142 178 216 262 338 429
#     4  12  23  44  70 102 143 181 231 288 368 431
#     4  12  22  37  62 104 143 185 220 277 363 447
#     4  11  24  42  67 102 137 184 223 291 357 418
#
# _framework density 25.343924999999999
#
# number of rings (size 3 to 8) (size 9 to 14) (size 15 to 20)
#    0.000    0.571    5.714    3.000    2.000    1.143 
#    0.000    0.000    0.000    1.714    0.000    0.000 
#    0.000    0.000    0.000    0.000    0.000    0.000 
#
# Total GULP energy -156083.458116 kJ/mol
# GULP energy per Si atom -5574.409218 kJ/mol
# Density = 2.528624 g / cm^3
# Si number density = 25.343925 Si / 1000 Ang^3
#
#
#
# Elastic Constant Matrix: (Units=GPa)
#
#
# Indices 1 2 3 4 5 6 
#
# 1 151.0375 25.8730 6.6474 0.0000 -23.2177 0.0000
# 2 25.8730 99.1450 9.4574 0.0000 4.5932 0.0000
# 3 6.6474 9.4574 69.7793 0.0000 -16.0591 0.0000
# 4 0.0000 0.0000 0.0000 -6.6274 0.0000 -36.8519
# 5 -23.2177 4.5932 -16.0591 0.0000 20.8648 0.0000
# 6 0.0000 0.0000 0.0000 -36.8519 0.0000 -47.2475
#
#
#
# Elastic Compliance Matrix: (Units=1/GPa)
#
#
# Indices 1 2 3 4 5 6 
#
# 1 0.008993 -0.003167 0.002474 0.000000 0.012608 0.000000
# 2 -0.003167 0.011620 -0.003248 0.000000 -0.008582 0.000000
# 3 0.002474 -0.003248 0.018634 0.000000 0.017811 0.000000
# 4 0.000000 0.000000 0.000000 0.045216 0.000000 -0.035267
# 5 0.012608 -0.008582 0.017811 0.000000 0.077556 0.000000
# 6 0.000000 0.000000 0.000000 -0.035267 0.000000 0.006342
#
#
# Mechanical properties :
#
#
# Convention : Reuss Voigt Hill
#
# Bulk Modulus (GPa) = 31.88239 44.87971 38.38105
# Shear Modulus (GPa) = 26.78120 11.93024 19.35572
#
# Velocity S-wave (km/s) = 3.25424 2.17199 2.76655
# Velocity P-wave (km/s) = 5.16984 4.90273 5.03806
#
# Compressibility (1/GPa) = 0.03136527
#
# Stress axis : x y z
#
# Youngs Moduli (GPa) = 111.20222 86.05760 53.66393
#
# Poissons Ratio (x) = 0.27253 -0.13278
# Poissons Ratio (y) = 0.35216 0.17432
# Poissons Ratio (z) = -0.27514 0.27955
#
# Static dielectric constant tensor:
#      x y z
#    x 2.039570 0.000000 0.149190 
#    y 0.000000 4.341730 0.000000 
#    z 0.149190 0.000000 2.444800 
# 
# From -- ./inp_files/57502.got.cif
#   From: 2010.05.17/outbox.cif.g08.bks.cpg/sg13_29_cif.got.tgz:57502.got - 2010.06.03 16:44:36.
