data_PCOD9237300
_publ_section_title
;
Structure prediction by ZEFSAII (Michael W. Deem and Ramdas Pophale) SiO2 
 PCOD9237300
Probable space group: P 2/C
;
_chemical_formula_sum "Si O2"
_cell_formula_units_Z 26
_cell_length_a 8.686945
_cell_length_b 10.131392
_cell_length_c 15.373081
_cell_angle_alpha 90.000000
_cell_angle_beta 122.283775
_cell_angle_gamma 90.000000
_cell_volume 1143.842130
_symmetry_space_group_name_H-M "P 2/C"
_symmetry_group_IT_number 13
_symmetry_cell_setting 'monoclinic'
loop_
_space_group_symop_operation_xyz
x,y,z
-x,y,1/2-z
-x,-y,-z
x,-y,1/2+z
loop_
_atom_site_type_symbol
_atom_site_label
_atom_site_fract_x
_atom_site_fract_y
_atom_site_fract_z
Si Si1 0.797335 0.753191 0.725963
Si Si2 0.569007 0.721759 0.121476
Si Si3 0.786386 0.106962 0.956687
Si Si4 0.500000 0.562981 0.250000
Si Si5 0.800787 0.977748 0.151775
Si Si6 0.194277 0.826030 0.578690
Si Si7 0.552532 0.615415 0.931443
O O1 0.804644 0.748385 0.830756
O O2 0.659122 0.649700 0.645684
O O3 0.000000 0.742307 0.750000
O O4 0.720719 0.897106 0.678350
O O5 0.366805 0.782474 0.077173
O O6 0.630065 0.657169 0.231194
O O7 0.684374 0.848389 0.129495
O O8 0.576189 0.615855 0.044456
O O9 0.739671 0.977379 0.886007
O O10 0.981874 0.163597 0.987211
O O11 0.813694 0.034505 0.058347
O O12 0.411380 0.482346 0.141522
O O13 0.000000 0.953538 0.250000
O O14 0.323828 0.743251 0.555628
#
# Coordination Sequence:
#
# PCOD9237300 Si02
#       7
#     4   4   4   2   4   4   4
#     4  11  20  37  68 104 135 171 213 270 336 418
#     4  12  26  45  68  95 136 178 226 281 333 393
#     4  11  22  39  67 108 136 167 211 274 355 415
#     4  12  30  46  66  92 132 184 248 280 312 378
#     4  11  21  39  67 106 139 166 206 271 356 409
#     4  11  21  36  68 104 138 168 211 273 337 425
#     4  12  23  46  71  91 132 182 232 271 330 384
#
# _framework density 22.730409000000002
#
# number of rings (size 3 to 8) (size 9 to 14) (size 15 to 20)
#    0.000    0.615    7.692    1.846    2.154    0.000 
#    0.000    1.538    0.000    0.000    0.000    0.000 
#    0.000    0.000    0.000    0.000    0.000    0.000 
#
# Total GULP energy -145058.999022 kJ/mol
# GULP energy per Si atom -5579.192270 kJ/mol
# Density = 2.267867 g / cm^3
# Si number density = 22.730409 Si / 1000 Ang^3
#
#
#
# Elastic Constant Matrix: (Units=GPa)
#
#
# Indices 1 2 3 4 5 6 
#
# 1 86.9859 37.9473 51.3765 0.0000 -13.8395 0.0000
# 2 37.9473 85.2298 38.2529 0.0000 1.5584 0.0000
# 3 51.3765 38.2529 109.1725 0.0000 -32.8366 0.0000
# 4 0.0000 0.0000 0.0000 37.1658 0.0000 -6.0907
# 5 -13.8395 1.5584 -32.8366 0.0000 42.1737 0.0000
# 6 0.0000 0.0000 0.0000 -6.0907 0.0000 -21.4038
#
#
#
# Elastic Compliance Matrix: (Units=1/GPa)
#
#
# Indices 1 2 3 4 5 6 
#
# 1 0.017503 -0.005075 -0.006104 0.000000 0.001178 0.000000
# 2 -0.005075 0.016499 -0.005324 0.000000 -0.006420 0.000000
# 3 -0.006104 -0.005324 0.017439 0.000000 0.011771 0.000000
# 4 0.000000 0.000000 0.000000 0.025708 0.000000 -0.007315
# 5 0.001178 -0.006420 0.011771 0.000000 0.033501 0.000000
# 6 0.000000 0.000000 0.000000 -0.007315 0.000000 -0.044639
#
#
# Mechanical properties :
#
#
# Convention : Reuss Voigt Hill
#
# Bulk Modulus (GPa) = 54.24614 59.61573 56.93094
# Shear Modulus (GPa) = 47.54618 21.84125 34.69372
#
# Velocity S-wave (km/s) = 4.57852 3.10317 3.91104
# Velocity P-wave (km/s) = 7.20189 6.25490 6.74504
#
# Compressibility (1/GPa) = 0.01843449
#
# Stress axis : x y z
#
# Youngs Moduli (GPa) = 57.13393 60.60827 57.34416
#
# Poissons Ratio (x) = 0.30757 0.35004
# Poissons Ratio (y) = 0.28993 0.30531
# Poissons Ratio (z) = 0.34876 0.32269
#
# Static dielectric constant tensor:
#      x y z
#    x 1.845870 0.000000 -0.049290 
#    y 0.000000 1.958440 0.000000 
#    z -0.049290 0.000000 1.917400 
# 
# From -- ./inp_files/47047.got.cif
#   From: 2010.05.17/outbox.cif.g08.bks.cpg/sg13_24_cif.got.tgz:47047.got - 2010.06.03 16:44:36.
