data_PCOD9237813
_publ_section_title
;
Structure prediction by ZEFSAII (Michael W. Deem and Ramdas Pophale) SiO2 
 PCOD9237813
Probable space group: P 2/C
;
_chemical_formula_sum "Si O2"
_cell_formula_units_Z 12
_cell_length_a 4.754560
_cell_length_b 6.678820
_cell_length_c 15.869690
_cell_angle_alpha 90.000000
_cell_angle_beta 83.783718
_cell_angle_gamma 90.000000
_cell_volume 500.976585
_symmetry_space_group_name_H-M "P 2/C"
_symmetry_group_IT_number 13
_symmetry_cell_setting 'monoclinic'
loop_
_space_group_symop_operation_xyz
x,y,z
-x,y,1/2-z
-x,-y,-z
x,-y,1/2+z
loop_
_atom_site_type_symbol
_atom_site_label
_atom_site_fract_x
_atom_site_fract_y
_atom_site_fract_z
Si Si1 0.078310 0.697303 0.649379
Si Si2 0.770336 0.695490 0.192203
Si Si3 0.389399 0.932415 0.913714
O O1 0.959576 0.472635 0.639782
O O2 0.916519 0.834429 0.587040
O O3 0.000000 0.738218 0.750000
O O4 0.401011 0.760938 0.627944
O O5 0.500000 0.602097 0.250000
O O6 0.000000 0.784689 0.250000
O O7 0.632598 0.868491 0.141731
O O8 0.500000 0.000000 0.000000
#
# Coordination Sequence:
#
# PCOD9237813 Si02
#       3
#     4   4   4
#     4  11  23  42  66  92 127 176 228 273 325 396
#     4  11  23  42  69  96 129 178 231 279 328 394
#     4  12  25  40  64  99 137 173 214 276 344 400
#
# _framework density 23.953213000000002
#
# number of rings (size 3 to 8) (size 9 to 14) (size 15 to 20)
#    0.000    0.667    0.000   11.000    0.000    2.667 
#    0.000    0.000    0.000    0.000    0.000    0.000 
#    0.000    0.000    0.000    0.000    0.000    0.000 
#
# Total GULP energy -67106.469170 kJ/mol
# GULP energy per Si atom -5592.205764 kJ/mol
# Density = 2.389869 g / cm^3
# Si number density = 23.953213 Si / 1000 Ang^3
#
#
#
# Elastic Constant Matrix: (Units=GPa)
#
#
# Indices 1 2 3 4 5 6 
#
# 1 136.0776 37.1257 41.7129 0.0000 10.3527 0.0000
# 2 37.1257 135.8484 17.9575 0.0000 1.1501 0.0000
# 3 41.7129 17.9575 59.9511 0.0000 32.5761 0.0000
# 4 0.0000 0.0000 0.0000 -168.5131 0.0000 86.0634
# 5 10.3527 1.1501 32.5761 0.0000 44.9199 0.0000
# 6 0.0000 0.0000 0.0000 86.0634 0.0000 -8.2657
#
#
#
# Elastic Compliance Matrix: (Units=1/GPa)
#
#
# Indices 1 2 3 4 5 6 
#
# 1 0.010192 -0.001654 -0.008817 0.000000 0.004087 0.000000
# 2 -0.001654 0.008097 -0.002259 0.000000 0.001812 0.000000
# 3 -0.008817 -0.002259 0.036894 0.000000 -0.024666 0.000000
# 4 0.000000 0.000000 0.000000 0.001374 0.000000 0.014310
# 5 0.004087 0.001812 -0.024666 0.000000 0.039161 0.000000
# 6 0.000000 0.000000 0.000000 0.014310 0.000000 0.028020
#
#
# Mechanical properties :
#
#
# Convention : Reuss Voigt Hill
#
# Bulk Modulus (GPa) = 33.64387 58.38546 46.01467
# Shear Modulus (GPa) = 31.42561 -10.69973 10.36294
#
# Velocity S-wave (km/s) = 3.62603 -2.11580 2.08224
# Velocity P-wave (km/s) = 5.62200 4.29638 5.00329
#
# Compressibility (1/GPa) = 0.02972310
#
# Stress axis : x y z
#
# Youngs Moduli (GPa) = 98.11796 123.50995 27.10440
#
# Poissons Ratio (x) = 0.20434 0.23897
# Poissons Ratio (y) = 0.16233 0.06122
# Poissons Ratio (z) = 0.86508 0.27897
#
# Static dielectric constant tensor:
#      x y z
#    x 1.847140 0.000000 -0.010690 
#    y 0.000000 1.960020 0.000000 
#    z -0.010690 0.000000 1.916640 
# 
# From -- ./inp_files/60105.got.cif
#   From: 2010.05.17/outbox.cif.g08.bks.cpg/sg13_31_cif.got.tgz:60105.got - 2010.06.03 16:44:36.
