data_PCOD9237329
_publ_section_title
;
Structure prediction by ZEFSAII (Michael W. Deem and Ramdas Pophale) SiO2 
 PCOD9237329
Probable space group: P 2/C
;
_chemical_formula_sum "Si O2"
_cell_formula_units_Z 32
_cell_length_a 17.803537
_cell_length_b 15.370178
_cell_length_c 11.884512
_cell_angle_alpha 90.000000
_cell_angle_beta 27.716683
_cell_angle_gamma 90.000000
_cell_volume 1512.560385
_symmetry_space_group_name_H-M "P 2/C"
_symmetry_group_IT_number 13
_symmetry_cell_setting 'monoclinic'
loop_
_space_group_symop_operation_xyz
x,y,z
-x,y,1/2-z
-x,-y,-z
x,-y,1/2+z
loop_
_atom_site_type_symbol
_atom_site_label
_atom_site_fract_x
_atom_site_fract_y
_atom_site_fract_z
Si Si1 0.275862 0.257675 0.816763
Si Si2 0.827268 0.901563 0.416808
Si Si3 0.169993 0.098629 0.092584
Si Si4 0.758485 0.587039 0.497354
Si Si5 0.423107 0.764026 0.740734
Si Si6 0.016979 0.801273 0.481938
Si Si7 0.089184 0.374608 0.463566
Si Si8 0.675547 0.602320 0.058868
O O1 0.438380 0.262636 0.529252
O O2 0.121231 0.249066 0.939214
O O3 0.264933 0.337662 0.917414
O O4 0.278288 0.168365 0.884517
O O5 0.703837 0.834141 0.636684
O O6 0.864407 0.863544 0.243939
O O7 0.000000 0.901253 0.250000
O O8 0.767336 0.000562 0.488118
O O9 0.000000 0.095187 0.250000
O O10 0.119801 0.140701 0.277937
O O11 0.664025 0.676173 0.601675
O O12 0.821145 0.597151 0.541930
O O13 0.661814 0.498018 0.614285
O O14 0.911901 0.583346 0.210006
O O15 0.500000 0.805961 0.750000
O O16 0.945261 0.728648 0.494793
O O17 0.196804 0.393086 0.212183
O O18 0.500000 0.633479 0.250000
#
# Coordination Sequence:
#
# PCOD9237329 Si02
#       8
#     4   4   4   4   4   4   4   4
#     4  11  24  43  67  96 133 176 221 278 339 399
#     4  11  22  40  69  99 131 177 225 276 332 403
#     4   9  21  40  66  99 130 172 222 274 333 402
#     4  11  25  43  68  98 135 171 228 272 328 396
#     4  12  23  41  66  94 136 178 220 275 342 394
#     4  11  20  41  71  94 136 172 220 274 340 395
#     4  11  23  43  69  99 130 173 223 272 330 390
#     4  12  27  45  67  96 136 179 221 274 339 395
#
# _framework density 21.156179999999999
#
# number of rings (size 3 to 8) (size 9 to 14) (size 15 to 20)
#    0.000    1.000    3.750    2.625    0.000    6.500 
#    0.000    0.625    0.000    0.000    0.000    0.000 
#    0.000    0.000    0.000    0.000    0.000    0.000 
#
# Total GULP energy -178883.469258 kJ/mol
# GULP energy per Si atom -5590.108414 kJ/mol
# Density = 2.110803 g / cm^3
# Si number density = 21.156180 Si / 1000 Ang^3
#
#
#
# Elastic Constant Matrix: (Units=GPa)
#
#
# Indices 1 2 3 4 5 6 
#
# 1 54.1604 26.2501 28.0485 0.0000 4.5242 0.0000
# 2 26.2501 112.2003 18.2421 0.0000 -4.1785 0.0000
# 3 28.0485 18.2421 111.2063 0.0000 16.2694 0.0000
# 4 0.0000 0.0000 0.0000 5.7179 0.0000 -9.1520
# 5 4.5242 -4.1785 16.2694 0.0000 29.3366 0.0000
# 6 0.0000 0.0000 0.0000 -9.1520 0.0000 127.3233
#
#
#
# Elastic Compliance Matrix: (Units=1/GPa)
#
#
# Indices 1 2 3 4 5 6 
#
# 1 0.023433 -0.004744 -0.004902 0.000000 -0.001571 0.000000
# 2 -0.004744 0.010265 -0.000880 0.000000 0.002682 0.000000
# 3 -0.004902 -0.000880 0.011189 0.000000 -0.005574 0.000000
# 4 0.000000 0.000000 0.000000 0.197626 0.000000 0.014205
# 5 -0.001571 0.002682 -0.005574 0.000000 0.037803 0.000000
# 6 0.000000 0.000000 0.000000 0.014205 0.000000 0.008875
#
#
# Mechanical properties :
#
#
# Convention : Reuss Voigt Hill
#
# Bulk Modulus (GPa) = 41.95478 46.96094 44.45786
# Shear Modulus (GPa) = 15.71402 46.14399 30.92901
#
# Velocity S-wave (km/s) = 2.72832 4.67530 3.82768
# Velocity P-wave (km/s) = 5.45885 7.16869 6.37139
#
# Compressibility (1/GPa) = 0.02383519
#
# Stress axis : x y z
#
# Youngs Moduli (GPa) = 42.67521 97.41497 89.37692
#
# Poissons Ratio (x) = 0.46211 0.43815
# Poissons Ratio (y) = 0.20244 0.07863
# Poissons Ratio (z) = 0.20921 0.08570
#
# Static dielectric constant tensor:
#      x y z
#    x 1.793670 0.000000 -0.011280 
#    y 0.000000 1.742490 0.000000 
#    z -0.011280 0.000000 1.758810 
# 
# From -- ./inp_files/39452.got.cif
#   From: 2010.05.17/outbox.cif.g08.bks.cpg/sg13_20_cif.got.tgz:39452.got - 2010.06.03 16:44:36.
