data_PCOD9237887
_publ_section_title
;
Structure prediction by ZEFSAII (Michael W. Deem and Ramdas Pophale) SiO2 
 PCOD9237887
Probable space group: P 2/C
;
_chemical_formula_sum "Si O2"
_cell_formula_units_Z 18
_cell_length_a 8.097420
_cell_length_b 11.738342
_cell_length_c 9.047385
_cell_angle_alpha 90.000000
_cell_angle_beta 64.537018
_cell_angle_gamma 90.000000
_cell_volume 776.423137
_symmetry_space_group_name_H-M "P 2/C"
_symmetry_group_IT_number 13
_symmetry_cell_setting 'monoclinic'
loop_
_space_group_symop_operation_xyz
x,y,z
-x,y,1/2-z
-x,-y,-z
x,-y,1/2+z
loop_
_atom_site_type_symbol
_atom_site_label
_atom_site_fract_x
_atom_site_fract_y
_atom_site_fract_z
Si Si1 0.785556 0.768907 0.068993
Si Si2 0.000000 0.117247 0.250000
Si Si3 0.320032 0.564843 0.213921
Si Si4 0.563755 0.328546 0.385028
Si Si5 0.363942 0.016322 0.687114
O O1 0.811536 0.652308 0.151225
O O2 0.698484 0.863318 0.212731
O O3 0.649434 0.748522 0.980894
O O4 0.963281 0.812512 0.914286
O O5 0.824531 0.041088 0.285271
O O6 0.500000 0.567481 0.250000
O O7 0.289524 0.431257 0.199961
O O8 0.386288 0.615756 0.032568
O O9 0.500000 0.285944 0.250000
O O10 0.500000 0.958623 0.750000
O O11 0.500000 0.000000 0.500000
#
# Coordination Sequence:
#
# PCOD9237887 Si02
#       5
#     4   2   4   4   4
#     4  11  23  44  66 105 150 188 240 305 363 434
#     4  12  28  46  74 110 152 186 250 306 364 444
#     4   8  16  33  63 100 141 187 242 292 351 434
#     4   9  17  33  66 105 139 187 244 290 354 436
#     4  12  26  49  79 107 144 191 246 310 372 437
#
# _framework density 23.183233000000001
#
# number of rings (size 3 to 8) (size 9 to 14) (size 15 to 20)
#    0.000    1.778    2.222    4.000    0.000    0.889 
#    0.000    1.111    0.000    1.333    0.000    0.000 
#    0.000    0.000    0.000    0.000    0.000    0.000 
#
# Total GULP energy -100306.283984 kJ/mol
# GULP energy per Si atom -5572.571332 kJ/mol
# Density = 2.313047 g / cm^3
# Si number density = 23.183233 Si / 1000 Ang^3
#
#
#
# Elastic Constant Matrix: (Units=GPa)
#
#
# Indices 1 2 3 4 5 6 
#
# 1 73.9554 23.3372 43.0692 0.0000 -4.8621 0.0000
# 2 23.3372 147.6694 74.8172 0.0000 -3.5586 0.0000
# 3 43.0692 74.8172 201.1032 0.0000 11.5488 0.0000
# 4 0.0000 0.0000 0.0000 69.2105 0.0000 -16.7798
# 5 -4.8621 -3.5586 11.5488 0.0000 44.7946 0.0000
# 6 0.0000 0.0000 0.0000 -16.7798 0.0000 45.4146
#
#
#
# Elastic Compliance Matrix: (Units=1/GPa)
#
#
# Indices 1 2 3 4 5 6 
#
# 1 0.015821 -0.000803 -0.003232 0.000000 0.002487 0.000000
# 2 -0.000803 0.008484 -0.003064 0.000000 0.001377 0.000000
# 3 -0.003232 -0.003064 0.006941 0.000000 -0.002384 0.000000
# 4 0.000000 0.000000 0.000000 0.015870 0.000000 0.005864
# 5 0.002487 0.001377 -0.002384 0.000000 0.023318 0.000000
# 6 0.000000 0.000000 0.000000 0.005864 0.000000 0.024186
#
#
# Mechanical properties :
#
#
# Convention : Reuss Voigt Hill
#
# Bulk Modulus (GPa) = 58.65376 78.35281 68.50328
# Shear Modulus (GPa) = 43.66774 50.65090 47.15932
#
# Velocity S-wave (km/s) = 4.34474 4.67926 4.51510
# Velocity P-wave (km/s) = 7.10803 7.94132 7.53620
#
# Compressibility (1/GPa) = 0.01704921
#
# Stress axis : x y z
#
# Youngs Moduli (GPa) = 63.20747 117.86823 144.06119
#
# Poissons Ratio (x) = 0.09460 0.46568
# Poissons Ratio (y) = 0.05073 0.44134
# Poissons Ratio (z) = 0.20432 0.36109
#
# Static dielectric constant tensor:
#      x y z
#    x 1.834600 0.000000 -0.046360 
#    y 0.000000 2.032170 0.000000 
#    z -0.046360 0.000000 1.854160 
# 
# From -- ./inp_files/11633.got.cif
#   From: 2010.05.17/outbox.cif.g08.bks.cpg/sg13_6_cif.got.tgz:11633.got - 2010.06.03 16:44:36.
