data_PCOD9237988
_publ_section_title
;
Structure prediction by ZEFSAII (Michael W. Deem and Ramdas Pophale) SiO2 
 PCOD9237988
Probable space group: P 2/C
;
_chemical_formula_sum "Si O2"
_cell_formula_units_Z 20
_cell_length_a 9.387162
_cell_length_b 15.493853
_cell_length_c 9.546941
_cell_angle_alpha 90.000000
_cell_angle_beta 43.269473
_cell_angle_gamma 90.000000
_cell_volume 951.746764
_symmetry_space_group_name_H-M "P 2/C"
_symmetry_group_IT_number 13
_symmetry_cell_setting 'monoclinic'
loop_
_space_group_symop_operation_xyz
x,y,z
-x,y,1/2-z
-x,-y,-z
x,-y,1/2+z
loop_
_atom_site_type_symbol
_atom_site_label
_atom_site_fract_x
_atom_site_fract_y
_atom_site_fract_z
Si Si1 0.342641 0.473853 0.735797
Si Si2 0.028411 0.626206 0.899680
Si Si3 0.468527 0.092236 0.604651
Si Si4 0.990276 0.919810 0.105701
Si Si5 0.316874 0.213356 0.271767
O O1 0.500000 0.469922 0.750000
O O2 0.500000 0.500000 0.500000
O O3 0.179488 0.551832 0.850167
O O4 0.191827 0.389779 0.862128
O O5 0.155792 0.712587 0.842298
O O6 0.000000 0.617227 0.750000
O O7 0.500000 0.081851 0.750000
O O8 0.231331 0.123312 0.757721
O O9 0.601660 0.163665 0.425676
O O10 0.500000 0.000000 0.500000
O O11 0.000000 0.959913 0.250000
O O12 0.181333 0.856912 0.950983
O O13 0.000000 0.000000 0.000000
O O14 0.500000 0.240921 0.250000
#
# Coordination Sequence:
#
# PCOD9237988 Si02
#       5
#     4   4   4   4   4
#     4  11  23  49  79 109 145 186 234 292 363 440
#     4  11  26  45  75 113 142 187 242 293 363 449
#     4  12  25  44  72 102 141 197 250 308 369 429
#     4  12  25  43  71 101 134 190 251 300 361 432
#     4  12  27  49  67 104 152 191 243 305 367 430
#
# _framework density 21.013991999999998
#
# number of rings (size 3 to 8) (size 9 to 14) (size 15 to 20)
#    0.000    0.400    6.000    2.400    2.800    1.600 
#    3.600    0.000    0.000    0.000    0.000    0.000 
#    0.000    0.000    0.000    0.000    0.000    0.000 
#
# Total GULP energy -111542.587618 kJ/mol
# GULP energy per Si atom -5577.129381 kJ/mol
# Density = 2.096616 g / cm^3
# Si number density = 21.013992 Si / 1000 Ang^3
#
#
#
# Elastic Constant Matrix: (Units=GPa)
#
#
# Indices 1 2 3 4 5 6 
#
# 1 148.2918 42.1397 65.0603 0.0000 -4.4883 0.0000
# 2 42.1397 100.0152 47.1046 0.0000 1.2077 0.0000
# 3 65.0603 47.1046 159.6991 0.0000 -6.8441 0.0000
# 4 0.0000 0.0000 0.0000 21.7219 0.0000 -12.1605
# 5 -4.4883 1.2077 -6.8441 0.0000 30.3736 0.0000
# 6 0.0000 0.0000 0.0000 -12.1605 0.0000 35.8710
#
#
#
# Elastic Compliance Matrix: (Units=1/GPa)
#
#
# Indices 1 2 3 4 5 6 
#
# 1 0.008662 -0.002336 -0.002808 0.000000 0.000740 0.000000
# 2 -0.002336 0.012288 -0.002735 0.000000 -0.001450 0.000000
# 3 -0.002808 -0.002735 0.008279 0.000000 0.001559 0.000000
# 4 0.000000 0.000000 0.000000 0.056820 0.000000 0.019262
# 5 0.000740 -0.001450 0.001559 0.000000 0.033442 0.000000
# 6 0.000000 0.000000 0.000000 0.019262 0.000000 0.034408
#
#
# Mechanical properties :
#
#
# Convention : Reuss Voigt Hill
#
# Bulk Modulus (GPa) = 74.23147 79.62391 76.92769
# Shear Modulus (GPa) = 28.71141 34.50674 31.60907
#
# Velocity S-wave (km/s) = 3.70036 4.05666 3.88260
# Velocity P-wave (km/s) = 7.32519 7.74049 7.53570
#
# Compressibility (1/GPa) = 0.01347138
#
# Stress axis : x y z
#
# Youngs Moduli (GPa) = 115.45233 81.37812 120.78343
#
# Poissons Ratio (x) = 0.19009 0.33916
# Poissons Ratio (y) = 0.26968 0.33035
# Poissons Ratio (z) = 0.32419 0.22257
#
# Static dielectric constant tensor:
#      x y z
#    x 1.786770 0.000000 -0.066010 
#    y 0.000000 1.748870 0.000000 
#    z -0.066010 0.000000 1.993680 
# 
# From -- ./inp_files/13031.got.cif
#   From: 2010.05.17/outbox.cif.g08.bks.cpg/sg13_7_cif.got.tgz:13031.got - 2010.06.03 16:44:36.
