data_PCOD9237004
_publ_section_title
;
Structure prediction by ZEFSAII (Michael W. Deem and Ramdas Pophale) SiO2 
 PCOD9237004
Probable space group: P 2/C
;
_chemical_formula_sum "Si O2"
_cell_formula_units_Z 24
_cell_length_a 20.101144
_cell_length_b 5.879168
_cell_length_c 14.468777
_cell_angle_alpha 90.000000
_cell_angle_beta 146.513189
_cell_angle_gamma 90.000000
_cell_volume 943.423931
_symmetry_space_group_name_H-M "P 2/C"
_symmetry_group_IT_number 13
_symmetry_cell_setting 'monoclinic'
loop_
_space_group_symop_operation_xyz
x,y,z
-x,y,1/2-z
-x,-y,-z
x,-y,1/2+z
loop_
_atom_site_type_symbol
_atom_site_label
_atom_site_fract_x
_atom_site_fract_y
_atom_site_fract_z
Si Si1 0.399734 0.551332 0.259292
Si Si2 0.409138 0.078792 0.476564
Si Si3 0.758280 0.683667 0.257801
Si Si4 0.500000 0.168401 0.250000
Si Si5 0.196892 0.570395 0.883816
Si Si6 0.987723 0.888319 0.584607
Si Si7 0.000000 0.248598 0.750000
O O1 0.329946 0.549319 0.275163
O O2 0.430010 0.315995 0.244958
O O3 0.525053 0.682123 0.421346
O O4 0.305520 0.650722 0.075501
O O5 0.287393 0.948492 0.300899
O O6 0.414721 0.971032 0.585115
O O7 0.500000 0.000000 0.500000
O O8 0.764626 0.559529 0.166077
O O9 0.888568 0.692264 0.456781
O O10 0.113789 0.781865 0.760892
O O11 0.108615 0.399957 0.836595
O O12 0.951502 0.080826 0.614692
O O13 0.000000 0.000000 0.500000
#
# Coordination Sequence:
#
# PCOD9237004 Si02
#       7
#     4   4   4   2   4   4   2
#     4  11  26  46  78 104 146 203 255 315 378 458
#     4  10  25  48  70 106 147 193 255 311 377 449
#     4  11  24  51  75 109 153 200 251 324 381 458
#     4  12  24  48  70 108 142 194 254 312 384 444
#     4  12  26  49  77 115 155 205 258 316 390 461
#     4  12  27  46  76 117 155 202 257 316 383 461
#     4  12  26  48  76 112 160 206 258 316 384 460
#
# _framework density 25.439250999999999
#
# number of rings (size 3 to 8) (size 9 to 14) (size 15 to 20)
#    0.000    0.667    3.333    3.500    2.333    9.333 
#    6.000    0.000    0.000    0.000    0.000    0.000 
#    0.000    0.000    0.000    0.000    0.000    0.000 
#
# Total GULP energy -134230.460002 kJ/mol
# GULP energy per Si atom -5592.935833 kJ/mol
# Density = 2.538135 g / cm^3
# Si number density = 25.439251 Si / 1000 Ang^3
#
#
#
# Elastic Constant Matrix: (Units=GPa)
#
#
# Indices 1 2 3 4 5 6 
#
# 1 198.4334 72.0237 35.1937 0.0000 -24.3751 0.0000
# 2 72.0237 50.0673 32.0251 0.0000 -14.4825 0.0000
# 3 35.1937 32.0251 146.6327 0.0000 -15.0431 0.0000
# 4 0.0000 0.0000 0.0000 16.7246 0.0000 -6.0932
# 5 -24.3751 -14.4825 -15.0431 0.0000 45.4436 0.0000
# 6 0.0000 0.0000 0.0000 -6.0932 0.0000 51.0790
#
#
#
# Elastic Compliance Matrix: (Units=1/GPa)
#
#
# Indices 1 2 3 4 5 6 
#
# 1 0.010696 -0.015703 0.000970 0.000000 0.001054 0.000000
# 2 -0.015703 0.047918 -0.006205 0.000000 0.004794 0.000000
# 3 0.000970 -0.006205 0.008066 0.000000 0.001213 0.000000
# 4 0.000000 0.000000 0.000000 0.062509 0.000000 0.007457
# 5 0.001054 0.004794 0.001213 0.000000 0.024500 0.000000
# 6 0.000000 0.000000 0.000000 0.007457 0.000000 0.020467
#
#
# Mechanical properties :
#
#
# Convention : Reuss Voigt Hill
#
# Bulk Modulus (GPa) = 40.31209 74.84651 57.57930
# Shear Modulus (GPa) = 22.29152 39.70885 31.00018
#
# Velocity S-wave (km/s) = 2.96339 3.95514 3.49463
# Velocity P-wave (km/s) = 5.25259 7.09529 6.24231
#
# Compressibility (1/GPa) = 0.02480645
#
# Stress axis : x y z
#
# Youngs Moduli (GPa) = 93.48891 20.86891 123.97033
#
# Poissons Ratio (x) = 0.32771 -0.12031
# Poissons Ratio (y) = 1.46806 0.76920
# Poissons Ratio (z) = -0.09073 0.12949
#
# Static dielectric constant tensor:
#      x y z
#    x 1.960020 0.000000 0.033630 
#    y 0.000000 2.171530 0.000000 
#    z 0.033630 0.000000 1.962220 
# 
# From -- ./inp_files/56665.got.cif
#   From: 2010.05.17/outbox.cif.g08.bks.cpg/sg13_29_cif.got.tgz:56665.got - 2010.06.03 16:44:36.
