data_PCOD9237386
_publ_section_title
;
Structure prediction by ZEFSAII (Michael W. Deem and Ramdas Pophale) SiO2 
 PCOD9237386
Probable space group: P 2/C
;
_chemical_formula_sum "Si O2"
_cell_formula_units_Z 22
_cell_length_a 14.587200
_cell_length_b 8.800710
_cell_length_c 25.095672
_cell_angle_alpha 90.000000
_cell_angle_beta 20.606336
_cell_angle_gamma 90.000000
_cell_volume 1133.870546
_symmetry_space_group_name_H-M "P 2/C"
_symmetry_group_IT_number 13
_symmetry_cell_setting 'monoclinic'
loop_
_space_group_symop_operation_xyz
x,y,z
-x,y,1/2-z
-x,-y,-z
x,-y,1/2+z
loop_
_atom_site_type_symbol
_atom_site_label
_atom_site_fract_x
_atom_site_fract_y
_atom_site_fract_z
Si Si1 0.021077 0.039444 0.552125
Si Si2 0.500000 0.180421 0.250000
Si Si3 0.825480 0.421901 0.138048
Si Si4 0.352470 0.304325 0.702698
Si Si5 0.210065 0.499554 0.181101
Si Si6 0.944492 0.248418 0.392904
O O1 0.829959 0.178326 0.670452
O O2 0.324418 0.086150 0.386586
O O3 0.000000 0.000000 0.500000
O O4 0.980108 0.910403 0.619462
O O5 0.676715 0.286399 0.190579
O O6 0.634410 0.546317 0.267105
O O7 0.020687 0.362069 0.076555
O O8 0.000000 0.500000 0.000000
O O9 0.218486 0.371550 0.722414
O O10 0.646932 0.245845 0.534607
O O11 0.000000 0.535573 0.250000
O O12 0.128271 0.333750 0.249750
O O13 0.500000 0.500000 0.000000
#
# Coordination Sequence:
#
# PCOD9237386 Si02
#       6
#     4   2   4   4   4   4
#     4  12  24  42  62 101 147 186 211 269 339 430
#     4  12  22  36  62  90 144 184 228 264 330 396
#     4  11  21  37  60  94 129 177 229 273 322 397
#     4  11  24  41  68  97 132 178 232 279 348 404
#     4  11  24  49  76 100 128 171 236 305 346 396
#     4  11  24  41  66  96 133 178 222 280 351 411
#
# _framework density 19.402567000000001
#
# number of rings (size 3 to 8) (size 9 to 14) (size 15 to 20)
#    0.000    0.727    5.455    2.182    2.545    1.455 
#    0.000    1.818    0.000    0.000    0.000    0.000 
#    0.000    0.000    0.000    0.000    0.000    0.000 
#
# Total GULP energy -122663.244097 kJ/mol
# GULP energy per Si atom -5575.602004 kJ/mol
# Density = 1.935841 g / cm^3
# Si number density = 19.402567 Si / 1000 Ang^3
#
#
#
# Elastic Constant Matrix: (Units=GPa)
#
#
# Indices 1 2 3 4 5 6 
#
# 1 110.3076 37.5883 40.7252 0.0000 -4.1743 0.0000
# 2 37.5883 98.6423 41.8894 0.0000 5.2606 0.0000
# 3 40.7252 41.8894 115.7525 0.0000 -0.1557 0.0000
# 4 0.0000 0.0000 0.0000 39.1284 0.0000 5.6796
# 5 -4.1743 5.2606 -0.1557 0.0000 29.3952 0.0000
# 6 0.0000 0.0000 0.0000 5.6796 0.0000 38.0231
#
#
#
# Elastic Compliance Matrix: (Units=1/GPa)
#
#
# Indices 1 2 3 4 5 6 
#
# 1 0.011280 -0.003225 -0.002798 0.000000 0.002164 0.000000
# 2 -0.003225 0.013040 -0.003588 0.000000 -0.002811 0.000000
# 3 -0.002798 -0.003588 0.010923 0.000000 0.000303 0.000000
# 4 0.000000 0.000000 0.000000 0.026123 0.000000 -0.003902
# 5 0.002164 -0.002811 0.000303 0.000000 0.034831 0.000000
# 6 0.000000 0.000000 0.000000 -0.003902 0.000000 0.026883
#
#
# Mechanical properties :
#
#
# Convention : Reuss Voigt Hill
#
# Bulk Modulus (GPa) = 62.42628 62.78979 62.60804
# Shear Modulus (GPa) = 33.86553 34.94266 34.40409
#
# Velocity S-wave (km/s) = 4.18235 4.24834 4.21547
# Velocity P-wave (km/s) = 7.45431 7.51641 7.48542
#
# Compressibility (1/GPa) = 0.01601890
#
# Stress axis : x y z
#
# Youngs Moduli (GPa) = 88.65521 76.68554 91.55313
#
# Poissons Ratio (x) = 0.24733 0.25621
# Poissons Ratio (y) = 0.28593 0.32851
# Poissons Ratio (z) = 0.24810 0.27516
#
# Static dielectric constant tensor:
#      x y z
#    x 1.718290 0.000000 -0.021830 
#    y 0.000000 1.719190 0.000000 
#    z -0.021830 0.000000 1.719370 
# 
# From -- ./inp_files/87361.got.cif
#   From: 2010.05.17/outbox.cif.g08.bks.cpg/sg13_44_cif.got.tgz:87361.got - 2010.06.03 16:44:36.
