data_PCOD9237570
_publ_section_title
;
Structure prediction by ZEFSAII (Michael W. Deem and Ramdas Pophale) SiO2 
 PCOD9237570
Probable space group: P 2/C
;
_chemical_formula_sum "Si O2"
_cell_formula_units_Z 24
_cell_length_a 9.576471
_cell_length_b 18.817164
_cell_length_c 9.294147
_cell_angle_alpha 90.000000
_cell_angle_beta 137.172157
_cell_angle_gamma 90.000000
_cell_volume 1138.541717
_symmetry_space_group_name_H-M "P 2/C"
_symmetry_group_IT_number 13
_symmetry_cell_setting 'monoclinic'
loop_
_space_group_symop_operation_xyz
x,y,z
-x,y,1/2-z
-x,-y,-z
x,-y,1/2+z
loop_
_atom_site_type_symbol
_atom_site_label
_atom_site_fract_x
_atom_site_fract_y
_atom_site_fract_z
Si Si1 0.722547 0.972333 0.852487
Si Si2 0.779341 0.132877 0.847784
Si Si3 0.686959 0.151670 0.097754
Si Si4 0.000000 0.123747 0.750000
Si Si5 0.194638 0.300323 0.290262
Si Si6 0.053338 0.428432 0.458703
Si Si7 0.500000 0.632248 0.250000
O O1 0.500000 0.990565 0.750000
O O2 0.721860 0.918994 0.716709
O O3 0.815602 0.047811 0.878654
O O4 0.825265 0.928152 0.057793
O O5 0.550704 0.149576 0.624709
O O6 0.919727 0.164722 0.828735
O O7 0.799856 0.153936 0.028576
O O8 0.743200 0.223768 0.223204
O O9 0.390108 0.324319 0.536711
O O10 0.000000 0.290754 0.250000
O O11 0.101896 0.362760 0.119388
O O12 0.296799 0.409441 0.654457
O O13 0.000000 0.440027 0.250000
O O14 0.000000 0.500000 0.500000
#
# Coordination Sequence:
#
# PCOD9237570 Si02
#       7
#     4   4   4   2   4   4   2
#     4  12  23  43  60  84 126 158 213 280 325 378
#     4  11  23  40  64  88 114 164 217 268 335 380
#     4  11  22  39  67  84 118 171 211 265 325 385
#     4  12  26  38  58  90 116 152 210 282 332 376
#     4   9  20  36  60  94 121 159 212 251 306 375
#     4   9  19  36  65  98 128 162 205 250 295 374
#     4   8  16  36  62  92 132 158 198 254 292 360
#
# _framework density 21.079598000000001
#
# number of rings (size 3 to 8) (size 9 to 14) (size 15 to 20)
#    0.000    2.000    3.333    3.000    2.333    2.667 
#    0.000    0.000    7.333    0.000    0.000    0.000 
#    0.000    0.000    0.000    0.000    0.000    0.000 
#
# Total GULP energy -133868.598829 kJ/mol
# GULP energy per Si atom -5577.858285 kJ/mol
# Density = 2.103162 g / cm^3
# Si number density = 21.079598 Si / 1000 Ang^3
#
#
#
# Elastic Constant Matrix: (Units=GPa)
#
#
# Indices 1 2 3 4 5 6 
#
# 1 89.6111 22.4300 29.7679 0.0000 -1.5580 0.0000
# 2 22.4300 132.2051 36.7216 0.0000 4.9734 0.0000
# 3 29.7679 36.7216 145.3015 0.0000 19.2113 0.0000
# 4 0.0000 0.0000 0.0000 21.3241 0.0000 -2.0936
# 5 -1.5580 4.9734 19.2113 0.0000 26.9624 0.0000
# 6 0.0000 0.0000 0.0000 -2.0936 0.0000 24.0120
#
#
#
# Elastic Compliance Matrix: (Units=1/GPa)
#
#
# Indices 1 2 3 4 5 6 
#
# 1 0.012428 -0.001510 -0.002535 0.000000 0.002803 0.000000
# 2 -0.001510 0.008319 -0.001743 0.000000 -0.000380 0.000000
# 3 -0.002535 -0.001743 0.008632 0.000000 -0.005976 0.000000
# 4 0.000000 0.000000 0.000000 0.047300 0.000000 0.004124
# 5 0.002803 -0.000380 -0.005976 0.000000 0.041578 0.000000
# 6 0.000000 0.000000 0.000000 0.004124 0.000000 0.042005
#
#
# Mechanical properties :
#
#
# Convention : Reuss Voigt Hill
#
# Bulk Modulus (GPa) = 56.16951 60.55074 58.36012
# Shear Modulus (GPa) = 28.12577 33.00625 30.56601
#
# Velocity S-wave (km/s) = 3.65672 3.96130 3.81205
# Velocity P-wave (km/s) = 6.67331 7.05051 6.86450
#
# Compressibility (1/GPa) = 0.01780325
#
# Stress axis : x y z
#
# Youngs Moduli (GPa) = 80.46249 120.21355 115.84601
#
# Poissons Ratio (x) = 0.18150 0.29369
# Poissons Ratio (y) = 0.12149 0.20189
# Poissons Ratio (z) = 0.20399 0.20950
#
# Static dielectric constant tensor:
#      x y z
#    x 1.879930 0.000000 0.114940 
#    y 0.000000 1.785400 0.000000 
#    z 0.114940 0.000000 1.925070 
# 
# From -- ./inp_files/34802.got.cif
#   From: 2010.05.17/outbox.cif.g08.bks.cpg/sg13_18_cif.got.tgz:34802.got - 2010.06.03 16:44:36.
