data_PCOD9237630
_publ_section_title
;
Structure prediction by ZEFSAII (Michael W. Deem and Ramdas Pophale) SiO2 
 PCOD9237630
Probable space group: P 2/C
;
_chemical_formula_sum "Si O2"
_cell_formula_units_Z 26
_cell_length_a 6.427976
_cell_length_b 10.562240
_cell_length_c 21.619478
_cell_angle_alpha 90.000000
_cell_angle_beta 53.183828
_cell_angle_gamma 90.000000
_cell_volume 1175.088553
_symmetry_space_group_name_H-M "P 2/C"
_symmetry_group_IT_number 13
_symmetry_cell_setting 'monoclinic'
loop_
_space_group_symop_operation_xyz
x,y,z
-x,y,1/2-z
-x,-y,-z
x,-y,1/2+z
loop_
_atom_site_type_symbol
_atom_site_label
_atom_site_fract_x
_atom_site_fract_y
_atom_site_fract_z
Si Si1 0.859581 0.769483 0.447588
Si Si2 0.000000 0.152943 0.250000
Si Si3 0.793033 0.610090 0.027985
Si Si4 0.056636 0.026442 0.419078
Si Si5 0.265459 0.748894 0.584131
Si Si6 0.390631 0.936149 0.205602
Si Si7 0.237859 0.326879 0.665503
O O1 0.573216 0.775727 0.528021
O O2 0.856690 0.680834 0.388322
O O3 0.069960 0.725834 0.460006
O O4 0.934873 0.905043 0.407183
O O5 0.846980 0.240541 0.326514
O O6 0.816633 0.049084 0.248323
O O7 0.510786 0.597725 0.110903
O O8 0.760572 0.633496 0.960165
O O9 0.000000 0.500000 0.000000
O O10 0.905553 0.145348 0.420279
O O11 0.000000 0.000000 0.500000
O O12 0.364571 0.016305 0.361840
O O13 0.500000 0.879151 0.250000
O O14 0.305227 0.816522 0.178918
O O15 0.000000 0.374754 0.750000
#
# Coordination Sequence:
#
# PCOD9237630 Si02
#       7
#     4   2   4   4   4   4   4
#     4  11  22  42  69  94 137 174 223 280 342 412
#     4  12  24  38  62  98 150 180 218 278 344 426
#     4  11  26  48  73  93 128 186 240 295 343 398
#     4  12  19  36  61  97 134 172 216 262 336 419
#     4  11  24  40  65 101 134 185 225 274 345 416
#     4  12  22  36  60  99 147 179 205 269 344 415
#     4  11  23  40  69 104 134 172 225 286 347 409
#
# _framework density 22.125993000000001
#
# number of rings (size 3 to 8) (size 9 to 14) (size 15 to 20)
#    0.000    0.615    5.385    4.154    0.000    2.462 
#    0.000    0.000   10.154    0.000    0.000    0.000 
#    0.000    0.000    0.000    0.000    0.000    0.000 
#
# Total GULP energy -145073.940851 kJ/mol
# GULP energy per Si atom -5579.766956 kJ/mol
# Density = 2.207563 g / cm^3
# Si number density = 22.125993 Si / 1000 Ang^3
#
#
#
# Elastic Constant Matrix: (Units=GPa)
#
#
# Indices 1 2 3 4 5 6 
#
# 1 74.2823 3.5254 49.6622 0.0000 -12.1072 0.0000
# 2 3.5254 40.9299 21.8987 0.0000 -11.3964 0.0000
# 3 49.6622 21.8987 176.7300 0.0000 -23.0475 0.0000
# 4 0.0000 0.0000 0.0000 14.4265 0.0000 -7.4408
# 5 -12.1072 -11.3964 -23.0475 0.0000 51.1344 0.0000
# 6 0.0000 0.0000 0.0000 -7.4408 0.0000 33.9634
#
#
#
# Elastic Compliance Matrix: (Units=1/GPa)
#
#
# Indices 1 2 3 4 5 6 
#
# 1 0.016861 0.001666 -0.004649 0.000000 0.002268 0.000000
# 2 0.001666 0.027412 -0.003205 0.000000 0.005059 0.000000
# 3 -0.004649 -0.003205 0.007570 0.000000 0.001597 0.000000
# 4 0.000000 0.000000 0.000000 0.078147 0.000000 0.017121
# 5 0.002268 0.005059 0.001597 0.000000 0.021941 0.000000
# 6 0.000000 0.000000 0.000000 0.017121 0.000000 0.033194
#
#
# Mechanical properties :
#
#
# Convention : Reuss Voigt Hill
#
# Bulk Modulus (GPa) = 25.33687 49.12386 37.23036
# Shear Modulus (GPa) = 23.73543 34.36192 29.04868
#
# Velocity S-wave (km/s) = 3.27882 3.94510 3.62729
# Velocity P-wave (km/s) = 5.08038 6.55758 5.86567
#
# Compressibility (1/GPa) = 0.03946818
#
# Stress axis : x y z
#
# Youngs Moduli (GPa) = 59.30966 36.48031 132.09927
#
# Poissons Ratio (x) = -0.06079 0.61408
# Poissons Ratio (y) = -0.09884 0.42340
# Poissons Ratio (z) = 0.27571 0.11693
#
# Static dielectric constant tensor:
#      x y z
#    x 1.809290 0.000000 0.035000 
#    y 0.000000 2.006430 0.000000 
#    z 0.035000 0.000000 1.820810 
# 
# From -- ./inp_files/73547.got.cif
#   From: 2010.05.17/outbox.cif.g08.bks.cpg/sg13_37_cif.got.tgz:73547.got - 2010.06.03 16:44:36.
