data_PCOD9237394
_publ_section_title
;
Structure prediction by ZEFSAII (Michael W. Deem and Ramdas Pophale) SiO2 
 PCOD9237394
Probable space group: P 2/C
;
_chemical_formula_sum "Si O2"
_cell_formula_units_Z 18
_cell_length_a 7.402976
_cell_length_b 10.690906
_cell_length_c 15.722421
_cell_angle_alpha 90.000000
_cell_angle_beta 139.884835
_cell_angle_gamma 90.000000
_cell_volume 801.762934
_symmetry_space_group_name_H-M "P 2/C"
_symmetry_group_IT_number 13
_symmetry_cell_setting 'monoclinic'
loop_
_space_group_symop_operation_xyz
x,y,z
-x,y,1/2-z
-x,-y,-z
x,-y,1/2+z
loop_
_atom_site_type_symbol
_atom_site_label
_atom_site_fract_x
_atom_site_fract_y
_atom_site_fract_z
Si Si1 0.265721 0.785417 0.590053
Si Si2 0.459514 0.020806 0.834411
Si Si3 0.000000 0.147582 0.250000
Si Si4 0.306317 0.740097 0.012309
Si Si5 0.329645 0.484169 0.099608
O O1 0.500000 0.791449 0.750000
O O2 0.298390 0.918258 0.555615
O O3 0.346894 0.657586 0.571201
O O4 0.959191 0.767846 0.519942
O O5 0.500000 0.051783 0.750000
O O6 0.183313 0.943379 0.757240
O O7 0.477490 0.149113 0.891359
O O8 0.184639 0.235669 0.375847
O O9 0.411398 0.601071 0.070481
O O10 0.500000 0.490544 0.250000
O O11 0.000000 0.500000 0.000000
#
# Coordination Sequence:
#
# PCOD9237394 Si02
#       5
#     4   4   2   4   4
#     4   9  17  36  63  86 116 160 204 254 317 372
#     4  11  22  39  63  88 120 164 214 257 322 373
#     4  12  24  38  60  92 132 168 204 266 322 380
#     4  11  21  38  61  92 125 163 214 260 316 382
#     4   9  19  36  66  96 121 162 214 262 314 378
#
# _framework density 22.450527999999998
#
# number of rings (size 3 to 8) (size 9 to 14) (size 15 to 20)
#    0.000    1.778    4.444    2.000    0.000    0.000 
#    0.000    1.111    0.000    1.333    0.000    0.000 
#    0.000    0.000    0.000    0.000    0.000    0.000 
#
# Total GULP energy -100476.624259 kJ/mol
# GULP energy per Si atom -5582.034681 kJ/mol
# Density = 2.239943 g / cm^3
# Si number density = 22.450528 Si / 1000 Ang^3
#
#
#
# Elastic Constant Matrix: (Units=GPa)
#
#
# Indices 1 2 3 4 5 6 
#
# 1 60.5888 -3.0966 7.6800 0.0000 0.3320 0.0000
# 2 -3.0966 163.5647 28.6887 0.0000 -23.3515 0.0000
# 3 7.6800 28.6887 78.8223 0.0000 -15.1371 0.0000
# 4 0.0000 0.0000 0.0000 -3.4366 0.0000 10.6221
# 5 0.3320 -23.3515 -15.1371 0.0000 30.7434 0.0000
# 6 0.0000 0.0000 0.0000 10.6221 0.0000 9.4115
#
#
#
# Elastic Compliance Matrix: (Units=1/GPa)
#
#
# Indices 1 2 3 4 5 6 
#
# 1 0.016788 0.000561 -0.001980 0.000000 -0.000730 0.000000
# 2 0.000561 0.007077 -0.001766 0.000000 0.004499 0.000000
# 3 -0.001980 -0.001766 0.014655 0.000000 0.005895 0.000000
# 4 0.000000 0.000000 0.000000 -0.064830 0.000000 0.073169
# 5 -0.000730 0.004499 0.005895 0.000000 0.038855 0.000000
# 6 0.000000 0.000000 0.000000 0.073169 0.000000 0.023672
#
#
# Mechanical properties :
#
#
# Convention : Reuss Voigt Hill
#
# Bulk Modulus (GPa) = 31.10548 41.05778 36.08163
# Shear Modulus (GPa) = 93.80032 25.32393 59.56212
#
# Velocity S-wave (km/s) = 6.47083 3.36220 5.15635
# Velocity P-wave (km/s) = 8.34949 5.77930 7.18033
#
# Compressibility (1/GPa) = 0.03214868
#
# Stress axis : x y z
#
# Youngs Moduli (GPa) = 59.56508 141.31174 68.23752
#
# Poissons Ratio (x) = -0.07926 0.13512
# Poissons Ratio (y) = -0.03341 0.12052
# Poissons Ratio (z) = 0.11795 0.24959
#
# Static dielectric constant tensor:
#      x y z
#    x 1.857780 0.000000 0.005930 
#    y 0.000000 1.886640 0.000000 
#    z 0.005930 0.000000 1.825420 
# 
# From -- ./inp_files/64142.got.cif
#   From: 2010.05.17/outbox.cif.g08.bks.cpg/sg13_33_cif.got.tgz:64142.got - 2010.06.03 16:44:36.
