data_PCOD9237091
_publ_section_title
;
Structure prediction by ZEFSAII (Michael W. Deem and Ramdas Pophale) SiO2 
 PCOD9237091
Probable space group: P 2/C
;
_chemical_formula_sum "Si O2"
_cell_formula_units_Z 14
_cell_length_a 13.731604
_cell_length_b 5.354017
_cell_length_c 9.194816
_cell_angle_alpha 90.000000
_cell_angle_beta 130.917338
_cell_angle_gamma 90.000000
_cell_volume 510.819886
_symmetry_space_group_name_H-M "P 2/C"
_symmetry_group_IT_number 13
_symmetry_cell_setting 'monoclinic'
loop_
_space_group_symop_operation_xyz
x,y,z
-x,y,1/2-z
-x,-y,-z
x,-y,1/2+z
loop_
_atom_site_type_symbol
_atom_site_label
_atom_site_fract_x
_atom_site_fract_y
_atom_site_fract_z
Si Si1 0.500000 0.707760 0.250000
Si Si2 0.922418 0.745887 0.962032
Si Si3 0.282940 0.695229 0.520453
Si Si4 0.658661 0.049943 0.150392
O O1 0.623607 0.527149 0.344992
O O2 0.541984 0.831419 0.445986
O O3 0.862896 0.701696 0.065880
O O4 0.787239 0.779008 0.741815
O O5 0.000000 0.500000 0.000000
O O6 0.000000 0.000000 0.000000
O O7 0.341273 0.923629 0.675899
O O8 0.302624 0.783767 0.376724
#
# Coordination Sequence:
#
# PCOD9237091 Si02
#       4
#     2   4   4   4
#     4  12  24  44  74 112 158 192 274 308 400 460
#     4  10  26  51  77 109 153 204 261 313 387 465
#     4  10  26  46  74 108 152 202 257 323 388 455
#     4  10  26  46  74 108 152 202 257 323 388 455
#
# _framework density 27.406921000000001
#
# number of rings (size 3 to 8) (size 9 to 14) (size 15 to 20)
#    1.714    0.000    0.000    1.714    8.000    8.000 
#    0.000    0.000    0.000    0.000    0.000    0.000 
#    0.000    0.000    0.000    0.000    0.000    0.000 
#
# Total GULP energy -78252.475469 kJ/mol
# GULP energy per Si atom -5589.462533 kJ/mol
# Density = 2.734454 g / cm^3
# Si number density = 27.406921 Si / 1000 Ang^3
#
#
#
# Elastic Constant Matrix: (Units=GPa)
#
#
# Indices 1 2 3 4 5 6 
#
# 1 114.3064 0.1450 -17.1319 0.0000 -33.5892 0.0000
# 2 0.1450 103.7436 1.0114 0.0000 -23.3846 0.0000
# 3 -17.1319 1.0114 100.3926 0.0000 7.0013 0.0000
# 4 0.0000 0.0000 0.0000 60.3305 0.0000 4.7738
# 5 -33.5892 -23.3846 7.0013 0.0000 45.7657 0.0000
# 6 0.0000 0.0000 0.0000 4.7738 0.0000 56.7565
#
#
#
# Elastic Compliance Matrix: (Units=1/GPa)
#
#
# Indices 1 2 3 4 5 6 
#
# 1 0.011731 0.002109 0.001319 0.000000 0.009485 0.000000
# 2 0.002109 0.011298 -0.000267 0.000000 0.007362 0.000000
# 3 0.001319 -0.000267 0.010240 0.000000 -0.000735 0.000000
# 4 0.000000 0.000000 0.000000 0.016686 0.000000 -0.001404
# 5 0.009485 0.007362 -0.000735 0.000000 0.032686 0.000000
# 6 0.000000 0.000000 0.000000 -0.001404 0.000000 0.017737
#
#
# Mechanical properties :
#
#
# Convention : Reuss Voigt Hill
#
# Bulk Modulus (GPa) = 25.25890 31.83238 28.54564
# Shear Modulus (GPa) = 46.61832 54.86510 50.74171
#
# Velocity S-wave (km/s) = 4.12875 4.47908 4.30748
# Velocity P-wave (km/s) = 5.65377 6.19592 5.93104
#
# Compressibility (1/GPa) = 0.03959000
#
# Stress axis : x y z
#
# Youngs Moduli (GPa) = 85.24616 88.50992 97.65674
#
# Poissons Ratio (x) = -0.18665 -0.12882
# Poissons Ratio (y) = -0.17977 0.02611
# Poissons Ratio (z) = -0.11245 0.02366
#
# Static dielectric constant tensor:
#      x y z
#    x 2.326370 0.000000 0.079940 
#    y 0.000000 2.142160 0.000000 
#    z 0.079940 0.000000 2.171120 
# 
# From -- ./inp_files/17569.got.cif
#   From: 2010.05.17/outbox.cif.g08.bks.cpg/sg13_9_cif.got.tgz:17569.got - 2010.06.03 16:44:36.
