data_PCOD9237756
_publ_section_title
;
Structure prediction by ZEFSAII (Michael W. Deem and Ramdas Pophale) SiO2 
 PCOD9237756
Probable space group: P 2/C
;
_chemical_formula_sum "Si O2"
_cell_formula_units_Z 28
_cell_length_a 5.406001
_cell_length_b 9.034213
_cell_length_c 29.581122
_cell_angle_alpha 90.000000
_cell_angle_beta 124.621831
_cell_angle_gamma 90.000000
_cell_volume 1188.881803
_symmetry_space_group_name_H-M "P 2/C"
_symmetry_group_IT_number 13
_symmetry_cell_setting 'monoclinic'
loop_
_space_group_symop_operation_xyz
x,y,z
-x,y,1/2-z
-x,-y,-z
x,-y,1/2+z
loop_
_atom_site_type_symbol
_atom_site_label
_atom_site_fract_x
_atom_site_fract_y
_atom_site_fract_z
Si Si1 0.276938 0.108563 0.035806
Si Si2 0.793420 0.460009 0.851803
Si Si3 0.569564 0.670724 0.102987
Si Si4 0.154702 0.222459 0.120762
Si Si5 0.565890 0.672055 0.507811
Si Si6 0.000000 0.961237 0.250000
Si Si7 0.820511 0.990983 0.137884
Si Si8 0.500000 0.236914 0.750000
O O1 0.294081 0.230295 0.998779
O O2 0.586075 0.018743 0.072231
O O3 0.299112 0.182142 0.087830
O O4 0.000000 0.000000 0.000000
O O5 0.650921 0.406530 0.884468
O O6 0.646683 0.348172 0.801082
O O7 0.149727 0.432422 0.882450
O O8 0.717718 0.634702 0.839997
O O9 0.736580 0.818862 0.137602
O O10 0.379877 0.708764 0.038623
O O11 0.836413 0.285684 0.068761
O O12 0.107672 0.073662 0.145129
O O13 0.500000 0.500000 0.500000
O O14 0.746310 0.863981 0.249767
O O15 0.838388 0.048506 0.191852
#
# Coordination Sequence:
#
# PCOD9237756 Si02
#       8
#     4   4   4   4   4   2   4   2
#     4  11  25  43  70 104 149 196 243 304 370 450
#     4  12  26  46  73 104 145 181 249 304 368 432
#     4  12  25  43  75 106 136 196 238 301 353 442
#     4  11  26  44  67 107 149 189 239 306 374 437
#     4  11  23  40  66 100 143 186 241 285 363 439
#     4  12  26  48  80 104 140 188 258 302 366 444
#     4  11  26  46  70 106 143 191 247 309 367 444
#     4  12  24  50  74 110 130 192 246 314 360 446
#
# _framework density 23.551542999999999
#
# number of rings (size 3 to 8) (size 9 to 14) (size 15 to 20)
#    0.000    0.571    4.286    2.571   10.000    3.429 
#    2.571    0.000    0.000    0.000    0.000    0.000 
#    0.000    0.000    0.000    0.000    0.000    0.000 
#
# Total GULP energy -156139.419477 kJ/mol
# GULP energy per Si atom -5576.407838 kJ/mol
# Density = 2.349794 g / cm^3
# Si number density = 23.551543 Si / 1000 Ang^3
#
#
#
# Elastic Constant Matrix: (Units=GPa)
#
#
# Indices 1 2 3 4 5 6 
#
# 1 85.6863 -2.8058 20.7904 0.0000 -24.1158 0.0000
# 2 -2.8058 45.6051 -7.9916 0.0000 -5.7947 0.0000
# 3 20.7904 -7.9916 92.5084 0.0000 -8.6937 0.0000
# 4 0.0000 0.0000 0.0000 35.6377 0.0000 -7.3266
# 5 -24.1158 -5.7947 -8.6937 0.0000 37.7937 0.0000
# 6 0.0000 0.0000 0.0000 -7.3266 0.0000 7.6816
#
#
#
# Elastic Compliance Matrix: (Units=1/GPa)
#
#
# Indices 1 2 3 4 5 6 
#
# 1 0.014886 0.001678 -0.002334 0.000000 0.009219 0.000000
# 2 0.001678 0.023043 0.002091 0.000000 0.005085 0.000000
# 3 -0.002334 0.002091 0.011657 0.000000 0.001513 0.000000
# 4 0.000000 0.000000 0.000000 0.034904 0.000000 0.033291
# 5 0.009219 0.005085 0.001513 0.000000 0.033470 0.000000
# 6 0.000000 0.000000 0.000000 0.033291 0.000000 0.161933
#
#
# Mechanical properties :
#
#
# Convention : Reuss Voigt Hill
#
# Bulk Modulus (GPa) = 19.06296 27.08731 23.07514
# Shear Modulus (GPa) = 16.97742 30.47640 23.72691
#
# Velocity S-wave (km/s) = 2.68780 3.60117 3.17747
# Velocity P-wave (km/s) = 4.21237 5.36819 4.82501
#
# Compressibility (1/GPa) = 0.05245776
#
# Stress axis : x y z
#
# Youngs Moduli (GPa) = 67.17502 43.39674 85.78348
#
# Poissons Ratio (x) = -0.07283 0.20024
# Poissons Ratio (y) = -0.11274 -0.17940
# Poissons Ratio (z) = 0.15680 -0.09076
#
# Static dielectric constant tensor:
#      x y z
#    x 0.548680 0.000000 -0.268650 
#    y 0.000000 1.753500 0.000000 
#    z -0.268650 0.000000 1.873010 
# 
# From -- ./inp_files/95144.got.cif
#   From: 2010.05.17/outbox.cif.g08.bks.cpg/sg13_48_cif.got.tgz:95144.got - 2010.06.03 16:44:36.
