data_PCOD9237733
_publ_section_title
;
Structure prediction by ZEFSAII (Michael W. Deem and Ramdas Pophale) SiO2 
 PCOD9237733
Probable space group: P 2/C
;
_chemical_formula_sum "Si O2"
_cell_formula_units_Z 20
_cell_length_a 10.251373
_cell_length_b 4.675938
_cell_length_c 20.895358
_cell_angle_alpha 90.000000
_cell_angle_beta 48.453184
_cell_angle_gamma 90.000000
_cell_volume 749.622351
_symmetry_space_group_name_H-M "P 2/C"
_symmetry_group_IT_number 13
_symmetry_cell_setting 'monoclinic'
loop_
_space_group_symop_operation_xyz
x,y,z
-x,y,1/2-z
-x,-y,-z
x,-y,1/2+z
loop_
_atom_site_type_symbol
_atom_site_label
_atom_site_fract_x
_atom_site_fract_y
_atom_site_fract_z
Si Si1 0.857059 0.876708 0.180861
Si Si2 0.722344 0.960993 0.360828
Si Si3 0.000000 0.000000 0.000000
Si Si4 0.630433 0.804499 0.577121
Si Si5 0.500000 0.050734 0.250000
Si Si6 0.825979 0.461306 0.409601
O O1 0.980937 0.597420 0.145279
O O2 0.831521 0.000353 0.260254
O O3 0.657566 0.850075 0.222694
O O4 0.936503 0.049851 0.095350
O O5 0.523812 0.049450 0.412680
O O6 0.803206 0.141706 0.392651
O O7 0.740499 0.636405 0.377825
O O8 0.798278 0.009512 0.041244
O O9 0.547864 0.752243 0.673608
O O10 0.714445 0.550335 0.508128
#
# Coordination Sequence:
#
# PCOD9237733 Si02
#       6
#     4   4   2   4   2   4
#     4   9  19  36  65  94 129 170 222 275 334 400
#     4  11  23  39  64  95 131 172 217 272 334 401
#     4   8  16  36  66  94 128 174 222 276 332 392
#     4   9  18  36  65  94 131 171 222 274 332 398
#     4   8  16  36  66  94 128 174 224 282 338 400
#     4  11  23  39  64  95 131 172 216 271 335 403
#
# _framework density 26.680099999999999
#
# number of rings (size 3 to 8) (size 9 to 14) (size 15 to 20)
#    0.000    2.400    0.000    1.800    0.000    3.200 
#    0.000    0.000    0.000  170.400    0.000    4.200 
#    0.000    0.000    0.000    0.000    0.000    0.000 
#
# Total GULP energy -111411.720393 kJ/mol
# GULP energy per Si atom -5570.586020 kJ/mol
# Density = 2.661937 g / cm^3
# Si number density = 26.680100 Si / 1000 Ang^3
#
#
#
# Elastic Constant Matrix: (Units=GPa)
#
#
# Indices 1 2 3 4 5 6 
#
# 1 195.0197 25.1653 83.9049 0.0000 9.5251 0.0000
# 2 25.1653 56.8234 32.7579 0.0000 1.6060 0.0000
# 3 83.9049 32.7579 197.9068 0.0000 0.6010 0.0000
# 4 0.0000 0.0000 0.0000 14.0939 0.0000 0.6493
# 5 9.5251 1.6060 0.6010 0.0000 49.9166 0.0000
# 6 0.0000 0.0000 0.0000 0.6493 0.0000 6.8227
#
#
#
# Elastic Compliance Matrix: (Units=1/GPa)
#
#
# Indices 1 2 3 4 5 6 
#
# 1 0.006436 -0.001378 -0.002497 0.000000 -0.001154 0.000000
# 2 -0.001378 0.019767 -0.002687 0.000000 -0.000341 0.000000
# 3 -0.002497 -0.002687 0.006555 0.000000 0.000484 0.000000
# 4 0.000000 0.000000 0.000000 0.071265 0.000000 -0.006782
# 5 -0.001154 -0.000341 0.000484 0.000000 0.020259 0.000000
# 6 0.000000 0.000000 0.000000 -0.006782 0.000000 0.147214
#
#
# Mechanical properties :
#
#
# Convention : Reuss Voigt Hill
#
# Bulk Modulus (GPa) = 50.93100 81.48954 66.21027
# Shear Modulus (GPa) = 17.17239 34.69477 25.93358
#
# Velocity S-wave (km/s) = 2.53976 3.61002 3.12111
# Velocity P-wave (km/s) = 5.26607 6.92718 6.15294
#
# Compressibility (1/GPa) = 0.01963441
#
# Stress axis : x y z
#
# Youngs Moduli (GPa) = 155.37060 50.58895 152.56098
#
# Poissons Ratio (x) = 0.06972 0.38096
# Poissons Ratio (y) = 0.21414 0.40986
# Poissons Ratio (z) = 0.38797 0.13591
#
# Static dielectric constant tensor:
#      x y z
#    x 2.042150 0.000000 -0.031710 
#    y 0.000000 2.100290 0.000000 
#    z -0.031710 0.000000 2.056660 
# 
# From -- ./inp_files/85509.got.cif
#   From: 2010.05.17/outbox.cif.g08.bks.cpg/sg13_43_cif.got.tgz:85509.got - 2010.06.03 16:44:36.
