data_PCOD9237963
_publ_section_title
;
Structure prediction by ZEFSAII (Michael W. Deem and Ramdas Pophale) SiO2 
 PCOD9237963
Probable space group: P 2/C
;
_chemical_formula_sum "Si O2"
_cell_formula_units_Z 20
_cell_length_a 16.704682
_cell_length_b 5.578913
_cell_length_c 9.305625
_cell_angle_alpha 90.000000
_cell_angle_beta 101.259109
_cell_angle_gamma 90.000000
_cell_volume 850.537661
_symmetry_space_group_name_H-M "P 2/C"
_symmetry_group_IT_number 13
_symmetry_cell_setting 'monoclinic'
loop_
_space_group_symop_operation_xyz
x,y,z
-x,y,1/2-z
-x,-y,-z
x,-y,1/2+z
loop_
_atom_site_type_symbol
_atom_site_label
_atom_site_fract_x
_atom_site_fract_y
_atom_site_fract_z
Si Si1 0.928404 0.190034 0.990942
Si Si2 0.286231 0.238749 0.273938
Si Si3 0.877781 0.490953 0.718708
Si Si4 0.214855 0.894281 0.478780
Si Si5 0.527194 0.746758 0.590484
O O1 0.930920 0.387536 0.866622
O O2 0.838599 0.073521 0.942464
O O3 0.920397 0.296620 0.147330
O O4 0.000000 0.000000 0.000000
O O5 0.212403 0.427891 0.263031
O O6 0.287272 0.198182 0.103970
O O7 0.374678 0.283759 0.367420
O O8 0.252909 0.017261 0.354743
O O9 0.854122 0.291459 0.594054
O O10 0.500000 0.756012 0.750000
O O11 0.500000 0.500000 0.500000
O O12 0.500000 0.000000 0.500000
#
# Coordination Sequence:
#
# PCOD9237963 Si02
#       5
#     4   4   4   4   4
#     4  11  26  48  74 108 148 188 252 318 382 456
#     4  11  25  44  80 103 151 197 260 311 375 482
#     4  11  24  48  74 106 142 201 249 305 392 445
#     4  11  23  46  73 108 140 198 252 309 376 453
#     4  12  29  50  78 123 168 213 265 333 414 476
#
# _framework density 23.514538999999999
#
# number of rings (size 3 to 8) (size 9 to 14) (size 15 to 20)
#    0.000    0.800    4.000    1.800    5.600    1.600 
#    3.600    1.000    0.000    0.000    0.000    0.000 
#    0.000    0.000    0.000    0.000    0.000    0.000 
#
# Total GULP energy -111792.623411 kJ/mol
# GULP energy per Si atom -5589.631171 kJ/mol
# Density = 2.346102 g / cm^3
# Si number density = 23.514539 Si / 1000 Ang^3
#
#
#
# Elastic Constant Matrix: (Units=GPa)
#
#
# Indices 1 2 3 4 5 6 
#
# 1 137.0485 56.6175 65.9950 0.0000 35.8124 0.0000
# 2 56.6175 112.1395 66.8699 0.0000 6.1617 0.0000
# 3 65.9950 66.8699 153.3621 0.0000 12.6360 0.0000
# 4 0.0000 0.0000 0.0000 43.2333 0.0000 6.8115
# 5 35.8124 6.1617 12.6360 0.0000 38.9691 0.0000
# 6 0.0000 0.0000 0.0000 6.8115 0.0000 27.9305
#
#
#
# Elastic Compliance Matrix: (Units=1/GPa)
#
#
# Indices 1 2 3 4 5 6 
#
# 1 0.013275 -0.004371 -0.002937 0.000000 -0.010556 0.000000
# 2 -0.004371 0.013492 -0.004271 0.000000 0.003269 0.000000
# 3 -0.002937 -0.004271 0.009626 0.000000 0.000253 0.000000
# 4 0.000000 0.000000 0.000000 0.024055 0.000000 -0.005866
# 5 -0.010556 0.003269 0.000253 0.000000 0.034764 0.000000
# 6 0.000000 0.000000 0.000000 -0.005866 0.000000 0.037234
#
#
# Mechanical properties :
#
#
# Convention : Reuss Voigt Hill
#
# Bulk Modulus (GPa) = 75.56011 86.83498 81.19754
# Shear Modulus (GPa) = 31.24720 36.23109 33.73915
#
# Velocity S-wave (km/s) = 3.64929 3.92955 3.79201
# Velocity P-wave (km/s) = 7.06821 7.58926 7.33336
#
# Compressibility (1/GPa) = 0.01323450
#
# Stress axis : x y z
#
# Youngs Moduli (GPa) = 75.32811 74.12003 103.88776
#
# Poissons Ratio (x) = 0.32399 0.30511
# Poissons Ratio (y) = 0.32927 0.44371
# Poissons Ratio (z) = 0.22123 0.31657
#
# Static dielectric constant tensor:
#      x y z
#    x 1.901850 0.000000 -0.109270 
#    y 0.000000 2.064380 0.000000 
#    z -0.109270 0.000000 2.373950 
# 
# From -- ./inp_files/20512.got.cif
#   From: 2010.05.17/outbox.cif.g08.bks.cpg/sg13_11_cif.got.tgz:20512.got - 2010.06.03 16:44:36.
