data_PCOD9237801
_publ_section_title
;
Structure prediction by ZEFSAII (Michael W. Deem and Ramdas Pophale) SiO2 
 PCOD9237801
Probable space group: P 2/C
;
_chemical_formula_sum "Si O2"
_cell_formula_units_Z 22
_cell_length_a 24.121421
_cell_length_b 9.016511
_cell_length_c 14.693251
_cell_angle_alpha 90.000000
_cell_angle_beta 160.466984
_cell_angle_gamma 90.000000
_cell_volume 1068.465779
_symmetry_space_group_name_H-M "P 2/C"
_symmetry_group_IT_number 13
_symmetry_cell_setting 'monoclinic'
loop_
_space_group_symop_operation_xyz
x,y,z
-x,y,1/2-z
-x,-y,-z
x,-y,1/2+z
loop_
_atom_site_type_symbol
_atom_site_label
_atom_site_fract_x
_atom_site_fract_y
_atom_site_fract_z
Si Si1 0.000000 0.857826 0.750000
Si Si2 0.862839 0.390565 0.749301
Si Si3 0.712625 0.664666 0.209407
Si Si4 0.585046 0.869878 0.688977
Si Si5 0.198210 0.609911 0.538912
Si Si6 0.100912 0.065043 0.739325
O O1 0.860616 0.753411 0.489609
O O2 0.942354 0.967005 0.740568
O O3 0.748717 0.347506 0.657884
O O4 0.778235 0.454438 0.527618
O O5 0.942591 0.239185 0.833244
O O6 0.000000 0.500000 0.000000
O O7 0.717360 0.500552 0.259329
O O8 0.549607 0.756933 0.980324
O O9 0.712252 0.770122 0.825043
O O10 0.500000 0.000000 0.500000
O O11 0.698790 0.933661 0.946595
O O12 0.000000 0.613106 0.250000
O O13 0.000000 0.000000 0.500000
#
# Coordination Sequence:
#
# PCOD9237801 Si02
#       6
#     2   4   4   4   4   4
#     4  12  22  42  76  96 142 196 236 298 382 444
#     4  11  23  41  71 103 136 186 248 295 360 443
#     4  12  23  46  71 103 144 192 242 309 374 442
#     4  11  26  43  72 104 149 187 243 308 374 439
#     4  11  24  43  73 101 141 193 244 300 370 450
#     4  11  25  43  68 105 138 187 244 294 362 444
#
# _framework density 20.590271000000001
#
# number of rings (size 3 to 8) (size 9 to 14) (size 15 to 20)
#    0.000    0.727    6.364    0.545    5.091    2.909 
#    0.000    0.000    0.000    0.000    0.000    0.000 
#    0.000    0.000    0.000    0.000    0.000    0.000 
#
# Total GULP energy -122819.380591 kJ/mol
# GULP energy per Si atom -5582.699118 kJ/mol
# Density = 2.054341 g / cm^3
# Si number density = 20.590271 Si / 1000 Ang^3
#
#
#
# Elastic Constant Matrix: (Units=GPa)
#
#
# Indices 1 2 3 4 5 6 
#
# 1 129.5625 34.7168 41.8917 0.0000 -10.9177 0.0000
# 2 34.7168 93.5768 39.6399 0.0000 1.4054 0.0000
# 3 41.8917 39.6399 132.2192 0.0000 -0.3143 0.0000
# 4 0.0000 0.0000 0.0000 51.8005 0.0000 -4.4182
# 5 -10.9177 1.4054 -0.3143 0.0000 35.0922 0.0000
# 6 0.0000 0.0000 0.0000 -4.4182 0.0000 31.1425
#
#
#
# Elastic Compliance Matrix: (Units=1/GPa)
#
#
# Indices 1 2 3 4 5 6 
#
# 1 0.009373 -0.002597 -0.002184 0.000000 0.003001 0.000000
# 2 -0.002597 0.012970 -0.003069 0.000000 -0.001355 0.000000
# 3 -0.002184 -0.003069 0.009174 0.000000 -0.000474 0.000000
# 4 0.000000 0.000000 0.000000 0.019541 0.000000 0.002772
# 5 0.003001 -0.001355 -0.000474 0.000000 0.029480 0.000000
# 6 0.000000 0.000000 0.000000 0.002772 0.000000 0.032504
#
#
# Mechanical properties :
#
#
# Convention : Reuss Voigt Hill
#
# Bulk Modulus (GPa) = 63.22174 65.31727 64.26950
# Shear Modulus (GPa) = 37.30912 39.54771 38.42842
#
# Velocity S-wave (km/s) = 4.26135 4.38733 4.32480
# Velocity P-wave (km/s) = 7.41508 7.57999 7.49799
#
# Compressibility (1/GPa) = 0.01581735
#
# Stress axis : x y z
#
# Youngs Moduli (GPa) = 106.68665 77.09875 109.00287
#
# Poissons Ratio (x) = 0.20026 0.23805
# Poissons Ratio (y) = 0.27711 0.33451
# Poissons Ratio (z) = 0.23300 0.23660
#
# Static dielectric constant tensor:
#      x y z
#    x 1.779960 0.000000 -0.003890 
#    y 0.000000 1.774350 0.000000 
#    z -0.003890 0.000000 1.755030 
# 
# From -- ./inp_files/58756.got.cif
#   From: 2010.05.17/outbox.cif.g08.bks.cpg/sg13_30_cif.got.tgz:58756.got - 2010.06.03 16:44:36.
