data_PCOD9237914
_publ_section_title
;
Structure prediction by ZEFSAII (Michael W. Deem and Ramdas Pophale) SiO2 
 PCOD9237914
Probable space group: P 2/C
;
_chemical_formula_sum "Si O2"
_cell_formula_units_Z 22
_cell_length_a 7.910374
_cell_length_b 6.306198
_cell_length_c 20.050255
_cell_angle_alpha 90.000000
_cell_angle_beta 109.571745
_cell_angle_gamma 90.000000
_cell_volume 942.406152
_symmetry_space_group_name_H-M "P 2/C"
_symmetry_group_IT_number 13
_symmetry_cell_setting 'monoclinic'
loop_
_space_group_symop_operation_xyz
x,y,z
-x,y,1/2-z
-x,-y,-z
x,-y,1/2+z
loop_
_atom_site_type_symbol
_atom_site_label
_atom_site_fract_x
_atom_site_fract_y
_atom_site_fract_z
Si Si1 0.219837 0.189695 0.200807
Si Si2 0.000000 0.458093 0.750000
Si Si3 0.862180 0.944980 0.573368
Si Si4 0.587241 0.450793 0.831873
Si Si5 0.908618 0.698759 0.455636
Si Si6 0.708552 0.853876 0.171625
O O1 0.371685 0.296428 0.172794
O O2 0.146048 0.385142 0.236280
O O3 0.046363 0.134494 0.133367
O O4 0.276998 0.996848 0.257900
O O5 0.113915 0.294108 0.809117
O O6 0.803853 0.802814 0.503801
O O7 0.719830 0.982572 0.612307
O O8 0.929213 0.157292 0.547138
O O9 0.500000 0.391484 0.750000
O O10 0.777635 0.356008 0.877984
O O11 0.448780 0.318117 0.858453
O O12 0.000000 0.500000 0.500000
#
# Coordination Sequence:
#
# PCOD9237914 Si02
#       6
#     4   2   4   4   4   4
#     4  12  23  44  75 107 146 195 245 306 375 437
#     4  12  20  42  70 110 136 200 244 298 370 440
#     4  11  23  44  76 101 141 201 249 292 370 456
#     4  12  26  45  70 110 146 184 243 318 372 425
#     4  11  25  47  74 100 147 199 243 301 378 452
#     4  12  25  43  72 110 148 190 255 312 362 447
#
# _framework density 23.344497
#
# number of rings (size 3 to 8) (size 9 to 14) (size 15 to 20)
#    0.000    0.364    7.273    2.182    0.000    2.909 
#    0.000    0.909    0.000    0.000    0.000    0.000 
#    0.000    0.000    0.000    0.000    0.000    0.000 
#
# Total GULP energy -122704.917825 kJ/mol
# GULP energy per Si atom -5577.496265 kJ/mol
# Density = 2.329136 g / cm^3
# Si number density = 23.344497 Si / 1000 Ang^3
#
#
#
# Elastic Constant Matrix: (Units=GPa)
#
#
# Indices 1 2 3 4 5 6 
#
# 1 79.8840 33.9781 11.4716 0.0000 1.7004 0.0000
# 2 33.9781 97.7472 30.4581 0.0000 -8.9800 0.0000
# 3 11.4716 30.4581 80.9988 0.0000 -7.3013 0.0000
# 4 0.0000 0.0000 0.0000 29.5050 0.0000 7.5072
# 5 1.7004 -8.9800 -7.3013 0.0000 26.6191 0.0000
# 6 0.0000 0.0000 0.0000 7.5072 0.0000 42.9799
#
#
#
# Elastic Compliance Matrix: (Units=1/GPa)
#
#
# Indices 1 2 3 4 5 6 
#
# 1 0.014897 -0.005327 -0.000364 0.000000 -0.002848 0.000000
# 2 -0.005327 0.013698 -0.004049 0.000000 0.003851 0.000000
# 3 -0.000364 -0.004049 0.014149 0.000000 0.002538 0.000000
# 4 0.000000 0.000000 0.000000 0.035469 0.000000 -0.006195
# 5 -0.002848 0.003851 0.002538 0.000000 0.039744 0.000000
# 6 0.000000 0.000000 0.000000 -0.006195 0.000000 0.024349
#
#
# Mechanical properties :
#
#
# Convention : Reuss Voigt Hill
#
# Bulk Modulus (GPa) = 42.98455 45.60507 44.29481
# Shear Modulus (GPa) = 29.49186 32.00227 30.74707
#
# Velocity S-wave (km/s) = 3.55819 3.70654 3.63313
# Velocity P-wave (km/s) = 5.94425 6.15598 6.05104
#
# Compressibility (1/GPa) = 0.02326417
#
# Stress axis : x y z
#
# Youngs Moduli (GPa) = 67.12934 73.00572 70.67751
#
# Poissons Ratio (x) = 0.38887 0.02569
# Poissons Ratio (y) = 0.35757 0.28619
# Poissons Ratio (z) = 0.02440 0.29562
#
# Static dielectric constant tensor:
#      x y z
#    x 1.986160 0.000000 -0.053490 
#    y 0.000000 1.986390 0.000000 
#    z -0.053490 0.000000 1.905630 
# 
# From -- ./inp_files/84404.got.cif
#   From: 2010.05.17/outbox.cif.g08.bks.cpg/sg13_43_cif.got.tgz:84404.got - 2010.06.03 16:44:36.
