data_PCOD9237966
_publ_section_title
;
Structure prediction by ZEFSAII (Michael W. Deem and Ramdas Pophale) SiO2 
 PCOD9237966
Probable space group: P 2/C
;
_chemical_formula_sum "Si O2"
_cell_formula_units_Z 18
_cell_length_a 10.311306
_cell_length_b 11.875470
_cell_length_c 10.106251
_cell_angle_alpha 90.000000
_cell_angle_beta 41.558283
_cell_angle_gamma 90.000000
_cell_volume 820.952371
_symmetry_space_group_name_H-M "P 2/C"
_symmetry_group_IT_number 13
_symmetry_cell_setting 'monoclinic'
loop_
_space_group_symop_operation_xyz
x,y,z
-x,y,1/2-z
-x,-y,-z
x,-y,1/2+z
loop_
_atom_site_type_symbol
_atom_site_label
_atom_site_fract_x
_atom_site_fract_y
_atom_site_fract_z
Si Si1 0.500000 0.071960 0.750000
Si Si2 0.304692 0.709976 0.827801
Si Si3 0.766591 0.740292 0.923299
Si Si4 0.886755 0.065334 0.974079
Si Si5 0.859653 0.520659 0.982507
O O1 0.620292 0.157049 0.563307
O O2 0.673181 0.988717 0.657397
O O3 0.500000 0.753778 0.750000
O O4 0.294768 0.697948 0.676077
O O5 0.135953 0.800903 0.987731
O O6 0.274270 0.588134 0.914822
O O7 0.246802 0.640945 0.455713
O O8 0.000000 0.772452 0.750000
O O9 0.000000 0.046612 0.750000
O O10 0.000000 0.000000 0.000000
O O11 0.000000 0.517888 0.750000
O O12 0.000000 0.500000 0.000000
#
# Coordination Sequence:
#
# PCOD9237966 Si02
#       5
#     2   4   4   4   4
#     4  12  26  46  78 106 148 194 252 306 368 440
#     4  12  26  45  72 113 151 189 253 308 368 446
#     4  11  25  48  74 108 148 201 245 300 377 445
#     4  12  28  49  76 109 150 198 247 309 372 441
#     4  11  23  46  74 105 148 195 246 299 373 447
#
# _framework density 21.925754000000001
#
# number of rings (size 3 to 8) (size 9 to 14) (size 15 to 20)
#    0.000    0.444    5.556    4.000    4.667    4.444 
#    0.000    0.000    0.000    0.000    0.000    0.000 
#    0.000    0.000    0.000    0.000    0.000    0.000 
#
# Total GULP energy -100416.594390 kJ/mol
# GULP energy per Si atom -5578.699688 kJ/mol
# Density = 2.187585 g / cm^3
# Si number density = 21.925754 Si / 1000 Ang^3
#
#
#
# Elastic Constant Matrix: (Units=GPa)
#
#
# Indices 1 2 3 4 5 6 
#
# 1 134.7428 14.0830 32.2146 0.0000 -6.8891 0.0000
# 2 14.0830 120.2793 21.0912 0.0000 -9.5307 0.0000
# 3 32.2146 21.0912 62.5751 0.0000 -19.8641 0.0000
# 4 0.0000 0.0000 0.0000 2.6693 0.0000 -32.6062
# 5 -6.8891 -9.5307 -19.8641 0.0000 39.6110 0.0000
# 6 0.0000 0.0000 0.0000 -32.6062 0.0000 11.9390
#
#
#
# Elastic Compliance Matrix: (Units=1/GPa)
#
#
# Indices 1 2 3 4 5 6 
#
# 1 0.008495 -0.000264 -0.004562 0.000000 -0.000874 0.000000
# 2 -0.000264 0.008863 -0.002604 0.000000 0.000781 0.000000
# 3 -0.004562 -0.002604 0.022307 0.000000 0.009767 0.000000
# 4 0.000000 0.000000 0.000000 -0.011577 0.000000 -0.031617
# 5 -0.000874 0.000781 0.009767 0.000000 0.030179 0.000000
# 6 0.000000 0.000000 0.000000 -0.031617 0.000000 -0.002588
#
#
# Mechanical properties :
#
#
# Convention : Reuss Voigt Hill
#
# Bulk Modulus (GPa) = 40.31122 50.26384 45.28753
# Shear Modulus (GPa) = 63.44555 27.52442 45.48499
#
# Velocity S-wave (km/s) = 5.38511 3.54693 4.55961
# Velocity P-wave (km/s) = 7.55586 6.30465 6.95844
#
# Compressibility (1/GPa) = 0.02480699
#
# Stress axis : x y z
#
# Youngs Moduli (GPa) = 117.71482 112.82448 44.82848
#
# Poissons Ratio (x) = 0.02978 0.20450
# Poissons Ratio (y) = 0.03107 0.11672
# Poissons Ratio (z) = 0.53699 0.29375
#
# Static dielectric constant tensor:
#      x y z
#    x 1.753660 0.000000 0.029890 
#    y 0.000000 1.896680 0.000000 
#    z 0.029890 0.000000 1.739670 
# 
# From -- ./inp_files/33535.got.cif
#   From: 2010.05.17/outbox.cif.g08.bks.cpg/sg13_17_cif.got.tgz:33535.got - 2010.06.03 16:44:36.
