data_PCOD9237806
_publ_section_title
;
Structure prediction by ZEFSAII (Michael W. Deem and Ramdas Pophale) SiO2 
 PCOD9237806
Probable space group: P 2/C
;
_chemical_formula_sum "Si O2"
_cell_formula_units_Z 20
_cell_length_a 14.977762
_cell_length_b 5.458670
_cell_length_c 9.338709
_cell_angle_alpha 90.000000
_cell_angle_beta 94.873141
_cell_angle_gamma 90.000000
_cell_volume 760.760383
_symmetry_space_group_name_H-M "P 2/C"
_symmetry_group_IT_number 13
_symmetry_cell_setting 'monoclinic'
loop_
_space_group_symop_operation_xyz
x,y,z
-x,y,1/2-z
-x,-y,-z
x,-y,1/2+z
loop_
_atom_site_type_symbol
_atom_site_label
_atom_site_fract_x
_atom_site_fract_y
_atom_site_fract_z
Si Si1 0.424000 0.666808 0.659254
Si Si2 0.615294 0.051123 0.594696
Si Si3 0.971219 0.247353 0.577966
Si Si4 0.264707 0.678718 0.040057
Si Si5 0.208108 0.660541 0.316941
O O1 0.500000 0.504370 0.750000
O O2 0.331145 0.535455 0.607231
O O3 0.451546 0.781948 0.509159
O O4 0.411834 0.871355 0.781456
O O5 0.668461 0.897520 0.481421
O O6 0.694086 0.220685 0.665127
O O7 0.862987 0.230433 0.583127
O O8 0.000000 0.259305 0.750000
O O9 0.000000 0.500000 0.500000
O O10 0.000000 0.000000 0.500000
O O11 0.187109 0.695061 0.147504
O O12 0.222042 0.610868 0.880973
#
# Coordination Sequence:
#
# PCOD9237806 Si02
#       5
#     4   4   4   4   4
#     4  11  24  40  64  96 133 173 226 288 342 408
#     4  11  23  42  64  95 125 178 228 270 347 405
#     4  12  29  50  77 116 153 196 246 311 385 445
#     4  11  23  43  67  97 127 183 226 276 345 411
#     4  11  25  43  73  93 137 175 234 284 339 439
#
# _framework density 26.289487000000001
#
# number of rings (size 3 to 8) (size 9 to 14) (size 15 to 20)
#    0.000    0.800    4.000    2.400    5.600    1.600 
#    0.000    0.000    0.000    0.000    0.000    0.000 
#    0.000    0.000    0.000    0.000    0.000    0.000 
#
# Total GULP energy -111720.906010 kJ/mol
# GULP energy per Si atom -5586.045300 kJ/mol
# Density = 2.622965 g / cm^3
# Si number density = 26.289487 Si / 1000 Ang^3
#
#
#
# Elastic Constant Matrix: (Units=GPa)
#
#
# Indices 1 2 3 4 5 6 
#
# 1 50.5281 1.3536 12.3709 0.0000 -22.5906 0.0000
# 2 1.3536 95.0957 61.0637 0.0000 -18.8769 0.0000
# 3 12.3709 61.0637 171.8360 0.0000 -27.2799 0.0000
# 4 0.0000 0.0000 0.0000 62.2054 0.0000 -11.8070
# 5 -22.5906 -18.8769 -27.2799 0.0000 49.3196 0.0000
# 6 0.0000 0.0000 0.0000 -11.8070 0.0000 29.7646
#
#
#
# Elastic Compliance Matrix: (Units=1/GPa)
#
#
# Indices 1 2 3 4 5 6 
#
# 1 0.025352 0.002571 -0.000810 0.000000 0.012148 0.000000
# 2 0.002571 0.014242 -0.004598 0.000000 0.004086 0.000000
# 3 -0.000810 -0.004598 0.007864 0.000000 0.002219 0.000000
# 4 0.000000 0.000000 0.000000 0.017385 0.000000 0.006896
# 5 0.012148 0.004086 0.002219 0.000000 0.028631 0.000000
# 6 0.000000 0.000000 0.000000 0.006896 0.000000 0.036332
#
#
# Mechanical properties :
#
#
# Convention : Reuss Voigt Hill
#
# Bulk Modulus (GPa) = 23.93254 51.89289 37.91272
# Shear Modulus (GPa) = 33.46529 44.43606 38.95067
#
# Velocity S-wave (km/s) = 3.57172 4.11574 3.85334
# Velocity P-wave (km/s) = 5.11202 6.50904 5.85237
#
# Compressibility (1/GPa) = 0.04178412
#
# Stress axis : x y z
#
# Youngs Moduli (GPa) = 39.44506 70.21268 127.16319
#
# Poissons Ratio (x) = -0.18050 0.10302
# Poissons Ratio (y) = -0.10141 0.58465
# Poissons Ratio (z) = 0.03196 0.32281
#
# Static dielectric constant tensor:
#      x y z
#    x 2.126950 0.000000 0.045700 
#    y 0.000000 2.134720 0.000000 
#    z 0.045700 0.000000 2.188150 
# 
# From -- ./inp_files/20467.got.cif
#   From: 2010.05.17/outbox.cif.g08.bks.cpg/sg13_11_cif.got.tgz:20467.got - 2010.06.03 16:44:36.
