data_PCOD9237567
_publ_section_title
;
Structure prediction by ZEFSAII (Michael W. Deem and Ramdas Pophale) SiO2 
 PCOD9237567
Probable space group: P 2/C
;
_chemical_formula_sum "Si O2"
_cell_formula_units_Z 28
_cell_length_a 6.671430
_cell_length_b 11.608106
_cell_length_c 19.501394
_cell_angle_alpha 90.000000
_cell_angle_beta 103.621733
_cell_angle_gamma 90.000000
_cell_volume 1467.759529
_symmetry_space_group_name_H-M "P 2/C"
_symmetry_group_IT_number 13
_symmetry_cell_setting 'monoclinic'
loop_
_space_group_symop_operation_xyz
x,y,z
-x,y,1/2-z
-x,-y,-z
x,-y,1/2+z
loop_
_atom_site_type_symbol
_atom_site_label
_atom_site_fract_x
_atom_site_fract_y
_atom_site_fract_z
Si Si1 0.221967 0.691168 0.071919
Si Si2 0.782126 0.052672 0.455900
Si Si3 0.459795 0.535025 0.575929
Si Si4 0.112876 0.296686 0.073542
Si Si5 0.093989 0.464661 0.333489
Si Si6 0.056616 0.263068 0.833734
Si Si7 0.557490 0.132949 0.576078
O O1 0.322027 0.568057 0.097074
O O2 0.403648 0.761906 0.051367
O O3 0.131389 0.761451 0.129325
O O4 0.041844 0.682146 0.002128
O O5 0.849094 0.160648 0.414194
O O6 0.671104 0.097295 0.515871
O O7 0.603348 0.967120 0.412536
O O8 0.000000 0.000000 0.500000
O O9 0.500000 0.500000 0.500000
O O10 0.326816 0.649094 0.567714
O O11 0.664387 0.557146 0.635869
O O12 0.024415 0.372653 0.128617
O O13 0.085465 0.600584 0.352866
O O14 0.000000 0.456242 0.250000
O O15 0.257534 0.184960 0.863018
O O16 0.000000 0.253593 0.750000
#
# Coordination Sequence:
#
# PCOD9237567 Si02
#       7
#     4   4   4   4   4   4   4
#     4  12  21  38  64 100 126 161 220 274 324 391
#     4  11  23  40  66  97 127 164 220 283 321 377
#     4  12  22  36  66  96 128 166 212 269 331 388
#     4  12  23  38  66  95 130 166 216 270 320 393
#     4  11  25  41  60  96 141 176 208 263 340 403
#     4  11  23  41  61  93 138 174 209 270 334 399
#     4  11  22  39  66  96 128 166 217 271 337 376
#
# _framework density 19.076695000000001
#
# number of rings (size 3 to 8) (size 9 to 14) (size 15 to 20)
#    0.000    0.571    7.143    2.143    0.000    1.143 
#    0.000    0.000    0.000   12.857    0.000    0.000 
#    0.000    0.000    0.000    0.000    0.000    0.000 
#
# Total GULP energy -156140.790602 kJ/mol
# GULP energy per Si atom -5576.456807 kJ/mol
# Density = 1.903328 g / cm^3
# Si number density = 19.076695 Si / 1000 Ang^3
#
#
#
# Elastic Constant Matrix: (Units=GPa)
#
#
# Indices 1 2 3 4 5 6 
#
# 1 127.2627 51.8574 46.2589 0.0000 17.4544 0.0000
# 2 51.8574 120.6630 32.1522 0.0000 9.8526 0.0000
# 3 46.2589 32.1522 84.1483 0.0000 7.2290 0.0000
# 4 0.0000 0.0000 0.0000 12.2991 0.0000 -2.0742
# 5 17.4544 9.8526 7.2290 0.0000 25.0298 0.0000
# 6 0.0000 0.0000 0.0000 -2.0742 0.0000 50.7242
#
#
#
# Elastic Compliance Matrix: (Units=1/GPa)
#
#
# Indices 1 2 3 4 5 6 
#
# 1 0.011659 -0.003319 -0.004671 0.000000 -0.005475 0.000000
# 2 -0.003319 0.010351 -0.002029 0.000000 -0.001174 0.000000
# 3 -0.004671 -0.002029 0.015257 0.000000 -0.000350 0.000000
# 4 0.000000 0.000000 0.000000 0.081871 0.000000 0.003348
# 5 -0.005475 -0.001174 -0.000350 0.000000 0.044333 0.000000
# 6 0.000000 0.000000 0.000000 0.003348 0.000000 0.019851
#
#
# Mechanical properties :
#
#
# Convention : Reuss Voigt Hill
#
# Bulk Modulus (GPa) = 58.04514 65.84569 61.94541
# Shear Modulus (GPa) = 23.91163 31.06434 27.48799
#
# Velocity S-wave (km/s) = 3.54425 4.03971 3.80006
# Velocity P-wave (km/s) = 6.87330 7.50668 7.19696
#
# Compressibility (1/GPa) = 0.01722797
#
# Stress axis : x y z
#
# Youngs Moduli (GPa) = 85.77166 96.61305 65.54382
#
# Poissons Ratio (x) = 0.32066 0.30614
# Poissons Ratio (y) = 0.28468 0.13302
# Poissons Ratio (z) = 0.40062 0.19607
#
# Static dielectric constant tensor:
#      x y z
#    x 1.760750 0.000000 0.003580 
#    y 0.000000 1.711920 0.000000 
#    z 0.003580 0.000000 1.633050 
# 
# From -- ./inp_files/73372.got.cif
#   From: 2010.05.17/outbox.cif.g08.bks.cpg/sg13_37_cif.got.tgz:73372.got - 2010.06.03 16:44:36.
