data_PCOD9237477
_publ_section_title
;
Structure prediction by ZEFSAII (Michael W. Deem and Ramdas Pophale) SiO2 
 PCOD9237477
Probable space group: P 2/C
;
_chemical_formula_sum "Si O2"
_cell_formula_units_Z 16
_cell_length_a 9.411232
_cell_length_b 7.250393
_cell_length_c 20.201883
_cell_angle_alpha 90.000000
_cell_angle_beta 147.129136
_cell_angle_gamma 90.000000
_cell_volume 748.165442
_symmetry_space_group_name_H-M "P 2/C"
_symmetry_group_IT_number 13
_symmetry_cell_setting 'monoclinic'
loop_
_space_group_symop_operation_xyz
x,y,z
-x,y,1/2-z
-x,-y,-z
x,-y,1/2+z
loop_
_atom_site_type_symbol
_atom_site_label
_atom_site_fract_x
_atom_site_fract_y
_atom_site_fract_z
Si Si1 0.693391 0.483196 0.638325
Si Si2 0.511706 0.233045 0.331527
Si Si3 0.601953 0.823619 0.193767
Si Si4 0.087887 0.701648 0.058713
O O1 0.500000 0.500000 0.500000
O O2 0.581342 0.612709 0.653473
O O3 0.679128 0.270378 0.655856
O O4 0.000000 0.531412 0.750000
O O5 0.500000 0.292091 0.250000
O O6 0.817640 0.191501 0.461550
O O7 0.358609 0.041368 0.281936
O O8 0.297682 0.779510 0.089182
O O9 0.765621 0.716363 0.314111
O O10 0.000000 0.500000 0.000000
#
# Coordination Sequence:
#
# PCOD9237477 Si02
#       4
#     4   4   4   4
#     4  12  29  48  69 101 150 200 233 289 370 445
#     4  12  25  43  78 106 137 183 246 305 352 420
#     4  11  25  43  71 107 138 182 243 297 363 419
#     4  11  21  42  71 109 141 176 230 314 362 408
#
# _framework density 21.385645
#
# number of rings (size 3 to 8) (size 9 to 14) (size 15 to 20)
#    0.000    0.500    5.000    3.750    3.500    2.000 
#    0.000    0.000    0.000    0.000    0.000    0.000 
#    0.000    0.000    0.000    0.000    0.000    0.000 
#
# Total GULP energy -89409.095092 kJ/mol
# GULP energy per Si atom -5588.068443 kJ/mol
# Density = 2.133697 g / cm^3
# Si number density = 21.385645 Si / 1000 Ang^3
#
#
#
# Elastic Constant Matrix: (Units=GPa)
#
#
# Indices 1 2 3 4 5 6 
#
# 1 106.6646 26.0038 74.4795 0.0000 -1.6160 0.0000
# 2 26.0038 112.6891 55.4177 0.0000 -24.3682 0.0000
# 3 74.4795 55.4177 135.7928 0.0000 6.8457 0.0000
# 4 0.0000 0.0000 0.0000 23.3864 0.0000 9.8194
# 5 -1.6160 -24.3682 6.8457 0.0000 42.1923 0.0000
# 6 0.0000 0.0000 0.0000 9.8194 0.0000 27.2859
#
#
#
# Elastic Compliance Matrix: (Units=1/GPa)
#
#
# Indices 1 2 3 4 5 6 
#
# 1 0.015560 0.001692 -0.009381 0.000000 0.003095 0.000000
# 2 0.001692 0.013988 -0.007105 0.000000 0.009296 0.000000
# 3 -0.009381 -0.007105 0.015763 0.000000 -0.007020 0.000000
# 4 0.000000 0.000000 0.000000 0.050371 0.000000 -0.018127
# 5 0.003095 0.009296 -0.007020 0.000000 0.030328 0.000000
# 6 0.000000 0.000000 0.000000 -0.018127 0.000000 0.043172
#
#
# Mechanical properties :
#
#
# Convention : Reuss Voigt Hill
#
# Bulk Modulus (GPa) = 63.60237 74.10539 68.85388
# Shear Modulus (GPa) = 24.50848 31.85594 28.18221
#
# Velocity S-wave (km/s) = 3.38897 3.86371 3.63410
# Velocity P-wave (km/s) = 6.71705 7.39131 7.06223
#
# Compressibility (1/GPa) = 0.01572268
#
# Stress axis : x y z
#
# Youngs Moduli (GPa) = 64.26816 71.48977 63.43992
#
# Poissons Ratio (x) = -0.12096 0.59512
# Poissons Ratio (y) = -0.10874 0.45076
# Poissons Ratio (z) = 0.60289 0.50795
#
# Static dielectric constant tensor:
#      x y z
#    x 1.773980 0.000000 0.011400 
#    y 0.000000 1.811970 0.000000 
#    z 0.011400 0.000000 1.832330 
# 
# From -- ./inp_files/63132.got.cif
#   From: 2010.05.17/outbox.cif.g08.bks.cpg/sg13_32_cif.got.tgz:63132.got - 2010.06.03 16:44:36.
