data_PCOD9237283
_publ_section_title
;
Structure prediction by ZEFSAII (Michael W. Deem and Ramdas Pophale) SiO2 
 PCOD9237283
Probable space group: P 2/C
;
_chemical_formula_sum "Si O2"
_cell_formula_units_Z 26
_cell_length_a 7.386042
_cell_length_b 15.184148
_cell_length_c 11.044530
_cell_angle_alpha 90.000000
_cell_angle_beta 81.203822
_cell_angle_gamma 90.000000
_cell_volume 1224.084071
_symmetry_space_group_name_H-M "P 2/C"
_symmetry_group_IT_number 13
_symmetry_cell_setting 'monoclinic'
loop_
_space_group_symop_operation_xyz
x,y,z
-x,y,1/2-z
-x,-y,-z
x,-y,1/2+z
loop_
_atom_site_type_symbol
_atom_site_label
_atom_site_fract_x
_atom_site_fract_y
_atom_site_fract_z
Si Si1 0.116831 0.973669 0.865336
Si Si2 0.637988 0.375801 0.974811
Si Si3 0.000000 0.653662 0.750000
Si Si4 0.766141 0.559276 0.973204
Si Si5 0.857070 0.839344 0.153609
Si Si6 0.837816 0.783223 0.571174
Si Si7 0.205940 0.341387 0.783396
O O1 0.217981 0.881377 0.880467
O O2 0.000000 0.962442 0.750000
O O3 0.231060 0.064350 0.844568
O O4 0.000000 0.000000 0.000000
O O5 0.438503 0.405536 0.036340
O O6 0.659230 0.381912 0.828187
O O7 0.769136 0.455603 0.001716
O O8 0.701967 0.278582 0.007302
O O9 0.882730 0.720438 0.679280
O O10 0.112373 0.591203 0.649552
O O11 0.813422 0.607450 0.091573
O O12 0.729940 0.757732 0.195868
O O13 0.000000 0.848805 0.250000
O O14 0.979686 0.805874 0.026807
O O15 0.000000 0.337023 0.750000
#
# Coordination Sequence:
#
# PCOD9237283 Si02
#       7
#     4   4   2   4   4   4   4
#     4   9  18  31  57  94 129 160 206 265 311 377
#     4  11  25  43  60  88 127 167 209 255 326 378
#     4  12  24  38  62  88 122 162 210 256 308 366
#     4  11  27  42  60  90 125 167 208 263 317 377
#     4   9  16  33  59  94 119 154 209 255 303 363
#     4  11  20  36  59  92 124 162 204 258 311 373
#     4  11  20  40  67  91 119 159 213 260 303 371
#
# _framework density 21.240373000000002
#
# number of rings (size 3 to 8) (size 9 to 14) (size 15 to 20)
#    0.000    1.538    5.385    0.462    3.231    1.846 
#    0.000    0.000    0.000    0.923    4.000    0.000 
#    0.000    0.000    0.000    0.000    0.000    0.000 
#
# Total GULP energy -144938.317047 kJ/mol
# GULP energy per Si atom -5574.550656 kJ/mol
# Density = 2.119203 g / cm^3
# Si number density = 21.240373 Si / 1000 Ang^3
#
#
#
# Elastic Constant Matrix: (Units=GPa)
#
#
# Indices 1 2 3 4 5 6 
#
# 1 28.5560 39.8505 25.6279 0.0000 -3.4646 0.0000
# 2 39.8505 188.7876 39.6281 0.0000 -2.4162 0.0000
# 3 25.6279 39.6281 119.8918 0.0000 -0.8174 0.0000
# 4 0.0000 0.0000 0.0000 53.6868 0.0000 20.8188
# 5 -3.4646 -2.4162 -0.8174 0.0000 26.7068 0.0000
# 6 0.0000 0.0000 0.0000 20.8188 0.0000 7.4031
#
#
#
# Elastic Compliance Matrix: (Units=1/GPa)
#
#
# Indices 1 2 3 4 5 6 
#
# 1 0.058287 -0.010333 -0.009001 0.000000 0.006351 0.000000
# 2 -0.010333 0.007529 -0.000284 0.000000 -0.000668 0.000000
# 3 -0.009001 -0.000284 0.010353 0.000000 -0.000877 0.000000
# 4 0.000000 0.000000 0.000000 -0.205805 0.000000 0.578758
# 5 0.006351 -0.000668 -0.000877 0.000000 0.038180 0.000000
# 6 0.000000 0.000000 0.000000 0.578758 0.000000 -1.492480
#
#
# Mechanical properties :
#
#
# Convention : Reuss Voigt Hill
#
# Bulk Modulus (GPa) = 27.07602 60.82760 43.95181
# Shear Modulus (GPa) = -3.26288 33.03459 14.88586
#
# Velocity S-wave (km/s) = -1.24077 3.94797 2.65019
# Velocity P-wave (km/s) = 3.27451 7.03434 5.48654
#
# Compressibility (1/GPa) = 0.03693305
#
# Stress axis : x y z
#
# Youngs Moduli (GPa) = 17.15641 132.81478 96.59158
#
# Poissons Ratio (x) = 1.37238 0.86939
# Poissons Ratio (y) = 0.17728 0.02748
# Poissons Ratio (z) = 0.15442 0.03778
#
# Static dielectric constant tensor:
#      x y z
#    x 1.824010 0.000000 0.036210 
#    y 0.000000 1.816430 0.000000 
#    z 0.036210 0.000000 1.788850 
# 
# From -- ./inp_files/29872.got.cif
#   From: 2010.05.17/outbox.cif.g08.bks.cpg/sg13_15_cif.got.tgz:29872.got - 2010.06.03 16:44:36.
