data_PCOD9237129
_publ_section_title
;
Structure prediction by ZEFSAII (Michael W. Deem and Ramdas Pophale) SiO2 
 PCOD9237129
Probable space group: P 2/C
;
_chemical_formula_sum "Si O2"
_cell_formula_units_Z 20
_cell_length_a 13.705562
_cell_length_b 6.050375
_cell_length_c 20.940104
_cell_angle_alpha 90.000000
_cell_angle_beta 31.568868
_cell_angle_gamma 90.000000
_cell_volume 909.062564
_symmetry_space_group_name_H-M "P 2/C"
_symmetry_group_IT_number 13
_symmetry_cell_setting 'monoclinic'
loop_
_space_group_symop_operation_xyz
x,y,z
-x,y,1/2-z
-x,-y,-z
x,-y,1/2+z
loop_
_atom_site_type_symbol
_atom_site_label
_atom_site_fract_x
_atom_site_fract_y
_atom_site_fract_z
Si Si1 0.961288 0.796647 0.157664
Si Si2 0.675645 0.900586 0.747222
Si Si3 0.314565 0.414562 0.137643
Si Si4 0.000000 0.123989 0.250000
Si Si5 0.812177 0.560439 0.568015
Si Si6 0.500000 0.800358 0.250000
O O1 0.808144 0.621477 0.268703
O O2 0.854617 0.950751 0.165905
O O3 0.030896 0.961150 0.173295
O O4 0.126982 0.659762 0.033335
O O5 0.635136 0.748252 0.831193
O O6 0.717495 0.743040 0.664666
O O7 0.523287 0.062690 0.802435
O O8 0.177713 0.275313 0.167706
O O9 0.500000 0.500000 0.000000
O O10 0.679064 0.352145 0.640082
O O11 0.000000 0.500000 0.500000
#
# Coordination Sequence:
#
# PCOD9237129 Si02
#       6
#     4   4   4   2   4   2
#     4  11  24  50  74 103 146 190 246 303 358 430
#     4  11  24  47  73 108 143 194 240 299 369 424
#     4  11  25  52  73 106 152 192 244 303 354 436
#     4  10  26  48  74 112 136 204 246 292 372 426
#     4  12  24  49  74 106 149 187 241 307 361 436
#     4  12  26  44  70 120 146 190 240 300 376 436
#
# _framework density 22.000685000000001
#
# number of rings (size 3 to 8) (size 9 to 14) (size 15 to 20)
#    0.000    0.800    4.000    1.800    0.000    3.200 
#   36.000    0.000    0.000    0.000    0.000    0.000 
#    0.000    0.000    0.000    0.000    0.000    0.000 
#
# Total GULP energy -111991.805647 kJ/mol
# GULP energy per Si atom -5599.590282 kJ/mol
# Density = 2.195061 g / cm^3
# Si number density = 22.000685 Si / 1000 Ang^3
#
#
#
# Elastic Constant Matrix: (Units=GPa)
#
#
# Indices 1 2 3 4 5 6 
#
# 1 124.3246 65.4319 70.2406 0.0000 -7.4872 0.0000
# 2 65.4319 135.8016 80.7757 0.0000 -5.1845 0.0000
# 3 70.2406 80.7757 143.3070 0.0000 0.2366 0.0000
# 4 0.0000 0.0000 0.0000 -50.7192 0.0000 16.9419
# 5 -7.4872 -5.1845 0.2366 0.0000 22.0101 0.0000
# 6 0.0000 0.0000 0.0000 16.9419 0.0000 53.4830
#
#
#
# Elastic Compliance Matrix: (Units=1/GPa)
#
#
# Indices 1 2 3 4 5 6 
#
# 1 0.012377 -0.003339 -0.004190 0.000000 0.003469 0.000000
# 2 -0.003339 0.012138 -0.005208 0.000000 0.001779 0.000000
# 3 -0.004190 -0.005208 0.011972 0.000000 -0.002781 0.000000
# 4 0.000000 0.000000 0.000000 -0.017830 0.000000 0.005648
# 5 0.003469 0.001779 -0.002781 0.000000 0.047063 0.000000
# 6 0.000000 0.000000 0.000000 0.005648 0.000000 0.016908
#
#
# Mechanical properties :
#
#
# Convention : Reuss Voigt Hill
#
# Bulk Modulus (GPa) = 90.80355 92.92550 91.86453
# Shear Modulus (GPa) = 44.73321 17.42047 31.07684
#
# Velocity S-wave (km/s) = 4.51406 2.81697 3.76245
# Velocity P-wave (km/s) = 8.27839 7.27390 7.79235
#
# Compressibility (1/GPa) = 0.01101279
#
# Stress axis : x y z
#
# Youngs Moduli (GPa) = 80.79564 82.38507 83.52711
#
# Poissons Ratio (x) = 0.27505 0.35001
# Poissons Ratio (y) = 0.26974 0.43503
# Poissons Ratio (z) = 0.33856 0.42908
#
# Static dielectric constant tensor:
#      x y z
#    x 1.094530 0.000000 3.803870 
#    y 0.000000 1.823670 0.000000 
#    z 3.803870 0.000000 -18.577030 
# 
# From -- ./inp_files/56419.got.cif
#   From: 2010.05.17/outbox.cif.g08.bks.cpg/sg13_29_cif.got.tgz:56419.got - 2010.06.03 16:44:36.
