data_PCOD9237009
_publ_section_title
;
Structure prediction by ZEFSAII (Michael W. Deem and Ramdas Pophale) SiO2 
 PCOD9237009
Probable space group: P 2/C
;
_chemical_formula_sum "Si O2"
_cell_formula_units_Z 28
_cell_length_a 26.560727
_cell_length_b 9.498642
_cell_length_c 9.349605
_cell_angle_alpha 90.000000
_cell_angle_beta 143.926931
_cell_angle_gamma 90.000000
_cell_volume 1388.911964
_symmetry_space_group_name_H-M "P 2/C"
_symmetry_group_IT_number 13
_symmetry_cell_setting 'monoclinic'
loop_
_space_group_symop_operation_xyz
x,y,z
-x,y,1/2-z
-x,-y,-z
x,-y,1/2+z
loop_
_atom_site_type_symbol
_atom_site_label
_atom_site_fract_x
_atom_site_fract_y
_atom_site_fract_z
Si Si1 0.435584 0.516901 0.982089
Si Si2 0.013322 0.647172 0.448828
Si Si3 0.142558 0.856865 0.381631
Si Si4 0.662902 0.766023 0.163438
Si Si5 0.301651 0.747439 0.580942
Si Si6 0.440628 0.966279 0.997513
Si Si7 0.170395 0.846389 0.786503
O O1 0.393114 0.370720 0.932165
O O2 0.357197 0.615208 0.758291
O O3 0.500000 0.572172 0.250000
O O4 0.500000 0.500000 0.000000
O O5 0.105617 0.720231 0.677915
O O6 0.000000 0.618837 0.250000
O O7 0.000000 0.500000 0.500000
O O8 0.945011 0.768974 0.332843
O O9 0.214273 0.765043 0.465514
O O10 0.163933 0.870916 0.600215
O O11 0.144231 0.009997 0.309675
O O12 0.735252 0.800224 0.446905
O O13 0.597649 0.896062 0.014936
O O14 0.706992 0.749248 0.109993
O O15 0.360585 0.878419 0.760449
O O16 0.500000 0.890720 0.250000
O O17 0.500000 0.000000 0.000000
#
# Coordination Sequence:
#
# PCOD9237009 Si02
#       7
#     4   4   4   4   4   4   4
#     4  12  26  47  67  91 135 186 234 284 345 401
#     4  10  25  48  74 106 139 178 222 269 334 408
#     4  11  25  45  72 105 138 178 225 275 339 404
#     4  12  26  45  65 100 138 176 229 283 339 401
#     4  12  26  44  67  99 135 180 228 281 342 399
#     4  12  24  41  67  93 133 176 226 279 332 391
#     4  11  25  45  72 104 140 177 223 279 336 405
#
# _framework density 20.159663999999999
#
# number of rings (size 3 to 8) (size 9 to 14) (size 15 to 20)
#    0.000    0.571    4.286    3.000    6.000    2.286 
#    0.000    0.000    0.000    0.000    0.000    0.000 
#    0.000    0.000    0.000    0.000    0.000    0.000 
#
# Total GULP energy -156553.387438 kJ/mol
# GULP energy per Si atom -5591.192408 kJ/mol
# Density = 2.011378 g / cm^3
# Si number density = 20.159664 Si / 1000 Ang^3
#
#
#
# Elastic Constant Matrix: (Units=GPa)
#
#
# Indices 1 2 3 4 5 6 
#
# 1 118.7048 28.4446 28.4476 0.0000 -8.2457 0.0000
# 2 28.4446 115.0584 18.9911 0.0000 -3.3073 0.0000
# 3 28.4476 18.9911 85.9958 0.0000 -2.1257 0.0000
# 4 0.0000 0.0000 0.0000 27.2965 0.0000 6.8633
# 5 -8.2457 -3.3073 -2.1257 0.0000 37.9591 0.0000
# 6 0.0000 0.0000 0.0000 6.8633 0.0000 34.6293
#
#
#
# Elastic Compliance Matrix: (Units=1/GPa)
#
#
# Indices 1 2 3 4 5 6 
#
# 1 0.009655 -0.001884 -0.002734 0.000000 0.001780 0.000000
# 2 -0.001884 0.009405 -0.001445 0.000000 0.000329 0.000000
# 3 -0.002734 -0.001445 0.012852 0.000000 0.000000 0.000000
# 4 0.000000 0.000000 0.000000 0.038556 0.000000 -0.007642
# 5 0.001780 0.000329 0.000000 0.000000 0.026759 0.000000
# 6 0.000000 0.000000 0.000000 -0.007642 0.000000 0.030392
#
#
# Mechanical properties :
#
#
# Convention : Reuss Voigt Hill
#
# Bulk Modulus (GPa) = 50.54425 52.39172 51.46798
# Shear Modulus (GPa) = 34.16679 36.23536 35.20108
#
# Velocity S-wave (km/s) = 4.12127 4.24420 4.18319
# Velocity P-wave (km/s) = 6.91180 7.07548 6.99412
#
# Compressibility (1/GPa) = 0.01978464
#
# Stress axis : x y z
#
# Youngs Moduli (GPa) = 103.57797 106.32465 77.80907
#
# Poissons Ratio (x) = 0.20036 0.21270
# Poissons Ratio (y) = 0.19519 0.11247
# Poissons Ratio (z) = 0.28314 0.15369
#
# Static dielectric constant tensor:
#      x y z
#    x 1.658280 0.000000 -0.002780 
#    y 0.000000 1.707970 0.000000 
#    z -0.002780 0.000000 1.673540 
# 
# From -- ./inp_files/24601.got.cif
#   From: 2010.05.17/outbox.cif.g08.bks.cpg/sg13_13_cif.got.tgz:24601.got - 2010.06.03 16:44:36.
