data_PCOD9237953
_publ_section_title
;
Structure prediction by ZEFSAII (Michael W. Deem and Ramdas Pophale) SiO2 
 PCOD9237953
Probable space group: P 2/C
;
_chemical_formula_sum "Si O2"
_cell_formula_units_Z 20
_cell_length_a 17.555440
_cell_length_b 4.939266
_cell_length_c 26.570033
_cell_angle_alpha 90.000000
_cell_angle_beta 160.269527
_cell_angle_gamma 90.000000
_cell_volume 777.791939
_symmetry_space_group_name_H-M "P 2/C"
_symmetry_group_IT_number 13
_symmetry_cell_setting 'monoclinic'
loop_
_space_group_symop_operation_xyz
x,y,z
-x,y,1/2-z
-x,-y,-z
x,-y,1/2+z
loop_
_atom_site_type_symbol
_atom_site_label
_atom_site_fract_x
_atom_site_fract_y
_atom_site_fract_z
Si Si1 0.273358 0.952480 0.327777
Si Si2 0.862040 0.670282 0.098921
Si Si3 0.195775 0.229061 0.619397
Si Si4 0.979018 0.417951 0.397094
Si Si5 0.433200 0.166003 0.575488
O O1 0.912553 0.647916 0.070464
O O2 0.376903 0.767107 0.347829
O O3 0.103666 0.802922 0.260893
O O4 0.500000 0.000000 0.500000
O O5 0.154952 0.204679 0.223166
O O6 0.772868 0.374919 0.057455
O O7 0.667994 0.870777 0.994252
O O8 0.140979 0.469223 0.626539
O O9 0.436220 0.145765 0.790823
O O10 0.193072 0.290238 0.558889
O O11 0.000000 0.000000 0.500000
#
# Coordination Sequence:
#
# PCOD9237953 Si02
#       5
#     4   4   4   4   4
#     4  12  28  56  81 110 163 218 268 345 408 479
#     4  12  27  52  75 120 156 197 279 318 401 492
#     4  11  23  45  82 106 161 206 256 323 409 491
#     4  11  23  50  73 114 152 205 262 324 400 481
#     4  12  27  50  78 117 153 208 259 331 403 477
#
# _framework density 25.713815
#
# number of rings (size 3 to 8) (size 9 to 14) (size 15 to 20)
#    0.000    0.400    6.000    1.200    2.800    2.400 
#    7.200    0.000    0.000    0.000    0.000    0.000 
#    0.000    0.000    0.000    0.000    0.000    0.000 
#
# Total GULP energy -111463.042256 kJ/mol
# GULP energy per Si atom -5573.152113 kJ/mol
# Density = 2.565529 g / cm^3
# Si number density = 25.713815 Si / 1000 Ang^3
#
#
#
# Elastic Constant Matrix: (Units=GPa)
#
#
# Indices 1 2 3 4 5 6 
#
# 1 82.1714 16.6032 46.0501 0.0000 7.8618 0.0000
# 2 16.6032 103.4806 25.0761 0.0000 -5.5878 0.0000
# 3 46.0501 25.0761 127.0166 0.0000 -33.7291 0.0000
# 4 0.0000 0.0000 0.0000 29.3974 0.0000 11.1043
# 5 7.8618 -5.5878 -33.7291 0.0000 63.5866 0.0000
# 6 0.0000 0.0000 0.0000 11.1043 0.0000 30.7552
#
#
#
# Elastic Compliance Matrix: (Units=1/GPa)
#
#
# Indices 1 2 3 4 5 6 
#
# 1 0.017369 -0.001255 -0.007739 0.000000 -0.006363 0.000000
# 2 -0.001255 0.010242 -0.001498 0.000000 0.000261 0.000000
# 3 -0.007739 -0.001498 0.013029 0.000000 0.007736 0.000000
# 4 0.000000 0.000000 0.000000 0.039388 0.000000 -0.014221
# 5 -0.006363 0.000261 0.007736 0.000000 0.020640 0.000000
# 6 0.000000 0.000000 0.000000 -0.014221 0.000000 0.037650
#
#
# Mechanical properties :
#
#
# Convention : Reuss Voigt Hill
#
# Bulk Modulus (GPa) = 50.87443 54.23637 52.55540
# Shear Modulus (GPa) = 30.14698 39.74379 34.94539
#
# Velocity S-wave (km/s) = 3.42775 3.93570 3.69048
# Velocity P-wave (km/s) = 5.95767 6.46460 6.21631
#
# Compressibility (1/GPa) = 0.01965624
#
# Stress axis : x y z
#
# Youngs Moduli (GPa) = 57.57314 97.63675 76.75240
#
# Poissons Ratio (x) = 0.12254 0.59400
# Poissons Ratio (y) = 0.07226 0.11496
# Poissons Ratio (z) = 0.44557 0.14624
#
# Static dielectric constant tensor:
#      x y z
#    x 2.040610 0.000000 -0.083410 
#    y 0.000000 2.226370 0.000000 
#    z -0.083410 0.000000 2.437920 
# 
# From -- ./inp_files/93202.got.cif
#   From: 2010.05.17/outbox.cif.g08.bks.cpg/sg13_47_cif.got.tgz:93202.got - 2010.06.03 16:44:36.
