data_PCOD9237929
_publ_section_title
;
Structure prediction by ZEFSAII (Michael W. Deem and Ramdas Pophale) SiO2 
 PCOD9237929
Probable space group: P 2/C
;
_chemical_formula_sum "Si O2"
_cell_formula_units_Z 22
_cell_length_a 23.144449
_cell_length_b 6.232994
_cell_length_c 13.244782
_cell_angle_alpha 90.000000
_cell_angle_beta 149.131533
_cell_angle_gamma 90.000000
_cell_volume 980.311481
_symmetry_space_group_name_H-M "P 2/C"
_symmetry_group_IT_number 13
_symmetry_cell_setting 'monoclinic'
loop_
_space_group_symop_operation_xyz
x,y,z
-x,y,1/2-z
-x,-y,-z
x,-y,1/2+z
loop_
_atom_site_type_symbol
_atom_site_label
_atom_site_fract_x
_atom_site_fract_y
_atom_site_fract_z
Si Si1 0.203220 0.312383 0.588128
Si Si2 0.768654 0.622459 0.027547
Si Si3 0.294448 0.651246 0.884528
Si Si4 0.382859 0.022529 0.266069
Si Si5 0.876242 0.947286 0.351475
Si Si6 0.500000 0.120173 0.750000
O O1 0.155616 0.468167 0.429391
O O2 0.261364 0.470441 0.755843
O O3 0.296190 0.156874 0.676677
O O4 0.123039 0.170493 0.538633
O O5 0.702781 0.463553 0.002637
O O6 0.828553 0.790713 0.191926
O O7 0.684819 0.755300 0.830269
O O8 0.202996 0.843346 0.753309
O O9 0.418354 0.744474 0.055807
O O10 0.416897 0.006194 0.198957
O O11 0.500000 0.000000 0.500000
O O12 0.000000 0.000000 0.500000
#
# Coordination Sequence:
#
# PCOD9237929 Si02
#       6
#     4   4   4   4   4   2
#     4  11  24  45  69 102 144 180 241 289 356 427
#     4  11  23  45  69 103 146 181 238 289 356 420
#     4  11  25  43  69 103 136 190 235 289 354 425
#     4  12  26  41  68 107 146 191 236 289 351 430
#     4  11  25  50  75 102 142 185 241 300 349 419
#     4  12  22  42  70  98 146 182 234 292 350 418
#
# _framework density 22.441848
#
# number of rings (size 3 to 8) (size 9 to 14) (size 15 to 20)
#    0.000    0.727    3.636    3.273    5.091    4.364 
#    0.000   13.636    0.000    0.000    0.000    0.000 
#    0.000    0.000    0.000    0.000    0.000    0.000 
#
# Total GULP energy -122937.678062 kJ/mol
# GULP energy per Si atom -5588.076276 kJ/mol
# Density = 2.239077 g / cm^3
# Si number density = 22.441848 Si / 1000 Ang^3
#
#
#
# Elastic Constant Matrix: (Units=GPa)
#
#
# Indices 1 2 3 4 5 6 
#
# 1 147.5566 64.2825 25.5621 0.0000 8.2230 0.0000
# 2 64.2825 125.0901 24.3149 0.0000 9.2369 0.0000
# 3 25.5621 24.3149 40.0256 0.0000 16.1600 0.0000
# 4 0.0000 0.0000 0.0000 17.6032 0.0000 -12.3469
# 5 8.2230 9.2369 16.1600 0.0000 38.0159 0.0000
# 6 0.0000 0.0000 0.0000 -12.3469 0.0000 59.7506
#
#
#
# Elastic Compliance Matrix: (Units=1/GPa)
#
#
# Indices 1 2 3 4 5 6 
#
# 1 0.009126 -0.004030 -0.003595 0.000000 0.000534 0.000000
# 2 -0.004030 0.010845 -0.003987 0.000000 -0.000069 0.000000
# 3 -0.003595 -0.003987 0.035005 0.000000 -0.013134 0.000000
# 4 0.000000 0.000000 0.000000 0.066437 0.000000 0.013729
# 5 0.000534 -0.000069 -0.013134 0.000000 0.031789 0.000000
# 6 0.000000 0.000000 0.000000 0.013729 0.000000 0.019573
#
#
# Mechanical properties :
#
#
# Convention : Reuss Voigt Hill
#
# Bulk Modulus (GPa) = 31.49487 60.11015 45.80251
# Shear Modulus (GPa) = 24.20327 36.30811 30.25569
#
# Velocity S-wave (km/s) = 3.28760 4.02665 3.67574
# Velocity P-wave (km/s) = 5.33625 6.96143 6.20230
#
# Compressibility (1/GPa) = 0.03175121
#
# Stress axis : x y z
#
# Youngs Moduli (GPa) = 109.57769 92.20526 28.56764
#
# Poissons Ratio (x) = 0.37161 0.10271
# Poissons Ratio (y) = 0.44163 0.11389
# Poissons Ratio (z) = 0.39397 0.36760
#
# Static dielectric constant tensor:
#      x y z
#    x 1.887610 0.000000 -0.078600 
#    y 0.000000 1.853660 0.000000 
#    z -0.078600 0.000000 1.802750 
# 
# From -- ./inp_files/52097.got.cif
#   From: 2010.05.17/outbox.cif.g08.bks.cpg/sg13_27_cif.got.tgz:52097.got - 2010.06.03 16:44:36.
