data_PCOD9237973
_publ_section_title
;
Structure prediction by ZEFSAII (Michael W. Deem and Ramdas Pophale) SiO2 
 PCOD9237973
Probable space group: P 2/C
;
_chemical_formula_sum "Si O2"
_cell_formula_units_Z 32
_cell_length_a 14.950759
_cell_length_b 9.435620
_cell_length_c 23.973610
_cell_angle_alpha 90.000000
_cell_angle_beta 152.664769
_cell_angle_gamma 90.000000
_cell_volume 1552.977265
_symmetry_space_group_name_H-M "P 2/C"
_symmetry_group_IT_number 13
_symmetry_cell_setting 'monoclinic'
loop_
_space_group_symop_operation_xyz
x,y,z
-x,y,1/2-z
-x,-y,-z
x,-y,1/2+z
loop_
_atom_site_type_symbol
_atom_site_label
_atom_site_fract_x
_atom_site_fract_y
_atom_site_fract_z
Si Si1 0.809132 0.587702 0.909403
Si Si2 0.012497 0.870986 0.049281
Si Si3 0.537970 0.787026 0.206222
Si Si4 0.896772 0.187796 0.249641
Si Si5 0.301257 0.926456 0.407621
Si Si6 0.198955 0.032975 0.473743
Si Si7 0.509628 0.641977 0.968087
Si Si8 0.450248 0.516899 0.630543
O O1 0.643031 0.565005 0.771239
O O2 0.724086 0.543272 0.922556
O O3 0.000000 0.500000 0.000000
O O4 0.877965 0.747925 0.950950
O O5 0.236285 0.822314 0.177896
O O6 0.920039 0.922845 0.055536
O O7 0.000000 0.000000 0.000000
O O8 0.500000 0.748355 0.250000
O O9 0.477899 0.650932 0.136681
O O10 0.395560 0.915969 0.112811
O O11 0.702249 0.278533 0.151860
O O12 0.000000 0.239734 0.250000
O O13 0.061043 0.171699 0.387750
O O14 0.845514 0.020596 0.210426
O O15 0.337336 0.758673 0.423172
O O16 0.500000 0.000000 0.500000
O O17 0.259854 0.967135 0.448497
O O18 0.567230 0.597889 0.937299
O O19 0.500000 0.500000 0.000000
#
# Coordination Sequence:
#
# PCOD9237973 Si02
#       8
#     4   4   4   4   4   4   4   4
#     4  11  23  47  66  98 141 186 226 269 348 413
#     4  12  26  40  69 104 136 174 232 284 335 406
#     4  12  24  45  66 104 139 182 227 284 341 406
#     4   9  22  45  68  95 131 182 227 279 342 403
#     4   9  21  44  69  93 133 175 226 280 338 399
#     4  11  25  42  73  98 136 180 231 281 341 402
#     4  11  25  42  68 108 135 175 229 287 340 409
#     4  11  25  42  74  96 144 186 225 278 346 413
#
# _framework density 20.605581000000001
#
# number of rings (size 3 to 8) (size 9 to 14) (size 15 to 20)
#    0.000    1.250    3.750    0.750   10.500    2.000 
#    0.000    1.875    0.000    0.000    0.000    0.000 
#    0.000    0.000    0.000    0.000    0.000    0.000 
#
# Total GULP energy -178745.492289 kJ/mol
# GULP energy per Si atom -5585.796634 kJ/mol
# Density = 2.055868 g / cm^3
# Si number density = 20.605581 Si / 1000 Ang^3
#
#
#
# Elastic Constant Matrix: (Units=GPa)
#
#
# Indices 1 2 3 4 5 6 
#
# 1 125.4330 46.2598 30.7289 0.0000 16.4139 0.0000
# 2 46.2598 120.9052 22.3266 0.0000 7.4667 0.0000
# 3 30.7289 22.3266 59.5543 0.0000 20.1317 0.0000
# 4 0.0000 0.0000 0.0000 26.8999 0.0000 4.1589
# 5 16.4139 7.4667 20.1317 0.0000 34.3725 0.0000
# 6 0.0000 0.0000 0.0000 4.1589 0.0000 30.4858
#
#
#
# Elastic Compliance Matrix: (Units=1/GPa)
#
#
# Indices 1 2 3 4 5 6 
#
# 1 0.010254 -0.003167 -0.003343 0.000000 -0.002251 0.000000
# 2 -0.003167 0.009864 -0.002308 0.000000 0.000721 0.000000
# 3 -0.003343 -0.002308 0.023282 0.000000 -0.011538 0.000000
# 4 0.000000 0.000000 0.000000 0.037976 0.000000 -0.005181
# 5 -0.002251 0.000721 -0.011538 0.000000 0.036769 0.000000
# 6 0.000000 0.000000 0.000000 -0.005181 0.000000 0.033509
#
#
# Mechanical properties :
#
#
# Convention : Reuss Voigt Hill
#
# Bulk Modulus (GPa) = 38.81221 56.05814 47.43518
# Shear Modulus (GPa) = 28.10934 32.12343 30.11638
#
# Velocity S-wave (km/s) = 3.69746 3.95266 3.82719
# Velocity P-wave (km/s) = 6.09139 6.93511 6.52689
#
# Compressibility (1/GPa) = 0.02576509
#
# Stress axis : x y z
#
# Youngs Moduli (GPa) = 97.52494 101.37582 42.95215
#
# Poissons Ratio (x) = 0.32105 0.14357
# Poissons Ratio (y) = 0.30886 0.09912
# Poissons Ratio (z) = 0.32599 0.23395
#
# Static dielectric constant tensor:
#      x y z
#    x 1.365990 0.000000 -0.102080 
#    y 0.000000 1.752390 0.000000 
#    z -0.102080 0.000000 1.705460 
# 
# From -- ./inp_files/87459.got.cif
#   From: 2010.05.17/outbox.cif.g08.bks.cpg/sg13_44_cif.got.tgz:87459.got - 2010.06.03 16:44:36.
