data_PCOD9237525
_publ_section_title
;
Structure prediction by ZEFSAII (Michael W. Deem and Ramdas Pophale) SiO2 
 PCOD9237525
Probable space group: P 2/C
;
_chemical_formula_sum "Si O2"
_cell_formula_units_Z 28
_cell_length_a 25.306256
_cell_length_b 7.698231
_cell_length_c 20.250336
_cell_angle_alpha 90.000000
_cell_angle_beta 18.952425
_cell_angle_gamma 90.000000
_cell_volume 1281.280682
_symmetry_space_group_name_H-M "P 2/C"
_symmetry_group_IT_number 13
_symmetry_cell_setting 'monoclinic'
loop_
_space_group_symop_operation_xyz
x,y,z
-x,y,1/2-z
-x,-y,-z
x,-y,1/2+z
loop_
_atom_site_type_symbol
_atom_site_label
_atom_site_fract_x
_atom_site_fract_y
_atom_site_fract_z
Si Si1 0.640960 0.141155 0.527569
Si Si2 0.983438 0.707482 0.191748
Si Si3 0.467566 0.227910 0.602558
Si Si4 0.119518 0.340237 0.163553
Si Si5 0.297599 0.128239 0.294578
Si Si6 0.601497 0.460207 0.250906
Si Si7 0.359337 0.243422 0.470402
O O1 0.500000 0.142411 0.750000
O O2 0.392883 0.419939 0.690586
O O3 0.800240 0.216409 0.376189
O O4 0.572218 0.241296 0.545990
O O5 0.005586 0.497122 0.325210
O O6 0.000000 0.751322 0.250000
O O7 0.807961 0.737385 0.369345
O O8 0.111657 0.823808 0.000383
O O9 0.581924 0.180765 0.406768
O O10 0.337837 0.071170 0.763857
O O11 0.654325 0.946661 0.482239
O O12 0.000000 0.253458 0.250000
O O13 0.276271 0.439051 0.943959
O O14 0.333474 0.266868 0.310122
O O15 0.420042 0.404912 0.441777
O O16 0.500000 0.234700 0.250000
#
# Coordination Sequence:
#
# PCOD9237525 Si02
#       7
#     4   4   4   4   4   4   4
#     4  11  23  39  63  99 132 173 228 277 336 409
#     4  11  22  39  65  95 131 176 219 284 342 397
#     4  11  25  42  71  96 133 181 226 278 332 423
#     4  11  22  38  65 100 138 169 226 292 342 399
#     4  11  24  47  66  96 138 175 228 275 345 404
#     4  12  21  42  69  97 127 178 227 275 339 411
#     4  11  22  37  65  96 135 173 220 282 342 406
#
# _framework density 21.853135999999999
#
# number of rings (size 3 to 8) (size 9 to 14) (size 15 to 20)
#    0.000    0.857    7.143    1.286    2.000    1.714 
#    0.000    3.571    0.000    0.000    0.000    0.000 
#    0.000    0.000    0.000    0.000    0.000    0.000 
#
# Total GULP energy -156094.951747 kJ/mol
# GULP energy per Si atom -5574.819705 kJ/mol
# Density = 2.180340 g / cm^3
# Si number density = 21.853136 Si / 1000 Ang^3
#
#
#
# Elastic Constant Matrix: (Units=GPa)
#
#
# Indices 1 2 3 4 5 6 
#
# 1 36.4784 19.1644 26.3159 0.0000 -12.2630 0.0000
# 2 19.1644 130.2678 46.0352 0.0000 -5.2607 0.0000
# 3 26.3159 46.0352 118.6855 0.0000 -27.2887 0.0000
# 4 0.0000 0.0000 0.0000 29.6880 0.0000 22.4902
# 5 -12.2630 -5.2607 -27.2887 0.0000 37.6441 0.0000
# 6 0.0000 0.0000 0.0000 22.4902 0.0000 28.0095
#
#
#
# Elastic Compliance Matrix: (Units=1/GPa)
#
#
# Indices 1 2 3 4 5 6 
#
# 1 0.035070 -0.003149 -0.004835 0.000000 0.007480 0.000000
# 2 -0.003149 0.009251 -0.003394 0.000000 -0.002194 0.000000
# 3 -0.004835 -0.003394 0.012412 0.000000 0.006948 0.000000
# 4 0.000000 0.000000 0.000000 0.085988 0.000000 -0.069044
# 5 0.007480 -0.002194 0.006948 0.000000 0.033731 0.000000
# 6 0.000000 0.000000 0.000000 -0.069044 0.000000 0.091141
#
#
# Mechanical properties :
#
#
# Convention : Reuss Voigt Hill
#
# Bulk Modulus (GPa) = 29.43201 52.05142 40.74171
# Shear Modulus (GPa) = 16.57418 31.99607 24.28513
#
# Velocity S-wave (km/s) = 2.75696 3.83056 3.33722
# Velocity P-wave (km/s) = 4.86125 6.59050 5.79079
#
# Compressibility (1/GPa) = 0.03397661
#
# Stress axis : x y z
#
# Youngs Moduli (GPa) = 28.51431 108.10072 80.56875
#
# Poissons Ratio (x) = 0.34037 0.38955
# Poissons Ratio (y) = 0.08978 0.27347
# Poissons Ratio (z) = 0.13787 0.36692
#
# Static dielectric constant tensor:
#      x y z
#    x 1.858000 0.000000 -0.079810 
#    y 0.000000 1.988180 0.000000 
#    z -0.079810 0.000000 1.924920 
# 
# From -- ./inp_files/82162.got.cif
#   From: 2010.05.17/outbox.cif.g08.bks.cpg/sg13_42_cif.got.tgz:82162.got - 2010.06.03 16:44:36.
