data_PCOD9237189
_publ_section_title
;
Structure prediction by ZEFSAII (Michael W. Deem and Ramdas Pophale) SiO2 
 PCOD9237189
Probable space group: P 2/C
;
_chemical_formula_sum "Si O2"
_cell_formula_units_Z 26
_cell_length_a 10.408399
_cell_length_b 13.991471
_cell_length_c 9.239308
_cell_angle_alpha 90.000000
_cell_angle_beta 60.207907
_cell_angle_gamma 90.000000
_cell_volume 1167.678891
_symmetry_space_group_name_H-M "P 2/C"
_symmetry_group_IT_number 13
_symmetry_cell_setting 'monoclinic'
loop_
_space_group_symop_operation_xyz
x,y,z
-x,y,1/2-z
-x,-y,-z
x,-y,1/2+z
loop_
_atom_site_type_symbol
_atom_site_label
_atom_site_fract_x
_atom_site_fract_y
_atom_site_fract_z
Si Si1 0.885368 0.529828 0.689878
Si Si2 0.909491 0.287908 0.031430
Si Si3 0.233750 0.770430 0.383835
Si Si4 0.500000 0.267487 0.250000
Si Si5 0.734889 0.844539 0.811436
Si Si6 0.111726 0.038664 0.815393
Si Si7 0.291657 0.652628 0.104111
O O1 0.821505 0.628007 0.664901
O O2 0.769913 0.451193 0.812556
O O3 0.000000 0.554076 0.750000
O O4 0.000000 0.500000 0.500000
O O5 0.873755 0.193628 0.140646
O O6 0.845903 0.295731 0.905352
O O7 0.084829 0.294202 0.951878
O O8 0.270386 0.795293 0.528227
O O9 0.199052 0.870636 0.326087
O O10 0.340661 0.710640 0.219432
O O11 0.397430 0.195028 0.213880
O O12 0.418129 0.334420 0.413320
O O13 0.771254 0.957119 0.800830
O O14 0.000000 0.066574 0.750000
O O15 0.000000 0.000000 0.000000
#
# Coordination Sequence:
#
# PCOD9237189 Si02
#       7
#     4   4   4   2   4   4   4
#     4  12  21  36  65 104 135 161 212 284 354 399
#     4  11  21  38  65 103 136 163 211 282 356 401
#     4  12  22  38  70 101 133 166 219 288 351 391
#     4  10  28  50  64  82 140 194 238 262 314 404
#     4  11  24  43  63  95 132 181 224 270 325 405
#     4  12  22  38  66 107 140 163 210 280 358 400
#     4  11  24  43  63  93 135 183 221 271 330 405
#
# _framework density 22.266393999999998
#
# number of rings (size 3 to 8) (size 9 to 14) (size 15 to 20)
#    0.000    0.615    6.154    2.769    2.154    0.615 
#    0.000    6.154    0.000    0.000    0.000    0.000 
#    0.000    0.000    0.000    0.000    0.000    0.000 
#
# Total GULP energy -145042.436708 kJ/mol
# GULP energy per Si atom -5578.555258 kJ/mol
# Density = 2.221571 g / cm^3
# Si number density = 22.266394 Si / 1000 Ang^3
#
#
#
# Elastic Constant Matrix: (Units=GPa)
#
#
# Indices 1 2 3 4 5 6 
#
# 1 56.1975 12.4719 46.0728 0.0000 20.1949 0.0000
# 2 12.4719 117.9564 31.8758 0.0000 3.4465 0.0000
# 3 46.0728 31.8758 122.2526 0.0000 16.7091 0.0000
# 4 0.0000 0.0000 0.0000 39.0328 0.0000 8.9906
# 5 20.1949 3.4465 16.7091 0.0000 48.7775 0.0000
# 6 0.0000 0.0000 0.0000 8.9906 0.0000 16.6629
#
#
#
# Elastic Compliance Matrix: (Units=1/GPa)
#
#
# Indices 1 2 3 4 5 6 
#
# 1 0.028839 -0.000192 -0.009640 0.000000 -0.008624 0.000000
# 2 -0.000192 0.009123 -0.002339 0.000000 0.000236 0.000000
# 3 -0.009640 -0.002339 0.012437 0.000000 -0.000104 0.000000
# 4 0.000000 0.000000 0.000000 0.029255 0.000000 -0.015785
# 5 -0.008624 0.000236 -0.000104 0.000000 0.024091 0.000000
# 6 0.000000 0.000000 0.000000 -0.015785 0.000000 0.068530
#
#
# Mechanical properties :
#
#
# Convention : Reuss Voigt Hill
#
# Bulk Modulus (GPa) = 38.37600 53.02749 45.70175
# Shear Modulus (GPa) = 24.35436 34.62705 29.49071
#
# Velocity S-wave (km/s) = 3.31081 3.94779 3.64325
# Velocity P-wave (km/s) = 5.64691 6.68182 6.18605
#
# Compressibility (1/GPa) = 0.02605795
#
# Stress axis : x y z
#
# Youngs Moduli (GPa) = 34.67508 109.61199 80.40807
#
# Poissons Ratio (x) = 0.02108 0.77510
# Poissons Ratio (y) = 0.00667 0.18804
# Poissons Ratio (z) = 0.33425 0.25633
#
# Static dielectric constant tensor:
#      x y z
#    x 1.861310 0.000000 -0.040850 
#    y 0.000000 1.823770 0.000000 
#    z -0.040850 0.000000 1.954500 
# 
# From -- ./inp_files/16419.got.cif
#   From: 2010.05.17/outbox.cif.g08.bks.cpg/sg13_9_cif.got.tgz:16419.got - 2010.06.03 16:44:36.
