data_PCOD9237796
_publ_section_title
;
Structure prediction by ZEFSAII (Michael W. Deem and Ramdas Pophale) SiO2 
 PCOD9237796
Probable space group: P 2/C
;
_chemical_formula_sum "Si O2"
_cell_formula_units_Z 20
_cell_length_a 12.533253
_cell_length_b 7.416739
_cell_length_c 9.477888
_cell_angle_alpha 90.000000
_cell_angle_beta 76.041699
_cell_angle_gamma 90.000000
_cell_volume 855.009967
_symmetry_space_group_name_H-M "P 2/C"
_symmetry_group_IT_number 13
_symmetry_cell_setting 'monoclinic'
loop_
_space_group_symop_operation_xyz
x,y,z
-x,y,1/2-z
-x,-y,-z
x,-y,1/2+z
loop_
_atom_site_type_symbol
_atom_site_label
_atom_site_fract_x
_atom_site_fract_y
_atom_site_fract_z
Si Si1 0.077409 0.940418 0.104702
Si Si2 0.617453 0.892088 0.282190
Si Si3 0.119906 0.343216 0.155858
Si Si4 0.245635 0.548664 0.354081
Si Si5 0.310768 0.801383 0.939655
O O1 0.125749 0.125777 0.154713
O O2 0.000000 0.854479 0.250000
O O3 0.181157 0.827159 0.018709
O O4 0.000000 0.000000 0.000000
O O5 0.500000 0.857801 0.250000
O O6 0.699208 0.735531 0.203958
O O7 0.621418 0.878346 0.449727
O O8 0.659344 0.080747 0.205797
O O9 0.204914 0.440006 0.231476
O O10 0.000000 0.389795 0.250000
O O11 0.145332 0.406403 0.990177
O O12 0.326921 0.409886 0.407426
#
# Coordination Sequence:
#
# PCOD9237796 Si02
#       5
#     4   4   4   4   4
#     4  11  23  41  69 105 142 185 228 279 350 431
#     4  12  28  49  73 102 137 188 246 305 361 418
#     4  11  23  43  68 104 147 188 231 280 354 430
#     4  12  25  46  70 106 145 185 236 296 353 431
#     4  12  25  47  74 101 143 185 237 296 359 431
#
# _framework density 23.391539000000002
#
# number of rings (size 3 to 8) (size 9 to 14) (size 15 to 20)
#    0.000    0.400    4.000    6.000    0.000    2.400 
#    0.000    0.000    0.000    0.000    0.000    0.000 
#    0.000    0.000    0.000    0.000    0.000    0.000 
#
# Total GULP energy -112105.809129 kJ/mol
# GULP energy per Si atom -5605.290456 kJ/mol
# Density = 2.333830 g / cm^3
# Si number density = 23.391539 Si / 1000 Ang^3
#
#
#
# Elastic Constant Matrix: (Units=GPa)
#
#
# Indices 1 2 3 4 5 6 
#
# 1 57.8278 -27.8681 -10.4593 0.0000 15.7697 0.0000
# 2 -27.8681 79.1601 -9.7760 0.0000 -12.8865 0.0000
# 3 -10.4593 -9.7760 66.2722 0.0000 16.5034 0.0000
# 4 0.0000 0.0000 0.0000 -28.9762 0.0000 5.1155
# 5 15.7697 -12.8865 16.5034 0.0000 25.3267 0.0000
# 6 0.0000 0.0000 0.0000 5.1155 0.0000 9.1899
#
#
#
# Elastic Compliance Matrix: (Units=1/GPa)
#
#
# Indices 1 2 3 4 5 6 
#
# 1 0.028941 0.008120 0.011011 0.000000 -0.021064 0.000000
# 2 0.008120 0.016058 0.003431 0.000000 0.000879 0.000000
# 3 0.011011 0.003431 0.022210 0.000000 -0.019582 0.000000
# 4 0.000000 0.000000 0.000000 -0.031423 0.000000 0.017492
# 5 -0.021064 0.000879 -0.019582 0.000000 0.065807 0.000000
# 6 0.000000 0.000000 0.000000 0.017492 0.000000 0.099079
#
#
# Mechanical properties :
#
#
# Convention : Reuss Voigt Hill
#
# Bulk Modulus (GPa) = 8.90217 11.89481 10.39849
# Shear Modulus (GPa) = 25.90771 17.86563 21.88667
#
# Velocity S-wave (km/s) = 3.33162 2.76663 3.06218
# Velocity P-wave (km/s) = 4.31435 3.91175 4.11797
#
# Compressibility (1/GPa) = 0.11233220
#
# Stress axis : x y z
#
# Youngs Moduli (GPa) = 34.55263 62.27462 45.02537
#
# Poissons Ratio (x) = -0.50564 -0.49577
# Poissons Ratio (y) = -0.28055 -0.15450
# Poissons Ratio (z) = -0.38045 -0.21368
#
# Static dielectric constant tensor:
#      x y z
#    x 1.869240 0.000000 0.013550 
#    y 0.000000 1.871310 0.000000 
#    z 0.013550 0.000000 1.913590 
# 
# From -- ./inp_files/14835.got.cif
#   From: 2010.05.17/outbox.cif.g08.bks.cpg/sg13_8_cif.got.tgz:14835.got - 2010.06.03 16:44:36.
