data_PCOD9237875
_publ_section_title
;
Structure prediction by ZEFSAII (Michael W. Deem and Ramdas Pophale) SiO2 
 PCOD9237875
Probable space group: P 2/C
;
_chemical_formula_sum "Si O2"
_cell_formula_units_Z 12
_cell_length_a 12.992562
_cell_length_b 7.943469
_cell_length_c 13.304329
_cell_angle_alpha 90.000000
_cell_angle_beta 20.584474
_cell_angle_gamma 90.000000
_cell_volume 482.760803
_symmetry_space_group_name_H-M "P 2/C"
_symmetry_group_IT_number 13
_symmetry_cell_setting 'monoclinic'
loop_
_space_group_symop_operation_xyz
x,y,z
-x,y,1/2-z
-x,-y,-z
x,-y,1/2+z
loop_
_atom_site_type_symbol
_atom_site_label
_atom_site_fract_x
_atom_site_fract_y
_atom_site_fract_z
Si Si1 0.815342 0.834557 0.009813
Si Si2 0.741170 0.207830 0.115501
Si Si3 0.686005 0.669423 0.338701
O O1 0.500000 0.852315 0.250000
O O2 0.787966 0.733370 0.137026
O O3 0.899557 0.027971 0.956186
O O4 0.000000 0.758586 0.750000
O O5 0.500000 0.243670 0.250000
O O6 0.544873 0.206787 0.395660
O O7 0.009958 0.338175 0.877171
O O8 0.500000 0.500000 0.500000
#
# Coordination Sequence:
#
# PCOD9237875 Si02
#       3
#     4   4   4
#     4  11  23  43  71 103 138 185 240 293 343 410
#     4  11  23  44  71 101 137 186 242 292 343 416
#     4  12  25  43  69 104 145 187 228 289 362 426
#
# _framework density 24.857030999999999
#
# number of rings (size 3 to 8) (size 9 to 14) (size 15 to 20)
#    0.000    0.667    0.000   10.000    0.000    1.333 
#    0.000    5.000    0.000    0.000    0.000    0.000 
#    0.000    0.000    0.000    0.000    0.000    0.000 
#
# Total GULP energy -67201.917323 kJ/mol
# GULP energy per Si atom -5600.159777 kJ/mol
# Density = 2.480046 g / cm^3
# Si number density = 24.857031 Si / 1000 Ang^3
#
#
#
# Elastic Constant Matrix: (Units=GPa)
#
#
# Indices 1 2 3 4 5 6 
#
# 1 128.8434 71.0066 58.6350 0.0000 10.6975 0.0000
# 2 71.0066 88.9569 46.7046 0.0000 -6.1289 0.0000
# 3 58.6350 46.7046 157.7877 0.0000 19.6912 0.0000
# 4 0.0000 0.0000 0.0000 32.8951 0.0000 -18.1454
# 5 10.6975 -6.1289 19.6912 0.0000 76.2667 0.0000
# 6 0.0000 0.0000 0.0000 -18.1454 0.0000 12.8560
#
#
#
# Elastic Compliance Matrix: (Units=1/GPa)
#
#
# Indices 1 2 3 4 5 6 
#
# 1 0.014977 -0.011090 -0.001973 0.000000 -0.002483 0.000000
# 2 -0.011090 0.021874 -0.002859 0.000000 0.004052 0.000000
# 3 -0.001973 -0.002859 0.008175 0.000000 -0.002064 0.000000
# 4 0.000000 0.000000 0.000000 0.137283 0.000000 0.193765
# 5 -0.002483 0.004052 -0.002064 0.000000 0.014318 0.000000
# 6 0.000000 0.000000 0.000000 0.193765 0.000000 0.351269
#
#
# Mechanical properties :
#
#
# Convention : Reuss Voigt Hill
#
# Bulk Modulus (GPa) = 75.86620 80.92006 78.39313
# Shear Modulus (GPa) = 8.55967 37.68637 23.12302
#
# Velocity S-wave (km/s) = 1.85770 3.89797 3.05329
# Velocity P-wave (km/s) = 5.93200 7.27212 6.63598
#
# Compressibility (1/GPa) = 0.01318110
#
# Stress axis : x y z
#
# Youngs Moduli (GPa) = 66.76750 45.71652 122.32893
#
# Poissons Ratio (x) = 0.50700 0.24138
# Poissons Ratio (y) = 0.74046 0.34974
# Poissons Ratio (z) = 0.13175 0.13070
#
# Static dielectric constant tensor:
#      x y z
#    x 2.007470 0.000000 0.009450 
#    y 0.000000 2.052820 0.000000 
#    z 0.009450 0.000000 1.931210 
# 
# From -- ./inp_files/31970.got.cif
#   From: 2010.05.17/outbox.cif.g08.bks.cpg/sg13_16_cif.got.tgz:31970.got - 2010.06.03 16:44:36.
