data_PCOD9237151
_publ_section_title
;
Structure prediction by ZEFSAII (Michael W. Deem and Ramdas Pophale) SiO2 
 PCOD9237151
Probable space group: P 2/C
;
_chemical_formula_sum "Si O2"
_cell_formula_units_Z 16
_cell_length_a 8.194704
_cell_length_b 13.531009
_cell_length_c 6.078892
_cell_angle_alpha 90.000000
_cell_angle_beta 96.880689
_cell_angle_gamma 90.000000
_cell_volume 669.188821
_symmetry_space_group_name_H-M "P 2/C"
_symmetry_group_IT_number 13
_symmetry_cell_setting 'monoclinic'
loop_
_space_group_symop_operation_xyz
x,y,z
-x,y,1/2-z
-x,-y,-z
x,-y,1/2+z
loop_
_atom_site_type_symbol
_atom_site_label
_atom_site_fract_x
_atom_site_fract_y
_atom_site_fract_z
Si Si1 0.680162 0.731692 0.835269
Si Si2 0.189991 0.467620 0.017526
Si Si3 0.325920 0.085115 0.845879
Si Si4 0.162649 0.122034 0.418177
O O1 0.500000 0.692929 0.750000
O O2 0.782198 0.649952 0.978159
O O3 0.771475 0.770134 0.634226
O O4 0.660754 0.835384 0.959543
O O5 0.253752 0.496790 0.281566
O O6 0.000000 0.500000 0.000000
O O7 0.500000 0.090966 0.750000
O O8 0.169210 0.119972 0.679662
O O9 0.282209 0.972473 0.895404
O O10 0.000000 0.105094 0.250000
#
# Coordination Sequence:
#
# PCOD9237151 Si02
#       4
#     4   4   4   4
#     4  12  27  45  75 105 142 199 244 302 377 455
#     4  10  26  50  76 108 143 193 248 323 386 438
#     4  12  24  44  69 103 156 195 242 292 367 449
#     4  12  26  41  67 109 151 196 244 298 359 446
#
# _framework density 23.909545999999999
#
# number of rings (size 3 to 8) (size 9 to 14) (size 15 to 20)
#    0.000    0.500    5.000    2.250    7.000    3.000 
#    0.000    0.000    0.000    0.000    0.000    0.000 
#    0.000    0.000    0.000    0.000    0.000    0.000 
#
# Total GULP energy -89191.478087 kJ/mol
# GULP energy per Si atom -5574.467380 kJ/mol
# Density = 2.385513 g / cm^3
# Si number density = 23.909546 Si / 1000 Ang^3
#
#
#
# Elastic Constant Matrix: (Units=GPa)
#
#
# Indices 1 2 3 4 5 6 
#
# 1 79.9448 33.3919 23.1135 0.0000 12.9386 0.0000
# 2 33.3919 106.9316 12.4408 0.0000 8.9809 0.0000
# 3 23.1135 12.4408 127.8644 0.0000 15.1582 0.0000
# 4 0.0000 0.0000 0.0000 40.1572 0.0000 13.8278
# 5 12.9386 8.9809 15.1582 0.0000 31.9389 0.0000
# 6 0.0000 0.0000 0.0000 13.8278 0.0000 44.2489
#
#
#
# Elastic Compliance Matrix: (Units=1/GPa)
#
#
# Indices 1 2 3 4 5 6 
#
# 1 0.015519 -0.004274 -0.001893 0.000000 -0.004186 0.000000
# 2 -0.004274 0.010806 -0.000131 0.000000 -0.001245 0.000000
# 3 -0.001893 -0.000131 0.008562 0.000000 -0.003260 0.000000
# 4 0.000000 0.000000 0.000000 0.027905 0.000000 -0.008720
# 5 -0.004186 -0.001245 -0.003260 0.000000 0.034903 0.000000
# 6 0.000000 0.000000 0.000000 -0.008720 0.000000 0.025325
#
#
# Mechanical properties :
#
#
# Convention : Reuss Voigt Hill
#
# Bulk Modulus (GPa) = 44.86272 50.29257 47.57765
# Shear Modulus (GPa) = 34.95359 39.65531 37.30445
#
# Velocity S-wave (km/s) = 3.82764 4.07696 3.95426
# Velocity P-wave (km/s) = 6.19182 6.57588 6.38674
#
# Compressibility (1/GPa) = 0.02229022
#
# Stress axis : x y z
#
# Youngs Moduli (GPa) = 64.43793 92.53844 116.79231
#
# Poissons Ratio (x) = 0.39553 0.22110
# Poissons Ratio (y) = 0.27542 0.01532
# Poissons Ratio (z) = 0.12199 0.01214
#
# Static dielectric constant tensor:
#      x y z
#    x 1.891100 0.000000 -0.039210 
#    y 0.000000 1.845600 0.000000 
#    z -0.039210 0.000000 2.189800 
# 
# From -- ./inp_files/1148.got.cif
#   From: 2010.05.17/outbox.cif.g08.bks.cpg/sg13_1_cif.got.tgz:1148.got - 2010.06.03 16:44:36.
