data_PCOD9237777
_publ_section_title
;
Structure prediction by ZEFSAII (Michael W. Deem and Ramdas Pophale) SiO2 
 PCOD9237777
Probable space group: P 2/C
;
_chemical_formula_sum "Si O2"
_cell_formula_units_Z 24
_cell_length_a 10.677858
_cell_length_b 11.698261
_cell_length_c 9.175928
_cell_angle_alpha 90.000000
_cell_angle_beta 96.041259
_cell_angle_gamma 90.000000
_cell_volume 1139.821409
_symmetry_space_group_name_H-M "P 2/C"
_symmetry_group_IT_number 13
_symmetry_cell_setting 'monoclinic'
loop_
_space_group_symop_operation_xyz
x,y,z
-x,y,1/2-z
-x,-y,-z
x,-y,1/2+z
loop_
_atom_site_type_symbol
_atom_site_label
_atom_site_fract_x
_atom_site_fract_y
_atom_site_fract_z
Si Si1 0.513248 0.622687 0.424167
Si Si2 0.172654 0.954831 0.649370
Si Si3 0.286751 0.737021 0.559475
Si Si4 0.891460 0.134026 0.059509
Si Si5 0.756800 0.647571 0.626563
Si Si6 0.914172 0.572301 0.102666
O O1 0.500000 0.612598 0.250000
O O2 0.500000 0.500000 0.500000
O O3 0.405238 0.702914 0.477197
O O4 0.650840 0.662422 0.491545
O O5 0.270672 0.872111 0.581929
O O6 0.179479 0.937470 0.822414
O O7 0.037108 0.899100 0.590190
O O8 0.164389 0.084908 0.596595
O O9 0.296820 0.683229 0.722999
O O10 0.162031 0.677022 0.476609
O O11 0.867487 0.264900 0.095513
O O12 0.809590 0.519922 0.640857
O O13 0.000000 0.606913 0.250000
O O14 0.000000 0.500000 0.000000
#
# Coordination Sequence:
#
# PCOD9237777 Si02
#       6
#     4   4   4   4   4   4
#     4  12  26  42  61  87 120 163 209 251 299 360
#     4   9  19  38  60  91 123 158 197 248 300 362
#     4  11  23  42  62  88 123 161 205 248 303 359
#     4   9  19  37  62  89 124 158 197 245 305 357
#     4  11  23  41  64  86 124 164 201 250 304 358
#     4  12  24  37  58  91 124 157 195 245 303 363
#
# _framework density 21.055928999999999
#
# number of rings (size 3 to 8) (size 9 to 14) (size 15 to 20)
#    0.000    1.333    3.333    2.500    4.667    1.333 
#    6.000    0.833    0.000    0.000    0.000    0.000 
#    0.000    0.000    0.000    0.000    0.000    0.000 
#
# Total GULP energy -134142.283682 kJ/mol
# GULP energy per Si atom -5589.261820 kJ/mol
# Density = 2.100801 g / cm^3
# Si number density = 21.055929 Si / 1000 Ang^3
#
#
#
# Elastic Constant Matrix: (Units=GPa)
#
#
# Indices 1 2 3 4 5 6 
#
# 1 61.7577 -7.8936 21.5905 0.0000 3.0377 0.0000
# 2 -7.8936 34.8722 7.2176 0.0000 -9.7501 0.0000
# 3 21.5905 7.2176 99.5145 0.0000 19.3646 0.0000
# 4 0.0000 0.0000 0.0000 23.7645 0.0000 -0.2881
# 5 3.0377 -9.7501 19.3646 0.0000 36.9883 0.0000
# 6 0.0000 0.0000 0.0000 -0.2881 0.0000 17.2063
#
#
#
# Elastic Compliance Matrix: (Units=1/GPa)
#
#
# Indices 1 2 3 4 5 6 
#
# 1 0.018566 0.005976 -0.004978 0.000000 0.002657 0.000000
# 2 0.005976 0.034600 -0.006107 0.000000 0.011827 0.000000
# 3 -0.004978 -0.006107 0.013145 0.000000 -0.008083 0.000000
# 4 0.000000 0.000000 0.000000 0.042088 0.000000 0.000705
# 5 0.002657 0.011827 -0.008083 0.000000 0.034167 0.000000
# 6 0.000000 0.000000 0.000000 0.000705 0.000000 0.058130
#
#
# Mechanical properties :
#
#
# Convention : Reuss Voigt Hill
#
# Bulk Modulus (GPa) = 17.82843 26.44149 22.13496
# Shear Modulus (GPa) = 21.77587 27.27380 24.52484
#
# Velocity S-wave (km/s) = 3.21937 3.60294 3.41654
# Velocity P-wave (km/s) = 4.72279 5.46747 5.10871
#
# Compressibility (1/GPa) = 0.05609019
#
# Stress axis : x y z
#
# Youngs Moduli (GPa) = 53.86222 28.90196 76.07637
#
# Poissons Ratio (x) = -0.17271 0.37874
# Poissons Ratio (y) = -0.32187 0.46463
# Poissons Ratio (z) = 0.26815 0.17652
#
# Static dielectric constant tensor:
#      x y z
#    x 1.784550 0.000000 -0.001700 
#    y 0.000000 1.750520 0.000000 
#    z -0.001700 0.000000 1.767010 
# 
# From -- ./inp_files/15891.got.cif
#   From: 2010.05.17/outbox.cif.g08.bks.cpg/sg13_8_cif.got.tgz:15891.got - 2010.06.03 16:44:36.
