data_PCOD9237299
_publ_section_title
;
Structure prediction by ZEFSAII (Michael W. Deem and Ramdas Pophale) SiO2 
 PCOD9237299
Probable space group: P 2/C
;
_chemical_formula_sum "Si O2"
_cell_formula_units_Z 20
_cell_length_a 7.429865
_cell_length_b 9.002254
_cell_length_c 14.376549
_cell_angle_alpha 90.000000
_cell_angle_beta 76.211147
_cell_angle_gamma 90.000000
_cell_volume 933.870944
_symmetry_space_group_name_H-M "P 2/C"
_symmetry_group_IT_number 13
_symmetry_cell_setting 'monoclinic'
loop_
_space_group_symop_operation_xyz
x,y,z
-x,y,1/2-z
-x,-y,-z
x,-y,1/2+z
loop_
_atom_site_type_symbol
_atom_site_label
_atom_site_fract_x
_atom_site_fract_y
_atom_site_fract_z
Si Si1 0.492202 0.878141 0.360591
Si Si2 0.361129 0.637602 0.512861
Si Si3 0.987808 0.241389 0.040931
Si Si4 0.585915 0.799570 0.637166
Si Si5 0.086616 0.064292 0.635237
O O1 0.500000 0.858664 0.250000
O O2 0.407632 0.734758 0.417195
O O3 0.571256 0.262864 0.409690
O O4 0.695199 0.908515 0.376642
O O5 0.500000 0.500000 0.500000
O O6 0.139055 0.630044 0.539905
O O7 0.376132 0.971916 0.892607
O O8 0.980842 0.182562 0.934787
O O9 0.779785 0.282879 0.097739
O O10 0.500000 0.795505 0.750000
O O11 0.046241 0.901487 0.597044
O O12 0.000000 0.076941 0.750000
#
# Coordination Sequence:
#
# PCOD9237299 Si02
#       5
#     4   4   4   4   4
#     4  11  21  41  69  97 131 171 228 291 339 395
#     4  12  26  43  63  94 141 183 220 275 337 417
#     4  11  23  39  66  98 136 172 226 277 341 408
#     4  11  23  43  70 100 130 175 228 290 343 398
#     4  11  20  37  68 104 131 170 225 295 348 392
#
# _framework density 21.416236000000001
#
# number of rings (size 3 to 8) (size 9 to 14) (size 15 to 20)
#    0.000    0.800    4.000    6.600    0.000    1.600 
#    0.000    0.000    0.000    0.000    0.000    0.000 
#    0.000    0.000    0.000    0.000    0.000    0.000 
#
# Total GULP energy -111835.009903 kJ/mol
# GULP energy per Si atom -5591.750495 kJ/mol
# Density = 2.136749 g / cm^3
# Si number density = 21.416236 Si / 1000 Ang^3
#
#
#
# Elastic Constant Matrix: (Units=GPa)
#
#
# Indices 1 2 3 4 5 6 
#
# 1 177.3023 21.8300 34.2310 0.0000 1.9681 0.0000
# 2 21.8300 51.7408 29.5329 0.0000 2.3754 0.0000
# 3 34.2310 29.5329 135.4932 0.0000 7.5621 0.0000
# 4 0.0000 0.0000 0.0000 13.2932 0.0000 0.9847
# 5 1.9681 2.3754 7.5621 0.0000 34.3952 0.0000
# 6 0.0000 0.0000 0.0000 0.9847 0.0000 39.4392
#
#
#
# Elastic Compliance Matrix: (Units=1/GPa)
#
#
# Indices 1 2 3 4 5 6 
#
# 1 0.006094 -0.001933 -0.001120 0.000000 0.000031 0.000000
# 2 -0.001933 0.022694 -0.004431 0.000000 -0.000482 0.000000
# 3 -0.001120 -0.004431 0.008716 0.000000 -0.001546 0.000000
# 4 0.000000 0.000000 0.000000 0.075366 0.000000 -0.001882
# 5 0.000031 -0.000482 -0.001546 0.000000 0.029445 0.000000
# 6 0.000000 0.000000 0.000000 -0.001882 0.000000 0.025402
#
#
# Mechanical properties :
#
#
# Convention : Reuss Voigt Hill
#
# Bulk Modulus (GPa) = 44.37573 59.52490 51.95031
# Shear Modulus (GPa) = 26.28846 36.02168 31.15507
#
# Velocity S-wave (km/s) = 3.50737 4.10564 3.81824
# Velocity P-wave (km/s) = 6.09654 7.09434 6.61428
#
# Compressibility (1/GPa) = 0.02253484
#
# Stress axis : x y z
#
# Youngs Moduli (GPa) = 164.09595 44.06411 114.73778
#
# Poissons Ratio (x) = 0.08519 0.12850
# Poissons Ratio (y) = 0.31725 0.50843
# Poissons Ratio (z) = 0.18377 0.19526
#
# Static dielectric constant tensor:
#      x y z
#    x 1.907560 0.000000 -0.121400 
#    y 0.000000 1.801760 0.000000 
#    z -0.121400 0.000000 1.873520 
# 
# From -- ./inp_files/46283.got.cif
#   From: 2010.05.17/outbox.cif.g08.bks.cpg/sg13_24_cif.got.tgz:46283.got - 2010.06.03 16:44:36.
