data_PCOD9237668
_publ_section_title
;
Structure prediction by ZEFSAII (Michael W. Deem and Ramdas Pophale) SiO2 
 PCOD9237668
Probable space group: P 2/C
;
_chemical_formula_sum "Si O2"
_cell_formula_units_Z 16
_cell_length_a 15.292498
_cell_length_b 5.000632
_cell_length_c 27.080264
_cell_angle_alpha 90.000000
_cell_angle_beta 160.600368
_cell_angle_gamma 90.000000
_cell_volume 687.855339
_symmetry_space_group_name_H-M "P 2/C"
_symmetry_group_IT_number 13
_symmetry_cell_setting 'monoclinic'
loop_
_space_group_symop_operation_xyz
x,y,z
-x,y,1/2-z
-x,-y,-z
x,-y,1/2+z
loop_
_atom_site_type_symbol
_atom_site_label
_atom_site_fract_x
_atom_site_fract_y
_atom_site_fract_z
Si Si1 0.025201 0.512876 0.455180
Si Si2 0.985324 0.638299 0.184581
Si Si3 0.232242 0.000782 0.007886
Si Si4 0.415218 0.616222 0.850045
O O1 0.735544 0.515748 0.276264
O O2 0.000000 0.500000 0.500000
O O3 0.186052 0.771413 0.524555
O O4 0.165392 0.265434 0.501760
O O5 0.971207 0.908611 0.144046
O O6 0.000000 0.692712 0.250000
O O7 0.219963 0.451372 0.290797
O O8 0.701396 0.508718 0.019408
O O9 0.506876 0.084531 0.127507
#
# Coordination Sequence:
#
# PCOD9237668 Si02
#       4
#     4   4   4   4
#     4  11  22  44  67  97 134 191 228 298 354 422
#     4   9  18  40  71 106 147 195 235 298 362 422
#     4   9  23  39  66  98 137 174 245 282 351 421
#     4   9  21  40  68 102 148 181 251 290 354 435
#
# _framework density 23.260702999999999
#
# number of rings (size 3 to 8) (size 9 to 14) (size 15 to 20)
#    1.500    1.000    0.000    1.500    0.000    5.000 
#    0.000    8.750    0.000    0.000    0.000    0.000 
#    0.000    0.000    0.000    0.000    0.000    0.000 
#
# Total GULP energy -89131.205774 kJ/mol
# GULP energy per Si atom -5570.700361 kJ/mol
# Density = 2.320776 g / cm^3
# Si number density = 23.260703 Si / 1000 Ang^3
#
#
#
# Elastic Constant Matrix: (Units=GPa)
#
#
# Indices 1 2 3 4 5 6 
#
# 1 217.8010 49.1036 46.5907 0.0000 -16.8931 0.0000
# 2 49.1036 117.6089 18.6966 0.0000 17.6316 0.0000
# 3 46.5907 18.6966 98.3501 0.0000 33.7255 0.0000
# 4 0.0000 0.0000 0.0000 21.9838 0.0000 13.7179
# 5 -16.8931 17.6316 33.7255 0.0000 48.8913 0.0000
# 6 0.0000 0.0000 0.0000 13.7179 0.0000 30.9022
#
#
#
# Elastic Compliance Matrix: (Units=1/GPa)
#
#
# Indices 1 2 3 4 5 6 
#
# 1 0.006940 -0.003143 -0.005110 0.000000 0.007057 0.000000
# 2 -0.003143 0.010458 0.001528 0.000000 -0.005912 0.000000
# 3 -0.005110 0.001528 0.017149 0.000000 -0.014146 0.000000
# 4 0.000000 0.000000 0.000000 0.062916 0.000000 -0.027929
# 5 0.007057 -0.005912 -0.014146 0.000000 0.034782 0.000000
# 6 0.000000 0.000000 0.000000 -0.027929 0.000000 0.044758
#
#
# Mechanical properties :
#
#
# Convention : Reuss Voigt Hill
#
# Bulk Modulus (GPa) = 47.39952 73.61575 60.50763
# Shear Modulus (GPa) = 25.31813 41.64673 33.48243
#
# Velocity S-wave (km/s) = 3.30275 4.23594 3.79811
# Velocity P-wave (km/s) = 5.91320 7.45930 6.73079
#
# Compressibility (1/GPa) = 0.02109726
#
# Stress axis : x y z
#
# Youngs Moduli (GPa) = 144.08261 95.61607 58.31263
#
# Poissons Ratio (x) = 0.30055 0.29798
# Poissons Ratio (y) = 0.45289 -0.08911
# Poissons Ratio (z) = 0.73628 -0.14611
#
# Static dielectric constant tensor:
#      x y z
#    x 1.836370 0.000000 0.063070 
#    y 0.000000 2.016010 0.000000 
#    z 0.063070 0.000000 1.960820 
# 
# From -- ./inp_files/92600.got.cif
#   From: 2010.05.17/outbox.cif.g08.bks.cpg/sg13_47_cif.got.tgz:92600.got - 2010.06.03 16:44:36.
