data_PCOD9237854
_publ_section_title
;
Structure prediction by ZEFSAII (Michael W. Deem and Ramdas Pophale) SiO2 
 PCOD9237854
Probable space group: P 2/C
;
_chemical_formula_sum "Si O2"
_cell_formula_units_Z 20
_cell_length_a 5.746308
_cell_length_b 7.002235
_cell_length_c 24.262320
_cell_angle_alpha 90.000000
_cell_angle_beta 65.007553
_cell_angle_gamma 90.000000
_cell_volume 884.830964
_symmetry_space_group_name_H-M "P 2/C"
_symmetry_group_IT_number 13
_symmetry_cell_setting 'monoclinic'
loop_
_space_group_symop_operation_xyz
x,y,z
-x,y,1/2-z
-x,-y,-z
x,-y,1/2+z
loop_
_atom_site_type_symbol
_atom_site_label
_atom_site_fract_x
_atom_site_fract_y
_atom_site_fract_z
Si Si1 0.729968 0.107967 0.513746
Si Si2 0.170328 0.128761 0.179687
Si Si3 0.077411 0.584185 0.588179
Si Si4 0.519195 0.421298 0.182498
Si Si5 0.678555 0.735077 0.371264
O O1 0.818861 0.302152 0.474389
O O2 0.585268 0.164481 0.584206
O O3 0.500000 0.000000 0.500000
O O4 0.000000 0.000000 0.500000
O O5 0.108443 0.262934 0.134612
O O6 0.446144 0.206729 0.171756
O O7 0.000000 0.168445 0.250000
O O8 0.146593 0.911726 0.163690
O O9 0.229814 0.391100 0.586183
O O10 0.780308 0.534314 0.624041
O O11 0.500000 0.433166 0.250000
O O12 0.332554 0.583115 0.176818
#
# Coordination Sequence:
#
# PCOD9237854 Si02
#       5
#     4   4   4   4   4
#     4  12  27  50  78 105 148 194 248 302 370 436
#     4  11  23  43  67 100 143 186 235 299 366 437
#     4  11  25  46  72 100 145 183 243 302 361 432
#     4  11  25  43  67 104 143 187 240 301 364 435
#     4  11  27  43  73 105 138 191 245 298 369 434
#
# _framework density 22.603186000000001
#
# number of rings (size 3 to 8) (size 9 to 14) (size 15 to 20)
#    0.000    0.800    4.000    1.800    8.400    3.200 
#    0.000    0.000    0.000    0.000    0.000    0.000 
#    0.000    0.000    0.000    0.000    0.000    0.000 
#
# Total GULP energy -111611.525806 kJ/mol
# GULP energy per Si atom -5580.576290 kJ/mol
# Density = 2.255174 g / cm^3
# Si number density = 22.603186 Si / 1000 Ang^3
#
#
#
# Elastic Constant Matrix: (Units=GPa)
#
#
# Indices 1 2 3 4 5 6 
#
# 1 71.1452 25.2858 -12.5500 0.0000 -7.8609 0.0000
# 2 25.2858 115.3731 2.4459 0.0000 12.0597 0.0000
# 3 -12.5500 2.4459 56.6822 0.0000 -2.6417 0.0000
# 4 0.0000 0.0000 0.0000 100.1427 0.0000 45.0083
# 5 -7.8609 12.0597 -2.6417 0.0000 29.8963 0.0000
# 6 0.0000 0.0000 0.0000 45.0083 0.0000 44.7962
#
#
#
# Elastic Compliance Matrix: (Units=1/GPa)
#
#
# Indices 1 2 3 4 5 6 
#
# 1 0.017183 -0.004562 0.004315 0.000000 0.006740 0.000000
# 2 -0.004562 0.010278 -0.001710 0.000000 -0.005497 0.000000
# 3 0.004315 -0.001710 0.018834 0.000000 0.003489 0.000000
# 4 0.000000 0.000000 0.000000 0.018208 0.000000 -0.018294
# 5 0.006740 -0.005497 0.003489 0.000000 0.037747 0.000000
# 6 0.000000 0.000000 0.000000 -0.018294 0.000000 0.040704
#
#
# Mechanical properties :
#
#
# Convention : Reuss Voigt Hill
#
# Bulk Modulus (GPa) = 23.59442 30.39598 26.99520
# Shear Modulus (GPa) = 31.05715 50.16830 40.61272
#
# Velocity S-wave (km/s) = 3.71079 4.71629 4.24343
# Velocity P-wave (km/s) = 5.36854 6.56770 5.99816
#
# Compressibility (1/GPa) = 0.04238291
#
# Stress axis : x y z
#
# Youngs Moduli (GPa) = 58.19693 97.29388 53.09523
#
# Poissons Ratio (x) = 0.44384 -0.22913
# Poissons Ratio (y) = 0.26549 0.09078
# Poissons Ratio (z) = -0.25115 0.16635
#
# Static dielectric constant tensor:
#      x y z
#    x 1.876500 0.000000 0.076970 
#    y 0.000000 1.835190 0.000000 
#    z 0.076970 0.000000 1.770870 
# 
# From -- ./inp_files/83014.got.cif
#   From: 2010.05.17/outbox.cif.g08.bks.cpg/sg13_42_cif.got.tgz:83014.got - 2010.06.03 16:44:36.
