data_PCOD9237774
_publ_section_title
;
Structure prediction by ZEFSAII (Michael W. Deem and Ramdas Pophale) SiO2 
 PCOD9237774
Probable space group: P 2/C
;
_chemical_formula_sum "Si O2"
_cell_formula_units_Z 16
_cell_length_a 12.818458
_cell_length_b 12.762143
_cell_length_c 14.897627
_cell_angle_alpha 90.000000
_cell_angle_beta 18.795690
_cell_angle_gamma 90.000000
_cell_volume 785.225850
_symmetry_space_group_name_H-M "P 2/C"
_symmetry_group_IT_number 13
_symmetry_cell_setting 'monoclinic'
loop_
_space_group_symop_operation_xyz
x,y,z
-x,y,1/2-z
-x,-y,-z
x,-y,1/2+z
loop_
_atom_site_type_symbol
_atom_site_label
_atom_site_fract_x
_atom_site_fract_y
_atom_site_fract_z
Si Si1 0.960719 0.878276 0.010075
Si Si2 0.321954 0.774137 0.546448
Si Si3 0.120103 0.253513 0.556547
Si Si4 0.246048 0.577018 0.247870
O O1 0.586199 0.854393 0.291204
O O2 0.032626 0.821601 0.045754
O O3 0.193147 0.824430 0.745754
O O4 0.000000 0.000000 0.000000
O O5 0.537515 0.667605 0.379624
O O6 0.000000 0.757855 0.750000
O O7 0.000000 0.213030 0.750000
O O8 0.945928 0.361517 0.673056
O O9 0.500000 0.269082 0.250000
O O10 0.000000 0.500000 0.500000
O O11 0.500000 0.500000 0.000000
#
# Coordination Sequence:
#
# PCOD9237774 Si02
#       4
#     4   4   4   4
#     4  11  24  43  66  96 132 170 216 270 325 393
#     4  11  24  43  65  96 132 169 216 272 326 390
#     4  11  23  41  63  92 126 164 209 261 316 381
#     4  11  23  41  63  90 124 163 210 263 317 378
#
# _framework density 20.376303
#
# number of rings (size 3 to 8) (size 9 to 14) (size 15 to 20)
#    0.000    1.000    0.000    9.000    0.000    6.000 
#    0.000    2.500    0.000    0.000    0.000    0.000 
#    0.000    0.000    0.000    0.000    0.000    0.000 
#
# Total GULP energy -89305.902929 kJ/mol
# GULP energy per Si atom -5581.618933 kJ/mol
# Density = 2.032993 g / cm^3
# Si number density = 20.376303 Si / 1000 Ang^3
#
#
#
# Elastic Constant Matrix: (Units=GPa)
#
#
# Indices 1 2 3 4 5 6 
#
# 1 102.6120 43.2426 47.4426 0.0000 -0.5280 0.0000
# 2 43.2426 146.7821 63.1492 0.0000 0.5298 0.0000
# 3 47.4426 63.1492 179.1064 0.0000 -5.6882 0.0000
# 4 0.0000 0.0000 0.0000 58.1837 0.0000 -49.2002
# 5 -0.5280 0.5298 -5.6882 0.0000 56.8859 0.0000
# 6 0.0000 0.0000 0.0000 -49.2002 0.0000 95.1254
#
#
#
# Elastic Compliance Matrix: (Units=1/GPa)
#
#
# Indices 1 2 3 4 5 6 
#
# 1 0.011849 -0.002521 -0.002253 0.000000 -0.000092 0.000000
# 2 -0.002521 0.008575 -0.002366 0.000000 -0.000340 0.000000
# 3 -0.002253 -0.002366 0.007037 0.000000 0.000705 0.000000
# 4 0.000000 0.000000 0.000000 0.030547 0.000000 0.015799
# 5 -0.000092 -0.000340 0.000705 0.000000 0.017652 0.000000
# 6 0.000000 0.000000 0.000000 0.015799 0.000000 0.018684
#
#
# Mechanical properties :
#
#
# Convention : Reuss Voigt Hill
#
# Bulk Modulus (GPa) = 75.87149 81.79658 78.83403
# Shear Modulus (GPa) = 44.24122 60.35006 52.29564
#
# Velocity S-wave (km/s) = 4.66468 5.44812 5.07155
# Velocity P-wave (km/s) = 8.14422 8.93343 8.54794
#
# Compressibility (1/GPa) = 0.01318018
#
# Stress axis : x y z
#
# Youngs Moduli (GPa) = 84.39544 116.62001 142.11377
#
# Poissons Ratio (x) = 0.29404 0.32012
# Poissons Ratio (y) = 0.21279 0.33628
# Poissons Ratio (z) = 0.19011 0.27595
#
# Static dielectric constant tensor:
#      x y z
#    x 1.744950 0.000000 -0.018550 
#    y 0.000000 1.749000 0.000000 
#    z -0.018550 0.000000 1.750740 
# 
# From -- ./inp_files/43394.got.cif
#   From: 2010.05.17/outbox.cif.g08.bks.cpg/sg13_22_cif.got.tgz:43394.got - 2010.06.03 16:44:36.
