data_PCOD9237113
_publ_section_title
;
Structure prediction by ZEFSAII (Michael W. Deem and Ramdas Pophale) SiO2 
 PCOD9237113
Probable space group: P 2/C
;
_chemical_formula_sum "Si O2"
_cell_formula_units_Z 24
_cell_length_a 13.492958
_cell_length_b 9.679507
_cell_length_c 18.329232
_cell_angle_alpha 90.000000
_cell_angle_beta 156.591214
_cell_angle_gamma 90.000000
_cell_volume 951.066312
_symmetry_space_group_name_H-M "P 2/C"
_symmetry_group_IT_number 13
_symmetry_cell_setting 'monoclinic'
loop_
_space_group_symop_operation_xyz
x,y,z
-x,y,1/2-z
-x,-y,-z
x,-y,1/2+z
loop_
_atom_site_type_symbol
_atom_site_label
_atom_site_fract_x
_atom_site_fract_y
_atom_site_fract_z
Si Si1 0.793726 0.172832 0.443421
Si Si2 0.772417 0.397298 0.549210
Si Si3 0.564018 0.315375 0.890909
Si Si4 0.988843 0.075095 0.161314
Si Si5 0.982315 0.353244 0.027154
Si Si6 0.381570 0.708777 0.902479
O O1 0.500000 0.149041 0.250000
O O2 0.864890 0.237803 0.414610
O O3 0.926447 0.033657 0.557229
O O4 0.143495 0.289268 0.954417
O O5 0.647156 0.529228 0.427268
O O6 0.590710 0.321078 0.484074
O O7 0.000000 0.451528 0.750000
O O8 0.300497 0.297592 0.672209
O O9 0.771653 0.194429 0.020522
O O10 0.529452 0.326875 0.955900
O O11 0.000000 0.010811 0.250000
O O12 0.258286 0.140543 0.326788
O O13 0.137454 0.371672 0.206670
O O14 0.000000 0.500000 0.000000
#
# Coordination Sequence:
#
# PCOD9237113 Si02
#       6
#     4   4   4   4   4   4
#     4  12  26  46  67 105 146 184 238 292 359 426
#     4  12  24  44  75 103 139 187 233 299 358 417
#     4  11  25  46  74 105 141 188 238 298 355 420
#     4  10  26  48  70 103 144 193 240 293 356 430
#     4  12  26  45  72 108 143 185 241 298 352 425
#     4  11  24  46  71 104 143 182 241 288 358 419
#
# _framework density 25.234832999999998
#
# number of rings (size 3 to 8) (size 9 to 14) (size 15 to 20)
#    0.000    0.667    3.333    3.500    7.000    2.000 
#    0.000    4.167    0.000    0.000    0.000    0.000 
#    0.000    0.000    0.000    0.000    0.000    0.000 
#
# Total GULP energy -134442.487944 kJ/mol
# GULP energy per Si atom -5601.770331 kJ/mol
# Density = 2.517740 g / cm^3
# Si number density = 25.234833 Si / 1000 Ang^3
#
#
#
# Elastic Constant Matrix: (Units=GPa)
#
#
# Indices 1 2 3 4 5 6 
#
# 1 99.3421 26.8426 34.2569 0.0000 -8.8456 0.0000
# 2 26.8426 91.4075 3.9168 0.0000 -3.5816 0.0000
# 3 34.2569 3.9168 123.4861 0.0000 -7.5516 0.0000
# 4 0.0000 0.0000 0.0000 41.0207 0.0000 -16.8692
# 5 -8.8456 -3.5816 -7.5516 0.0000 54.7444 0.0000
# 6 0.0000 0.0000 0.0000 -16.8692 0.0000 27.1817
#
#
#
# Elastic Compliance Matrix: (Units=1/GPa)
#
#
# Indices 1 2 3 4 5 6 
#
# 1 0.012203 -0.003395 -0.003198 0.000000 0.001309 0.000000
# 2 -0.003395 0.011924 0.000583 0.000000 0.000312 0.000000
# 3 -0.003198 0.000583 0.009013 0.000000 0.000765 0.000000
# 4 0.000000 0.000000 0.000000 0.032732 0.000000 0.020313
# 5 0.001309 0.000312 0.000765 0.000000 0.018604 0.000000
# 6 0.000000 0.000000 0.000000 0.020313 0.000000 0.049396
#
#
# Mechanical properties :
#
#
# Convention : Reuss Voigt Hill
#
# Bulk Modulus (GPa) = 47.34726 49.36314 48.35520
# Shear Modulus (GPa) = 32.69419 41.20397 36.94908
#
# Velocity S-wave (km/s) = 3.60335 4.04520 3.83065
# Velocity P-wave (km/s) = 6.00962 6.43601 6.22646
#
# Compressibility (1/GPa) = 0.02112055
#
# Stress axis : x y z
#
# Youngs Moduli (GPa) = 81.94875 83.86240 110.94585
#
# Poissons Ratio (x) = 0.28473 0.35475
# Poissons Ratio (y) = 0.27823 -0.06465
# Poissons Ratio (z) = 0.26203 -0.04887
#
# Static dielectric constant tensor:
#      x y z
#    x 2.085000 0.000000 0.026430 
#    y 0.000000 1.936070 0.000000 
#    z 0.026430 0.000000 1.975290 
# 
# From -- ./inp_files/87934.got.cif
#   From: 2010.05.17/outbox.cif.g08.bks.cpg/sg13_44_cif.got.tgz:87934.got - 2010.06.03 16:44:36.
