data_PCOD9237676
_publ_section_title
;
Structure prediction by ZEFSAII (Michael W. Deem and Ramdas Pophale) SiO2 
 PCOD9237676
Probable space group: P 2/C
;
_chemical_formula_sum "Si O2"
_cell_formula_units_Z 18
_cell_length_a 5.452589
_cell_length_b 12.468037
_cell_length_c 10.982642
_cell_angle_alpha 90.000000
_cell_angle_beta 90.914244
_cell_angle_gamma 90.000000
_cell_volume 746.538796
_symmetry_space_group_name_H-M "P 2/C"
_symmetry_group_IT_number 13
_symmetry_cell_setting 'monoclinic'
loop_
_space_group_symop_operation_xyz
x,y,z
-x,y,1/2-z
-x,-y,-z
x,-y,1/2+z
loop_
_atom_site_type_symbol
_atom_site_label
_atom_site_fract_x
_atom_site_fract_y
_atom_site_fract_z
Si Si1 0.000000 0.824932 0.250000
Si Si2 0.423642 0.236748 0.131005
Si Si3 0.754871 0.061571 0.536902
Si Si4 0.800682 0.338372 0.949106
Si Si5 0.165866 0.551276 0.637774
O O1 0.195950 0.898345 0.324722
O O2 0.127697 0.745717 0.153825
O O3 0.500000 0.169750 0.250000
O O4 0.297119 0.342039 0.183342
O O5 0.249494 0.167682 0.045579
O O6 0.639904 0.276718 0.046015
O O7 0.500000 0.000000 0.500000
O O8 0.000000 0.000000 0.500000
O O9 0.674118 0.446859 0.894895
O O10 0.026568 0.396481 0.019908
O O11 0.000000 0.514592 0.750000
#
# Coordination Sequence:
#
# PCOD9237676 Si02
#       5
#     2   4   4   4   4
#     4  12  26  54  82 114 160 212 264 334 410 488
#     4  12  26  46  77 112 157 207 266 332 403 481
#     4  12  31  54  82 117 154 212 278 346 406 473
#     4  11  24  45  74 114 157 208 262 319 402 492
#     4  11  22  44  72 114 161 209 263 319 397 487
#
# _framework density 24.111270999999999
#
# number of rings (size 3 to 8) (size 9 to 14) (size 15 to 20)
#    0.000    0.444    5.556    2.000    3.111    2.667 
#    4.000    0.000    0.000    0.000    0.000    0.000 
#    0.000    0.000    0.000    0.000    0.000    0.000 
#
# Total GULP energy -100565.131949 kJ/mol
# GULP energy per Si atom -5586.951775 kJ/mol
# Density = 2.405639 g / cm^3
# Si number density = 24.111271 Si / 1000 Ang^3
#
#
#
# Elastic Constant Matrix: (Units=GPa)
#
#
# Indices 1 2 3 4 5 6 
#
# 1 87.9621 61.2419 42.3458 0.0000 1.6262 0.0000
# 2 61.2419 132.3787 56.7913 0.0000 8.1474 0.0000
# 3 42.3458 56.7913 158.1802 0.0000 0.7523 0.0000
# 4 0.0000 0.0000 0.0000 14.1204 0.0000 17.8060
# 5 1.6262 8.1474 0.7523 0.0000 54.1355 0.0000
# 6 0.0000 0.0000 0.0000 17.8060 0.0000 62.0202
#
#
#
# Elastic Compliance Matrix: (Units=1/GPa)
#
#
# Indices 1 2 3 4 5 6 
#
# 1 0.017350 -0.007174 -0.002072 0.000000 0.000587 0.000000
# 2 -0.007174 0.011988 -0.002376 0.000000 -0.001556 0.000000
# 3 -0.002072 -0.002376 0.007728 0.000000 0.000312 0.000000
# 4 0.000000 0.000000 0.000000 0.111008 0.000000 -0.031870
# 5 0.000587 -0.001556 0.000312 0.000000 0.018684 0.000000
# 6 0.000000 0.000000 0.000000 -0.031870 0.000000 0.025274
#
#
# Mechanical properties :
#
#
# Convention : Reuss Voigt Hill
#
# Bulk Modulus (GPa) = 72.34667 77.69766 75.02217
# Shear Modulus (GPa) = 22.73937 40.59804 31.66870
#
# Velocity S-wave (km/s) = 3.07433 4.10784 3.62807
# Velocity P-wave (km/s) = 6.53242 7.40228 6.98091
#
# Compressibility (1/GPa) = 0.01382234
#
# Stress axis : x y z
#
# Youngs Moduli (GPa) = 57.63816 83.41691 129.39666
#
# Poissons Ratio (x) = 0.59841 0.26809
# Poissons Ratio (y) = 0.41348 0.30747
# Poissons Ratio (z) = 0.11942 0.19821
#
# Static dielectric constant tensor:
#      x y z
#    x 2.050100 0.000000 0.072790 
#    y 0.000000 1.977940 0.000000 
#    z 0.072790 0.000000 1.990850 
# 
# From -- ./inp_files/25789.got.cif
#   From: 2010.05.17/outbox.cif.g08.bks.cpg/sg13_13_cif.got.tgz:25789.got - 2010.06.03 16:44:36.
