data_PCOD9237999
_publ_section_title
;
Structure prediction by ZEFSAII (Michael W. Deem and Ramdas Pophale) SiO2 
 PCOD9237999
Probable space group: P 2/C
;
_chemical_formula_sum "Si O2"
_cell_formula_units_Z 20
_cell_length_a 16.070454
_cell_length_b 6.416451
_cell_length_c 22.709845
_cell_angle_alpha 90.000000
_cell_angle_beta 158.060925
_cell_angle_gamma 90.000000
_cell_volume 874.919022
_symmetry_space_group_name_H-M "P 2/C"
_symmetry_group_IT_number 13
_symmetry_cell_setting 'monoclinic'
loop_
_space_group_symop_operation_xyz
x,y,z
-x,y,1/2-z
-x,-y,-z
x,-y,1/2+z
loop_
_atom_site_type_symbol
_atom_site_label
_atom_site_fract_x
_atom_site_fract_y
_atom_site_fract_z
Si Si1 0.174147 0.680947 0.265014
Si Si2 0.500000 0.113203 0.750000
Si Si3 0.662251 0.681866 0.556587
Si Si4 0.496351 0.495113 0.664306
Si Si5 0.000000 0.027408 0.750000
Si Si6 0.185527 0.267541 0.053279
O O1 0.431341 0.749223 0.434350
O O2 0.182753 0.445720 0.296192
O O3 0.032638 0.826722 0.215162
O O4 0.070336 0.707517 0.132008
O O5 0.509988 0.264249 0.700392
O O6 0.714757 0.963429 0.886869
O O7 0.584864 0.519542 0.455357
O O8 0.790556 0.872563 0.612017
O O9 0.720137 0.625859 0.825608
O O10 0.311372 0.605738 0.583747
#
# Coordination Sequence:
#
# PCOD9237999 Si02
#       6
#     4   2   4   4   2   4
#     4  11  24  40  61  90 120 155 200 246 296 353
#     4   8  16  32  58  84 114 154 194 234 288 346
#     4  11  24  40  61  90 120 155 200 246 296 353
#     4   9  18  34  57  84 114 155 196 235 287 346
#     4  12  22  40  64  86 118 160 196 246 298 352
#     4   9  18  34  57  84 114 155 196 235 287 346
#
# _framework density 22.859259000000002
#
# number of rings (size 3 to 8) (size 9 to 14) (size 15 to 20)
#    0.000    2.400    0.000    4.800    0.000    4.000 
#    0.000    1.000    0.000    0.000    0.000    0.000 
#    0.000    0.000    0.000    0.000    0.000    0.000 
#
# Total GULP energy -111748.545229 kJ/mol
# GULP energy per Si atom -5587.427261 kJ/mol
# Density = 2.280723 g / cm^3
# Si number density = 22.859259 Si / 1000 Ang^3
#
#
#
# Elastic Constant Matrix: (Units=GPa)
#
#
# Indices 1 2 3 4 5 6 
#
# 1 45.5516 8.4395 2.8400 0.0000 7.4941 0.0000
# 2 8.4395 102.7762 43.0756 0.0000 12.1185 0.0000
# 3 2.8400 43.0756 90.6962 0.0000 -9.6169 0.0000
# 4 0.0000 0.0000 0.0000 14.3009 0.0000 -3.9304
# 5 7.4941 12.1185 -9.6169 0.0000 32.1349 0.0000
# 6 0.0000 0.0000 0.0000 -3.9304 0.0000 19.1931
#
#
#
# Elastic Compliance Matrix: (Units=1/GPa)
#
#
# Indices 1 2 3 4 5 6 
#
# 1 0.023044 -0.000914 -0.000848 0.000000 -0.005283 0.000000
# 2 -0.000914 0.013666 -0.007215 0.000000 -0.007100 0.000000
# 3 -0.000848 -0.007215 0.015273 0.000000 0.007489 0.000000
# 4 0.000000 0.000000 0.000000 0.074096 0.000000 0.015173
# 5 -0.005283 -0.007100 0.007489 0.000000 0.037269 0.000000
# 6 0.000000 0.000000 0.000000 0.015173 0.000000 0.055209
#
#
# Mechanical properties :
#
#
# Convention : Reuss Voigt Hill
#
# Bulk Modulus (GPa) = 29.38537 38.63712 34.01124
# Shear Modulus (GPa) = 20.17314 25.43704 22.80509
#
# Velocity S-wave (km/s) = 2.97390 3.33944 3.16196
# Velocity P-wave (km/s) = 4.96739 5.63986 5.31427
#
# Compressibility (1/GPa) = 0.03403054
#
# Stress axis : x y z
#
# Youngs Moduli (GPa) = 43.39431 73.17493 65.47479
#
# Poissons Ratio (x) = 0.06689 0.05550
# Poissons Ratio (y) = 0.03967 0.47238
# Poissons Ratio (z) = 0.03678 0.52794
#
# Static dielectric constant tensor:
#      x y z
#    x 1.856980 0.000000 -0.012930 
#    y 0.000000 1.829450 0.000000 
#    z -0.012930 0.000000 1.956600 
# 
# From -- ./inp_files/48671.got.cif
#   From: 2010.05.17/outbox.cif.g08.bks.cpg/sg13_25_cif.got.tgz:48671.got - 2010.06.03 16:44:36.
