data_PCOD9237072
_publ_section_title
;
Structure prediction by ZEFSAII (Michael W. Deem and Ramdas Pophale) SiO2 
 PCOD9237072
Probable space group: P 2/C
;
_chemical_formula_sum "Si O2"
_cell_formula_units_Z 18
_cell_length_a 16.046230
_cell_length_b 5.048411
_cell_length_c 15.962382
_cell_angle_alpha 90.000000
_cell_angle_beta 34.566136
_cell_angle_gamma 90.000000
_cell_volume 733.638210
_symmetry_space_group_name_H-M "P 2/C"
_symmetry_group_IT_number 13
_symmetry_cell_setting 'monoclinic'
loop_
_space_group_symop_operation_xyz
x,y,z
-x,y,1/2-z
-x,-y,-z
x,-y,1/2+z
loop_
_atom_site_type_symbol
_atom_site_label
_atom_site_fract_x
_atom_site_fract_y
_atom_site_fract_z
Si Si1 0.360434 0.467402 0.915548
Si Si2 0.000000 0.270244 0.250000
Si Si3 0.761576 0.966979 0.549083
Si Si4 0.662668 0.038583 0.321469
Si Si5 0.764030 0.545707 0.323114
O O1 0.500000 0.551526 0.750000
O O2 0.340229 0.153560 0.925491
O O3 0.240240 0.656930 0.970865
O O4 0.374576 0.545763 0.999292
O O5 0.109692 0.441141 0.218473
O O6 0.914886 0.088369 0.388919
O O7 0.694980 0.016515 0.696466
O O8 0.771482 0.834824 0.279547
O O9 0.500000 0.000000 0.500000
O O10 0.725073 0.330996 0.286255
#
# Coordination Sequence:
#
# PCOD9237072 Si02
#       5
#     4   2   4   4   4
#     4  11  21  40  65  94 125 173 220 267 323 381
#     4  10  26  46  64  96 130 184 228 248 320 392
#     4  11  24  40  65  92 133 169 215 271 316 394
#     4  12  24  42  66 101 130 165 213 276 339 374
#     4  11  24  41  67  92 133 171 214 271 315 392
#
# _framework density 24.535253000000001
#
# number of rings (size 3 to 8) (size 9 to 14) (size 15 to 20)
#    0.000    0.889    0.000    8.000    0.000    9.778 
#    0.000    0.000    0.000    0.000    0.000    0.000 
#    0.000    0.000    0.000    0.000    0.000    0.000 
#
# Total GULP energy -100413.938974 kJ/mol
# GULP energy per Si atom -5578.552165 kJ/mol
# Density = 2.447941 g / cm^3
# Si number density = 24.535253 Si / 1000 Ang^3
#
#
#
# Elastic Constant Matrix: (Units=GPa)
#
#
# Indices 1 2 3 4 5 6 
#
# 1 63.5730 13.8832 23.0462 0.0000 2.3763 0.0000
# 2 13.8832 74.7833 19.5624 0.0000 -6.5905 0.0000
# 3 23.0462 19.5624 123.7650 0.0000 14.8102 0.0000
# 4 0.0000 0.0000 0.0000 23.9898 0.0000 20.8830
# 5 2.3763 -6.5905 14.8102 0.0000 45.2747 0.0000
# 6 0.0000 0.0000 0.0000 20.8830 0.0000 40.2290
#
#
#
# Elastic Compliance Matrix: (Units=1/GPa)
#
#
# Indices 1 2 3 4 5 6 
#
# 1 0.017301 -0.002517 -0.002780 0.000000 -0.000365 0.000000
# 2 -0.002517 0.014681 -0.002210 0.000000 0.002992 0.000000
# 3 -0.002780 -0.002210 0.009333 0.000000 -0.003229 0.000000
# 4 0.000000 0.000000 0.000000 0.076049 0.000000 -0.039477
# 5 -0.000365 0.002992 -0.003229 0.000000 0.023598 0.000000
# 6 0.000000 0.000000 0.000000 -0.039477 0.000000 0.045351
#
#
# Mechanical properties :
#
#
# Convention : Reuss Voigt Hill
#
# Bulk Modulus (GPa) = 38.02052 41.67834 39.84943
# Shear Modulus (GPa) = 23.79885 35.60733 29.70309
#
# Velocity S-wave (km/s) = 3.11784 3.81369 3.48318
# Velocity P-wave (km/s) = 5.33771 6.03459 5.69682
#
# Compressibility (1/GPa) = 0.02630159
#
# Stress axis : x y z
#
# Youngs Moduli (GPa) = 57.79997 68.11546 107.14456
#
# Poissons Ratio (x) = 0.17143 0.29788
# Poissons Ratio (y) = 0.14547 0.23678
# Poissons Ratio (z) = 0.16069 0.15053
#
# Static dielectric constant tensor:
#      x y z
#    x 2.046580 0.000000 -0.123390 
#    y 0.000000 1.913210 0.000000 
#    z -0.123390 0.000000 2.074260 
# 
# From -- ./inp_files/52017.got.cif
#   From: 2010.05.17/outbox.cif.g08.bks.cpg/sg13_27_cif.got.tgz:52017.got - 2010.06.03 16:44:36.
