data_PCOD9237865
_publ_section_title
;
Structure prediction by ZEFSAII (Michael W. Deem and Ramdas Pophale) SiO2 
 PCOD9237865
Probable space group: P 2/C
;
_chemical_formula_sum "Si O2"
_cell_formula_units_Z 16
_cell_length_a 9.930870
_cell_length_b 7.859514
_cell_length_c 9.632005
_cell_angle_alpha 90.000000
_cell_angle_beta 120.134519
_cell_angle_gamma 90.000000
_cell_volume 650.189625
_symmetry_space_group_name_H-M "P 2/C"
_symmetry_group_IT_number 13
_symmetry_cell_setting 'monoclinic'
loop_
_space_group_symop_operation_xyz
x,y,z
-x,y,1/2-z
-x,-y,-z
x,-y,1/2+z
loop_
_atom_site_type_symbol
_atom_site_label
_atom_site_fract_x
_atom_site_fract_y
_atom_site_fract_z
Si Si1 0.355060 0.604249 0.364148
Si Si2 0.162817 0.888477 0.901725
Si Si3 0.834924 0.493426 0.991191
Si Si4 0.648526 0.015543 0.746912
O O1 0.500000 0.500000 0.500000
O O2 0.221846 0.617087 0.415174
O O3 0.289051 0.504037 0.197089
O O4 0.389338 0.792420 0.324045
O O5 0.000000 0.943747 0.750000
O O6 0.296944 0.917549 0.859175
O O7 0.161256 0.690001 0.934479
O O8 0.210815 0.978224 0.069572
O O9 0.000000 0.500000 0.000000
O O10 0.500000 0.944117 0.750000
#
# Coordination Sequence:
#
# PCOD9237865 Si02
#       4
#     4   4   4   4
#     4  11  23  43  68  96 131 174 225 280 337 396
#     4  11  24  44  69 100 138 180 223 276 338 402
#     4  11  24  43  68  99 134 175 224 277 336 401
#     4  11  25  44  66  97 136 179 228 279 335 401
#
# _framework density 24.608205000000002
#
# number of rings (size 3 to 8) (size 9 to 14) (size 15 to 20)
#    0.000    1.000    0.000    7.500    0.000    8.000 
#    0.000    3.750    0.000    0.000    0.000    0.000 
#    0.000    0.000    0.000    0.000    0.000    0.000 
#
# Total GULP energy -89722.007943 kJ/mol
# GULP energy per Si atom -5607.625496 kJ/mol
# Density = 2.455220 g / cm^3
# Si number density = 24.608205 Si / 1000 Ang^3
#
#
#
# Elastic Constant Matrix: (Units=GPa)
#
#
# Indices 1 2 3 4 5 6 
#
# 1 134.9645 21.7614 38.5663 0.0000 -37.1135 0.0000
# 2 21.7614 29.7076 20.1176 0.0000 -18.6402 0.0000
# 3 38.5663 20.1176 174.4509 0.0000 3.4906 0.0000
# 4 0.0000 0.0000 0.0000 22.2895 0.0000 -13.1913
# 5 -37.1135 -18.6402 3.4906 0.0000 63.3442 0.0000
# 6 0.0000 0.0000 0.0000 -13.1913 0.0000 35.3489
#
#
#
# Elastic Compliance Matrix: (Units=1/GPa)
#
#
# Indices 1 2 3 4 5 6 
#
# 1 0.009790 -0.002673 -0.001957 0.000000 0.005058 0.000000
# 2 -0.002673 0.046905 -0.005069 0.000000 0.012516 0.000000
# 3 -0.001957 -0.005069 0.006810 0.000000 -0.003014 0.000000
# 4 0.000000 0.000000 0.000000 0.057581 0.000000 0.021488
# 5 0.005058 0.012516 -0.003014 0.000000 0.022599 0.000000
# 6 0.000000 0.000000 0.000000 0.021488 0.000000 0.036308
#
#
# Mechanical properties :
#
#
# Convention : Reuss Voigt Hill
#
# Bulk Modulus (GPa) = 22.67177 55.55707 39.11442
# Shear Modulus (GPa) = 23.35425 41.44168 32.39797
#
# Velocity S-wave (km/s) = 3.08400 4.10818 3.63237
# Velocity P-wave (km/s) = 4.68129 6.71778 5.78978
#
# Compressibility (1/GPa) = 0.04410772
#
# Stress axis : x y z
#
# Youngs Moduli (GPa) = 102.14096 21.31969 146.84711
#
# Poissons Ratio (x) = 0.05698 0.28743
# Poissons Ratio (y) = 0.27300 0.74431
# Poissons Ratio (z) = 0.19993 0.10806
#
# Static dielectric constant tensor:
#      x y z
#    x 1.950730 0.000000 0.008680 
#    y 0.000000 1.933710 0.000000 
#    z 0.008680 0.000000 1.891090 
# 
# From -- ./inp_files/15043.got.cif
#   From: 2010.05.17/outbox.cif.g08.bks.cpg/sg13_8_cif.got.tgz:15043.got - 2010.06.03 16:44:36.
