data_PCOD9237121
_publ_section_title
;
Structure prediction by ZEFSAII (Michael W. Deem and Ramdas Pophale) SiO2 
 PCOD9237121
Probable space group: P 2/C
;
_chemical_formula_sum "Si O2"
_cell_formula_units_Z 18
_cell_length_a 9.707949
_cell_length_b 8.057731
_cell_length_c 19.703179
_cell_angle_alpha 90.000000
_cell_angle_beta 147.269041
_cell_angle_gamma 90.000000
_cell_volume 833.352724
_symmetry_space_group_name_H-M "P 2/C"
_symmetry_group_IT_number 13
_symmetry_cell_setting 'monoclinic'
loop_
_space_group_symop_operation_xyz
x,y,z
-x,y,1/2-z
-x,-y,-z
x,-y,1/2+z
loop_
_atom_site_type_symbol
_atom_site_label
_atom_site_fract_x
_atom_site_fract_y
_atom_site_fract_z
Si Si1 0.791285 0.552469 0.610135
Si Si2 0.729021 0.916669 0.635776
Si Si3 0.500000 0.204843 0.750000
Si Si4 0.000681 0.381980 0.565275
Si Si5 0.416853 0.116438 0.141783
O O1 0.500000 0.500000 0.500000
O O2 0.790030 0.749493 0.619808
O O3 0.885824 0.489378 0.577681
O O4 0.000000 0.484992 0.750000
O O5 0.627098 0.877130 0.669399
O O6 0.000000 0.011990 0.750000
O O7 0.500000 0.000000 0.500000
O O8 0.714609 0.316370 0.805021
O O9 0.623981 0.077644 0.856170
O O10 0.824583 0.219892 0.482303
O O11 0.000000 0.500000 0.500000
O O12 0.500000 0.188077 0.250000
#
# Coordination Sequence:
#
# PCOD9237121 Si02
#       5
#     4   4   2   4   4
#     4  11  27  47  72 107 150 190 248 310 376 443
#     4  11  27  45  75 107 148 199 246 310 376 456
#     4  10  28  44  78 104 152 192 252 308 384 446
#     4  12  28  45  78 107 147 198 254 311 376 457
#     4  10  26  48  73 103 153 189 255 299 385 451
#
# _framework density 21.599499000000002
#
# number of rings (size 3 to 8) (size 9 to 14) (size 15 to 20)
#    0.667    0.444    2.222    0.667   17.111    0.889 
#    0.000    0.000    0.000    0.000    0.000    0.000 
#    0.000    0.000    0.000    0.000    0.000    0.000 
#
# Total GULP energy -100558.657318 kJ/mol
# GULP energy per Si atom -5586.592073 kJ/mol
# Density = 2.155034 g / cm^3
# Si number density = 21.599499 Si / 1000 Ang^3
#
#
#
# Elastic Constant Matrix: (Units=GPa)
#
#
# Indices 1 2 3 4 5 6 
#
# 1 208.5536 50.9910 74.2895 0.0000 12.0436 0.0000
# 2 50.9910 83.2601 30.1337 0.0000 8.5114 0.0000
# 3 74.2895 30.1337 145.2548 0.0000 20.4927 0.0000
# 4 0.0000 0.0000 0.0000 22.4130 0.0000 8.7856
# 5 12.0436 8.5114 20.4927 0.0000 40.2678 0.0000
# 6 0.0000 0.0000 0.0000 8.7856 0.0000 30.6127
#
#
#
# Elastic Compliance Matrix: (Units=1/GPa)
#
#
# Indices 1 2 3 4 5 6 
#
# 1 0.006489 -0.003002 -0.002706 0.000000 0.000071 0.000000
# 2 -0.003002 0.014457 -0.001249 0.000000 -0.001522 0.000000
# 3 -0.002706 -0.001249 0.009024 0.000000 -0.003519 0.000000
# 4 0.000000 0.000000 0.000000 0.050272 0.000000 -0.014428
# 5 0.000071 -0.001522 -0.003519 0.000000 0.026925 0.000000
# 6 0.000000 0.000000 0.000000 -0.014428 0.000000 0.036807
#
#
# Mechanical properties :
#
#
# Convention : Reuss Voigt Hill
#
# Bulk Modulus (GPa) = 62.28279 83.09964 72.69122
# Shear Modulus (GPa) = 30.62995 37.43566 34.03280
#
# Velocity S-wave (km/s) = 3.76983 4.16766 3.97373
# Velocity P-wave (km/s) = 6.91713 7.85593 7.40143
#
# Compressibility (1/GPa) = 0.01605580
#
# Stress axis : x y z
#
# Youngs Moduli (GPa) = 154.11613 69.17246 110.81649
#
# Poissons Ratio (x) = 0.20764 0.29985
# Poissons Ratio (y) = 0.46262 0.13842
# Poissons Ratio (z) = 0.41701 0.08640
#
# Static dielectric constant tensor:
#      x y z
#    x 1.745120 0.000000 -0.020610 
#    y 0.000000 1.795600 0.000000 
#    z -0.020610 0.000000 1.943130 
# 
# From -- ./inp_files/75900.got.cif
#   From: 2010.05.17/outbox.cif.g08.bks.cpg/sg13_38_cif.got.tgz:75900.got - 2010.06.03 16:44:36.
