data_PCOD9237588
_publ_section_title
;
Structure prediction by ZEFSAII (Michael W. Deem and Ramdas Pophale) SiO2 
 PCOD9237588
Probable space group: P 2/C
;
_chemical_formula_sum "Si O2"
_cell_formula_units_Z 28
_cell_length_a 21.524580
_cell_length_b 8.725628
_cell_length_c 23.706395
_cell_angle_alpha 90.000000
_cell_angle_beta 161.355013
_cell_angle_gamma 90.000000
_cell_volume 1423.456213
_symmetry_space_group_name_H-M "P 2/C"
_symmetry_group_IT_number 13
_symmetry_cell_setting 'monoclinic'
loop_
_space_group_symop_operation_xyz
x,y,z
-x,y,1/2-z
-x,-y,-z
x,-y,1/2+z
loop_
_atom_site_type_symbol
_atom_site_label
_atom_site_fract_x
_atom_site_fract_y
_atom_site_fract_z
Si Si1 0.826886 0.821339 0.139371
Si Si2 0.507402 0.588075 0.818932
Si Si3 0.518848 0.366791 0.597216
Si Si4 0.934915 0.334744 0.562321
Si Si5 0.118268 0.145261 0.083074
Si Si6 0.187505 0.565407 0.720004
Si Si7 0.483430 0.992185 0.055078
O O1 0.000000 0.894606 0.250000
O O2 0.948495 0.699662 0.281232
O O3 0.670331 0.719241 0.969639
O O4 0.708613 0.936478 0.079529
O O5 0.500000 0.515895 0.750000
O O6 0.521714 0.462524 0.880792
O O7 0.295721 0.664804 0.637067
O O8 0.710529 0.442604 0.734040
O O9 0.348688 0.395547 0.405320
O O10 0.522668 0.183691 0.606680
O O11 0.984454 0.200049 0.561883
O O12 0.008850 0.490575 0.598462
O O13 0.123564 0.286271 0.130828
O O14 0.341509 0.095074 0.270797
O O15 0.000000 0.000000 0.000000
O O16 0.500000 0.000000 0.000000
#
# Coordination Sequence:
#
# PCOD9237588 Si02
#       7
#     4   4   4   4   4   4   4
#     4  12  25  47  71 101 138 188 238 292 353 430
#     4  12  25  47  69  99 132 188 244 283 341 428
#     4  11  23  42  68 101 142 180 231 287 353 415
#     4  12  24  41  69  99 138 175 240 284 346 419
#     4  12  24  38  64 108 146 177 228 288 361 423
#     4  11  22  40  67 102 141 181 221 296 353 410
#     4  12  24  44  70 104 148 184 227 297 360 422
#
# _framework density 19.670432000000002
#
# number of rings (size 3 to 8) (size 9 to 14) (size 15 to 20)
#    0.000    0.286    7.143    3.000    2.000    0.000 
#    0.000    4.286    0.000    0.000    0.000    0.000 
#    0.000    0.000    0.000    0.000    0.000    0.000 
#
# Total GULP energy -156276.726127 kJ/mol
# GULP energy per Si atom -5581.311647 kJ/mol
# Density = 1.962566 g / cm^3
# Si number density = 19.670432 Si / 1000 Ang^3
#
#
#
# Elastic Constant Matrix: (Units=GPa)
#
#
# Indices 1 2 3 4 5 6 
#
# 1 102.0369 36.5070 34.6987 0.0000 4.8390 0.0000
# 2 36.5070 95.2324 28.6389 0.0000 7.7480 0.0000
# 3 34.6987 28.6389 111.0217 0.0000 0.6969 0.0000
# 4 0.0000 0.0000 0.0000 33.3956 0.0000 2.1106
# 5 4.8390 7.7480 0.6969 0.0000 34.9360 0.0000
# 6 0.0000 0.0000 0.0000 2.1106 0.0000 21.9414
#
#
#
# Elastic Compliance Matrix: (Units=1/GPa)
#
#
# Indices 1 2 3 4 5 6 
#
# 1 0.012136 -0.003738 -0.002824 0.000000 -0.000796 0.000000
# 2 -0.003738 0.012752 -0.002107 0.000000 -0.002268 0.000000
# 3 -0.002824 -0.002107 0.010429 0.000000 0.000650 0.000000
# 4 0.000000 0.000000 0.000000 0.030127 0.000000 -0.002898
# 5 -0.000796 -0.002268 0.000650 0.000000 0.029224 0.000000
# 6 0.000000 0.000000 0.000000 -0.002898 0.000000 0.045855
#
#
# Mechanical properties :
#
#
# Convention : Reuss Voigt Hill
#
# Bulk Modulus (GPa) = 55.61973 56.44224 56.03099
# Shear Modulus (GPa) = 30.51509 31.95102 31.23306
#
# Velocity S-wave (km/s) = 3.94295 4.03465 3.98907
# Velocity P-wave (km/s) = 7.00474 7.10358 7.05433
#
# Compressibility (1/GPa) = 0.01797923
#
# Stress axis : x y z
#
# Youngs Moduli (GPa) = 82.40070 78.42017 95.88536
#
# Poissons Ratio (x) = 0.29316 0.27074
# Poissons Ratio (y) = 0.30804 0.20201
# Poissons Ratio (z) = 0.23267 0.16522
#
# Static dielectric constant tensor:
#      x y z
#    x 1.822740 0.000000 0.037170 
#    y 0.000000 1.672200 0.000000 
#    z 0.037170 0.000000 1.726110 
# 
# From -- ./inp_files/82156.got.cif
#   From: 2010.05.17/outbox.cif.g08.bks.cpg/sg13_42_cif.got.tgz:82156.got - 2010.06.03 16:44:36.
