data_PCOD9237719
_publ_section_title
;
Structure prediction by ZEFSAII (Michael W. Deem and Ramdas Pophale) SiO2 
 PCOD9237719
Probable space group: P 2/C
;
_chemical_formula_sum "Si O2"
_cell_formula_units_Z 16
_cell_length_a 8.151527
_cell_length_b 6.560229
_cell_length_c 26.012358
_cell_angle_alpha 90.000000
_cell_angle_beta 149.391253
_cell_angle_gamma 90.000000
_cell_volume 708.276612
_symmetry_space_group_name_H-M "P 2/C"
_symmetry_group_IT_number 13
_symmetry_cell_setting 'monoclinic'
loop_
_space_group_symop_operation_xyz
x,y,z
-x,y,1/2-z
-x,-y,-z
x,-y,1/2+z
loop_
_atom_site_type_symbol
_atom_site_label
_atom_site_fract_x
_atom_site_fract_y
_atom_site_fract_z
Si Si1 0.480325 0.438256 0.873109
Si Si2 0.841857 0.473965 0.315540
Si Si3 0.960079 0.762825 0.045405
Si Si4 0.674002 0.149174 0.007747
O O1 0.212797 0.497318 0.759541
O O2 0.750973 0.320047 0.911845
O O3 0.646395 0.641319 0.940648
O O4 0.436073 0.282384 0.908128
O O5 0.500000 0.415193 0.250000
O O6 0.951309 0.678925 0.374080
O O7 0.101277 0.305411 0.400899
O O8 0.893813 0.001259 0.031665
O O9 0.500000 0.000000 0.000000
#
# Coordination Sequence:
#
# PCOD9237719 Si02
#       4
#     4   4   4   4
#     4   9  19  38  62  85 116 160 203 246 297 355
#     4   9  20  38  61  87 117 160 212 252 287 351
#     4   9  19  37  60  86 117 156 203 251 293 349
#     4  11  23  38  60  92 127 157 193 252 313 360
#
# _framework density 22.590045
#
# number of rings (size 3 to 8) (size 9 to 14) (size 15 to 20)
#    0.000    2.500    0.000    2.250    0.000    9.000 
#    0.000    7.500    0.000    0.000    0.000    0.000 
#    0.000    0.000    0.000    0.000    0.000    0.000 
#
# Total GULP energy -89476.449052 kJ/mol
# GULP energy per Si atom -5592.278066 kJ/mol
# Density = 2.253863 g / cm^3
# Si number density = 22.590045 Si / 1000 Ang^3
#
#
#
# Elastic Constant Matrix: (Units=GPa)
#
#
# Indices 1 2 3 4 5 6 
#
# 1 89.0861 17.3532 41.6239 0.0000 -22.8399 0.0000
# 2 17.3532 97.7280 50.8458 0.0000 -13.9525 0.0000
# 3 41.6239 50.8458 138.6980 0.0000 -45.6440 0.0000
# 4 0.0000 0.0000 0.0000 11.0904 0.0000 0.1580
# 5 -22.8399 -13.9525 -45.6440 0.0000 40.0618 0.0000
# 6 0.0000 0.0000 0.0000 0.1580 0.0000 40.2448
#
#
#
# Elastic Compliance Matrix: (Units=1/GPa)
#
#
# Indices 1 2 3 4 5 6 
#
# 1 0.013673 -0.000540 -0.002243 0.000000 0.005052 0.000000
# 2 -0.000540 0.012715 -0.005029 0.000000 -0.001609 0.000000
# 3 -0.002243 -0.005029 0.013966 0.000000 0.012882 0.000000
# 4 0.000000 0.000000 0.000000 0.090173 0.000000 -0.000354
# 5 0.005052 -0.001609 0.012882 0.000000 0.041958 0.000000
# 6 0.000000 0.000000 0.000000 -0.000354 0.000000 0.024849
#
#
# Mechanical properties :
#
#
# Convention : Reuss Voigt Hill
#
# Bulk Modulus (GPa) = 40.43475 60.57310 50.50392
# Shear Modulus (GPa) = 22.60389 32.65868 27.63129
#
# Velocity S-wave (km/s) = 3.16668 3.80638 3.50117
# Velocity P-wave (km/s) = 5.59542 6.79634 6.22491
#
# Compressibility (1/GPa) = 0.02473120
#
# Stress axis : x y z
#
# Youngs Moduli (GPa) = 73.13435 78.64764 71.60380
#
# Poissons Ratio (x) = 0.04244 0.16062
# Poissons Ratio (y) = 0.03947 0.36007
# Poissons Ratio (z) = 0.16405 0.39549
#
# Static dielectric constant tensor:
#      x y z
#    x 1.980890 0.000000 0.028810 
#    y 0.000000 1.767210 0.000000 
#    z 0.028810 0.000000 1.809370 
# 
# From -- ./inp_files/45120.got.cif
#   From: 2010.05.17/outbox.cif.g08.bks.cpg/sg13_23_cif.got.tgz:45120.got - 2010.06.03 16:44:36.
