data_PCOD9237018
_publ_section_title
;
Structure prediction by ZEFSAII (Michael W. Deem and Ramdas Pophale) SiO2 
 PCOD9237018
Probable space group: P 2/C
;
_chemical_formula_sum "Si O2"
_cell_formula_units_Z 28
_cell_length_a 10.724841
_cell_length_b 4.833857
_cell_length_c 20.224653
_cell_angle_alpha 90.000000
_cell_angle_beta 111.014770
_cell_angle_gamma 90.000000
_cell_volume 978.756109
_symmetry_space_group_name_H-M "P 2/C"
_symmetry_group_IT_number 13
_symmetry_cell_setting 'monoclinic'
loop_
_space_group_symop_operation_xyz
x,y,z
-x,y,1/2-z
-x,-y,-z
x,-y,1/2+z
loop_
_atom_site_type_symbol
_atom_site_label
_atom_site_fract_x
_atom_site_fract_y
_atom_site_fract_z
Si Si1 0.345190 0.690998 0.485197
Si Si2 0.092695 0.607430 0.826995
Si Si3 0.766027 0.080546 0.862616
Si Si4 0.321097 0.557043 0.281996
Si Si5 0.607861 0.455146 0.369800
Si Si6 0.660146 0.841936 0.606296
Si Si7 0.035515 0.299882 0.945538
O O1 0.429701 0.694833 0.568726
O O2 0.349584 0.394296 0.452112
O O3 0.194076 0.761385 0.479596
O O4 0.395565 0.883750 0.435994
O O5 0.796123 0.405861 0.686183
O O6 0.021271 0.469712 0.874326
O O7 0.000000 0.691408 0.750000
O O8 0.176435 0.867098 0.866573
O O9 0.733680 0.272280 0.791477
O O10 0.705294 0.291424 0.905304
O O11 0.921785 0.064101 0.912836
O O12 0.686989 0.787526 0.844812
O O13 0.478954 0.612388 0.316389
O O14 0.348105 0.233367 0.316335
O O15 0.000000 0.500000 0.000000
#
# Coordination Sequence:
#
# PCOD9237018 Si02
#       7
#     4   4   4   4   4   4   4
#     4  11  23  44  70 112 148 191 250 307 391 461
#     4   9  19  45  74 109 145 200 256 322 388 454
#     4  12  27  48  76 110 151 203 257 320 384 465
#     4  10  25  49  75 103 153 200 259 315 383 471
#     4  12  28  46  74 110 152 203 251 315 391 469
#     4   9  23  42  72 105 140 192 246 314 370 455
#     4  11  22  44  78 112 154 198 257 323 391 460
#
# _framework density 28.607738999999999
#
# number of rings (size 3 to 8) (size 9 to 14) (size 15 to 20)
#    0.857    0.571    2.857    1.286    2.000    8.571 
#    0.000    2.857    0.000    0.000    0.000    0.000 
#    0.000    0.000    0.000    0.000    0.000    0.000 
#
# Total GULP energy -156063.571131 kJ/mol
# GULP energy per Si atom -5573.698969 kJ/mol
# Density = 2.854263 g / cm^3
# Si number density = 28.607739 Si / 1000 Ang^3
#
#
#
# Elastic Constant Matrix: (Units=GPa)
#
#
# Indices 1 2 3 4 5 6 
#
# 1 104.0593 21.9980 4.0694 0.0000 -8.5548 0.0000
# 2 21.9980 141.9048 37.9371 0.0000 -10.2070 0.0000
# 3 4.0694 37.9371 144.0942 0.0000 -10.6023 0.0000
# 4 0.0000 0.0000 0.0000 29.9034 0.0000 -10.9170
# 5 -8.5548 -10.2070 -10.6023 0.0000 52.3850 0.0000
# 6 0.0000 0.0000 0.0000 -10.9170 0.0000 37.0048
#
#
#
# Elastic Compliance Matrix: (Units=1/GPa)
#
#
# Indices 1 2 3 4 5 6 
#
# 1 0.010036 -0.001514 0.000217 0.000000 0.001388 0.000000
# 2 -0.001514 0.007871 -0.001964 0.000000 0.000889 0.000000
# 3 0.000217 -0.001964 0.007538 0.000000 0.001178 0.000000
# 4 0.000000 0.000000 0.000000 0.037478 0.000000 0.011056
# 5 0.001388 0.000889 0.001178 0.000000 0.019728 0.000000
# 6 0.000000 0.000000 0.000000 0.011056 0.000000 0.030285
#
#
# Mechanical properties :
#
#
# Convention : Reuss Voigt Hill
#
# Bulk Modulus (GPa) = 52.84750 57.56304 55.20527
# Shear Modulus (GPa) = 39.75723 45.59556 42.67640
#
# Velocity S-wave (km/s) = 3.73196 3.99660 3.86654
# Velocity P-wave (km/s) = 6.08961 6.43912 6.26680
#
# Compressibility (1/GPa) = 0.01892237
#
# Stress axis : x y z
#
# Youngs Moduli (GPa) = 99.64567 127.05390 132.66895
#
# Poissons Ratio (x) = 0.19236 -0.02883
# Poissons Ratio (y) = 0.15086 0.26057
# Poissons Ratio (z) = -0.02165 0.24954
#
# Static dielectric constant tensor:
#      x y z
#    x 2.380160 0.000000 -0.046450 
#    y 0.000000 2.326150 0.000000 
#    z -0.046450 0.000000 2.537900 
# 
# From -- ./inp_files/77608.got.cif
#   From: 2010.05.17/outbox.cif.g08.bks.cpg/sg13_39_cif.got.tgz:77608.got - 2010.06.03 16:44:36.
