data_PCOD9237037
_publ_section_title
;
Structure prediction by ZEFSAII (Michael W. Deem and Ramdas Pophale) SiO2 
 PCOD9237037
Probable space group: P 2/C
;
_chemical_formula_sum "Si O2"
_cell_formula_units_Z 22
_cell_length_a 9.541902
_cell_length_b 6.182381
_cell_length_c 22.050161
_cell_angle_alpha 90.000000
_cell_angle_beta 115.641572
_cell_angle_gamma 90.000000
_cell_volume 1172.673905
_symmetry_space_group_name_H-M "P 2/C"
_symmetry_group_IT_number 13
_symmetry_cell_setting 'monoclinic'
loop_
_space_group_symop_operation_xyz
x,y,z
-x,y,1/2-z
-x,-y,-z
x,-y,1/2+z
loop_
_atom_site_type_symbol
_atom_site_label
_atom_site_fract_x
_atom_site_fract_y
_atom_site_fract_z
Si Si1 0.230510 0.000001 0.480510
Si Si2 0.001920 0.304626 0.362453
Si Si3 0.000000 0.999997 0.750000
Si Si4 0.449790 0.622536 0.052452
Si Si5 0.222984 0.695377 0.362453
Si Si6 0.155113 0.377461 0.052451
O O1 0.250723 0.831002 0.429444
O O2 0.168351 0.861340 0.525486
O O3 0.108165 0.169001 0.429443
O O4 0.382621 0.138663 0.525487
O O5 0.106966 0.500003 0.356969
O O6 0.860072 0.378724 0.377811
O O7 0.956955 0.151399 0.298549
O O8 0.859857 0.151394 0.701450
O O9 0.604452 0.621273 0.122189
O O10 0.306942 0.499997 0.056941
O O11 0.500000 0.500000 0.000000
O O12 0.000000 0.500000 0.000000
#
# Coordination Sequence:
#
# PCOD9237037 Si02
#       6
#     4   4   2   4   4   4
#     4  11  20  35  64  95 132 159 196 260 340 379
#     4  11  22  41  63  91 124 166 218 261 310 391
#     4  10  26  40  68  80 116 178 226 260 304 380
#     4  12  22  36  61 101 133 159 201 266 334 392
#     4  11  22  41  63  91 124 166 218 261 310 391
#     4  12  22  36  61 101 133 159 201 266 334 392
#
# _framework density 18.760545
#
# number of rings (size 3 to 8) (size 9 to 14) (size 15 to 20)
#    0.000    0.727    7.273    1.636    0.000    0.000 
#    0.000    0.000    0.000   16.364    0.000    0.000 
#    0.000    0.000    0.000    0.000    0.000    0.000 
#
# Total GULP energy -122849.967546 kJ/mol
# GULP energy per Si atom -5584.089434 kJ/mol
# Density = 1.871785 g / cm^3
# Si number density = 18.760545 Si / 1000 Ang^3
#
#
#
# Elastic Constant Matrix: (Units=GPa)
#
#
# Indices 1 2 3 4 5 6 
#
# 1 156.2832 64.2719 65.3506 0.0000 -2.8436 0.0000
# 2 64.2719 123.8926 51.7861 0.0000 -0.5929 0.0000
# 3 65.3506 51.7861 105.6068 0.0000 0.4408 0.0000
# 4 0.0000 0.0000 0.0000 27.2959 0.0000 -0.6709
# 5 -2.8436 -0.5929 0.4408 0.0000 15.6043 0.0000
# 6 0.0000 0.0000 0.0000 -0.6709 0.0000 41.4603
#
#
#
# Elastic Compliance Matrix: (Units=1/GPa)
#
#
# Indices 1 2 3 4 5 6 
#
# 1 0.009544 -0.003108 -0.004389 0.000000 0.001745 0.000000
# 2 -0.003108 0.011169 -0.003553 0.000000 -0.000042 0.000000
# 3 -0.004389 -0.003553 0.013933 0.000000 -0.001328 0.000000
# 4 0.000000 0.000000 0.000000 0.036650 0.000000 0.000593
# 5 0.001745 -0.000042 -0.001328 0.000000 0.064439 0.000000
# 6 0.000000 0.000000 0.000000 0.000593 0.000000 0.024129
#
#
# Mechanical properties :
#
#
# Convention : Reuss Voigt Hill
#
# Bulk Modulus (GPa) = 79.71388 83.17774 81.44581
# Shear Modulus (GPa) = 26.86053 30.49703 28.67878
#
# Velocity S-wave (km/s) = 3.78796 4.03624 3.91407
# Velocity P-wave (km/s) = 7.85582 8.13354 7.99589
#
# Compressibility (1/GPa) = 0.01254487
#
# Stress axis : x y z
#
# Youngs Moduli (GPa) = 104.77854 89.53334 71.77173
#
# Poissons Ratio (x) = 0.27829 0.31501
# Poissons Ratio (y) = 0.32567 0.25503
# Poissons Ratio (z) = 0.45987 0.31814
#
# Static dielectric constant tensor:
#      x y z
#    x 1.700220 0.000000 -0.003240 
#    y 0.000000 1.714730 0.000000 
#    z -0.003240 0.000000 1.631860 
# 
# From -- ./inp_files/74653.got.cif
#   From: 2010.05.17/outbox.cif.g08.bks.cpg/sg13_38_cif.got.tgz:74653.got - 2010.06.03 16:44:36.
