data_PCOD9237384
_publ_section_title
;
Structure prediction by ZEFSAII (Michael W. Deem and Ramdas Pophale) SiO2 
 PCOD9237384
Probable space group: P 2/C
;
_chemical_formula_sum "Si O2"
_cell_formula_units_Z 24
_cell_length_a 14.284209
_cell_length_b 9.181140
_cell_length_c 8.951990
_cell_angle_alpha 90.000000
_cell_angle_beta 76.513197
_cell_angle_gamma 90.000000
_cell_volume 1141.636678
_symmetry_space_group_name_H-M "P 2/C"
_symmetry_group_IT_number 13
_symmetry_cell_setting 'monoclinic'
loop_
_space_group_symop_operation_xyz
x,y,z
-x,y,1/2-z
-x,-y,-z
x,-y,1/2+z
loop_
_atom_site_type_symbol
_atom_site_label
_atom_site_fract_x
_atom_site_fract_y
_atom_site_fract_z
Si Si1 0.594072 0.909085 0.151719
Si Si2 0.584565 0.385019 0.501665
Si Si3 0.306688 0.391202 0.346662
Si Si4 0.701243 0.859383 0.417170
Si Si5 0.886418 0.490583 0.512122
Si Si6 0.889878 0.286860 0.754661
O O1 0.500000 0.993480 0.250000
O O2 0.653123 0.859303 0.273748
O O3 0.553538 0.770145 0.077038
O O4 0.664150 0.998866 0.017905
O O5 0.500000 0.500000 0.500000
O O6 0.643682 0.361988 0.328139
O O7 0.652893 0.458991 0.600060
O O8 0.330431 0.271663 0.462484
O O9 0.191813 0.405888 0.377888
O O10 0.814253 0.829603 0.345348
O O11 0.867579 0.330530 0.590618
O O12 0.876021 0.558978 0.350196
O O13 0.000000 0.500000 0.500000
O O14 0.000000 0.243959 0.750000
#
# Coordination Sequence:
#
# PCOD9237384 Si02
#       6
#     4   4   4   4   4   4
#     4  12  25  43  62  85 119 164 208 252 306 372
#     4  12  24  39  61  90 121 155 199 253 307 360
#     4  11  21  37  60  90 121 154 198 252 304 361
#     4  11  24  41  62  88 122 164 206 251 306 369
#     4   9  17  31  55  86 119 153 191 240 296 350
#     4   9  18  35  60  91 125 160 201 252 308 366
#
# _framework density 21.022449999999999
#
# number of rings (size 3 to 8) (size 9 to 14) (size 15 to 20)
#    0.000    1.333    0.000    8.000    0.000    1.333 
#    0.000    0.833    0.000    2.000    0.000    0.000 
#    0.000    0.000    0.000    0.000    0.000    0.000 
#
# Total GULP energy -133807.974147 kJ/mol
# GULP energy per Si atom -5575.332256 kJ/mol
# Density = 2.097460 g / cm^3
# Si number density = 21.022450 Si / 1000 Ang^3
#
#
#
# Elastic Constant Matrix: (Units=GPa)
#
#
# Indices 1 2 3 4 5 6 
#
# 1 122.4616 42.8366 65.4644 0.0000 -15.3388 0.0000
# 2 42.8366 79.5799 29.9320 0.0000 -7.5105 0.0000
# 3 65.4644 29.9320 106.1346 0.0000 -15.4895 0.0000
# 4 0.0000 0.0000 0.0000 35.5950 0.0000 -7.5680
# 5 -15.3388 -7.5105 -15.4895 0.0000 36.2912 0.0000
# 6 0.0000 0.0000 0.0000 -7.5680 0.0000 22.4620
#
#
#
# Elastic Compliance Matrix: (Units=1/GPa)
#
#
# Indices 1 2 3 4 5 6 
#
# 1 0.013684 -0.004605 -0.006864 0.000000 0.001901 0.000000
# 2 -0.004605 0.015664 -0.001481 0.000000 0.000664 0.000000
# 3 -0.006864 -0.001481 0.014509 0.000000 0.002985 0.000000
# 4 0.000000 0.000000 0.000000 0.030262 0.000000 0.010196
# 5 0.001901 0.000664 0.002985 0.000000 0.029770 0.000000
# 6 0.000000 0.000000 0.000000 0.010196 0.000000 0.047955
#
#
# Mechanical properties :
#
#
# Convention : Reuss Voigt Hill
#
# Bulk Modulus (GPa) = 55.68498 64.96023 60.32261
# Shear Modulus (GPa) = 27.21397 30.19916 28.70657
#
# Velocity S-wave (km/s) = 3.60185 3.79426 3.69930
# Velocity P-wave (km/s) = 6.62145 7.08256 6.85588
#
# Compressibility (1/GPa) = 0.01795817
#
# Stress axis : x y z
#
# Youngs Moduli (GPa) = 73.07729 63.84020 68.92189
#
# Poissons Ratio (x) = 0.29396 0.47311
# Poissons Ratio (y) = 0.33650 0.10204
# Poissons Ratio (z) = 0.50163 0.09452
#
# Static dielectric constant tensor:
#      x y z
#    x 1.824330 0.000000 0.003770 
#    y 0.000000 1.778300 0.000000 
#    z 0.003770 0.000000 1.798970 
# 
# From -- ./inp_files/18048.got.cif
#   From: 2010.05.17/outbox.cif.g08.bks.cpg/sg13_10_cif.got.tgz:18048.got - 2010.06.03 16:44:36.
