data_PCOD9237336
_publ_section_title
;
Structure prediction by ZEFSAII (Michael W. Deem and Ramdas Pophale) SiO2 
 PCOD9237336
Probable space group: P 2/C
;
_chemical_formula_sum "Si O2"
_cell_formula_units_Z 32
_cell_length_a 14.352575
_cell_length_b 11.844776
_cell_length_c 17.893325
_cell_angle_alpha 90.000000
_cell_angle_beta 148.414058
_cell_angle_gamma 90.000000
_cell_volume 1593.287240
_symmetry_space_group_name_H-M "P 2/C"
_symmetry_group_IT_number 13
_symmetry_cell_setting 'monoclinic'
loop_
_space_group_symop_operation_xyz
x,y,z
-x,y,1/2-z
-x,-y,-z
x,-y,1/2+z
loop_
_atom_site_type_symbol
_atom_site_label
_atom_site_fract_x
_atom_site_fract_y
_atom_site_fract_z
Si Si1 0.697838 0.501768 0.667336
Si Si2 0.009108 0.961358 0.593263
Si Si3 0.942805 0.698938 0.880287
Si Si4 0.690348 0.442171 0.841336
Si Si5 0.797066 0.693324 0.941532
Si Si6 0.339345 0.917198 0.589598
Si Si7 0.127351 0.712414 0.266490
Si Si8 0.329383 0.069183 0.906720
O O1 0.500000 0.500000 0.500000
O O2 0.814763 0.616681 0.744686
O O3 0.686124 0.461841 0.747537
O O4 0.800196 0.413142 0.684611
O O5 0.013859 0.827293 0.610846
O O6 0.169561 0.012890 0.751141
O O7 0.000000 0.000000 0.500000
O O8 0.833816 0.017860 0.504176
O O9 0.818880 0.714756 0.869097
O O10 0.132656 0.634768 0.023469
O O11 0.500000 0.405727 0.750000
O O12 0.733662 0.565163 0.906851
O O13 0.680526 0.784267 0.905338
O O14 0.994942 0.714478 0.106572
O O15 0.500000 0.960077 0.750000
O O16 0.344472 0.936568 0.505912
O O17 0.290166 0.798062 0.367149
O O18 0.000000 0.741066 0.250000
O O19 0.500000 0.000000 0.000000
#
# Coordination Sequence:
#
# PCOD9237336 Si02
#       8
#     4   4   4   4   4   4   4   4
#     4  11  26  42  68 106 140 174 228 284 348 405
#     4  12  24  45  70  98 139 182 229 282 352 413
#     4  11  23  45  69  96 136 183 222 283 344 416
#     4  11  24  44  67  99 137 178 224 278 344 414
#     4  11  20  43  73  98 129 173 234 286 335 401
#     4  12  25  44  70 104 132 178 234 288 344 415
#     4  12  22  43  74  98 136 183 233 290 342 409
#     4  12  27  44  67 102 139 177 233 293 346 407
#
# _framework density 20.084264000000001
#
# number of rings (size 3 to 8) (size 9 to 14) (size 15 to 20)
#    0.000    0.500    6.250    2.250    3.500    1.500 
#    2.250    2.500    0.000    0.000    0.000    0.000 
#    0.000    0.000    0.000    0.000    0.000    0.000 
#
# Total GULP energy -178387.396179 kJ/mol
# GULP energy per Si atom -5574.606131 kJ/mol
# Density = 2.003855 g / cm^3
# Si number density = 20.084264 Si / 1000 Ang^3
#
#
#
# Elastic Constant Matrix: (Units=GPa)
#
#
# Indices 1 2 3 4 5 6 
#
# 1 75.7784 42.6109 33.5216 0.0000 3.6809 0.0000
# 2 42.6109 136.5861 53.8220 0.0000 -8.5593 0.0000
# 3 33.5216 53.8220 163.7580 0.0000 -0.9748 0.0000
# 4 0.0000 0.0000 0.0000 11.7292 0.0000 5.1214
# 5 3.6809 -8.5593 -0.9748 0.0000 22.6410 0.0000
# 6 0.0000 0.0000 0.0000 5.1214 0.0000 26.6663
#
#
#
# Elastic Compliance Matrix: (Units=1/GPa)
#
#
# Indices 1 2 3 4 5 6 
#
# 1 0.016992 -0.004839 -0.001916 0.000000 -0.004674 0.000000
# 2 -0.004839 0.010006 -0.002272 0.000000 0.004472 0.000000
# 3 -0.001916 -0.002272 0.007244 0.000000 -0.000235 0.000000
# 4 0.000000 0.000000 0.000000 0.093061 0.000000 -0.017873
# 5 -0.004674 0.004472 -0.000235 0.000000 0.046608 0.000000
# 6 0.000000 0.000000 0.000000 -0.017873 0.000000 0.040933
#
#
# Mechanical properties :
#
#
# Convention : Reuss Voigt Hill
#
# Bulk Modulus (GPa) = 61.76808 70.67018 66.21913
# Shear Modulus (GPa) = 20.98251 28.61849 24.80050
#
# Velocity S-wave (km/s) = 3.23573 3.77891 3.51782
# Velocity P-wave (km/s) = 6.69187 7.36909 7.03863
#
# Compressibility (1/GPa) = 0.01618959
#
# Stress axis : x y z
#
# Youngs Moduli (GPa) = 58.85164 99.93623 138.04691
#
# Poissons Ratio (x) = 0.48359 0.26445
# Poissons Ratio (y) = 0.28478 0.31359
# Poissons Ratio (z) = 0.11274 0.22702
#
# Static dielectric constant tensor:
#      x y z
#    x 1.690020 0.000000 0.042920 
#    y 0.000000 1.770320 0.000000 
#    z 0.042920 0.000000 1.667310 
# 
# From -- ./inp_files/68686.got.cif
#   From: 2010.05.17/outbox.cif.g08.bks.cpg/sg13_35_cif.got.tgz:68686.got - 2010.06.03 16:44:36.
