data_PCOD9237248
_publ_section_title
;
Structure prediction by ZEFSAII (Michael W. Deem and Ramdas Pophale) SiO2 
 PCOD9237248
Probable space group: P 2/C
;
_chemical_formula_sum "Si O2"
_cell_formula_units_Z 24
_cell_length_a 9.719309
_cell_length_b 8.162827
_cell_length_c 18.560904
_cell_angle_alpha 90.000000
_cell_angle_beta 42.250173
_cell_angle_gamma 90.000000
_cell_volume 990.108561
_symmetry_space_group_name_H-M "P 2/C"
_symmetry_group_IT_number 13
_symmetry_cell_setting 'monoclinic'
loop_
_space_group_symop_operation_xyz
x,y,z
-x,y,1/2-z
-x,-y,-z
x,-y,1/2+z
loop_
_atom_site_type_symbol
_atom_site_label
_atom_site_fract_x
_atom_site_fract_y
_atom_site_fract_z
Si Si1 0.321769 0.197490 0.447581
Si Si2 0.622241 0.237162 0.465643
Si Si3 0.021113 0.980357 0.166363
Si Si4 0.587270 0.924511 0.313600
Si Si5 0.149981 0.464406 0.024089
Si Si6 0.277835 0.606470 0.329358
O O1 0.492347 0.234566 0.443255
O O2 0.244111 0.371679 0.452066
O O3 0.126295 0.125254 0.564737
O O4 0.409306 0.053759 0.363409
O O5 0.825714 0.128547 0.378955
O O6 0.485186 0.148114 0.580589
O O7 0.712584 0.406269 0.462447
O O8 0.000000 0.883490 0.250000
O O9 0.793855 0.030326 0.235067
O O10 0.658113 0.766448 0.241242
O O11 0.192480 0.339813 0.941606
O O12 0.911868 0.503886 0.130792
O O13 0.500000 0.520884 0.250000
#
# Coordination Sequence:
#
# PCOD9237248 Si02
#       6
#     4   4   4   4   4   4
#     4  11  22  39  70 106 131 174 221 279 334 406
#     4  11  22  39  68 103 143 167 215 280 337 404
#     4  11  19  38  63  99 137 174 219 265 327 401
#     4  11  21  42  69  94 136 177 224 270 331 388
#     4  11  25  43  68  99 135 176 227 273 336 400
#     4  11  24  47  69  87 136 187 223 278 326 394
#
# _framework density 24.239768999999999
#
# number of rings (size 3 to 8) (size 9 to 14) (size 15 to 20)
#    0.000    1.000    6.667    1.500    0.000    1.333 
#    0.000    6.667    0.000    0.000    0.000    0.000 
#    0.000    0.000    0.000    0.000    0.000    0.000 
#
# Total GULP energy -133942.675793 kJ/mol
# GULP energy per Si atom -5580.944825 kJ/mol
# Density = 2.418460 g / cm^3
# Si number density = 24.239769 Si / 1000 Ang^3
#
#
#
# Elastic Constant Matrix: (Units=GPa)
#
#
# Indices 1 2 3 4 5 6 
#
# 1 50.9652 5.7394 37.2079 0.0000 -18.5219 0.0000
# 2 5.7394 75.7099 49.0962 0.0000 -7.7185 0.0000
# 3 37.2079 49.0962 179.1376 0.0000 -28.9126 0.0000
# 4 0.0000 0.0000 0.0000 27.0505 0.0000 3.4353
# 5 -18.5219 -7.7185 -28.9126 0.0000 46.3625 0.0000
# 6 0.0000 0.0000 0.0000 3.4353 0.0000 18.6549
#
#
#
# Elastic Compliance Matrix: (Units=1/GPa)
#
#
# Indices 1 2 3 4 5 6 
#
# 1 0.025530 0.001803 -0.004561 0.000000 0.007655 0.000000
# 2 0.001803 0.016191 -0.004737 0.000000 0.000461 0.000000
# 3 -0.004561 -0.004737 0.008236 0.000000 0.002525 0.000000
# 4 0.000000 0.000000 0.000000 0.037853 0.000000 -0.006971
# 5 0.007655 0.000461 0.002525 0.000000 0.026279 0.000000
# 6 0.000000 0.000000 0.000000 -0.006971 0.000000 0.054889
#
#
# Mechanical properties :
#
#
# Convention : Reuss Voigt Hill
#
# Bulk Modulus (GPa) = 28.59997 54.43327 41.51662
# Shear Modulus (GPa) = 25.55920 32.66485 29.11202
#
# Velocity S-wave (km/s) = 3.25073 3.67491 3.46931
# Velocity P-wave (km/s) = 5.09058 6.36487 5.76305
#
# Compressibility (1/GPa) = 0.03496507
#
# Stress axis : x y z
#
# Youngs Moduli (GPa) = 39.16911 61.76349 121.42348
#
# Poissons Ratio (x) = -0.11136 0.55387
# Poissons Ratio (y) = -0.07062 0.57523
# Poissons Ratio (z) = 0.17867 0.29260
#
# Static dielectric constant tensor:
#      x y z
#    x 2.063260 0.000000 0.025290 
#    y 0.000000 1.993180 0.000000 
#    z 0.025290 0.000000 1.907590 
# 
# From -- ./inp_files/86284.got.cif
#   From: 2010.05.17/outbox.cif.g08.bks.cpg/sg13_44_cif.got.tgz:86284.got - 2010.06.03 16:44:36.
