data_PCOD9237927
_publ_section_title
;
Structure prediction by ZEFSAII (Michael W. Deem and Ramdas Pophale) SiO2 
 PCOD9237927
Probable space group: P 2/C
;
_chemical_formula_sum "Si O2"
_cell_formula_units_Z 22
_cell_length_a 17.737341
_cell_length_b 12.288775
_cell_length_c 13.776483
_cell_angle_alpha 90.000000
_cell_angle_beta 21.444927
_cell_angle_gamma 90.000000
_cell_volume 1097.866812
_symmetry_space_group_name_H-M "P 2/C"
_symmetry_group_IT_number 13
_symmetry_cell_setting 'monoclinic'
loop_
_space_group_symop_operation_xyz
x,y,z
-x,y,1/2-z
-x,-y,-z
x,-y,1/2+z
loop_
_atom_site_type_symbol
_atom_site_label
_atom_site_fract_x
_atom_site_fract_y
_atom_site_fract_z
Si Si1 0.000000 0.481942 0.750000
Si Si2 0.737043 0.644341 0.931773
Si Si3 0.438366 0.169444 0.549583
Si Si4 0.975288 0.868929 0.669813
Si Si5 0.384841 0.029252 0.986788
Si Si6 0.654523 0.603012 0.807614
O O1 0.867598 0.557230 0.835994
O O2 0.163784 0.417028 0.487574
O O3 0.833709 0.761585 0.838745
O O4 0.743653 0.621969 0.808909
O O5 0.500000 0.641082 0.250000
O O6 0.556782 0.111856 0.497141
O O7 0.524652 0.289899 0.434624
O O8 0.456737 0.089093 0.436171
O O9 0.197507 0.165653 0.864793
O O10 0.000000 0.909204 0.750000
O O11 0.854767 0.957708 0.751387
O O12 0.500000 0.058348 0.750000
O O13 0.500000 0.500000 0.000000
#
# Coordination Sequence:
#
# PCOD9237927 Si02
#       6
#     2   4   4   4   4   4
#     4  12  26  44  70 104 144 190 224 284 358 408
#     4  12  23  43  70 103 138 179 238 286 338 412
#     4  11  25  44  67 101 136 178 228 281 345 408
#     4  12  21  39  73 100 130 177 235 289 336 405
#     4  11  23  45  68  96 137 177 228 286 340 411
#     4  12  25  48  70 100 144 183 230 285 343 412
#
# _framework density 20.03886
#
# number of rings (size 3 to 8) (size 9 to 14) (size 15 to 20)
#    0.000    0.364    6.364    3.818    0.000    0.000 
#    6.545    0.000    0.000    0.000    0.000    0.000 
#    0.000    0.000    0.000    0.000    0.000    0.000 
#
# Total GULP energy -123076.669763 kJ/mol
# GULP energy per Si atom -5594.394080 kJ/mol
# Density = 1.999325 g / cm^3
# Si number density = 20.038860 Si / 1000 Ang^3
#
#
#
# Elastic Constant Matrix: (Units=GPa)
#
#
# Indices 1 2 3 4 5 6 
#
# 1 128.8945 47.9425 49.1552 0.0000 -10.5519 0.0000
# 2 47.9425 92.6042 0.9743 0.0000 -9.2607 0.0000
# 3 49.1552 0.9743 82.8518 0.0000 -0.7793 0.0000
# 4 0.0000 0.0000 0.0000 46.1670 0.0000 -34.0183
# 5 -10.5519 -9.2607 -0.7793 0.0000 40.7722 0.0000
# 6 0.0000 0.0000 0.0000 -34.0183 0.0000 93.3184
#
#
#
# Elastic Compliance Matrix: (Units=1/GPa)
#
#
# Indices 1 2 3 4 5 6 
#
# 1 0.013372 -0.006661 -0.007838 0.000000 0.001798 0.000000
# 2 -0.006661 0.014368 0.003798 0.000000 0.001612 0.000000
# 3 -0.007838 0.003798 0.016668 0.000000 -0.000847 0.000000
# 4 0.000000 0.000000 0.000000 0.029616 0.000000 0.010796
# 5 0.001798 0.001612 -0.000847 0.000000 0.025342 0.000000
# 6 0.000000 0.000000 0.000000 0.010796 0.000000 0.014652
#
#
# Mechanical properties :
#
#
# Convention : Reuss Voigt Hill
#
# Bulk Modulus (GPa) = 43.46743 55.61051 49.53897
# Shear Modulus (GPa) = 34.94357 49.80341 42.37349
#
# Velocity S-wave (km/s) = 4.18040 4.99073 4.60343
# Velocity P-wave (km/s) = 6.71116 7.81162 7.28221
#
# Compressibility (1/GPa) = 0.02300573
#
# Stress axis : x y z
#
# Youngs Moduli (GPa) = 74.78224 69.59795 59.99687
#
# Poissons Ratio (x) = 0.46357 0.47028
# Poissons Ratio (y) = 0.49810 -0.22786
# Poissons Ratio (z) = 0.58617 -0.26433
#
# Static dielectric constant tensor:
#      x y z
#    x 1.703650 0.000000 0.000660 
#    y 0.000000 1.698980 0.000000 
#    z 0.000660 0.000000 1.721740 
# 
# From -- ./inp_files/51115.got.cif
#   From: 2010.05.17/outbox.cif.g08.bks.cpg/sg13_26_cif.got.tgz:51115.got - 2010.06.03 16:44:36.
