data_PCOD9237055
_publ_section_title
;
Structure prediction by ZEFSAII (Michael W. Deem and Ramdas Pophale) SiO2 
 PCOD9237055
Probable space group: P 2/C
;
_chemical_formula_sum "Si O2"
_cell_formula_units_Z 22
_cell_length_a 34.891943
_cell_length_b 4.895451
_cell_length_c 11.927634
_cell_angle_alpha 90.000000
_cell_angle_beta 23.651155
_cell_angle_gamma 90.000000
_cell_volume 817.329910
_symmetry_space_group_name_H-M "P 2/C"
_symmetry_group_IT_number 13
_symmetry_cell_setting 'monoclinic'
loop_
_space_group_symop_operation_xyz
x,y,z
-x,y,1/2-z
-x,-y,-z
x,-y,1/2+z
loop_
_atom_site_type_symbol
_atom_site_label
_atom_site_fract_x
_atom_site_fract_y
_atom_site_fract_z
Si Si1 0.228979 0.225990 0.056479
Si Si2 0.133874 0.969537 0.123566
Si Si3 0.500000 0.429170 0.750000
Si Si4 0.914274 0.505952 0.892588
Si Si5 0.581045 0.804297 0.339350
Si Si6 0.680028 0.359585 0.367844
O O1 0.144462 0.044160 0.226402
O O2 0.319907 0.079746 0.870660
O O3 0.270704 0.409522 0.841105
O O4 0.175370 0.410829 0.291403
O O5 0.241477 0.863914 0.818075
O O6 0.109820 0.220611 0.108973
O O7 0.070348 0.722027 0.246419
O O8 0.530437 0.627937 0.569359
O O9 0.590517 0.250536 0.537553
O O10 0.000000 0.532422 0.750000
O O11 0.500000 0.000000 0.500000
O O12 0.627360 0.588985 0.126201
#
# Coordination Sequence:
#
# PCOD9237055 Si02
#       6
#     4   4   2   4   4   4
#     4  11  26  49  80 110 161 213 258 323 401 459
#     4  12  26  51  78 115 153 202 258 321 397 473
#     4  10  26  44  70 108 148 212 262 322 378 454
#     4  12  29  53  82 117 154 198 263 335 404 480
#     4  11  25  43  73 110 159 208 268 317 379 463
#     4  11  25  47  71 107 159 203 264 313 384 461
#
# _framework density 26.916914999999999
#
# number of rings (size 3 to 8) (size 9 to 14) (size 15 to 20)
#    0.000    0.727    3.636    1.091   10.182    1.455 
#    3.273    0.000    0.000    0.000    0.000    0.000 
#    0.000    0.000    0.000    0.000    0.000    0.000 
#
# Total GULP energy -123075.610861 kJ/mol
# GULP energy per Si atom -5594.345948 kJ/mol
# Density = 2.685565 g / cm^3
# Si number density = 26.916915 Si / 1000 Ang^3
#
#
#
# Elastic Constant Matrix: (Units=GPa)
#
#
# Indices 1 2 3 4 5 6 
#
# 1 171.9570 76.1221 76.7105 0.0000 -54.7639 0.0000
# 2 76.1221 97.8649 24.7864 0.0000 -16.1950 0.0000
# 3 76.7105 24.7864 135.9142 0.0000 -21.0423 0.0000
# 4 0.0000 0.0000 0.0000 3.0271 0.0000 4.7464
# 5 -54.7639 -16.1950 -21.0423 0.0000 104.4310 0.0000
# 6 0.0000 0.0000 0.0000 4.7464 0.0000 48.1071
#
#
#
# Elastic Compliance Matrix: (Units=1/GPa)
#
#
# Indices 1 2 3 4 5 6 
#
# 1 0.013292 -0.008235 -0.005284 0.000000 0.004629 0.000000
# 2 -0.008235 0.015991 0.001493 0.000000 -0.001538 0.000000
# 3 -0.005284 0.001493 0.009986 0.000000 -0.000527 0.000000
# 4 0.000000 0.000000 0.000000 0.390810 0.000000 -0.038559
# 5 0.004629 -0.001538 -0.000527 0.000000 0.011658 0.000000
# 6 0.000000 0.000000 0.000000 -0.038559 0.000000 0.024591
#
#
# Mechanical properties :
#
#
# Convention : Reuss Voigt Hill
#
# Bulk Modulus (GPa) = 65.70928 84.55267 75.13098
# Shear Modulus (GPa) = 10.09182 46.32084 28.20633
#
# Velocity S-wave (km/s) = 1.93840 4.15285 3.24065
# Velocity P-wave (km/s) = 5.42906 7.38076 6.47882
#
# Compressibility (1/GPa) = 0.01521855
#
# Stress axis : x y z
#
# Youngs Moduli (GPa) = 75.23391 62.53670 100.14288
#
# Poissons Ratio (x) = 0.51497 0.52912
# Poissons Ratio (y) = 0.61952 -0.14956
# Poissons Ratio (z) = 0.39751 -0.09339
#
# Static dielectric constant tensor:
#      x y z
#    x 2.222010 0.000000 -0.009950 
#    y 0.000000 2.105620 0.000000 
#    z -0.009950 0.000000 2.098190 
# 
# From -- ./inp_files/42530.got.cif
#   From: 2010.05.17/outbox.cif.g08.bks.cpg/sg13_22_cif.got.tgz:42530.got - 2010.06.03 16:44:36.
