data_PCOD9237464
_publ_section_title
;
Structure prediction by ZEFSAII (Michael W. Deem and Ramdas Pophale) SiO2 
 PCOD9237464
Probable space group: P 2/C
;
_chemical_formula_sum "Si O2"
_cell_formula_units_Z 26
_cell_length_a 6.373741
_cell_length_b 12.031252
_cell_length_c 20.675580
_cell_angle_alpha 90.000000
_cell_angle_beta 124.177609
_cell_angle_gamma 90.000000
_cell_volume 1311.674425
_symmetry_space_group_name_H-M "P 2/C"
_symmetry_group_IT_number 13
_symmetry_cell_setting 'monoclinic'
loop_
_space_group_symop_operation_xyz
x,y,z
-x,y,1/2-z
-x,-y,-z
x,-y,1/2+z
loop_
_atom_site_type_symbol
_atom_site_label
_atom_site_fract_x
_atom_site_fract_y
_atom_site_fract_z
Si Si1 0.729800 0.077085 0.672366
Si Si2 0.044744 0.134276 0.334449
Si Si3 0.614321 0.311205 0.601975
Si Si4 0.582488 0.663510 0.573357
Si Si5 0.012635 0.488941 0.826447
Si Si6 0.500000 0.061073 0.250000
Si Si7 0.249917 0.494211 0.089700
O O1 0.594230 0.186273 0.623272
O O2 0.000000 0.110761 0.750000
O O3 0.809582 0.983733 0.633211
O O4 0.572551 0.014949 0.701189
O O5 0.229769 0.233516 0.384609
O O6 0.000000 0.145311 0.250000
O O7 0.757468 0.128921 0.311606
O O8 0.568501 0.315504 0.517814
O O9 0.419765 0.398036 0.601155
O O10 0.891903 0.362932 0.661678
O O11 0.392583 0.620774 0.596026
O O12 0.765797 0.557390 0.599350
O O13 0.792487 0.501091 0.840462
O O14 0.000000 0.531528 0.750000
O O15 0.000000 0.500000 0.000000
#
# Coordination Sequence:
#
# PCOD9237464 Si02
#       7
#     4   4   4   4   4   2   4
#     4   9  20  38  59  86 119 158 206 259 307 368
#     4   9  20  39  60  87 119 158 205 262 310 369
#     4  11  22  37  60  89 124 164 206 263 313 366
#     4  11  22  38  62  89 124 161 206 261 313 371
#     4  11  23  39  61  91 122 163 216 257 306 374
#     4   8  18  40  60  82 124 160 206 258 316 372
#     4  11  21  42  61  86 127 171 200 251 323 369
#
# _framework density 19.821994
#
# number of rings (size 3 to 8) (size 9 to 14) (size 15 to 20)
#    0.000    2.154    3.077    1.846    0.000    9.231 
#    0.000    0.769    0.000    0.000    0.000    0.000 
#    0.000    0.000    0.000    0.000    0.000    0.000 
#
# Total GULP energy -144826.594745 kJ/mol
# GULP energy per Si atom -5570.253644 kJ/mol
# Density = 1.977688 g / cm^3
# Si number density = 19.821994 Si / 1000 Ang^3
#
#
#
# Elastic Constant Matrix: (Units=GPa)
#
#
# Indices 1 2 3 4 5 6 
#
# 1 140.7149 46.9141 43.7691 0.0000 -9.0753 0.0000
# 2 46.9141 119.5147 34.2460 0.0000 10.1403 0.0000
# 3 43.7691 34.2460 68.8610 0.0000 -7.8041 0.0000
# 4 0.0000 0.0000 0.0000 51.7683 0.0000 5.2888
# 5 -9.0753 10.1403 -7.8041 0.0000 24.1327 0.0000
# 6 0.0000 0.0000 0.0000 5.2888 0.0000 22.8493
#
#
#
# Elastic Compliance Matrix: (Units=1/GPa)
#
#
# Indices 1 2 3 4 5 6 
#
# 1 0.009611 -0.002824 -0.004319 0.000000 0.003404 0.000000
# 2 -0.002824 0.011465 -0.004747 0.000000 -0.007415 0.000000
# 3 -0.004319 -0.004747 0.020418 0.000000 0.006973 0.000000
# 4 0.000000 0.000000 0.000000 0.019785 0.000000 -0.004579
# 5 0.003404 -0.007415 0.006973 0.000000 0.048088 0.000000
# 6 0.000000 0.000000 0.000000 -0.004579 0.000000 0.044825
#
#
# Mechanical properties :
#
#
# Convention : Reuss Voigt Hill
#
# Bulk Modulus (GPa) = 56.45051 64.32767 60.38909
# Shear Modulus (GPa) = 27.19215 33.36081 30.27648
#
# Velocity S-wave (km/s) = 3.70782 4.10691 3.91246
# Velocity P-wave (km/s) = 6.84625 7.41701 7.13734
#
# Compressibility (1/GPa) = 0.01771463
#
# Stress axis : x y z
#
# Youngs Moduli (GPa) = 104.04793 87.22154 48.97608
#
# Poissons Ratio (x) = 0.24632 0.21151
# Poissons Ratio (y) = 0.29384 0.23249
# Poissons Ratio (z) = 0.44934 0.41405
#
# Static dielectric constant tensor:
#      x y z
#    x 1.779500 0.000000 0.023670 
#    y 0.000000 1.728550 0.000000 
#    z 0.023670 0.000000 1.706550 
# 
# From -- ./inp_files/73518.got.cif
#   From: 2010.05.17/outbox.cif.g08.bks.cpg/sg13_37_cif.got.tgz:73518.got - 2010.06.03 16:44:36.
