data_PCOD9237512
_publ_section_title
;
Structure prediction by ZEFSAII (Michael W. Deem and Ramdas Pophale) SiO2 
 PCOD9237512
Probable space group: P 2/C
;
_chemical_formula_sum "Si O2"
_cell_formula_units_Z 24
_cell_length_a 17.469944
_cell_length_b 14.519156
_cell_length_c 19.807449
_cell_angle_alpha 90.000000
_cell_angle_beta 165.939719
_cell_angle_gamma 90.000000
_cell_volume 1220.576844
_symmetry_space_group_name_H-M "P 2/C"
_symmetry_group_IT_number 13
_symmetry_cell_setting 'monoclinic'
loop_
_space_group_symop_operation_xyz
x,y,z
-x,y,1/2-z
-x,-y,-z
x,-y,1/2+z
loop_
_atom_site_type_symbol
_atom_site_label
_atom_site_fract_x
_atom_site_fract_y
_atom_site_fract_z
Si Si1 0.722427 0.563188 0.237222
Si Si2 0.150276 0.058517 0.264010
Si Si3 0.025636 0.238928 0.561132
Si Si4 0.478264 0.877320 0.544402
Si Si5 0.606481 0.174439 0.749822
Si Si6 0.363251 0.628337 0.063717
O O1 0.898924 0.654276 0.358944
O O2 0.523526 0.595422 0.132054
O O3 0.000000 0.500000 0.500000
O O4 0.500000 0.500000 0.000000
O O5 0.271571 0.067708 0.289712
O O6 0.370528 0.119802 0.499787
O O7 0.232068 0.955318 0.358387
O O8 0.802467 0.103452 0.964431
O O9 0.129122 0.222683 0.571740
O O10 0.684256 0.187775 0.270385
O O11 0.268967 0.185444 0.816652
O O12 0.412368 0.261327 0.610124
O O13 0.500000 0.587979 0.250000
O O14 0.000000 0.606524 0.750000
#
# Coordination Sequence:
#
# PCOD9237512 Si02
#       6
#     4   4   4   4   4   4
#     4  11  22  37  56  79 110 147 187 240 305 356
#     4   9  15  24  40  64  96 132 166 198 242 299
#     4   9  17  28  43  66  98 134 169 211 270 327
#     4   9  15  24  40  64  96 132 166 203 247 302
#     4   9  17  28  43  66  98 134 169 206 253 314
#     4  11  22  37  56  79 110 147 187 230 283 352
#
# _framework density 19.662835000000001
#
# number of rings (size 3 to 8) (size 9 to 14) (size 15 to 20)
#    0.000    2.333    0.000    4.000    0.000    9.333 
#    0.000    0.000    0.000    0.000    0.000    0.000 
#    0.000   74.667    0.000    0.000    0.000    0.000 
#
# Total GULP energy -133619.654825 kJ/mol
# GULP energy per Si atom -5567.485618 kJ/mol
# Density = 1.961808 g / cm^3
# Si number density = 19.662835 Si / 1000 Ang^3
#
#
#
# Elastic Constant Matrix: (Units=GPa)
#
#
# Indices 1 2 3 4 5 6 
#
# 1 35.3023 24.2934 24.9069 0.0000 -10.7979 0.0000
# 2 24.2934 110.4043 44.3468 0.0000 -14.0320 0.0000
# 3 24.9069 44.3468 144.5776 0.0000 -24.3306 0.0000
# 4 0.0000 0.0000 0.0000 179.7072 0.0000 39.8331
# 5 -10.7979 -14.0320 -24.3306 0.0000 25.3162 0.0000
# 6 0.0000 0.0000 0.0000 39.8331 0.0000 34.3914
#
#
#
# Elastic Compliance Matrix: (Units=1/GPa)
#
#
# Indices 1 2 3 4 5 6 
#
# 1 0.037449 -0.005773 -0.003020 0.000000 0.009871 0.000000
# 2 -0.005773 0.011442 -0.002222 0.000000 0.001745 0.000000
# 3 -0.003020 -0.002222 0.009179 0.000000 0.006302 0.000000
# 4 0.000000 0.000000 0.000000 0.007487 0.000000 -0.008671
# 5 0.009871 0.001745 0.006302 0.000000 0.050735 0.000000
# 6 0.000000 0.000000 0.000000 -0.008671 0.000000 0.039120
#
#
# Mechanical properties :
#
#
# Convention : Reuss Voigt Hill
#
# Bulk Modulus (GPa) = 27.74535 53.04205 40.39370
# Shear Modulus (GPa) = 26.39173 60.99876 43.69525
#
# Velocity S-wave (km/s) = 3.66760 5.57581 4.71916
# Velocity P-wave (km/s) = 5.66359 8.27571 7.09096
#
# Compressibility (1/GPa) = 0.03604208
#
# Stress axis : x y z
#
# Youngs Moduli (GPa) = 26.70289 87.39767 108.94543
#
# Poissons Ratio (x) = 0.50453 0.32897
# Poissons Ratio (y) = 0.15415 0.24202
# Poissons Ratio (z) = 0.08063 0.19416
#
# Static dielectric constant tensor:
#      x y z
#    x 1.773070 0.000000 0.012070 
#    y 0.000000 1.727180 0.000000 
#    z 0.012070 0.000000 1.694690 
# 
# From -- ./inp_files/61093.got.cif
#   From: 2010.05.17/outbox.cif.g08.bks.cpg/sg13_31_cif.got.tgz:61093.got - 2010.06.03 16:44:36.
