data_PCOD9237419
_publ_section_title
;
Structure prediction by ZEFSAII (Michael W. Deem and Ramdas Pophale) SiO2 
 PCOD9237419
Probable space group: P 2/C
;
_chemical_formula_sum "Si O2"
_cell_formula_units_Z 16
_cell_length_a 6.560241
_cell_length_b 7.471620
_cell_length_c 15.160540
_cell_angle_alpha 90.000000
_cell_angle_beta 56.651513
_cell_angle_gamma 90.000000
_cell_volume 620.745802
_symmetry_space_group_name_H-M "P 2/C"
_symmetry_group_IT_number 13
_symmetry_cell_setting 'monoclinic'
loop_
_space_group_symop_operation_xyz
x,y,z
-x,y,1/2-z
-x,-y,-z
x,-y,1/2+z
loop_
_atom_site_type_symbol
_atom_site_label
_atom_site_fract_x
_atom_site_fract_y
_atom_site_fract_z
Si Si1 0.830515 0.872585 0.477992
Si Si2 0.074378 0.480528 0.841427
Si Si3 0.693430 0.202788 0.425038
Si Si4 0.510163 0.343350 0.655813
O O1 0.944662 0.689837 0.416289
O O2 0.553749 0.819810 0.573274
O O3 0.801468 0.005610 0.402110
O O4 0.000000 0.000000 0.500000
O O5 0.912982 0.655629 0.867567
O O6 0.759894 0.424794 0.782447
O O7 0.295081 0.495854 0.861938
O O8 0.587592 0.253945 0.547802
O O9 0.500000 0.228482 0.750000
#
# Coordination Sequence:
#
# PCOD9237419 Si02
#       4
#     4   4   4   4
#     4  11  22  36  62  92 124 170 228 273 333 407
#     4   9  20  40  60  92 132 171 221 276 337 407
#     4  11  21  39  64  91 129 180 214 278 346 395
#     4   8  19  35  63  92 126 172 225 278 334 408
#
# _framework density 25.775447
#
# number of rings (size 3 to 8) (size 9 to 14) (size 15 to 20)
#    1.500    0.500    2.500    1.500    0.000    1.000 
#    0.000    7.500    0.000    6.000    0.000    0.000 
#    0.000    0.000    0.000    0.000    0.000    0.000 
#
# Total GULP energy -89082.922558 kJ/mol
# GULP energy per Si atom -5567.682660 kJ/mol
# Density = 2.571678 g / cm^3
# Si number density = 25.775447 Si / 1000 Ang^3
#
#
#
# Elastic Constant Matrix: (Units=GPa)
#
#
# Indices 1 2 3 4 5 6 
#
# 1 169.7328 72.7689 0.7989 0.0000 -41.7057 0.0000
# 2 72.7689 140.8474 6.0836 0.0000 -29.7468 0.0000
# 3 0.7989 6.0836 67.9365 0.0000 -7.7547 0.0000
# 4 0.0000 0.0000 0.0000 1.3928 0.0000 -0.4993
# 5 -41.7057 -29.7468 -7.7547 0.0000 48.1842 0.0000
# 6 0.0000 0.0000 0.0000 -0.4993 0.0000 72.3662
#
#
#
# Elastic Compliance Matrix: (Units=1/GPa)
#
#
# Indices 1 2 3 4 5 6 
#
# 1 0.008698 -0.003348 0.000836 0.000000 0.005596 0.000000
# 2 -0.003348 0.009455 -0.000481 0.000000 0.002862 0.000000
# 3 0.000836 -0.000481 0.015079 0.000000 0.002854 0.000000
# 4 0.000000 0.000000 0.000000 0.719763 0.000000 0.004966
# 5 0.005596 0.002862 0.002854 0.000000 0.027824 0.000000
# 6 0.000000 0.000000 0.000000 0.004966 0.000000 0.013853
#
#
# Mechanical properties :
#
#
# Convention : Reuss Voigt Hill
#
# Bulk Modulus (GPa) = 36.70161 59.75774 48.22967
# Shear Modulus (GPa) = 6.17484 44.31298 25.24391
#
# Velocity S-wave (km/s) = 1.54946 4.15081 3.13290
# Velocity P-wave (km/s) = 4.17983 6.79755 5.64259
#
# Compressibility (1/GPa) = 0.02724676
#
# Stress axis : x y z
#
# Youngs Moduli (GPa) = 114.96638 105.76594 66.31916
#
# Poissons Ratio (x) = 0.35412 -0.05546
# Poissons Ratio (y) = 0.38492 0.03188
# Poissons Ratio (z) = -0.09615 0.05084
#
# Static dielectric constant tensor:
#      x y z
#    x 2.276100 0.000000 0.050660 
#    y 0.000000 1.974840 0.000000 
#    z 0.050660 0.000000 2.129600 
# 
# From -- ./inp_files/60205.got.cif
#   From: 2010.05.17/outbox.cif.g08.bks.cpg/sg13_31_cif.got.tgz:60205.got - 2010.06.03 16:44:36.
