data_PCOD9237824
_publ_section_title
;
Structure prediction by ZEFSAII (Michael W. Deem and Ramdas Pophale) SiO2 
 PCOD9237824
Probable space group: P 2/C
;
_chemical_formula_sum "Si O2"
_cell_formula_units_Z 20
_cell_length_a 25.707600
_cell_length_b 7.866133
_cell_length_c 9.652030
_cell_angle_alpha 90.000000
_cell_angle_beta 151.844751
_cell_angle_gamma 90.000000
_cell_volume 920.993873
_symmetry_space_group_name_H-M "P 2/C"
_symmetry_group_IT_number 13
_symmetry_cell_setting 'monoclinic'
loop_
_space_group_symop_operation_xyz
x,y,z
-x,y,1/2-z
-x,-y,-z
x,-y,1/2+z
loop_
_atom_site_type_symbol
_atom_site_label
_atom_site_fract_x
_atom_site_fract_y
_atom_site_fract_z
Si Si1 0.880996 0.135897 0.425801
Si Si2 0.778440 0.790278 0.191888
Si Si3 0.423406 0.553234 0.693483
Si Si4 0.240737 0.345363 0.145776
Si Si5 0.096727 0.367161 0.274308
O O1 0.843996 0.295600 0.432238
O O2 0.898821 0.202605 0.312296
O O3 0.792727 0.990126 0.250959
O O4 0.000000 0.070274 0.750000
O O5 0.878088 0.694401 0.508785
O O6 0.667752 0.692966 0.977938
O O7 0.778434 0.779897 0.025641
O O8 0.500000 0.618432 0.750000
O O9 0.358748 0.384816 0.487282
O O10 0.500000 0.500000 0.000000
O O11 0.205889 0.524588 0.996844
O O12 0.000000 0.500000 0.000000
#
# Coordination Sequence:
#
# PCOD9237824 Si02
#       5
#     4   4   4   4   4
#     4  12  26  44  67 104 151 188 229 293 359 420
#     4  11  26  42  68 105 144 179 235 297 356 418
#     4  11  23  48  78 101 131 186 242 300 351 418
#     4  11  24  43  71 104 136 185 245 284 344 438
#     4  11  23  42  68  97 136 194 240 277 342 425
#
# _framework density 21.715668999999998
#
# number of rings (size 3 to 8) (size 9 to 14) (size 15 to 20)
#    0.000    0.800    4.000    3.600    5.600    1.600 
#    0.000    2.000    0.000    0.000    0.000    0.000 
#    0.000    0.000    0.000    0.000    0.000    0.000 
#
# Total GULP energy -111539.840952 kJ/mol
# GULP energy per Si atom -5576.992048 kJ/mol
# Density = 2.166624 g / cm^3
# Si number density = 21.715669 Si / 1000 Ang^3
#
#
#
# Elastic Constant Matrix: (Units=GPa)
#
#
# Indices 1 2 3 4 5 6 
#
# 1 88.2185 9.8201 55.8429 0.0000 -9.2400 0.0000
# 2 9.8201 87.1980 39.5910 0.0000 -6.4931 0.0000
# 3 55.8429 39.5910 159.2814 0.0000 -19.8816 0.0000
# 4 0.0000 0.0000 0.0000 24.9095 0.0000 9.1296
# 5 -9.2400 -6.4931 -19.8816 0.0000 37.3206 0.0000
# 6 0.0000 0.0000 0.0000 9.1296 0.0000 29.8954
#
#
#
# Elastic Compliance Matrix: (Units=1/GPa)
#
#
# Indices 1 2 3 4 5 6 
#
# 1 0.014648 0.000789 -0.005208 0.000000 0.000989 0.000000
# 2 0.000789 0.012981 -0.003425 0.000000 0.000629 0.000000
# 3 -0.005208 -0.003425 0.009341 0.000000 0.003091 0.000000
# 4 0.000000 0.000000 0.000000 0.045205 0.000000 -0.013805
# 5 0.000989 0.000629 0.003091 0.000000 0.028796 0.000000
# 6 0.000000 0.000000 0.000000 -0.013805 0.000000 0.037666
#
#
# Mechanical properties :
#
#
# Convention : Reuss Voigt Hill
#
# Bulk Modulus (GPa) = 46.98702 60.57844 53.78273
# Shear Modulus (GPa) = 29.16833 33.72136 31.44484
#
# Velocity S-wave (km/s) = 3.66894 3.94491 3.80942
# Velocity P-wave (km/s) = 6.29543 6.97900 6.64601
#
# Compressibility (1/GPa) = 0.02128247
#
# Stress axis : x y z
#
# Youngs Moduli (GPa) = 68.26849 77.03533 107.05364
#
# Poissons Ratio (x) = -0.06076 0.55754
# Poissons Ratio (y) = -0.05384 0.36661
# Poissons Ratio (z) = 0.35554 0.26381
#
# Static dielectric constant tensor:
#      x y z
#    x 1.889240 0.000000 -0.047060 
#    y 0.000000 1.782960 0.000000 
#    z -0.047060 0.000000 1.829360 
# 
# From -- ./inp_files/23975.got.cif
#   From: 2010.05.17/outbox.cif.g08.bks.cpg/sg13_12_cif.got.tgz:23975.got - 2010.06.03 16:44:36.
