data_PCOD9237289
_publ_section_title
;
Structure prediction by ZEFSAII (Michael W. Deem and Ramdas Pophale) SiO2 
 PCOD9237289
Probable space group: P 2/C
;
_chemical_formula_sum "Si O2"
_cell_formula_units_Z 28
_cell_length_a 22.671024
_cell_length_b 7.214797
_cell_length_c 7.497258
_cell_angle_alpha 90.000000
_cell_angle_beta 98.814081
_cell_angle_gamma 90.000000
_cell_volume 1211.821058
_symmetry_space_group_name_H-M "P 2/C"
_symmetry_group_IT_number 13
_symmetry_cell_setting 'monoclinic'
loop_
_space_group_symop_operation_xyz
x,y,z
-x,y,1/2-z
-x,-y,-z
x,-y,1/2+z
loop_
_atom_site_type_symbol
_atom_site_label
_atom_site_fract_x
_atom_site_fract_y
_atom_site_fract_z
Si Si1 0.543869 0.868264 0.406857
Si Si2 0.181529 0.654679 0.536255
Si Si3 0.367253 0.882035 0.782725
Si Si4 0.068126 0.180407 0.436870
Si Si5 0.200230 0.249987 0.460160
Si Si6 0.051543 0.750647 0.510109
Si Si7 0.722487 0.899213 0.024456
O O1 0.500000 0.762334 0.250000
O O2 0.591591 0.770185 0.559304
O O3 0.500000 0.000000 0.500000
O O4 0.585903 0.008519 0.317096
O O5 0.211307 0.455418 0.533584
O O6 0.190650 0.737604 0.739632
O O7 0.110071 0.644555 0.465621
O O8 0.217572 0.784263 0.415907
O O9 0.316623 0.787190 0.640093
O O10 0.327370 0.040270 0.859171
O O11 0.136780 0.198692 0.517195
O O12 0.060588 0.242382 0.228619
O O13 0.019679 0.289373 0.536868
O O14 0.056180 0.960569 0.439859
O O15 0.249955 0.097921 0.521424
#
# Coordination Sequence:
#
# PCOD9237289 Si02
#       7
#     4   4   4   4   4   4   4
#     4   8  14  28  50  86 125 148 186 237 269 320
#     4  11  24  37  55  80 110 152 193 243 296 346
#     4   9  18  29  54  80 117 164 180 229 289 318
#     4   9  18  34  55  78 103 137 187 242 299 355
#     4  11  24  37  55  80 110 152 193 242 297 346
#     4   9  18  34  55  78 103 137 187 242 300 353
#     4  11  20  37  53  80 119 152 195 233 280 346
#
# _framework density 23.105722
#
# number of rings (size 3 to 8) (size 9 to 14) (size 15 to 20)
#    0.000    2.286    2.857    0.000    2.000    1.714 
#    0.000    0.000    0.000    0.000    0.000    0.000 
#    0.000  288.000    0.000    0.000    0.000    0.000 
#
# Total GULP energy -155983.887429 kJ/mol
# GULP energy per Si atom -5570.853122 kJ/mol
# Density = 2.305313 g / cm^3
# Si number density = 23.105722 Si / 1000 Ang^3
#
#
#
# Elastic Constant Matrix: (Units=GPa)
#
#
# Indices 1 2 3 4 5 6 
#
# 1 181.1930 27.2561 53.1878 0.0000 -15.4023 0.0000
# 2 27.2561 56.5082 -0.7773 0.0000 -11.5852 0.0000
# 3 53.1878 -0.7773 47.9280 0.0000 8.2431 0.0000
# 4 0.0000 0.0000 0.0000 18.5504 0.0000 1.3452
# 5 -15.4023 -11.5852 8.2431 0.0000 46.6839 0.0000
# 6 0.0000 0.0000 0.0000 1.3452 0.0000 2.4898
#
#
#
# Elastic Compliance Matrix: (Units=1/GPa)
#
#
# Indices 1 2 3 4 5 6 
#
# 1 0.010010 -0.004092 -0.011931 0.000000 0.004394 0.000000
# 2 -0.004092 0.020330 0.004367 0.000000 0.002924 0.000000
# 3 -0.011931 0.004367 0.035752 0.000000 -0.009165 0.000000
# 4 0.000000 0.000000 0.000000 0.056105 0.000000 -0.030312
# 5 0.004394 0.002924 -0.009165 0.000000 0.025214 0.000000
# 6 0.000000 0.000000 0.000000 -0.030312 0.000000 0.418012
#
#
# Mechanical properties :
#
#
# Convention : Reuss Voigt Hill
#
# Bulk Modulus (GPa) = 23.37441 49.44029 36.40735
# Shear Modulus (GPa) = 8.29196 27.27565 17.78381
#
# Velocity S-wave (km/s) = 1.89644 3.43953 2.77730
# Velocity P-wave (km/s) = 3.86440 6.10063 5.10643
#
# Compressibility (1/GPa) = 0.04278182
#
# Stress axis : x y z
#
# Youngs Moduli (GPa) = 99.89873 49.18934 27.97058
#
# Poissons Ratio (x) = 0.20126 0.33371
# Poissons Ratio (y) = 0.40874 -0.12216
# Poissons Ratio (z) = 1.19187 -0.21483
#
# Static dielectric constant tensor:
#      x y z
#    x 1.874820 0.000000 0.027590 
#    y 0.000000 1.788860 0.000000 
#    z 0.027590 0.000000 2.031140 
# 
# From -- ./inp_files/22550.got.cif
#   From: 2010.05.17/outbox.cif.g08.bks.cpg/sg13_12_cif.got.tgz:22550.got - 2010.06.03 16:44:36.
