data_PCOD9237747
_publ_section_title
;
Structure prediction by ZEFSAII (Michael W. Deem and Ramdas Pophale) SiO2 
 PCOD9237747
Probable space group: P 2/C
;
_chemical_formula_sum "Si O2"
_cell_formula_units_Z 16
_cell_length_a 5.302575
_cell_length_b 4.889785
_cell_length_c 27.265375
_cell_angle_alpha 90.000000
_cell_angle_beta 124.755300
_cell_angle_gamma 90.000000
_cell_volume 580.825170
_symmetry_space_group_name_H-M "P 2/C"
_symmetry_group_IT_number 13
_symmetry_cell_setting 'monoclinic'
loop_
_space_group_symop_operation_xyz
x,y,z
-x,y,1/2-z
-x,-y,-z
x,-y,1/2+z
loop_
_atom_site_type_symbol
_atom_site_label
_atom_site_fract_x
_atom_site_fract_y
_atom_site_fract_z
Si Si1 0.293904 0.927331 0.313642
Si Si2 0.490307 0.864582 0.437831
Si Si3 0.980501 0.213261 0.055840
Si Si4 0.596946 0.440485 0.316560
O O1 0.305753 0.794599 0.368356
O O2 0.567720 0.766191 0.317308
O O3 0.000000 0.854904 0.250000
O O4 0.347011 0.250542 0.317673
O O5 0.234124 0.972319 0.446324
O O6 0.731643 0.087880 0.441654
O O7 0.729043 0.657988 0.490462
O O8 0.102969 0.365095 0.117906
O O9 0.500000 0.368162 0.250000
#
# Coordination Sequence:
#
# PCOD9237747 Si02
#       4
#     4   4   4   4
#     4  11  23  40  64  94 131 172 218 269 324 386
#     4   9  19  38  64  94 128 167 212 263 320 382
#     4   9  19  38  64  94 128 167 212 263 320 382
#     4  11  23  40  64  94 131 172 218 269 324 386
#
# _framework density 27.547015999999999
#
# number of rings (size 3 to 8) (size 9 to 14) (size 15 to 20)
#    0.000    2.000    0.000    3.000    0.000    5.000 
#    0.000    0.000    0.000   28.500    0.000    0.000 
#    0.000    0.000    0.000    0.000    0.000    0.000 
#
# Total GULP energy -89261.442730 kJ/mol
# GULP energy per Si atom -5578.840171 kJ/mol
# Density = 2.748432 g / cm^3
# Si number density = 27.547016 Si / 1000 Ang^3
#
#
#
# Elastic Constant Matrix: (Units=GPa)
#
#
# Indices 1 2 3 4 5 6 
#
# 1 108.5457 30.0722 22.1769 0.0000 -9.4733 0.0000
# 2 30.0722 96.5448 20.0886 0.0000 0.1390 0.0000
# 3 22.1769 20.0886 234.0504 0.0000 3.5907 0.0000
# 4 0.0000 0.0000 0.0000 -30.5747 0.0000 -4.3607
# 5 -9.4733 0.1390 3.5907 0.0000 50.2265 0.0000
# 6 0.0000 0.0000 0.0000 -4.3607 0.0000 31.9863
#
#
#
# Elastic Compliance Matrix: (Units=1/GPa)
#
#
# Indices 1 2 3 4 5 6 
#
# 1 0.010398 -0.003085 -0.000751 0.000000 0.002023 0.000000
# 2 -0.003085 0.011462 -0.000683 0.000000 -0.000565 0.000000
# 3 -0.000751 -0.000683 0.004409 0.000000 -0.000455 0.000000
# 4 0.000000 0.000000 0.000000 -0.032083 0.000000 -0.004374
# 5 0.002023 -0.000565 -0.000455 0.000000 0.020326 0.000000
# 6 0.000000 0.000000 0.000000 -0.004374 0.000000 0.030667
#
#
# Mechanical properties :
#
#
# Convention : Reuss Voigt Hill
#
# Bulk Modulus (GPa) = 58.03885 64.86848 61.45367
# Shear Modulus (GPa) = 83.38818 34.78116 59.08467
#
# Velocity S-wave (km/s) = 5.50790 3.55718 4.63629
# Velocity P-wave (km/s) = 7.84627 6.36166 7.14265
#
# Compressibility (1/GPa) = 0.01722984
#
# Stress axis : x y z
#
# Youngs Moduli (GPa) = 96.17623 87.24655 226.78990
#
# Poissons Ratio (x) = 0.26918 0.17042
# Poissons Ratio (y) = 0.29673 0.15484
# Poissons Ratio (z) = 0.07227 0.05957
#
# Static dielectric constant tensor:
#      x y z
#    x 2.146060 0.000000 -0.056630 
#    y 0.000000 2.092620 0.000000 
#    z -0.056630 0.000000 2.350270 
# 
# From -- ./inp_files/72589.got.cif
#   From: 2010.05.17/outbox.cif.g08.bks.cpg/sg13_37_cif.got.tgz:72589.got - 2010.06.03 16:44:36.
