data_PCOD9237722
_publ_section_title
;
Structure prediction by ZEFSAII (Michael W. Deem and Ramdas Pophale) SiO2 
 PCOD9237722
Probable space group: P 2/C
;
_chemical_formula_sum "Si O2"
_cell_formula_units_Z 18
_cell_length_a 13.904471
_cell_length_b 7.313088
_cell_length_c 6.914778
_cell_angle_alpha 90.000000
_cell_angle_beta 115.026167
_cell_angle_gamma 90.000000
_cell_volume 637.113312
_symmetry_space_group_name_H-M "P 2/C"
_symmetry_group_IT_number 13
_symmetry_cell_setting 'monoclinic'
loop_
_space_group_symop_operation_xyz
x,y,z
-x,y,1/2-z
-x,-y,-z
x,-y,1/2+z
loop_
_atom_site_type_symbol
_atom_site_label
_atom_site_fract_x
_atom_site_fract_y
_atom_site_fract_z
Si Si1 0.500000 0.159162 0.250000
Si Si2 0.325817 0.271965 0.881815
Si Si3 0.092764 0.225305 0.609934
Si Si4 0.642840 0.315992 0.039453
Si Si5 0.873611 0.789154 0.812958
O O1 0.614455 0.111168 0.450663
O O2 0.550104 0.241997 0.095188
O O3 0.199109 0.298187 0.797834
O O4 0.349106 0.249586 0.674275
O O5 0.370623 0.466016 0.990114
O O6 0.107771 0.261147 0.394304
O O7 0.969409 0.281782 0.530258
O O8 0.109088 0.007727 0.658796
O O9 0.753501 0.270411 0.242218
#
# Coordination Sequence:
#
# PCOD9237722 Si02
#       5
#     2   4   4   4   4
#     4  12  24  40  62  84 120 166 198 246 292 350
#     4  11  23  38  62  90 119 156 201 246 290 351
#     4   9  20  39  63  89 120 153 192 243 301 359
#     4  11  23  38  62  90 119 156 201 246 290 351
#     4   9  20  39  63  89 120 153 192 243 301 359
#
# _framework density 28.25243
#
# number of rings (size 3 to 8) (size 9 to 14) (size 15 to 20)
#    0.000    1.778    2.222    1.333    3.111    0.889 
#    0.000    1.111    0.000    0.000    0.000    0.000 
#    0.000    0.000    0.000    0.000    0.000    0.000 
#
# Total GULP energy -100579.004459 kJ/mol
# GULP energy per Si atom -5587.722470 kJ/mol
# Density = 2.818813 g / cm^3
# Si number density = 28.252430 Si / 1000 Ang^3
#
#
#
# Elastic Constant Matrix: (Units=GPa)
#
#
# Indices 1 2 3 4 5 6 
#
# 1 164.0263 12.0597 49.2534 0.0000 27.1239 0.0000
# 2 12.0597 74.6440 1.7303 0.0000 -0.2689 0.0000
# 3 49.2534 1.7303 236.1136 0.0000 21.7677 0.0000
# 4 0.0000 0.0000 0.0000 30.7137 0.0000 26.4929
# 5 27.1239 -0.2689 21.7677 0.0000 54.7469 0.0000
# 6 0.0000 0.0000 0.0000 26.4929 0.0000 37.9803
#
#
#
# Elastic Compliance Matrix: (Units=1/GPa)
#
#
# Indices 1 2 3 4 5 6 
#
# 1 0.007033 -0.001120 -0.001180 0.000000 -0.003021 0.000000
# 2 -0.001120 0.013578 0.000080 0.000000 0.000590 0.000000
# 3 -0.001180 0.000080 0.004595 0.000000 -0.001242 0.000000
# 4 0.000000 0.000000 0.000000 0.081741 0.000000 -0.057018
# 5 -0.003021 0.000590 -0.001242 0.000000 0.020259 0.000000
# 6 0.000000 0.000000 0.000000 -0.057018 0.000000 0.066102
#
#
# Mechanical properties :
#
#
# Convention : Reuss Voigt Hill
#
# Bulk Modulus (GPa) = 48.15689 66.76342 57.46015
# Shear Modulus (GPa) = 24.42940 52.13755 38.28348
#
# Velocity S-wave (km/s) = 2.94374 4.30049 3.68509
# Velocity P-wave (km/s) = 5.35130 6.95279 6.20394
#
# Compressibility (1/GPa) = 0.02076546
#
# Stress axis : x y z
#
# Youngs Moduli (GPa) = 142.19009 73.64798 217.60934
#
# Poissons Ratio (x) = 0.08247 0.25686
# Poissons Ratio (y) = 0.15922 -0.01734
# Poissons Ratio (z) = 0.16784 -0.00587
#
# Static dielectric constant tensor:
#      x y z
#    x 2.320620 0.000000 0.066090 
#    y 0.000000 2.233780 0.000000 
#    z 0.066090 0.000000 2.198290 
# 
# From -- ./inp_files/15383.got.cif
#   From: 2010.05.17/outbox.cif.g08.bks.cpg/sg13_8_cif.got.tgz:15383.got - 2010.06.03 16:44:36.
