data_PCOD9237296
_publ_section_title
;
Structure prediction by ZEFSAII (Michael W. Deem and Ramdas Pophale) SiO2 
 PCOD9237296
Probable space group: P 2/C
;
_chemical_formula_sum "Si O2"
_cell_formula_units_Z 28
_cell_length_a 8.953253
_cell_length_b 10.971654
_cell_length_c 15.871384
_cell_angle_alpha 90.000000
_cell_angle_beta 122.369295
_cell_angle_gamma 90.000000
_cell_volume 1316.820342
_symmetry_space_group_name_H-M "P 2/C"
_symmetry_group_IT_number 13
_symmetry_cell_setting 'monoclinic'
loop_
_space_group_symop_operation_xyz
x,y,z
-x,y,1/2-z
-x,-y,-z
x,-y,1/2+z
loop_
_atom_site_type_symbol
_atom_site_label
_atom_site_fract_x
_atom_site_fract_y
_atom_site_fract_z
Si Si1 0.219250 0.916008 0.151774
Si Si2 0.816516 0.119794 0.233892
Si Si3 0.607006 0.580548 0.863610
Si Si4 0.660437 0.304585 0.906755
Si Si5 0.936757 0.704303 0.912600
Si Si6 0.173037 0.909788 0.487682
Si Si7 0.497765 0.221840 0.471163
O O1 0.310429 0.786024 0.164343
O O2 0.013269 0.908006 0.115094
O O3 0.282300 0.020223 0.235499
O O4 0.209836 0.970033 0.053437
O O5 0.884942 0.237321 0.307707
O O6 0.676307 0.163637 0.123056
O O7 0.000000 0.072688 0.250000
O O8 0.500000 0.629248 0.750000
O O9 0.580182 0.437096 0.865256
O O10 0.812865 0.592667 0.900123
O O11 0.552296 0.660615 0.928990
O O12 0.540195 0.250155 0.943976
O O13 0.857864 0.317090 0.007659
O O14 0.862944 0.807887 0.952787
O O15 0.340451 0.871801 0.485634
#
# Coordination Sequence:
#
# PCOD9237296 Si02
#       7
#     4   4   4   4   4   4   4
#     4   9  20  39  58  83 124 159 193 242 313 373
#     4  11  20  37  64  93 119 155 208 263 293 352
#     4  11  22  39  59  87 124 160 203 261 303 354
#     4  11  22  39  60  90 125 161 199 248 315 371
#     4   9  18  36  62  84 112 159 205 244 299 362
#     4   8  18  35  59  83 115 153 195 247 296 359
#     4  11  22  37  65  92 117 156 213 257 294 354
#
# _framework density 21.263339999999999
#
# number of rings (size 3 to 8) (size 9 to 14) (size 15 to 20)
#    0.000    2.000    2.857    1.714    0.000    0.571 
#    2.571    0.000    0.000    0.857    0.000    0.000 
#    0.000    0.000    0.000    0.000    0.000    0.000 
#
# Total GULP energy -156202.997863 kJ/mol
# GULP energy per Si atom -5578.678495 kJ/mol
# Density = 2.121494 g / cm^3
# Si number density = 21.263340 Si / 1000 Ang^3
#
#
#
# Elastic Constant Matrix: (Units=GPa)
#
#
# Indices 1 2 3 4 5 6 
#
# 1 122.5662 24.6904 14.7819 0.0000 -2.7404 0.0000
# 2 24.6904 81.5546 9.4970 0.0000 -11.3809 0.0000
# 3 14.7819 9.4970 35.7886 0.0000 -4.1420 0.0000
# 4 0.0000 0.0000 0.0000 15.4715 0.0000 -6.2219
# 5 -2.7404 -11.3809 -4.1420 0.0000 28.3651 0.0000
# 6 0.0000 0.0000 0.0000 -6.2219 0.0000 30.1476
#
#
#
# Elastic Compliance Matrix: (Units=1/GPa)
#
#
# Indices 1 2 3 4 5 6 
#
# 1 0.009017 -0.002443 -0.003142 0.000000 -0.000568 0.000000
# 2 -0.002443 0.013952 -0.002108 0.000000 0.005054 0.000000
# 3 -0.003142 -0.002108 0.030176 0.000000 0.003257 0.000000
# 4 0.000000 0.000000 0.000000 0.070485 0.000000 0.014547
# 5 -0.000568 0.005054 0.003257 0.000000 0.037703 0.000000
# 6 0.000000 0.000000 0.000000 0.014547 0.000000 0.036172
#
#
# Mechanical properties :
#
#
# Convention : Reuss Voigt Hill
#
# Bulk Modulus (GPa) = 26.48405 37.53866 32.01135
# Shear Modulus (GPa) = 22.17502 27.52619 24.85061
#
# Velocity S-wave (km/s) = 3.23286 3.60187 3.42234
# Velocity P-wave (km/s) = 5.13980 5.91527 5.54112
#
# Compressibility (1/GPa) = 0.03775858
#
# Stress axis : x y z
#
# Youngs Moduli (GPa) = 110.89833 71.67300 33.13897
#
# Poissons Ratio (x) = 0.17512 0.10412
# Poissons Ratio (y) = 0.27096 0.06987
# Poissons Ratio (z) = 0.34842 0.15111
#
# Static dielectric constant tensor:
#      x y z
#    x 1.773900 0.000000 0.001000 
#    y 0.000000 1.833890 0.000000 
#    z 0.001000 0.000000 1.817370 
# 
# From -- ./inp_files/47311.got.cif
#   From: 2010.05.17/outbox.cif.g08.bks.cpg/sg13_24_cif.got.tgz:47311.got - 2010.06.03 16:44:36.
