data_PCOD9237712
_publ_section_title
;
Structure prediction by ZEFSAII (Michael W. Deem and Ramdas Pophale) SiO2 
 PCOD9237712
Probable space group: P 2/C
;
_chemical_formula_sum "Si O2"
_cell_formula_units_Z 16
_cell_length_a 7.149340
_cell_length_b 7.714712
_cell_length_c 18.984828
_cell_angle_alpha 90.000000
_cell_angle_beta 41.723126
_cell_angle_gamma 90.000000
_cell_volume 696.884905
_symmetry_space_group_name_H-M "P 2/C"
_symmetry_group_IT_number 13
_symmetry_cell_setting 'monoclinic'
loop_
_space_group_symop_operation_xyz
x,y,z
-x,y,1/2-z
-x,-y,-z
x,-y,1/2+z
loop_
_atom_site_type_symbol
_atom_site_label
_atom_site_fract_x
_atom_site_fract_y
_atom_site_fract_z
Si Si1 0.266730 0.130184 0.132725
Si Si2 0.336610 0.262851 0.581740
Si Si3 0.188029 0.285941 0.474285
Si Si4 0.399513 0.637263 0.356413
O O1 0.000000 0.195637 0.250000
O O2 0.220356 0.931585 0.124067
O O3 0.350970 0.237567 0.039834
O O4 0.557519 0.148297 0.095591
O O5 0.183238 0.349239 0.558465
O O6 0.363536 0.345317 0.650198
O O7 0.283680 0.442341 0.397899
O O8 0.866947 0.239572 0.550668
O O9 0.500000 0.673123 0.250000
#
# Coordination Sequence:
#
# PCOD9237712 Si02
#       4
#     4   4   4   4
#     4   9  20  39  65  86 117 163 200 242 306 352
#     4   9  21  40  60  87 122 153 205 248 288 364
#     4   9  22  42  56  90 124 151 206 246 287 377
#     4  11  23  37  63  92 120 161 197 246 310 351
#
# _framework density 22.959316000000001
#
# number of rings (size 3 to 8) (size 9 to 14) (size 15 to 20)
#    1.500    1.000    0.000    0.750    3.500    5.000 
#    0.000    1.250    0.000    0.000    0.000    0.000 
#    0.000    0.000    0.000    0.000    0.000    0.000 
#
# Total GULP energy -89082.887834 kJ/mol
# GULP energy per Si atom -5567.680490 kJ/mol
# Density = 2.290706 g / cm^3
# Si number density = 22.959316 Si / 1000 Ang^3
#
#
#
# Elastic Constant Matrix: (Units=GPa)
#
#
# Indices 1 2 3 4 5 6 
#
# 1 93.3975 -1.0077 35.3204 0.0000 3.7000 0.0000
# 2 -1.0077 29.5831 -9.9517 0.0000 -7.0660 0.0000
# 3 35.3204 -9.9517 64.2671 0.0000 4.4850 0.0000
# 4 0.0000 0.0000 0.0000 12.0304 0.0000 4.3929
# 5 3.7000 -7.0660 4.4850 0.0000 28.5647 0.0000
# 6 0.0000 0.0000 0.0000 4.3929 0.0000 5.6438
#
#
#
# Elastic Compliance Matrix: (Units=1/GPa)
#
#
# Indices 1 2 3 4 5 6 
#
# 1 0.013682 -0.002438 -0.007817 0.000000 -0.001148 0.000000
# 2 -0.002438 0.038021 0.006621 0.000000 0.008681 0.000000
# 3 -0.007817 0.006621 0.020926 0.000000 -0.000635 0.000000
# 4 0.000000 0.000000 0.000000 0.116129 0.000000 -0.090391
# 5 -0.001148 0.008681 -0.000635 0.000000 0.037404 0.000000
# 6 0.000000 0.000000 0.000000 -0.090391 0.000000 0.247542
#
#
# Mechanical properties :
#
#
# Convention : Reuss Voigt Hill
#
# Bulk Modulus (GPa) = 15.29928 26.21886 20.75907
# Shear Modulus (GPa) = 9.94513 20.10688 15.02600
#
# Velocity S-wave (km/s) = 2.08351 2.96254 2.56102
# Velocity P-wave (km/s) = 3.53074 4.81110 4.21976
#
# Compressibility (1/GPa) = 0.06536257
#
# Stress axis : x y z
#
# Youngs Moduli (GPa) = 73.08730 26.30118 47.78791
#
# Poissons Ratio (x) = 0.06412 0.37356
# Poissons Ratio (y) = 0.17817 -0.31642
# Poissons Ratio (z) = 0.57132 -0.17415
#
# Static dielectric constant tensor:
#      x y z
#    x 1.917070 0.000000 -0.026480 
#    y 0.000000 1.858070 0.000000 
#    z -0.026480 0.000000 1.891620 
# 
# From -- ./inp_files/32990.got.cif
#   From: 2010.05.17/outbox.cif.g08.bks.cpg/sg13_17_cif.got.tgz:32990.got - 2010.06.03 16:44:36.
