data_PCOD9237608
_publ_section_title
;
Structure prediction by ZEFSAII (Michael W. Deem and Ramdas Pophale) SiO2 
 PCOD9237608
Probable space group: P 2/C
;
_chemical_formula_sum "Si O2"
_cell_formula_units_Z 24
_cell_length_a 10.692491
_cell_length_b 12.133346
_cell_length_c 8.711219
_cell_angle_alpha 90.000000
_cell_angle_beta 86.732345
_cell_angle_gamma 90.000000
_cell_volume 1128.318573
_symmetry_space_group_name_H-M "P 2/C"
_symmetry_group_IT_number 13
_symmetry_cell_setting 'monoclinic'
loop_
_space_group_symop_operation_xyz
x,y,z
-x,y,1/2-z
-x,-y,-z
x,-y,1/2+z
loop_
_atom_site_type_symbol
_atom_site_label
_atom_site_fract_x
_atom_site_fract_y
_atom_site_fract_z
Si Si1 0.260905 0.152974 0.530366
Si Si2 0.363646 0.950201 0.329241
Si Si3 0.004692 0.124760 0.063636
Si Si4 0.405706 0.442066 0.884481
Si Si5 0.268831 0.766190 0.529740
Si Si6 0.640460 0.677700 0.674744
O O1 0.282997 0.102694 0.696739
O O2 0.117306 0.179395 0.503430
O O3 0.342039 0.261534 0.487932
O O4 0.305127 0.058595 0.407784
O O5 0.500000 0.971400 0.250000
O O6 0.364484 0.860051 0.465026
O O7 0.000000 0.122596 0.250000
O O8 0.131615 0.186440 0.005226
O O9 0.000000 0.000000 0.000000
O O10 0.500000 0.396940 0.750000
O O11 0.315805 0.347381 0.951388
O O12 0.329940 0.548432 0.829842
O O13 0.500000 0.500000 0.000000
O O14 0.276059 0.742737 0.709479
O O15 0.500000 0.687375 0.750000
#
# Coordination Sequence:
#
# PCOD9237608 Si02
#       6
#     4   4   4   4   4   4
#     4  12  24  42  65  98 139 188 229 289 353 427
#     4  12  25  40  67 103 144 172 233 294 366 431
#     4  12  25  46  70  95 140 191 240 286 345 421
#     4  11  23  43  71 103 143 181 228 294 365 423
#     4  12  24  42  69 102 136 187 235 286 351 429
#     4  11  22  41  68  99 140 177 226 287 362 416
#
# _framework density 21.270586999999999
#
# number of rings (size 3 to 8) (size 9 to 14) (size 15 to 20)
#    0.000    0.333    6.667    4.500    2.333    0.000 
#    0.000    0.833    0.000    0.000    0.000    0.000 
#    0.000    0.000    0.000    0.000    0.000    0.000 
#
# Total GULP energy -134270.701338 kJ/mol
# GULP energy per Si atom -5594.612556 kJ/mol
# Density = 2.122217 g / cm^3
# Si number density = 21.270587 Si / 1000 Ang^3
#
#
#
# Elastic Constant Matrix: (Units=GPa)
#
#
# Indices 1 2 3 4 5 6 
#
# 1 101.3235 40.0705 20.4249 0.0000 -3.8452 0.0000
# 2 40.0705 130.6446 25.1282 0.0000 -13.0422 0.0000
# 3 20.4249 25.1282 85.4099 0.0000 -3.2048 0.0000
# 4 0.0000 0.0000 0.0000 38.5413 0.0000 -0.5387
# 5 -3.8452 -13.0422 -3.2048 0.0000 31.0364 0.0000
# 6 0.0000 0.0000 0.0000 -0.5387 0.0000 29.3214
#
#
#
# Elastic Compliance Matrix: (Units=1/GPa)
#
#
# Indices 1 2 3 4 5 6 
#
# 1 0.011491 -0.003186 -0.001815 0.000000 -0.000102 0.000000
# 2 -0.003186 0.009321 -0.001855 0.000000 0.003331 0.000000
# 3 -0.001815 -0.001855 0.012700 0.000000 0.000307 0.000000
# 4 0.000000 0.000000 0.000000 0.025953 0.000000 0.000477
# 5 -0.000102 0.003331 0.000307 0.000000 0.033639 0.000000
# 6 0.000000 0.000000 0.000000 0.000477 0.000000 0.034114
#
#
# Mechanical properties :
#
#
# Convention : Reuss Voigt Hill
#
# Bulk Modulus (GPa) = 50.50485 54.29170 52.39827
# Shear Modulus (GPa) = 33.89181 35.23010 34.56096
#
# Velocity S-wave (km/s) = 3.99603 4.07416 4.03528
# Velocity P-wave (km/s) = 6.71465 6.90735 6.81168
#
# Compressibility (1/GPa) = 0.01980008
#
# Stress axis : x y z
#
# Youngs Moduli (GPa) = 87.02367 107.28670 78.74279
#
# Poissons Ratio (x) = 0.34178 0.14288
# Poissons Ratio (y) = 0.27723 0.14610
# Poissons Ratio (z) = 0.15791 0.19907
#
# Static dielectric constant tensor:
#      x y z
#    x 1.807340 0.000000 0.038460 
#    y 0.000000 1.807460 0.000000 
#    z 0.038460 0.000000 1.861320 
# 
# From -- ./inp_files/15878.got.cif
#   From: 2010.05.17/outbox.cif.g08.bks.cpg/sg13_8_cif.got.tgz:15878.got - 2010.06.03 16:44:36.
