data_PCOD9237403
_publ_section_title
;
Structure prediction by ZEFSAII (Michael W. Deem and Ramdas Pophale) SiO2 
 PCOD9237403
Probable space group: P 2/C
;
_chemical_formula_sum "Si O2"
_cell_formula_units_Z 22
_cell_length_a 5.233968
_cell_length_b 14.017642
_cell_length_c 15.635514
_cell_angle_alpha 90.000000
_cell_angle_beta 88.699016
_cell_angle_gamma 90.000000
_cell_volume 1146.848955
_symmetry_space_group_name_H-M "P 2/C"
_symmetry_group_IT_number 13
_symmetry_cell_setting 'monoclinic'
loop_
_space_group_symop_operation_xyz
x,y,z
-x,y,1/2-z
-x,-y,-z
x,-y,1/2+z
loop_
_atom_site_type_symbol
_atom_site_label
_atom_site_fract_x
_atom_site_fract_y
_atom_site_fract_z
Si Si1 0.537039 0.913693 0.931270
Si Si2 0.963690 0.193123 0.008396
Si Si3 0.055766 0.403474 0.549593
Si Si4 0.836797 0.177069 0.676308
Si Si5 0.500000 0.011465 0.750000
Si Si6 0.443404 0.639729 0.347181
O O1 0.289681 0.847622 0.946939
O O2 0.789371 0.854550 0.951599
O O3 0.560076 0.951859 0.834505
O O4 0.500000 0.000000 0.000000
O O5 0.971559 0.307871 0.007529
O O6 0.988020 0.163492 0.907897
O O7 0.331342 0.394337 0.592518
O O8 0.000000 0.500000 0.500000
O O9 0.830590 0.397260 0.620739
O O10 0.726840 0.081283 0.717414
O O11 0.601562 0.245243 0.650820
O O12 0.000000 0.226838 0.750000
O O13 0.500000 0.612080 0.250000
#
# Coordination Sequence:
#
# PCOD9237403 Si02
#       6
#     4   4   4   4   2   4
#     4  12  25  42  61  95 131 176 211 262 313 395
#     4  11  24  43  64  88 133 169 211 263 325 371
#     4  11  24  42  70  95 124 169 218 268 329 399
#     4  11  22  36  63  98 130 165 210 273 320 385
#     4  12  26  36  66  90 134 172 230 254 324 382
#     4  11  21  38  65 100 131 153 202 276 344 373
#
# _framework density 19.182997
#
# number of rings (size 3 to 8) (size 9 to 14) (size 15 to 20)
#    0.000    0.727    2.727    7.091    2.545    0.000 
#    0.000    0.000   12.000    0.000    0.000    0.000 
#    0.000    0.000    0.000    0.000    0.000    0.000 
#
# Total GULP energy -123004.888888 kJ/mol
# GULP energy per Si atom -5591.131313 kJ/mol
# Density = 1.913934 g / cm^3
# Si number density = 19.182997 Si / 1000 Ang^3
#
#
#
# Elastic Constant Matrix: (Units=GPa)
#
#
# Indices 1 2 3 4 5 6 
#
# 1 100.7714 24.5249 24.7548 0.0000 12.9053 0.0000
# 2 24.5249 104.8513 53.1154 0.0000 2.7024 0.0000
# 3 24.7548 53.1154 118.4777 0.0000 1.2956 0.0000
# 4 0.0000 0.0000 0.0000 22.7642 0.0000 0.5351
# 5 12.9053 2.7024 1.2956 0.0000 37.8678 0.0000
# 6 0.0000 0.0000 0.0000 0.5351 0.0000 20.1366
#
#
#
# Elastic Compliance Matrix: (Units=1/GPa)
#
#
# Indices 1 2 3 4 5 6 
#
# 1 0.011188 -0.001758 -0.001509 0.000000 -0.003636 0.000000
# 2 -0.001758 0.012634 -0.005295 0.000000 -0.000121 0.000000
# 3 -0.001509 -0.005295 0.011124 0.000000 0.000512 0.000000
# 4 0.000000 0.000000 0.000000 0.043956 0.000000 -0.001168
# 5 -0.003636 -0.000121 0.000512 0.000000 0.027638 0.000000
# 6 0.000000 0.000000 0.000000 -0.001168 0.000000 0.049692
#
#
# Mechanical properties :
#
#
# Convention : Reuss Voigt Hill
#
# Bulk Modulus (GPa) = 56.11800 58.76564 57.44182
# Shear Modulus (GPa) = 27.88644 30.93408 29.41026
#
# Velocity S-wave (km/s) = 3.81689 4.02005 3.91978
# Velocity P-wave (km/s) = 6.98157 7.22831 7.10601
#
# Compressibility (1/GPa) = 0.01781959
#
# Stress axis : x y z
#
# Youngs Moduli (GPa) = 89.38289 79.14961 89.89389
#
# Poissons Ratio (x) = 0.13918 0.13569
# Poissons Ratio (y) = 0.15718 0.47603
# Poissons Ratio (z) = 0.13492 0.41913
#
# Static dielectric constant tensor:
#      x y z
#    x 1.697500 0.000000 0.019890 
#    y 0.000000 1.701860 0.000000 
#    z 0.019890 0.000000 1.686780 
# 
# From -- ./inp_files/43871.got.cif
#   From: 2010.05.17/outbox.cif.g08.bks.cpg/sg13_22_cif.got.tgz:43871.got - 2010.06.03 16:44:36.
