data_PCOD9237627
_publ_section_title
;
Structure prediction by ZEFSAII (Michael W. Deem and Ramdas Pophale) SiO2 
 PCOD9237627
Probable space group: P 2/C
;
_chemical_formula_sum "Si O2"
_cell_formula_units_Z 24
_cell_length_a 8.877038
_cell_length_b 12.805156
_cell_length_c 18.161987
_cell_angle_alpha 90.000000
_cell_angle_beta 30.986306
_cell_angle_gamma 90.000000
_cell_volume 1062.876616
_symmetry_space_group_name_H-M "P 2/C"
_symmetry_group_IT_number 13
_symmetry_cell_setting 'monoclinic'
loop_
_space_group_symop_operation_xyz
x,y,z
-x,y,1/2-z
-x,-y,-z
x,-y,1/2+z
loop_
_atom_site_type_symbol
_atom_site_label
_atom_site_fract_x
_atom_site_fract_y
_atom_site_fract_z
Si Si1 0.142960 0.085108 0.385300
Si Si2 0.137651 0.223362 0.615355
Si Si3 0.819428 0.474259 0.894930
Si Si4 0.832559 0.258318 0.600223
Si Si5 0.236884 0.202483 0.212267
Si Si6 0.806849 0.606273 0.650950
O O1 0.500000 0.095856 0.250000
O O2 0.144785 0.098054 0.296047
O O3 0.918141 0.178292 0.500549
O O4 0.000000 0.000000 0.500000
O O5 0.153896 0.349815 0.609756
O O6 0.456736 0.185534 0.457806
O O7 0.000000 0.188166 0.750000
O O8 0.927099 0.201456 0.635313
O O9 0.000000 0.511749 0.750000
O O10 0.963029 0.533574 0.903136
O O11 0.500000 0.500000 0.000000
O O12 0.500000 0.288575 0.750000
O O13 0.032992 0.352740 0.489486
O O14 0.269307 0.297870 0.259054
O O15 0.000000 0.230149 0.250000
O O16 0.500000 0.560975 0.750000
#
# Coordination Sequence:
#
# PCOD9237627 Si02
#       6
#     4   4   4   4   4   4
#     4  11  23  47  75 103 137 170 219 282 342 417
#     4  11  24  41  62  93 140 178 229 291 336 404
#     4  11  25  40  60  93 135 187 239 298 353 394
#     4  11  24  41  66  99 132 181 232 277 349 410
#     4  11  22  44  71  99 135 185 227 274 349 417
#     4  11  22  42  68  92 136 190 246 298 341 402
#
# _framework density 22.580231999999999
#
# number of rings (size 3 to 8) (size 9 to 14) (size 15 to 20)
#    0.000    1.000    3.333    4.000    9.333    1.333 
#    0.000    1.667    0.000    0.000    0.000    0.000 
#    0.000    0.000    0.000    0.000    0.000    0.000 
#
# Total GULP energy -133750.856776 kJ/mol
# GULP energy per Si atom -5572.952366 kJ/mol
# Density = 2.252884 g / cm^3
# Si number density = 22.580232 Si / 1000 Ang^3
#
#
#
# Elastic Constant Matrix: (Units=GPa)
#
#
# Indices 1 2 3 4 5 6 
#
# 1 115.5895 -5.8392 61.0877 0.0000 4.7823 0.0000
# 2 -5.8392 39.7138 22.5501 0.0000 7.4237 0.0000
# 3 61.0877 22.5501 216.7639 0.0000 5.5989 0.0000
# 4 0.0000 0.0000 0.0000 21.0188 0.0000 8.3473
# 5 4.7823 7.4237 5.5989 0.0000 54.0978 0.0000
# 6 0.0000 0.0000 0.0000 8.3473 0.0000 24.1750
#
#
#
# Elastic Compliance Matrix: (Units=1/GPa)
#
#
# Indices 1 2 3 4 5 6 
#
# 1 0.010657 0.003679 -0.003358 0.000000 -0.001099 0.000000
# 2 0.003679 0.028667 -0.003920 0.000000 -0.003853 0.000000
# 3 -0.003358 -0.003920 0.005962 0.000000 0.000218 0.000000
# 4 0.000000 0.000000 0.000000 0.055137 0.000000 -0.019038
# 5 -0.001099 -0.003853 0.000218 0.000000 0.019088 0.000000
# 6 0.000000 0.000000 0.000000 -0.019038 0.000000 0.047939
#
#
# Mechanical properties :
#
#
# Convention : Reuss Voigt Hill
#
# Bulk Modulus (GPa) = 26.25400 58.62937 42.44168
# Shear Modulus (GPa) = 26.68901 39.47624 33.08263
#
# Velocity S-wave (km/s) = 3.44170 4.18576 3.83183
# Velocity P-wave (km/s) = 5.23889 7.02724 6.19790
#
# Compressibility (1/GPa) = 0.03808944
#
# Stress axis : x y z
#
# Youngs Moduli (GPa) = 93.83368 34.88333 167.73745
#
# Poissons Ratio (x) = -0.12834 0.56321
# Poissons Ratio (y) = -0.34522 0.65745
# Poissons Ratio (z) = 0.31507 0.13673
#
# Static dielectric constant tensor:
#      x y z
#    x 2.264870 0.000000 -0.026850 
#    y 0.000000 1.947620 0.000000 
#    z -0.026850 0.000000 1.789300 
# 
# From -- ./inp_files/64598.got.cif
#   From: 2010.05.17/outbox.cif.g08.bks.cpg/sg13_33_cif.got.tgz:64598.got - 2010.06.03 16:44:36.
