data_PCOD9237870
_publ_section_title
;
Structure prediction by ZEFSAII (Michael W. Deem and Ramdas Pophale) SiO2 
 PCOD9237870
Probable space group: P 2/C
;
_chemical_formula_sum "Si O2"
_cell_formula_units_Z 32
_cell_length_a 15.564564
_cell_length_b 6.115883
_cell_length_c 27.251172
_cell_angle_alpha 90.000000
_cell_angle_beta 33.463904
_cell_angle_gamma 90.000000
_cell_volume 1430.398869
_symmetry_space_group_name_H-M "P 2/C"
_symmetry_group_IT_number 13
_symmetry_cell_setting 'monoclinic'
loop_
_space_group_symop_operation_xyz
x,y,z
-x,y,1/2-z
-x,-y,-z
x,-y,1/2+z
loop_
_atom_site_type_symbol
_atom_site_label
_atom_site_fract_x
_atom_site_fract_y
_atom_site_fract_z
Si Si1 0.355462 0.934378 0.502020
Si Si2 0.778312 0.507317 0.561760
Si Si3 0.805434 0.920993 0.215113
Si Si4 0.072111 0.192461 0.433849
Si Si5 0.125825 0.720622 0.085694
Si Si6 0.821209 0.399488 0.348494
Si Si7 0.516124 0.632318 0.343468
Si Si8 0.376804 0.735674 0.638119
O O1 0.205819 0.044157 0.548883
O O2 0.475515 0.133618 0.455001
O O3 0.279781 0.801280 0.582231
O O4 0.436693 0.767311 0.426060
O O5 0.798443 0.680609 0.595909
O O6 0.803006 0.610570 0.496222
O O7 0.611176 0.393030 0.638355
O O8 0.926248 0.350293 0.495182
O O9 0.668322 0.771773 0.258343
O O10 0.942974 0.761457 0.166867
O O11 0.865941 0.088224 0.145378
O O12 0.740878 0.072622 0.289590
O O13 0.000000 0.000000 0.500000
O O14 0.166250 0.584470 0.115543
O O15 0.716146 0.442034 0.350438
O O16 0.000000 0.343775 0.250000
O O17 0.563415 0.396532 0.342840
#
# Coordination Sequence:
#
# PCOD9237870 Si02
#       8
#     4   4   4   4   4   4   4   4
#     4  11  23  43  70 100 135 195 233 290 347 424
#     4  11  24  45  76 102 137 182 240 287 364 423
#     4  11  26  43  74 103 145 189 234 296 370 418
#     4  11  25  45  78 104 133 180 239 297 352 442
#     4  12  24  44  74  98 141 189 238 292 350 424
#     4  12  26  40  66 105 143 188 243 296 347 418
#     4  11  24  46  73 102 145 189 226 296 358 423
#     4  11  25  45  67 101 147 189 237 291 357 422
#
# _framework density 22.371383000000002
#
# number of rings (size 3 to 8) (size 9 to 14) (size 15 to 20)
#    0.000    0.750    3.750    2.625    3.500    5.500 
#    0.000    3.750    0.000    0.000    0.000    0.000 
#    0.000    0.000    0.000    0.000    0.000    0.000 
#
# Total GULP energy -178957.029072 kJ/mol
# GULP energy per Si atom -5592.407158 kJ/mol
# Density = 2.232046 g / cm^3
# Si number density = 22.371383 Si / 1000 Ang^3
#
#
#
# Elastic Constant Matrix: (Units=GPa)
#
#
# Indices 1 2 3 4 5 6 
#
# 1 109.0712 19.1923 25.4174 0.0000 -27.2937 0.0000
# 2 19.1923 55.4813 14.9170 0.0000 -8.3381 0.0000
# 3 25.4174 14.9170 78.8503 0.0000 -15.1850 0.0000
# 4 0.0000 0.0000 0.0000 31.5441 0.0000 -7.8066
# 5 -27.2937 -8.3381 -15.1850 0.0000 32.7581 0.0000
# 6 0.0000 0.0000 0.0000 -7.8066 0.0000 44.3510
#
#
#
# Elastic Compliance Matrix: (Units=1/GPa)
#
#
# Indices 1 2 3 4 5 6 
#
# 1 0.012193 -0.002426 -0.001794 0.000000 0.008710 0.000000
# 2 -0.002426 0.019841 -0.002622 0.000000 0.001813 0.000000
# 3 -0.001794 -0.002622 0.014648 0.000000 0.004628 0.000000
# 4 0.000000 0.000000 0.000000 0.033146 0.000000 0.005834
# 5 0.008710 0.001813 0.004628 0.000000 0.040390 0.000000
# 6 0.000000 0.000000 0.000000 0.005834 0.000000 0.023574
#
#
# Mechanical properties :
#
#
# Convention : Reuss Voigt Hill
#
# Bulk Modulus (GPa) = 30.30648 40.27293 35.28971
# Shear Modulus (GPa) = 29.67779 33.98904 31.83342
#
# Velocity S-wave (km/s) = 3.64620 3.90206 3.77630
# Velocity P-wave (km/s) = 5.59489 6.19213 5.90107
#
# Compressibility (1/GPa) = 0.03299624
#
# Stress axis : x y z
#
# Youngs Moduli (GPa) = 82.01516 50.40076 68.26941
#
# Poissons Ratio (x) = 0.12230 0.12248
# Poissons Ratio (y) = 0.19901 0.17902
# Poissons Ratio (z) = 0.14714 0.13216
#
# Static dielectric constant tensor:
#      x y z
#    x 1.837110 0.000000 0.038410 
#    y 0.000000 1.811880 0.000000 
#    z 0.038410 0.000000 1.839670 
# 
# From -- ./inp_files/97169.got.cif
#   From: 2010.05.17/outbox.cif.g08.bks.cpg/sg13_49_cif.got.tgz:97169.got - 2010.06.03 16:44:36.
