data_PCOD9237473
_publ_section_title
;
Structure prediction by ZEFSAII (Michael W. Deem and Ramdas Pophale) SiO2 
 PCOD9237473
Probable space group: P 2/C
;
_chemical_formula_sum "Si O2"
_cell_formula_units_Z 30
_cell_length_a 13.090477
_cell_length_b 13.279996
_cell_length_c 14.435424
_cell_angle_alpha 90.000000
_cell_angle_beta 32.280060
_cell_angle_gamma 90.000000
_cell_volume 1340.205846
_symmetry_space_group_name_H-M "P 2/C"
_symmetry_group_IT_number 13
_symmetry_cell_setting 'monoclinic'
loop_
_space_group_symop_operation_xyz
x,y,z
-x,y,1/2-z
-x,-y,-z
x,-y,1/2+z
loop_
_atom_site_type_symbol
_atom_site_label
_atom_site_fract_x
_atom_site_fract_y
_atom_site_fract_z
Si Si1 0.686834 0.455624 0.900383
Si Si2 0.307113 0.754274 0.439476
Si Si3 0.678007 0.693637 0.556211
Si Si4 0.824621 0.872018 0.315563
Si Si5 0.000000 0.401424 0.250000
Si Si6 0.002177 0.612058 0.044535
Si Si7 0.805342 0.091639 0.334814
Si Si8 0.962466 0.820636 0.002449
O O1 0.862818 0.528551 0.792885
O O2 0.790258 0.380252 0.750142
O O3 0.500000 0.500000 0.000000
O O4 0.613468 0.402580 0.048356
O O5 0.500000 0.709405 0.250000
O O6 0.152153 0.669727 0.582497
O O7 0.326447 0.823788 0.516168
O O8 0.222205 0.822928 0.422053
O O9 0.500000 0.733828 0.750000
O O10 0.730625 0.777366 0.439493
O O11 0.848790 0.646841 0.488701
O O12 0.907158 0.852261 0.149062
O O13 0.000000 0.890288 0.250000
O O14 0.719098 0.979714 0.399470
O O15 0.029421 0.704066 0.953591
O O16 0.000000 0.500000 0.000000
O O17 0.000000 0.097778 0.250000
O O18 0.875829 0.118300 0.177099
#
# Coordination Sequence:
#
# PCOD9237473 Si02
#       8
#     4   4   4   4   2   4   4   4
#     4  12  26  46  71 102 141 194 250 300 369 447
#     4  11  25  45  71 105 146 188 245 308 376 446
#     4  12  25  45  65 103 150 194 246 308 372 446
#     4  11  21  43  71  99 140 188 244 306 374 444
#     4  12  24  48  76 100 154 192 244 308 364 430
#     4  12  24  43  68 101 140 184 242 298 365 438
#     4   9  21  42  70 102 138 186 244 311 378 441
#     4  11  21  42  69 102 135 190 244 304 373 438
#
# _framework density 22.384620999999999
#
# number of rings (size 3 to 8) (size 9 to 14) (size 15 to 20)
#    0.000    0.800    6.000    2.000    1.867    1.067 
#    2.400    0.667    0.000    0.000    0.000    0.000 
#    0.000    0.000    0.000    0.000    0.000    0.000 
#
# Total GULP energy -167278.149644 kJ/mol
# GULP energy per Si atom -5575.938321 kJ/mol
# Density = 2.233367 g / cm^3
# Si number density = 22.384621 Si / 1000 Ang^3
#
#
#
# Elastic Constant Matrix: (Units=GPa)
#
#
# Indices 1 2 3 4 5 6 
#
# 1 83.2092 31.2264 39.5316 0.0000 17.4075 0.0000
# 2 31.2264 122.2024 41.7246 0.0000 9.9367 0.0000
# 3 39.5316 41.7246 128.3286 0.0000 13.4495 0.0000
# 4 0.0000 0.0000 0.0000 7.2793 0.0000 16.1588
# 5 17.4075 9.9367 13.4495 0.0000 41.2584 0.0000
# 6 0.0000 0.0000 0.0000 16.1588 0.0000 25.6953
#
#
#
# Elastic Compliance Matrix: (Units=1/GPa)
#
#
# Indices 1 2 3 4 5 6 
#
# 1 0.015604 -0.002390 -0.003520 0.000000 -0.004860 0.000000
# 2 -0.002390 0.009637 -0.002340 0.000000 -0.000550 0.000000
# 3 -0.003520 -0.002340 0.009756 0.000000 -0.001132 0.000000
# 4 0.000000 0.000000 0.000000 -0.346939 0.000000 0.218176
# 5 -0.004860 -0.000550 -0.001132 0.000000 0.026789 0.000000
# 6 0.000000 0.000000 0.000000 0.218176 0.000000 -0.098285
#
#
# Mechanical properties :
#
#
# Convention : Reuss Voigt Hill
#
# Bulk Modulus (GPa) = 54.06082 62.07839 58.06960
# Shear Modulus (GPa) = -13.85922 29.59710 7.86894
#
# Velocity S-wave (km/s) = -2.49095 3.64016 1.87696
# Velocity P-wave (km/s) = 3.99126 6.74244 5.54034
#
# Compressibility (1/GPa) = 0.01849768
#
# Stress axis : x y z
#
# Youngs Moduli (GPa) = 64.08564 103.76190 102.49869
#
# Poissons Ratio (x) = 0.24801 0.36083
# Poissons Ratio (y) = 0.15317 0.23980
# Poissons Ratio (z) = 0.22560 0.24276
#
# Static dielectric constant tensor:
#      x y z
#    x 1.796220 0.000000 0.063530 
#    y 0.000000 1.940630 0.000000 
#    z 0.063530 0.000000 1.885410 
# 
# From -- ./inp_files/53855.got.cif
#   From: 2010.05.17/outbox.cif.g08.bks.cpg/sg13_27_cif.got.tgz:53855.got - 2010.06.03 16:44:36.
