data_PCOD9237147
_publ_section_title
;
Structure prediction by ZEFSAII (Michael W. Deem and Ramdas Pophale) SiO2 
 PCOD9237147
Probable space group: P 2/C
;
_chemical_formula_sum "Si O2"
_cell_formula_units_Z 26
_cell_length_a 18.345244
_cell_length_b 5.014107
_cell_length_c 19.068968
_cell_angle_alpha 90.000000
_cell_angle_beta 34.167303
_cell_angle_gamma 90.000000
_cell_volume 985.099536
_symmetry_space_group_name_H-M "P 2/C"
_symmetry_group_IT_number 13
_symmetry_cell_setting 'monoclinic'
loop_
_space_group_symop_operation_xyz
x,y,z
-x,y,1/2-z
-x,-y,-z
x,-y,1/2+z
loop_
_atom_site_type_symbol
_atom_site_label
_atom_site_fract_x
_atom_site_fract_y
_atom_site_fract_z
Si Si1 0.177101 0.286836 0.880284
Si Si2 0.085895 0.164088 0.102677
Si Si3 0.000000 0.686303 0.250000
Si Si4 0.513808 0.274945 0.049273
Si Si5 0.228546 0.816438 0.749930
Si Si6 0.716613 0.937694 0.938059
Si Si7 0.463418 0.330145 0.699215
O O1 0.189032 0.568944 0.830865
O O2 0.319162 0.233648 0.800664
O O3 0.153854 0.067653 0.840064
O O4 0.089256 0.238718 0.018550
O O5 0.209751 0.039825 0.046880
O O6 0.081638 0.456501 0.143818
O O7 0.985919 0.917994 0.200342
O O8 0.384408 0.108515 0.131344
O O9 0.471320 0.377954 0.159789
O O10 0.500000 0.500000 0.000000
O O11 0.665540 0.206627 0.941231
O O12 0.214031 0.767484 0.678351
O O13 0.575145 0.820075 0.067830
O O14 0.500000 0.325417 0.750000
#
# Coordination Sequence:
#
# PCOD9237147 Si02
#       7
#     4   4   2   4   4   4   4
#     4  11  23  40  64  97 137 182 213 269 334 399
#     4  11  25  46  77  96 128 170 234 294 352 410
#     4  10  26  50  72 100 122 166 228 310 370 398
#     4  11  22  36  56  88 145 197 216 258 307 396
#     4  11  23  37  60  96 146 182 218 254 318 399
#     4  12  23  38  66  96 139 186 231 260 326 414
#     4  11  22  35  54  96 141 177 224 267 311 390
#
# _framework density 26.393272
#
# number of rings (size 3 to 8) (size 9 to 14) (size 15 to 20)
#    0.000    0.923    4.615    3.231    2.154    3.077 
#    0.000    0.000    0.000   18.462    0.000    0.000 
#    0.000    0.000    0.000    0.000    0.000    0.000 
#
# Total GULP energy -144842.084854 kJ/mol
# GULP energy per Si atom -5570.849417 kJ/mol
# Density = 2.633320 g / cm^3
# Si number density = 26.393272 Si / 1000 Ang^3
#
#
#
# Elastic Constant Matrix: (Units=GPa)
#
#
# Indices 1 2 3 4 5 6 
#
# 1 129.3864 32.2678 24.4202 0.0000 19.7652 0.0000
# 2 32.2678 118.2942 23.8536 0.0000 4.0762 0.0000
# 3 24.4202 23.8536 108.3826 0.0000 39.5321 0.0000
# 4 0.0000 0.0000 0.0000 27.2418 0.0000 -3.2651
# 5 19.7652 4.0762 39.5321 0.0000 42.0295 0.0000
# 6 0.0000 0.0000 0.0000 -3.2651 0.0000 22.3852
#
#
#
# Elastic Compliance Matrix: (Units=1/GPa)
#
#
# Indices 1 2 3 4 5 6 
#
# 1 0.008907 -0.002278 -0.000089 0.000000 -0.003884 0.000000
# 2 -0.002278 0.009490 -0.002482 0.000000 0.002485 0.000000
# 3 -0.000089 -0.002482 0.014750 0.000000 -0.013591 0.000000
# 4 0.000000 0.000000 0.000000 0.037361 0.000000 0.005449
# 5 -0.003884 0.002485 -0.013591 0.000000 0.038162 0.000000
# 6 0.000000 0.000000 0.000000 0.005449 0.000000 0.045467
#
#
# Mechanical properties :
#
#
# Convention : Reuss Voigt Hill
#
# Bulk Modulus (GPa) = 42.64399 57.46071 50.05235
# Shear Modulus (GPa) = 29.12885 36.69939 32.91412
#
# Velocity S-wave (km/s) = 3.32572 3.73296 3.53521
# Velocity P-wave (km/s) = 5.56232 6.35596 5.97234
#
# Compressibility (1/GPa) = 0.02344997
#
# Stress axis : x y z
#
# Youngs Moduli (GPa) = 112.27137 105.37792 67.79597
#
# Poissons Ratio (x) = 0.24004 0.00602
# Poissons Ratio (y) = 0.25574 0.16825
# Poissons Ratio (z) = 0.00997 0.26152
#
# Static dielectric constant tensor:
#      x y z
#    x 2.209890 0.000000 -0.152000 
#    y 0.000000 2.458110 0.000000 
#    z -0.152000 0.000000 2.201710 
# 
# From -- ./inp_files/70251.got.cif
#   From: 2010.05.17/outbox.cif.g08.bks.cpg/sg13_36_cif.got.tgz:70251.got - 2010.06.03 16:44:36.
