data_PCOD9237611
_publ_section_title
;
Structure prediction by ZEFSAII (Michael W. Deem and Ramdas Pophale) SiO2 
 PCOD9237611
Probable space group: P 2/C
;
_chemical_formula_sum "Si O2"
_cell_formula_units_Z 20
_cell_length_a 7.210458
_cell_length_b 6.801699
_cell_length_c 20.520713
_cell_angle_alpha 90.000000
_cell_angle_beta 66.349341
_cell_angle_gamma 90.000000
_cell_volume 921.875262
_symmetry_space_group_name_H-M "P 2/C"
_symmetry_group_IT_number 13
_symmetry_cell_setting 'monoclinic'
loop_
_space_group_symop_operation_xyz
x,y,z
-x,y,1/2-z
-x,-y,-z
x,-y,1/2+z
loop_
_atom_site_type_symbol
_atom_site_label
_atom_site_fract_x
_atom_site_fract_y
_atom_site_fract_z
Si Si1 0.626313 0.306163 0.471999
Si Si2 0.954364 0.475483 0.083977
Si Si3 0.993708 0.167733 0.825759
Si Si4 0.474966 0.949482 0.099780
Si Si5 0.681000 0.848613 0.682194
O O1 0.500000 0.500000 0.500000
O O2 0.625029 0.195402 0.541143
O O3 0.845719 0.365429 0.417546
O O4 0.520433 0.156301 0.438380
O O5 0.775613 0.323361 0.124640
O O6 0.938465 0.674435 0.128896
O O7 0.000000 0.500000 0.000000
O O8 0.756776 0.120659 0.872188
O O9 0.000000 0.242967 0.750000
O O10 0.136577 0.972999 0.810139
O O11 0.556720 0.988591 0.159239
O O12 0.500000 0.756106 0.750000
#
# Coordination Sequence:
#
# PCOD9237611 Si02
#       5
#     4   4   4   4   4
#     4  11  22  41  70 105 135 185 237 298 356 434
#     4  12  27  46  74 110 149 190 250 304 368 442
#     4  12  26  48  73 103 143 196 244 301 371 450
#     4  11  24  43  73  99 144 187 239 297 368 429
#     4  12  27  47  71 105 146 189 247 308 369 440
#
# _framework density 21.694908999999999
#
# number of rings (size 3 to 8) (size 9 to 14) (size 15 to 20)
#    0.000    0.400    6.000    2.400    2.800    4.800 
#    3.600    0.000    0.000    0.000    0.000    0.000 
#    0.000    0.000    0.000    0.000    0.000    0.000 
#
# Total GULP energy -111706.423078 kJ/mol
# GULP energy per Si atom -5585.321154 kJ/mol
# Density = 2.164553 g / cm^3
# Si number density = 21.694909 Si / 1000 Ang^3
#
#
#
# Elastic Constant Matrix: (Units=GPa)
#
#
# Indices 1 2 3 4 5 6 
#
# 1 75.7437 28.3461 27.7745 0.0000 -12.0067 0.0000
# 2 28.3461 99.4407 44.4247 0.0000 -9.9606 0.0000
# 3 27.7745 44.4247 114.5619 0.0000 -7.1829 0.0000
# 4 0.0000 0.0000 0.0000 32.6727 0.0000 -9.4140
# 5 -12.0067 -9.9606 -7.1829 0.0000 45.6571 0.0000
# 6 0.0000 0.0000 0.0000 -9.4140 0.0000 20.9601
#
#
#
# Elastic Compliance Matrix: (Units=1/GPa)
#
#
# Indices 1 2 3 4 5 6 
#
# 1 0.015737 -0.003095 -0.002422 0.000000 0.003082 0.000000
# 2 -0.003095 0.012943 -0.004184 0.000000 0.001351 0.000000
# 3 -0.002422 -0.004184 0.010949 0.000000 0.000173 0.000000
# 4 0.000000 0.000000 0.000000 0.035156 0.000000 0.015790
# 5 0.003082 0.001351 0.000173 0.000000 0.023035 0.000000
# 6 0.000000 0.000000 0.000000 0.015790 0.000000 0.054802
#
#
# Mechanical properties :
#
#
# Convention : Reuss Voigt Hill
#
# Bulk Modulus (GPa) = 49.43709 54.53742 51.98725
# Shear Modulus (GPa) = 27.96931 32.47139 30.22035
#
# Velocity S-wave (km/s) = 3.59445 3.87295 3.73630
# Velocity P-wave (km/s) = 6.32959 6.72255 6.52902
#
# Compressibility (1/GPa) = 0.02022773
#
# Stress axis : x y z
#
# Youngs Moduli (GPa) = 63.54259 77.26133 91.32990
#
# Poissons Ratio (x) = 0.23915 0.22119
# Poissons Ratio (y) = 0.19669 0.38211
# Poissons Ratio (z) = 0.15389 0.32325
#
# Static dielectric constant tensor:
#      x y z
#    x 6.995010 0.000000 -6.193620 
#    y 0.000000 1.804710 0.000000 
#    z -6.193620 0.000000 9.329150 
# 
# From -- ./inp_files/74415.got.cif
#   From: 2010.05.17/outbox.cif.g08.bks.cpg/sg13_38_cif.got.tgz:74415.got - 2010.06.03 16:44:36.
