data_PCOD9237436
_publ_section_title
;
Structure prediction by ZEFSAII (Michael W. Deem and Ramdas Pophale) SiO2 
 PCOD9237436
Probable space group: P 2/C
;
_chemical_formula_sum "Si O2"
_cell_formula_units_Z 28
_cell_length_a 25.839625
_cell_length_b 9.739865
_cell_length_c 8.998351
_cell_angle_alpha 90.000000
_cell_angle_beta 35.425397
_cell_angle_gamma 90.000000
_cell_volume 1312.690198
_symmetry_space_group_name_H-M "P 2/C"
_symmetry_group_IT_number 13
_symmetry_cell_setting 'monoclinic'
loop_
_space_group_symop_operation_xyz
x,y,z
-x,y,1/2-z
-x,-y,-z
x,-y,1/2+z
loop_
_atom_site_type_symbol
_atom_site_label
_atom_site_fract_x
_atom_site_fract_y
_atom_site_fract_z
Si Si1 0.990459 0.356403 0.447009
Si Si2 0.263479 0.096531 0.793537
Si Si3 0.560397 0.590235 0.249496
Si Si4 0.686581 0.160747 0.486763
Si Si5 0.199592 0.636992 0.986456
Si Si6 0.939478 0.091106 0.244619
Si Si7 0.730236 0.401770 0.851836
O O1 0.893044 0.307233 0.729763
O O2 0.000000 0.377289 0.250000
O O3 0.000000 0.500000 0.500000
O O4 0.062466 0.242778 0.322545
O O5 0.274189 0.246742 0.695601
O O6 0.327071 0.979486 0.574828
O O7 0.277083 0.115543 0.937552
O O8 0.161928 0.048124 0.995989
O O9 0.500000 0.624300 0.250000
O O10 0.500000 0.500000 0.500000
O O11 0.604271 0.732905 0.203145
O O12 0.641862 0.487952 0.020016
O O13 0.754669 0.252322 0.228210
O O14 0.255954 0.603288 0.003293
O O15 0.193757 0.495551 0.905044
O O16 0.000000 0.102555 0.250000
O O17 0.000000 0.000000 0.000000
#
# Coordination Sequence:
#
# PCOD9237436 Si02
#       7
#     4   4   4   4   4   4   4
#     4  11  23  36  55  86 123 164 213 271 318 359
#     4  12  23  42  63  94 130 170 220 265 320 393
#     4  11  23  44  69  98 128 161 208 263 326 399
#     4  11  25  42  67  94 127 172 213 268 329 393
#     4  11  21  40  60  91 127 170 223 266 319 391
#     4  11  23  39  59  87 123 168 212 263 314 363
#     4  11  22  39  67  92 125 171 212 264 323 388
#
# _framework density 21.330241999999998
#
# number of rings (size 3 to 8) (size 9 to 14) (size 15 to 20)
#    0.000    0.857    0.000   10.286    0.000    1.714 
#    0.000    3.571    0.000    0.000    0.000    0.000 
#    0.000    0.000    0.000    0.000    0.000    0.000 
#
# Total GULP energy -156413.450314 kJ/mol
# GULP energy per Si atom -5586.194654 kJ/mol
# Density = 2.128169 g / cm^3
# Si number density = 21.330242 Si / 1000 Ang^3
#
#
#
# Elastic Constant Matrix: (Units=GPa)
#
#
# Indices 1 2 3 4 5 6 
#
# 1 104.0979 26.1339 27.5545 0.0000 17.7445 0.0000
# 2 26.1339 154.3260 37.6511 0.0000 22.6502 0.0000
# 3 27.5545 37.6511 95.8718 0.0000 13.3318 0.0000
# 4 0.0000 0.0000 0.0000 43.2750 0.0000 9.1197
# 5 17.7445 22.6502 13.3318 0.0000 46.3428 0.0000
# 6 0.0000 0.0000 0.0000 9.1197 0.0000 24.2517
#
#
#
# Elastic Compliance Matrix: (Units=1/GPa)
#
#
# Indices 1 2 3 4 5 6 
#
# 1 0.010978 -0.000816 -0.002402 0.000000 -0.003114 0.000000
# 2 -0.000816 0.007595 -0.002370 0.000000 -0.002718 0.000000
# 3 -0.002402 -0.002370 0.012253 0.000000 -0.001447 0.000000
# 4 0.000000 0.000000 0.000000 0.025097 0.000000 -0.009438
# 5 -0.003114 -0.002718 -0.001447 0.000000 0.024515 0.000000
# 6 0.000000 0.000000 0.000000 -0.009438 0.000000 0.044783
#
#
# Mechanical properties :
#
#
# Convention : Reuss Voigt Hill
#
# Bulk Modulus (GPa) = 50.89140 59.66387 55.27764
# Shear Modulus (GPa) = 34.97803 40.30429 37.64116
#
# Velocity S-wave (km/s) = 4.05388 4.35160 4.20537
# Velocity P-wave (km/s) = 6.76923 7.29937 7.03929
#
# Compressibility (1/GPa) = 0.01964968
#
# Stress axis : x y z
#
# Youngs Moduli (GPa) = 91.09404 131.66281 81.61319
#
# Poissons Ratio (x) = 0.10745 0.19601
# Poissons Ratio (y) = 0.07434 0.19345
# Poissons Ratio (z) = 0.21877 0.31208
#
# Static dielectric constant tensor:
#      x y z
#    x 1.984780 0.000000 0.032970 
#    y 0.000000 1.787380 0.000000 
#    z 0.032970 0.000000 1.876940 
# 
# From -- ./inp_files/24543.got.cif
#   From: 2010.05.17/outbox.cif.g08.bks.cpg/sg13_13_cif.got.tgz:24543.got - 2010.06.03 16:44:36.
