data_PCOD9237407
_publ_section_title
;
Structure prediction by ZEFSAII (Michael W. Deem and Ramdas Pophale) SiO2 
 PCOD9237407
Probable space group: P 2/C
;
_chemical_formula_sum "Si O2"
_cell_formula_units_Z 24
_cell_length_a 6.584806
_cell_length_b 13.853942
_cell_length_c 13.964528
_cell_angle_alpha 90.000000
_cell_angle_beta 67.648268
_cell_angle_gamma 90.000000
_cell_volume 1178.207462
_symmetry_space_group_name_H-M "P 2/C"
_symmetry_group_IT_number 13
_symmetry_cell_setting 'monoclinic'
loop_
_space_group_symop_operation_xyz
x,y,z
-x,y,1/2-z
-x,-y,-z
x,-y,1/2+z
loop_
_atom_site_type_symbol
_atom_site_label
_atom_site_fract_x
_atom_site_fract_y
_atom_site_fract_z
Si Si1 0.964421 0.607879 0.469744
Si Si2 0.000000 0.988578 0.250000
Si Si3 0.279236 0.248694 0.010100
Si Si4 0.575981 0.259042 0.126676
Si Si5 0.902470 0.910251 0.578498
Si Si6 0.351757 0.164686 0.686907
Si Si7 0.000000 0.327026 0.750000
O O1 0.758990 0.663576 0.557125
O O2 0.942635 0.616274 0.357936
O O3 0.000000 0.500000 0.500000
O O4 0.180646 0.664679 0.466420
O O5 0.190571 0.918012 0.177458
O O6 0.113063 0.050273 0.311422
O O7 0.488355 0.202959 0.921843
O O8 0.361330 0.274286 0.100513
O O9 0.092385 0.168890 0.044600
O O10 0.500000 0.269076 0.250000
O O11 0.685441 0.151887 0.091697
O O12 0.000000 0.000000 0.500000
O O13 0.500000 0.132144 0.750000
O O14 0.197564 0.254480 0.743062
#
# Coordination Sequence:
#
# PCOD9237407 Si02
#       7
#     4   2   4   4   4   4   2
#     4  11  26  46  71 102 132 168 222 282 337 405
#     4  11  24  36  59  96 136 174 225 272 321 390
#     4  11  23  42  66  92 130 177 220 272 335 391
#     4  11  25  45  66  94 138 181 222 274 340 401
#     4  11  24  39  60  95 134 177 224 274 323 392
#     4  11  21  38  67  95 127 174 220 276 328 383
#     4  11  22  44  69  98 132 164 217 280 329 388
#
# _framework density 20.369926
#
# number of rings (size 3 to 8) (size 9 to 14) (size 15 to 20)
#    0.000    1.000    3.333    3.000    4.667   10.000 
#    3.000    0.000    0.000    0.000    0.000    0.000 
#    0.000    0.000    0.000    0.000    0.000    0.000 
#
# Total GULP energy -134022.226300 kJ/mol
# GULP energy per Si atom -5584.259429 kJ/mol
# Density = 2.032356 g / cm^3
# Si number density = 20.369926 Si / 1000 Ang^3
#
#
#
# Elastic Constant Matrix: (Units=GPa)
#
#
# Indices 1 2 3 4 5 6 
#
# 1 85.3109 29.5869 20.7111 0.0000 13.8421 0.0000
# 2 29.5869 120.8426 37.9979 0.0000 7.3156 0.0000
# 3 20.7111 37.9979 114.3209 0.0000 10.7554 0.0000
# 4 0.0000 0.0000 0.0000 17.7212 0.0000 -12.5666
# 5 13.8421 7.3156 10.7554 0.0000 39.8870 0.0000
# 6 0.0000 0.0000 0.0000 -12.5666 0.0000 -112.6413
#
#
#
# Elastic Compliance Matrix: (Units=1/GPa)
#
#
# Indices 1 2 3 4 5 6 
#
# 1 0.013585 -0.002715 -0.001192 0.000000 -0.003895 0.000000
# 2 -0.002715 0.009815 -0.002760 0.000000 -0.000114 0.000000
# 3 -0.001192 -0.002760 0.010049 0.000000 -0.001790 0.000000
# 4 0.000000 0.000000 0.000000 0.052293 0.000000 -0.005834
# 5 -0.003895 -0.000114 -0.001790 0.000000 0.026926 0.000000
# 6 0.000000 0.000000 0.000000 -0.005834 0.000000 -0.008227
#
#
# Mechanical properties :
#
#
# Convention : Reuss Voigt Hill
#
# Bulk Modulus (GPa) = 49.71606 55.22957 52.47282
# Shear Modulus (GPa) = 40.16735 4.47195 22.31965
#
# Velocity S-wave (km/s) = 4.44542 1.48329 3.31375
# Velocity P-wave (km/s) = 7.12801 5.48686 6.36059
#
# Compressibility (1/GPa) = 0.02011422
#
# Stress axis : x y z
#
# Youngs Moduli (GPa) = 73.61066 101.88825 99.51351
#
# Poissons Ratio (x) = 0.27667 0.11863
# Poissons Ratio (y) = 0.19989 0.27461
# Poissons Ratio (z) = 0.08775 0.28117
#
# Static dielectric constant tensor:
#      x y z
#    x 1.762950 0.000000 0.032070 
#    y 0.000000 1.711280 0.000000 
#    z 0.032070 0.000000 1.762810 
# 
# From -- ./inp_files/44005.got.cif
#   From: 2010.05.17/outbox.cif.g08.bks.cpg/sg13_23_cif.got.tgz:44005.got - 2010.06.03 16:44:36.
