data_PCOD9237888
_publ_section_title
;
Structure prediction by ZEFSAII (Michael W. Deem and Ramdas Pophale) SiO2 
 PCOD9237888
Probable space group: P 2/C
;
_chemical_formula_sum "Si O2"
_cell_formula_units_Z 20
_cell_length_a 10.858941
_cell_length_b 20.733133
_cell_length_c 5.066270
_cell_angle_alpha 90.000000
_cell_angle_beta 50.228397
_cell_angle_gamma 90.000000
_cell_volume 876.680816
_symmetry_space_group_name_H-M "P 2/C"
_symmetry_group_IT_number 13
_symmetry_cell_setting 'monoclinic'
loop_
_space_group_symop_operation_xyz
x,y,z
-x,y,1/2-z
-x,-y,-z
x,-y,1/2+z
loop_
_atom_site_type_symbol
_atom_site_label
_atom_site_fract_x
_atom_site_fract_y
_atom_site_fract_z
Si Si1 0.000000 0.821190 0.750000
Si Si2 0.500000 0.547352 0.250000
Si Si3 0.649364 0.150487 0.743896
Si Si4 0.500000 0.046735 0.250000
Si Si5 0.000000 0.455251 0.750000
Si Si6 0.256099 0.357951 0.274219
Si Si7 0.500000 0.268690 0.250000
Si Si8 0.000000 0.259065 0.750000
O O1 0.169611 0.852026 0.614541
O O2 0.064088 0.784561 0.399525
O O3 0.500000 0.500000 0.500000
O O4 0.349088 0.596624 0.441173
O O5 0.500000 0.135004 0.750000
O O6 0.640837 0.097839 0.990734
O O7 0.598084 0.220921 0.923544
O O8 0.500000 0.000000 0.500000
O O9 0.000000 0.500000 0.500000
O O10 0.154934 0.410512 0.572674
O O11 0.386176 0.316104 0.246393
O O12 0.120517 0.304243 0.414513
#
# Coordination Sequence:
#
# PCOD9237888 Si02
#       8
#     2   2   4   2   2   4   2   2
#     4  12  26  45  72 112 157 190 248 298 386 444
#     4  12  27  44  64  94 129 176 242 304 366 448
#     4  11  25  46  79 112 164 201 250 320 373 445
#     4  11  24  48  80 114 158 217 266 300 362 431
#     4  11  26  49  68  90 131 182 237 300 376 447
#     4  11  25  43  72  96 135 182 237 305 377 460
#     4  11  23  44  66 114 141 189 240 308 400 455
#     4  11  26  44  66 104 144 186 233 300 374 473
#
# _framework density 22.813317999999999
#
# number of rings (size 3 to 8) (size 9 to 14) (size 15 to 20)
#    0.000    0.800    3.000    3.000    7.000    6.400 
#    0.000    1.000    0.000    0.000    0.000    0.000 
#    0.000    0.000    0.000    0.000    0.000    0.000 
#
# Total GULP energy -111467.392507 kJ/mol
# GULP energy per Si atom -5573.369625 kJ/mol
# Density = 2.276139 g / cm^3
# Si number density = 22.813318 Si / 1000 Ang^3
#
#
#
# Elastic Constant Matrix: (Units=GPa)
#
#
# Indices 1 2 3 4 5 6 
#
# 1 100.0818 44.1399 49.1780 0.0000 -3.7599 0.0000
# 2 44.1399 131.0296 51.6613 0.0000 1.7868 0.0000
# 3 49.1780 51.6613 115.5658 0.0000 -15.9610 0.0000
# 4 0.0000 0.0000 0.0000 115.7170 0.0000 69.6449
# 5 -3.7599 1.7868 -15.9610 0.0000 55.2830 0.0000
# 6 0.0000 0.0000 0.0000 69.6449 0.0000 43.4060
#
#
#
# Elastic Compliance Matrix: (Units=1/GPa)
#
#
# Indices 1 2 3 4 5 6 
#
# 1 0.013409 -0.002727 -0.004529 0.000000 -0.000308 0.000000
# 2 -0.002727 0.009950 -0.003497 0.000000 -0.001517 0.000000
# 3 -0.004529 -0.003497 0.012620 0.000000 0.003449 0.000000
# 4 0.000000 0.000000 0.000000 0.251786 0.000000 -0.403991
# 5 -0.000308 -0.001517 0.003449 0.000000 0.019112 0.000000
# 6 0.000000 0.000000 0.000000 -0.403991 0.000000 0.671242
#
#
# Mechanical properties :
#
#
# Convention : Reuss Voigt Hill
#
# Bulk Modulus (GPa) = 69.09886 70.73729 69.91808
# Shear Modulus (GPa) = 4.97785 56.32774 30.65279
#
# Velocity S-wave (km/s) = 1.47876 4.97437 3.66954
# Velocity P-wave (km/s) = 5.76803 8.00417 6.97628
#
# Compressibility (1/GPa) = 0.01447202
#
# Stress axis : x y z
#
# Youngs Moduli (GPa) = 74.57903 100.50334 79.23908
#
# Poissons Ratio (x) = 0.27407 0.35890
# Poissons Ratio (y) = 0.20337 0.27709
# Poissons Ratio (z) = 0.33780 0.35145
#
# Static dielectric constant tensor:
#      x y z
#    x 1.878410 0.000000 0.000500 
#    y 0.000000 1.848390 0.000000 
#    z 0.000500 0.000000 1.923510 
# 
# From -- ./inp_files/1588.got.cif
#   From: 2010.05.17/outbox.cif.g08.bks.cpg/sg13_1_cif.got.tgz:1588.got - 2010.06.03 16:44:36.
