data_PCOD9237874
_publ_section_title
;
Structure prediction by ZEFSAII (Michael W. Deem and Ramdas Pophale) SiO2 
 PCOD9237874
Probable space group: P 2/C
;
_chemical_formula_sum "Si O2"
_cell_formula_units_Z 26
_cell_length_a 9.251704
_cell_length_b 14.284120
_cell_length_c 14.598879
_cell_angle_alpha 90.000000
_cell_angle_beta 139.186237
_cell_angle_gamma 90.000000
_cell_volume 1260.980532
_symmetry_space_group_name_H-M "P 2/C"
_symmetry_group_IT_number 13
_symmetry_cell_setting 'monoclinic'
loop_
_space_group_symop_operation_xyz
x,y,z
-x,y,1/2-z
-x,-y,-z
x,-y,1/2+z
loop_
_atom_site_type_symbol
_atom_site_label
_atom_site_fract_x
_atom_site_fract_y
_atom_site_fract_z
Si Si1 0.886200 0.835694 0.792623
Si Si2 0.715027 0.372167 0.239953
Si Si3 0.731158 0.874049 0.380003
Si Si4 0.000000 0.502655 0.750000
Si Si5 0.464281 0.068672 0.135593
Si Si6 0.810629 0.380848 0.490670
Si Si7 0.948811 0.177886 0.620331
O O1 0.764037 0.737247 0.748121
O O2 0.706371 0.919721 0.709668
O O3 0.000000 0.837372 0.750000
O O4 0.079176 0.840746 0.960420
O O5 0.829818 0.403760 0.391260
O O6 0.811029 0.431122 0.201762
O O7 0.452686 0.382814 0.120237
O O8 0.500000 0.819526 0.250000
O O9 0.862814 0.877259 0.346796
O O10 0.639471 0.969094 0.384563
O O11 0.917297 0.442386 0.623077
O O12 0.500000 0.120651 0.250000
O O13 0.277615 0.120039 0.990106
O O14 0.906550 0.276642 0.550668
O O15 0.000000 0.195420 0.750000
#
# Coordination Sequence:
#
# PCOD9237874 Si02
#       7
#     4   4   4   2   4   4   4
#     4  12  25  44  72 101 136 191 238 282 348 425
#     4  11  23  44  71 101 140 183 232 280 349 421
#     4  11  27  44  66 103 141 179 232 299 346 400
#     4  12  24  44  70 108 140 170 236 296 338 420
#     4  11  23  46  71  93 137 186 235 289 345 411
#     4  11  23  43  71 102 137 187 224 282 358 412
#     4  12  24  43  71 102 139 181 238 286 348 418
#
# _framework density 20.618876
#
# number of rings (size 3 to 8) (size 9 to 14) (size 15 to 20)
#    0.000    0.615    6.154    1.385    4.308    1.231 
#    0.000    0.000    0.000    0.000    0.000    0.000 
#    0.000    0.000    0.000    0.000    0.000    0.000 
#
# Total GULP energy -145074.084450 kJ/mol
# GULP energy per Si atom -5579.772479 kJ/mol
# Density = 2.057195 g / cm^3
# Si number density = 20.618876 Si / 1000 Ang^3
#
#
#
# Elastic Constant Matrix: (Units=GPa)
#
#
# Indices 1 2 3 4 5 6 
#
# 1 111.3550 14.8015 13.6550 0.0000 -7.1537 0.0000
# 2 14.8015 76.8018 1.8350 0.0000 0.7716 0.0000
# 3 13.6550 1.8350 71.1982 0.0000 4.2009 0.0000
# 4 0.0000 0.0000 0.0000 -5.3201 0.0000 23.6711
# 5 -7.1537 0.7716 4.2009 0.0000 34.7442 0.0000
# 6 0.0000 0.0000 0.0000 23.6711 0.0000 11.1163
#
#
#
# Elastic Compliance Matrix: (Units=1/GPa)
#
#
# Indices 1 2 3 4 5 6 
#
# 1 0.009604 -0.001828 -0.001928 0.000000 0.002251 0.000000
# 2 -0.001828 0.013378 0.000046 0.000000 -0.000679 0.000000
# 3 -0.001928 0.000046 0.014541 0.000000 -0.002156 0.000000
# 4 0.000000 0.000000 0.000000 -0.017945 0.000000 0.038212
# 5 0.002251 -0.000679 -0.002156 0.000000 0.029521 0.000000
# 6 0.000000 0.000000 0.000000 0.038212 0.000000 0.008588
#
#
# Mechanical properties :
#
#
# Convention : Reuss Voigt Hill
#
# Bulk Modulus (GPa) = 33.21732 35.54868 34.38300
# Shear Modulus (GPa) = 66.54087 23.37898 44.95992
#
# Velocity S-wave (km/s) = 5.68699 3.37094 4.67467
# Velocity P-wave (km/s) = 7.69855 5.69467 6.77115
#
# Compressibility (1/GPa) = 0.03010477
#
# Stress axis : x y z
#
# Youngs Moduli (GPa) = 104.12094 74.74700 68.77090
#
# Poissons Ratio (x) = 0.13660 0.13257
# Poissons Ratio (y) = 0.19028 -0.00315
# Poissons Ratio (z) = 0.20071 -0.00342
#
# Static dielectric constant tensor:
#      x y z
#    x 1.691410 0.000000 -0.078580 
#    y 0.000000 1.759750 0.000000 
#    z -0.078580 0.000000 1.616750 
# 
# From -- ./inp_files/47929.got.cif
#   From: 2010.05.17/outbox.cif.g08.bks.cpg/sg13_24_cif.got.tgz:47929.got - 2010.06.03 16:44:36.
