data_PCOD9237815
_publ_section_title
;
Structure prediction by ZEFSAII (Michael W. Deem and Ramdas Pophale) SiO2 
 PCOD9237815
Probable space group: P 2/C
;
_chemical_formula_sum "Si O2"
_cell_formula_units_Z 24
_cell_length_a 23.835056
_cell_length_b 11.309511
_cell_length_c 8.545979
_cell_angle_alpha 90.000000
_cell_angle_beta 148.292768
_cell_angle_gamma 90.000000
_cell_volume 1210.765008
_symmetry_space_group_name_H-M "P 2/C"
_symmetry_group_IT_number 13
_symmetry_cell_setting 'monoclinic'
loop_
_space_group_symop_operation_xyz
x,y,z
-x,y,1/2-z
-x,-y,-z
x,-y,1/2+z
loop_
_atom_site_type_symbol
_atom_site_label
_atom_site_fract_x
_atom_site_fract_y
_atom_site_fract_z
Si Si1 0.009417 0.632957 0.462070
Si Si2 0.913434 0.035805 0.668651
Si Si3 0.616547 0.589012 0.448402
Si Si4 0.192898 0.782091 0.080186
Si Si5 0.790015 0.754071 0.020754
Si Si6 0.616638 0.339686 0.588261
O O1 0.000000 0.635164 0.250000
O O2 0.000000 0.500000 0.500000
O O3 0.903400 0.692896 0.271799
O O4 0.107046 0.701478 0.780668
O O5 0.820039 0.120547 0.510856
O O6 0.000000 0.088953 0.750000
O O7 0.857997 0.910145 0.503361
O O8 0.000000 0.000000 0.000000
O O9 0.500000 0.601250 0.250000
O O10 0.652951 0.454936 0.573703
O O11 0.609145 0.613267 0.247037
O O12 0.698737 0.682560 0.715367
O O13 0.230778 0.747458 0.343998
O O14 0.299091 0.766192 0.228334
O O15 0.500000 0.305470 0.250000
#
# Coordination Sequence:
#
# PCOD9237815 Si02
#       6
#     4   4   4   4   4   4
#     4  12  24  38  58  88 125 160 205 257 317 377
#     4  12  24  43  66  92 128 171 215 260 315 376
#     4  11  23  42  67  95 128 167 209 260 316 379
#     4  12  24  41  63  92 125 166 209 260 313 377
#     4  12  24  40  64  91 127 163 213 257 315 376
#     4  11  23  42  67  94 129 166 211 258 319 376
#
# _framework density 19.822178999999998
#
# number of rings (size 3 to 8) (size 9 to 14) (size 15 to 20)
#    0.000    0.333    3.333    8.000    2.333    0.000 
#    0.000    0.833    0.000    4.000    0.000    0.000 
#    0.000    0.000    0.000    0.000    0.000    0.000 
#
# Total GULP energy -133847.849658 kJ/mol
# GULP energy per Si atom -5576.993736 kJ/mol
# Density = 1.977706 g / cm^3
# Si number density = 19.822179 Si / 1000 Ang^3
#
#
#
# Elastic Constant Matrix: (Units=GPa)
#
#
# Indices 1 2 3 4 5 6 
#
# 1 84.4938 5.1929 6.2462 0.0000 -6.0296 0.0000
# 2 5.1929 77.3705 30.8797 0.0000 8.9719 0.0000
# 3 6.2462 30.8797 107.7274 0.0000 -0.9670 0.0000
# 4 0.0000 0.0000 0.0000 52.5759 0.0000 -6.9758
# 5 -6.0296 8.9719 -0.9670 0.0000 33.5127 0.0000
# 6 0.0000 0.0000 0.0000 -6.9758 0.0000 38.5412
#
#
#
# Elastic Compliance Matrix: (Units=1/GPa)
#
#
# Indices 1 2 3 4 5 6 
#
# 1 0.012095 -0.000926 -0.000414 0.000000 0.002412 0.000000
# 2 -0.000926 0.015230 -0.004351 0.000000 -0.004370 0.000000
# 3 -0.000414 -0.004351 0.010567 0.000000 0.001395 0.000000
# 4 0.000000 0.000000 0.000000 0.019488 0.000000 0.003527
# 5 0.002412 -0.004370 0.001395 0.000000 0.031483 0.000000
# 6 0.000000 0.000000 0.000000 0.003527 0.000000 0.026585
#
#
# Mechanical properties :
#
#
# Convention : Reuss Voigt Hill
#
# Bulk Modulus (GPa) = 37.72368 39.35879 38.54124
# Shear Modulus (GPa) = 36.85486 40.07749 38.46617
#
# Velocity S-wave (km/s) = 4.31661 4.50138 4.40996
# Velocity P-wave (km/s) = 6.62695 6.84949 6.73914
#
# Compressibility (1/GPa) = 0.02650855
#
# Stress axis : x y z
#
# Youngs Moduli (GPa) = 82.67978 65.65844 94.63870
#
# Poissons Ratio (x) = 0.06081 0.03919
# Poissons Ratio (y) = 0.07658 0.41180
# Poissons Ratio (z) = 0.03424 0.28570
#
# Static dielectric constant tensor:
#      x y z
#    x -1.420220 0.000000 1.726880 
#    y 0.000000 1.179210 0.000000 
#    z 1.726880 0.000000 0.658130 
# 
# From -- ./inp_files/24166.got.cif
#   From: 2010.05.17/outbox.cif.g08.bks.cpg/sg13_13_cif.got.tgz:24166.got - 2010.06.03 16:44:36.
