data_PCOD9237028
_publ_section_title
;
Structure prediction by ZEFSAII (Michael W. Deem and Ramdas Pophale) SiO2 
 PCOD9237028
Probable space group: P 2/C
;
_chemical_formula_sum "Si O2"
_cell_formula_units_Z 16
_cell_length_a 20.456279
_cell_length_b 4.963554
_cell_length_c 8.689508
_cell_angle_alpha 90.000000
_cell_angle_beta 137.507777
_cell_angle_gamma 90.000000
_cell_volume 595.982603
_symmetry_space_group_name_H-M "P 2/C"
_symmetry_group_IT_number 13
_symmetry_cell_setting 'monoclinic'
loop_
_space_group_symop_operation_xyz
x,y,z
-x,y,1/2-z
-x,-y,-z
x,-y,1/2+z
loop_
_atom_site_type_symbol
_atom_site_label
_atom_site_fract_x
_atom_site_fract_y
_atom_site_fract_z
Si Si1 0.500000 0.570335 0.750000
Si Si2 0.928135 0.748939 0.374451
Si Si3 0.500000 0.000000 0.500000
Si Si4 0.328458 0.230897 0.605898
Si Si5 0.798294 0.438030 0.378274
O O1 0.466545 0.767416 0.558913
O O2 0.422653 0.366661 0.687488
O O3 0.858957 0.671998 0.396910
O O4 0.000000 0.500000 0.500000
O O5 0.863863 0.732863 0.108859
O O6 0.000000 0.000000 0.500000
O O7 0.381507 0.046059 0.246155
O O8 0.248425 0.245366 0.332575
O O9 0.280315 0.403177 0.656949
#
# Coordination Sequence:
#
# PCOD9237028 Si02
#       5
#     2   4   2   4   4
#     4  12  26  46  74 108 174 202 280 328 398 478
#     4  11  26  54  84 119 164 211 272 350 442 495
#     4  12  26  44  80 106 158 228 260 330 406 462
#     4  11  24  52  70 121 161 214 275 327 405 472
#     4  10  25  51  81 116 161 209 278 346 401 527
#
# _framework density 26.846422
#
# number of rings (size 3 to 8) (size 9 to 14) (size 15 to 20)
#    0.000    1.000    2.500    2.250    3.500    4.000 
#   27.000    3.750    0.000    0.000    0.000    0.000 
#    0.000    0.000    0.000    0.000    0.000    0.000 
#
# Total GULP energy -89257.383003 kJ/mol
# GULP energy per Si atom -5578.586438 kJ/mol
# Density = 2.678532 g / cm^3
# Si number density = 26.846422 Si / 1000 Ang^3
#
#
#
# Elastic Constant Matrix: (Units=GPa)
#
#
# Indices 1 2 3 4 5 6 
#
# 1 160.8161 86.4047 65.8020 0.0000 23.7058 0.0000
# 2 86.4047 91.8947 30.4409 0.0000 11.2682 0.0000
# 3 65.8020 30.4409 164.0750 0.0000 13.2735 0.0000
# 4 0.0000 0.0000 0.0000 57.1713 0.0000 21.8174
# 5 23.7058 11.2682 13.2735 0.0000 42.7947 0.0000
# 6 0.0000 0.0000 0.0000 21.8174 0.0000 31.5123
#
#
#
# Elastic Compliance Matrix: (Units=1/GPa)
#
#
# Indices 1 2 3 4 5 6 
#
# 1 0.014763 -0.012301 -0.003322 0.000000 -0.003908 0.000000
# 2 -0.012301 0.022100 0.000772 0.000000 0.000756 0.000000
# 3 -0.003322 0.000772 0.007336 0.000000 -0.000638 0.000000
# 4 0.000000 0.000000 0.000000 0.023772 0.000000 -0.016458
# 5 -0.003908 0.000756 -0.000638 0.000000 0.025531 0.000000
# 6 0.000000 0.000000 0.000000 -0.016458 0.000000 0.043129
#
#
# Mechanical properties :
#
#
# Convention : Reuss Voigt Hill
#
# Bulk Modulus (GPa) = 68.98633 86.89789 77.94211
# Shear Modulus (GPa) = 29.21138 41.90489 35.55814
#
# Velocity S-wave (km/s) = 3.30220 3.95512 3.64332
# Velocity P-wave (km/s) = 6.34758 7.30042 6.84061
#
# Compressibility (1/GPa) = 0.01449562
#
# Stress axis : x y z
#
# Youngs Moduli (GPa) = 67.73569 45.24860 136.32236
#
# Poissons Ratio (x) = 0.55662 0.45290
# Poissons Ratio (y) = 0.83325 -0.10525
# Poissons Ratio (z) = 0.22504 -0.03494
#
# Static dielectric constant tensor:
#      x y z
#    x 3.549000 0.000000 -2.749110 
#    y 0.000000 3.260990 0.000000 
#    z -2.749110 0.000000 7.233180 
# 
# From -- ./inp_files/20627.got.cif
#   From: 2010.05.17/outbox.cif.g08.bks.cpg/sg13_11_cif.got.tgz:20627.got - 2010.06.03 16:44:36.
