data_PCOD9237933
_publ_section_title
;
Structure prediction by ZEFSAII (Michael W. Deem and Ramdas Pophale) SiO2 
 PCOD9237933
Probable space group: P 2/C
;
_chemical_formula_sum "Si O2"
_cell_formula_units_Z 22
_cell_length_a 5.456664
_cell_length_b 12.659341
_cell_length_c 13.177083
_cell_angle_alpha 90.000000
_cell_angle_beta 86.003753
_cell_angle_gamma 90.000000
_cell_volume 908.030362
_symmetry_space_group_name_H-M "P 2/C"
_symmetry_group_IT_number 13
_symmetry_cell_setting 'monoclinic'
loop_
_space_group_symop_operation_xyz
x,y,z
-x,y,1/2-z
-x,-y,-z
x,-y,1/2+z
loop_
_atom_site_type_symbol
_atom_site_label
_atom_site_fract_x
_atom_site_fract_y
_atom_site_fract_z
Si Si1 0.206298 0.862598 0.086802
Si Si2 0.500000 0.214813 0.750000
Si Si3 0.740896 0.172237 0.134505
Si Si4 0.251942 0.307666 0.115056
Si Si5 0.874634 0.658805 0.108462
Si Si6 0.000000 0.982667 0.750000
Si Si7 0.000000 0.526623 0.750000
O O1 0.435468 0.854792 0.154947
O O2 0.094727 0.743507 0.088131
O O3 0.036478 0.943069 0.152140
O O4 0.259869 0.892194 0.971024
O O5 0.287284 0.288535 0.798512
O O6 0.500666 0.244742 0.132385
O O7 0.998159 0.238969 0.127628
O O8 0.774777 0.093262 0.227294
O O9 0.212985 0.398501 0.199598
O O10 0.256919 0.347127 0.997469
O O11 0.939294 0.546498 0.154809
#
# Coordination Sequence:
#
# PCOD9237933 Si02
#       7
#     4   2   4   4   4   2   2
#     4  11  23  45  70 110 150 190 250 311 369 446
#     4  12  18  40  76  98 152 192 242 304 378 422
#     4  11  27  49  71 107 155 198 243 309 372 443
#     4  11  27  49  71 107 155 198 243 309 372 443
#     4  11  23  45  70 110 150 190 250 311 369 446
#     4  12  24  46  76 110 144 200 256 302 374 446
#     4  12  24  46  76 110 144 200 256 302 374 446
#
# _framework density 24.228266999999999
#
# number of rings (size 3 to 8) (size 9 to 14) (size 15 to 20)
#    0.000    0.727    5.455    1.636    0.000    5.818 
#    0.000    7.273    0.000    0.000    0.000    0.000 
#    0.000    0.000    0.000    0.000    0.000    0.000 
#
# Total GULP energy -123009.636085 kJ/mol
# GULP energy per Si atom -5591.347095 kJ/mol
# Density = 2.417312 g / cm^3
# Si number density = 24.228267 Si / 1000 Ang^3
#
#
#
# Elastic Constant Matrix: (Units=GPa)
#
#
# Indices 1 2 3 4 5 6 
#
# 1 121.6786 58.6698 28.3695 0.0000 16.5074 0.0000
# 2 58.6698 102.1496 63.2871 0.0000 13.5033 0.0000
# 3 28.3695 63.2871 173.7206 0.0000 22.2588 0.0000
# 4 0.0000 0.0000 0.0000 -6.8886 0.0000 -0.3820
# 5 16.5074 13.5033 22.2588 0.0000 31.8402 0.0000
# 6 0.0000 0.0000 0.0000 -0.3820 0.0000 31.0013
#
#
#
# Elastic Compliance Matrix: (Units=1/GPa)
#
#
# Indices 1 2 3 4 5 6 
#
# 1 0.011862 -0.006978 0.001114 0.000000 -0.003969 0.000000
# 2 -0.006978 0.016911 -0.005015 0.000000 -0.000048 0.000000
# 3 0.001114 -0.005015 0.007912 0.000000 -0.003981 0.000000
# 4 0.000000 0.000000 0.000000 -0.145069 0.000000 -0.001788
# 5 -0.003969 -0.000048 -0.003981 0.000000 0.036268 0.000000
# 6 0.000000 0.000000 0.000000 -0.001788 0.000000 0.032235
#
#
# Mechanical properties :
#
#
# Convention : Reuss Voigt Hill
#
# Bulk Modulus (GPa) = 67.00045 77.57796 72.28920
# Shear Modulus (GPa) = -380.29654 27.67208 -176.31223
#
# Velocity S-wave (km/s) = -12.54212 3.38322 -8.53986
# Velocity P-wave (km/s) = 13.49169 6.88119 8.20595
#
# Compressibility (1/GPa) = 0.01492527
#
# Stress axis : x y z
#
# Youngs Moduli (GPa) = 84.30418 59.13352 126.39648
#
# Poissons Ratio (x) = 0.41264 -0.14075
# Poissons Ratio (y) = 0.58829 0.63387
# Poissons Ratio (z) = -0.09388 0.29655
#
# Static dielectric constant tensor:
#      x y z
#    x 2.015690 0.000000 -0.017110 
#    y 0.000000 2.019810 0.000000 
#    z -0.017110 0.000000 1.941960 
# 
# From -- ./inp_files/43722.got.cif
#   From: 2010.05.17/outbox.cif.g08.bks.cpg/sg13_22_cif.got.tgz:43722.got - 2010.06.03 16:44:36.
