data_PCOD9237821
_publ_section_title
;
Structure prediction by ZEFSAII (Michael W. Deem and Ramdas Pophale) SiO2 
 PCOD9237821
Probable space group: P 2/C
;
_chemical_formula_sum "Si O2"
_cell_formula_units_Z 20
_cell_length_a 8.161211
_cell_length_b 11.141517
_cell_length_c 11.417152
_cell_angle_alpha 90.000000
_cell_angle_beta 125.708044
_cell_angle_gamma 90.000000
_cell_volume 842.972870
_symmetry_space_group_name_H-M "P 2/C"
_symmetry_group_IT_number 13
_symmetry_cell_setting 'monoclinic'
loop_
_space_group_symop_operation_xyz
x,y,z
-x,y,1/2-z
-x,-y,-z
x,-y,1/2+z
loop_
_atom_site_type_symbol
_atom_site_label
_atom_site_fract_x
_atom_site_fract_y
_atom_site_fract_z
Si Si1 0.285518 0.245604 0.690108
Si Si2 0.759852 0.579582 0.128725
Si Si3 0.785346 0.695228 0.599543
Si Si4 0.958397 0.944287 0.110312
Si Si5 0.576324 0.212391 0.414325
O O1 0.500000 0.184906 0.750000
O O2 0.331413 0.357497 0.793832
O O3 0.191775 0.285303 0.528532
O O4 0.125108 0.161634 0.686601
O O5 0.709739 0.440673 0.091576
O O6 0.000000 0.584288 0.250000
O O7 0.696542 0.664075 0.994190
O O8 0.619004 0.783745 0.584016
O O9 0.000000 0.707435 0.750000
O O10 0.000000 0.013802 0.250000
O O11 0.732610 0.892844 0.008548
O O12 0.000000 0.000000 0.000000
O O13 0.500000 0.208081 0.250000
#
# Coordination Sequence:
#
# PCOD9237821 Si02
#       5
#     4   4   4   4   4
#     4  12  23  45  71  99 148 188 241 298 358 433
#     4  11  23  42  68 100 151 197 233 283 355 431
#     4  11  26  38  68 111 146 196 240 281 354 437
#     4  12  27  53  79 103 141 191 248 312 377 424
#     4  12  24  44  71 104 148 182 237 305 356 428
#
# _framework density 23.725555
#
# number of rings (size 3 to 8) (size 9 to 14) (size 15 to 20)
#    0.000    0.400    6.000    1.800    2.800    4.800 
#    0.000    3.000    0.000    0.000    0.000    0.000 
#    0.000    0.000    0.000    0.000    0.000    0.000 
#
# Total GULP energy -112001.917849 kJ/mol
# GULP energy per Si atom -5600.095892 kJ/mol
# Density = 2.367155 g / cm^3
# Si number density = 23.725555 Si / 1000 Ang^3
#
#
#
# Elastic Constant Matrix: (Units=GPa)
#
#
# Indices 1 2 3 4 5 6 
#
# 1 94.4734 21.4234 40.9841 0.0000 2.6491 0.0000
# 2 21.4234 61.8499 32.6795 0.0000 -2.8648 0.0000
# 3 40.9841 32.6795 213.9460 0.0000 -23.2734 0.0000
# 4 0.0000 0.0000 0.0000 28.9847 0.0000 -5.5781
# 5 2.6491 -2.8648 -23.2734 0.0000 59.8104 0.0000
# 6 0.0000 0.0000 0.0000 -5.5781 0.0000 32.9561
#
#
#
# Elastic Compliance Matrix: (Units=1/GPa)
#
#
# Indices 1 2 3 4 5 6 
#
# 1 0.012234 -0.003245 -0.002009 0.000000 -0.001479 0.000000
# 2 -0.003245 0.018451 -0.002177 0.000000 0.000180 0.000000
# 3 -0.002009 -0.002177 0.005628 0.000000 0.002175 0.000000
# 4 0.000000 0.000000 0.000000 0.035663 0.000000 0.006036
# 5 -0.001479 0.000180 0.002175 0.000000 0.017640 0.000000
# 6 0.000000 0.000000 0.000000 0.006036 0.000000 0.031365
#
#
# Mechanical properties :
#
#
# Convention : Reuss Voigt Hill
#
# Bulk Modulus (GPa) = 46.61712 62.27151 54.44431
# Shear Modulus (GPa) = 34.96712 42.69571 38.83142
#
# Velocity S-wave (km/s) = 3.84320 4.24673 4.04999
# Velocity P-wave (km/s) = 6.27572 7.09577 6.69830
#
# Compressibility (1/GPa) = 0.02145134
#
# Stress axis : x y z
#
# Youngs Moduli (GPa) = 81.74159 54.19849 177.68307
#
# Poissons Ratio (x) = 0.17585 0.35693
# Poissons Ratio (y) = 0.26522 0.38684
# Poissons Ratio (z) = 0.16420 0.11800
#
# Static dielectric constant tensor:
#      x y z
#    x 1.910370 0.000000 0.002800 
#    y 0.000000 1.914500 0.000000 
#    z 0.002800 0.000000 1.931930 
# 
# From -- ./inp_files/29640.got.cif
#   From: 2010.05.17/outbox.cif.g08.bks.cpg/sg13_15_cif.got.tgz:29640.got - 2010.06.03 16:44:36.
