data_PCOD9237377
_publ_section_title
;
Structure prediction by ZEFSAII (Michael W. Deem and Ramdas Pophale) SiO2 
 PCOD9237377
Probable space group: P 2/C
;
_chemical_formula_sum "Si O2"
_cell_formula_units_Z 32
_cell_length_a 10.612505
_cell_length_b 8.793234
_cell_length_c 21.336440
_cell_angle_alpha 90.000000
_cell_angle_beta 58.969215
_cell_angle_gamma 90.000000
_cell_volume 1706.136596
_symmetry_space_group_name_H-M "P 2/C"
_symmetry_group_IT_number 13
_symmetry_cell_setting 'monoclinic'
loop_
_space_group_symop_operation_xyz
x,y,z
-x,y,1/2-z
-x,-y,-z
x,-y,1/2+z
loop_
_atom_site_type_symbol
_atom_site_label
_atom_site_fract_x
_atom_site_fract_y
_atom_site_fract_z
Si Si1 0.177304 0.757845 0.936689
Si Si2 0.173747 0.069935 0.858025
Si Si3 0.521702 0.607748 0.677268
Si Si4 0.165799 0.061448 0.559374
Si Si5 0.168733 0.745593 0.480136
Si Si6 0.545769 0.584523 0.051830
Si Si7 0.403658 0.056846 0.214537
Si Si8 0.421028 0.080165 0.578384
O O1 0.307188 0.655759 0.875760
O O2 0.006186 0.704270 0.977842
O O3 0.182250 0.913677 0.895698
O O4 0.219355 0.809808 0.996407
O O5 0.003989 0.095811 0.887928
O O6 0.255351 0.028801 0.772751
O O7 0.218119 0.200819 0.897142
O O8 0.500000 0.529460 0.750000
O O9 0.486092 0.508483 0.626371
O O10 0.420638 0.760426 0.706194
O O11 0.252220 0.064700 0.601746
O O12 0.179456 0.897556 0.521008
O O13 0.280339 0.621066 0.479800
O O14 0.471396 0.748225 0.068870
O O15 0.500000 0.500000 0.000000
O O16 0.500000 0.013013 0.250000
O O17 0.457675 0.997636 0.134375
O O18 0.500000 0.000000 0.500000
#
# Coordination Sequence:
#
# PCOD9237377 Si02
#       8
#     4   4   4   4   4   4   4   4
#     4   9  16  36  60  87 121 148 194 247 296 354
#     4   9  17  34  61  93 114 142 196 255 297 350
#     4  11  23  38  58  86 126 159 195 241 304 365
#     4   9  18  33  61  91 115 142 194 259 300 335
#     4   9  19  34  61  90 114 151 199 251 297 347
#     4  12  25  38  56  86 123 159 202 243 302 362
#     4  11  21  36  62  88 118 154 199 247 303 352
#     4  12  23  38  60  85 116 157 204 252 297 348
#
# _framework density 18.755825000000002
#
# number of rings (size 3 to 8) (size 9 to 14) (size 15 to 20)
#    0.000    1.750    3.750    4.500    0.000    2.500 
#    0.000    0.000    0.000    2.250    0.000    0.000 
#    0.000    0.000    0.000    0.000    0.000    0.000 
#
# Total GULP energy -178369.266264 kJ/mol
# GULP energy per Si atom -5574.039571 kJ/mol
# Density = 1.871314 g / cm^3
# Si number density = 18.755825 Si / 1000 Ang^3
#
#
#
# Elastic Constant Matrix: (Units=GPa)
#
#
# Indices 1 2 3 4 5 6 
#
# 1 77.8382 26.8855 34.6363 0.0000 13.4879 0.0000
# 2 26.8855 48.4576 43.5953 0.0000 13.6677 0.0000
# 3 34.6363 43.5953 132.9307 0.0000 17.5193 0.0000
# 4 0.0000 0.0000 0.0000 31.3944 0.0000 7.2529
# 5 13.4879 13.6677 17.5193 0.0000 34.2717 0.0000
# 6 0.0000 0.0000 0.0000 7.2529 0.0000 29.7790
#
#
#
# Elastic Compliance Matrix: (Units=1/GPa)
#
#
# Indices 1 2 3 4 5 6 
#
# 1 0.016443 -0.006800 -0.001671 0.000000 -0.002905 0.000000
# 2 -0.006800 0.033871 -0.008480 0.000000 -0.006497 0.000000
# 3 -0.001671 -0.008480 0.010944 0.000000 -0.001555 0.000000
# 4 0.000000 0.000000 0.000000 0.033752 0.000000 -0.008221
# 5 -0.002905 -0.006497 -0.001555 0.000000 0.033708 0.000000
# 6 0.000000 0.000000 0.000000 -0.008221 0.000000 0.035583
#
#
# Mechanical properties :
#
#
# Convention : Reuss Voigt Hill
#
# Bulk Modulus (GPa) = 36.55596 52.16232 44.35914
# Shear Modulus (GPa) = 24.11702 29.36297 26.73999
#
# Velocity S-wave (km/s) = 3.58975 3.96098 3.77993
# Velocity P-wave (km/s) = 6.05925 6.98504 6.53855
#
# Compressibility (1/GPa) = 0.02735532
#
# Stress axis : x y z
#
# Youngs Moduli (GPa) = 60.81608 29.52367 91.37197
#
# Poissons Ratio (x) = 0.20076 0.15272
# Poissons Ratio (y) = 0.41354 0.77485
# Poissons Ratio (z) = 0.10165 0.25037
#
# Static dielectric constant tensor:
#      x y z
#    x 1.745950 0.000000 -0.051050 
#    y 0.000000 1.669920 0.000000 
#    z -0.051050 0.000000 1.696640 
# 
# From -- ./inp_files/78050.got.cif
#   From: 2010.05.17/outbox.cif.g08.bks.cpg/sg13_40_cif.got.tgz:78050.got - 2010.06.03 16:44:36.
