data_PCOD9237838
_publ_section_title
;
Structure prediction by ZEFSAII (Michael W. Deem and Ramdas Pophale) SiO2 
 PCOD9237838
Probable space group: P 2/C
;
_chemical_formula_sum "Si O2"
_cell_formula_units_Z 28
_cell_length_a 13.981710
_cell_length_b 9.646727
_cell_length_c 19.030497
_cell_angle_alpha 90.000000
_cell_angle_beta 31.682656
_cell_angle_gamma 90.000000
_cell_volume 1348.114461
_symmetry_space_group_name_H-M "P 2/C"
_symmetry_group_IT_number 13
_symmetry_cell_setting 'monoclinic'
loop_
_space_group_symop_operation_xyz
x,y,z
-x,y,1/2-z
-x,-y,-z
x,-y,1/2+z
loop_
_atom_site_type_symbol
_atom_site_label
_atom_site_fract_x
_atom_site_fract_y
_atom_site_fract_z
Si Si1 0.766783 0.266025 0.449731
Si Si2 0.244439 0.357643 0.336363
Si Si3 0.415860 0.645842 0.573987
Si Si4 0.400665 0.884143 0.224216
Si Si5 0.824152 0.346636 0.560295
Si Si6 0.500000 0.854532 0.750000
Si Si7 0.668341 0.895758 0.383887
Si Si8 0.000000 0.965014 0.750000
O O1 0.739909 0.319212 0.386939
O O2 0.568570 0.207966 0.593004
O O3 0.822425 0.367915 0.477285
O O4 0.907482 0.139158 0.363202
O O5 0.339704 0.345281 0.200493
O O6 0.262875 0.516970 0.350280
O O7 0.334528 0.250761 0.335588
O O8 0.029435 0.331316 0.460097
O O9 0.500000 0.500000 0.500000
O O10 0.583105 0.751665 0.460595
O O11 0.289210 0.792448 0.349833
O O12 0.279979 0.901760 0.230302
O O13 0.479972 0.031666 0.199865
O O14 0.500000 0.000000 0.500000
O O15 0.839119 0.943806 0.320784
#
# Coordination Sequence:
#
# PCOD9237838 Si02
#       8
#     4   4   4   4   4   2   4   2
#     4  11  23  42  72 100 131 186 229 273 347 412
#     4  11  27  44  67 103 137 175 232 289 341 409
#     4  11  24  45  73  99 137 181 229 288 344 413
#     4  11  23  43  67  98 137 180 224 273 343 415
#     4  11  25  47  68  97 139 182 228 280 346 417
#     4  12  26  38  68 102 134 176 224 276 352 394
#     4  11  23  45  70 101 138 177 231 282 340 411
#     4  12  24  42  74 102 138 182 230 292 342 410
#
# _framework density 20.769750999999999
#
# number of rings (size 3 to 8) (size 9 to 14) (size 15 to 20)
#    0.000    0.857    4.286    3.429    6.000    1.714 
#    0.000    2.143    0.000    0.000    0.000    0.000 
#    0.000    0.000    0.000    0.000    0.000    0.000 
#
# Total GULP energy -156327.457891 kJ/mol
# GULP energy per Si atom -5583.123496 kJ/mol
# Density = 2.072248 g / cm^3
# Si number density = 20.769751 Si / 1000 Ang^3
#
#
#
# Elastic Constant Matrix: (Units=GPa)
#
#
# Indices 1 2 3 4 5 6 
#
# 1 131.4613 59.8679 44.7043 0.0000 -1.0982 0.0000
# 2 59.8679 126.9881 37.8310 0.0000 -8.7103 0.0000
# 3 44.7043 37.8310 68.0827 0.0000 -2.6759 0.0000
# 4 0.0000 0.0000 0.0000 30.0066 0.0000 2.0365
# 5 -1.0982 -8.7103 -2.6759 0.0000 38.1506 0.0000
# 6 0.0000 0.0000 0.0000 2.0365 0.0000 30.2810
#
#
#
# Elastic Compliance Matrix: (Units=1/GPa)
#
#
# Indices 1 2 3 4 5 6 
#
# 1 0.011076 -0.003723 -0.005240 0.000000 -0.000899 0.000000
# 2 -0.003723 0.010812 -0.003480 0.000000 0.002117 0.000000
# 3 -0.005240 -0.003480 0.020081 0.000000 0.000463 0.000000
# 4 0.000000 0.000000 0.000000 0.033479 0.000000 -0.002252
# 5 -0.000899 0.002117 0.000463 0.000000 0.026702 0.000000
# 6 0.000000 0.000000 0.000000 -0.002252 0.000000 0.033175
#
#
# Mechanical properties :
#
#
# Convention : Reuss Voigt Hill
#
# Bulk Modulus (GPa) = 58.53546 67.92648 63.23097
# Shear Modulus (GPa) = 30.13785 31.96290 31.05038
#
# Velocity S-wave (km/s) = 3.81339 3.92716 3.87069
# Velocity P-wave (km/s) = 6.90170 7.30335 7.10537
#
# Compressibility (1/GPa) = 0.01708366
#
# Stress axis : x y z
#
# Youngs Moduli (GPa) = 90.28227 92.49209 49.79947
#
# Poissons Ratio (x) = 0.34431 0.26094
# Poissons Ratio (y) = 0.33608 0.17331
# Poissons Ratio (z) = 0.47306 0.32189
#
# Static dielectric constant tensor:
#      x y z
#    x 1.819810 0.000000 0.046570 
#    y 0.000000 1.679810 0.000000 
#    z 0.046570 0.000000 1.743000 
# 
# From -- ./inp_files/79961.got.cif
#   From: 2010.05.17/outbox.cif.g08.bks.cpg/sg13_40_cif.got.tgz:79961.got - 2010.06.03 16:44:36.
