data_PCOD9237802
_publ_section_title
;
Structure prediction by ZEFSAII (Michael W. Deem and Ramdas Pophale) SiO2 
 PCOD9237802
Probable space group: P 2/C
;
_chemical_formula_sum "Si O2"
_cell_formula_units_Z 16
_cell_length_a 19.818175
_cell_length_b 8.427603
_cell_length_c 10.340054
_cell_angle_alpha 90.000000
_cell_angle_beta 157.586300
_cell_angle_gamma 90.000000
_cell_volume 658.487573
_symmetry_space_group_name_H-M "P 2/C"
_symmetry_group_IT_number 13
_symmetry_cell_setting 'monoclinic'
loop_
_space_group_symop_operation_xyz
x,y,z
-x,y,1/2-z
-x,-y,-z
x,-y,1/2+z
loop_
_atom_site_type_symbol
_atom_site_label
_atom_site_fract_x
_atom_site_fract_y
_atom_site_fract_z
Si Si1 0.144861 0.674917 0.339795
Si Si2 0.245507 0.198401 0.281091
Si Si3 0.345434 0.373812 0.704022
Si Si4 0.198321 0.833135 0.163119
O O1 0.263419 0.750275 0.664188
O O2 0.169276 0.486235 0.395931
O O3 0.198394 0.727576 0.291921
O O4 0.952411 0.745522 0.028405
O O5 0.357321 0.286318 0.588448
O O6 0.255950 0.009529 0.304465
O O7 0.323238 0.246523 0.777780
O O8 0.500000 0.500000 0.000000
O O9 0.000000 0.843653 0.750000
#
# Coordination Sequence:
#
# PCOD9237802 Si02
#       4
#     4   4   4   4
#     4  11  23  41  73 111 142 192 251 313 362 436
#     4  11  23  44  75 110 147 190 256 310 368 441
#     4  12  28  47  70 110 157 198 246 308 384 453
#     4  12  23  44  79 109 146 200 257 310 369 444
#
# _framework density 24.298103999999999
#
# number of rings (size 3 to 8) (size 9 to 14) (size 15 to 20)
#    0.000    0.500    5.000    4.500    3.500    4.000 
#    0.000    7.500    0.000    0.000    0.000    0.000 
#    0.000    0.000    0.000    0.000    0.000    0.000 
#
# Total GULP energy -89699.888855 kJ/mol
# GULP energy per Si atom -5606.243053 kJ/mol
# Density = 2.424280 g / cm^3
# Si number density = 24.298104 Si / 1000 Ang^3
#
#
#
# Elastic Constant Matrix: (Units=GPa)
#
#
# Indices 1 2 3 4 5 6 
#
# 1 143.0570 42.3524 56.3646 0.0000 -32.8552 0.0000
# 2 42.3524 173.7823 46.5839 0.0000 -8.0799 0.0000
# 3 56.3646 46.5839 133.8664 0.0000 -18.9662 0.0000
# 4 0.0000 0.0000 0.0000 16.9843 0.0000 -38.4590
# 5 -32.8552 -8.0799 -18.9662 0.0000 47.6552 0.0000
# 6 0.0000 0.0000 0.0000 -38.4590 0.0000 42.3817
#
#
#
# Elastic Compliance Matrix: (Units=1/GPa)
#
#
# Indices 1 2 3 4 5 6 
#
# 1 0.009754 -0.001357 -0.002877 0.000000 0.005350 0.000000
# 2 -0.001357 0.006537 -0.001779 0.000000 -0.000536 0.000000
# 3 -0.002877 -0.001779 0.009513 0.000000 0.001501 0.000000
# 4 0.000000 0.000000 0.000000 -0.055819 0.000000 -0.050653
# 5 0.005350 -0.000536 0.001501 0.000000 0.025179 0.000000
# 6 0.000000 0.000000 0.000000 -0.050653 0.000000 -0.022369
#
#
# Mechanical properties :
#
#
# Convention : Reuss Voigt Hill
#
# Bulk Modulus (GPa) = 72.57936 82.36751 77.47343
# Shear Modulus (GPa) = -472.34188 41.76456 -215.28866
#
# Velocity S-wave (km/s) = -13.95767 4.15039 -9.42313
# Velocity P-wave (km/s) = 15.15982 7.54586 9.29732
#
# Compressibility (1/GPa) = 0.01377802
#
# Stress axis : x y z
#
# Youngs Moduli (GPa) = 102.52047 152.97175 105.11700
#
# Poissons Ratio (x) = 0.20763 0.30239
# Poissons Ratio (y) = 0.13915 0.18703
# Poissons Ratio (z) = 0.29492 0.27217
#
# Static dielectric constant tensor:
#      x y z
#    x 1.918010 0.000000 0.099000 
#    y 0.000000 1.850590 0.000000 
#    z 0.099000 0.000000 2.103940 
# 
# From -- ./inp_files/21283.got.cif
#   From: 2010.05.17/outbox.cif.g08.bks.cpg/sg13_11_cif.got.tgz:21283.got - 2010.06.03 16:44:36.
