data_PCOD9237790
_publ_section_title
;
Structure prediction by ZEFSAII (Michael W. Deem and Ramdas Pophale) SiO2 
 PCOD9237790
Probable space group: P 2/C
;
_chemical_formula_sum "Si O2"
_cell_formula_units_Z 20
_cell_length_a 7.773921
_cell_length_b 6.955438
_cell_length_c 15.418619
_cell_angle_alpha 90.000000
_cell_angle_beta 98.520936
_cell_angle_gamma 90.000000
_cell_volume 824.497978
_symmetry_space_group_name_H-M "P 2/C"
_symmetry_group_IT_number 13
_symmetry_cell_setting 'monoclinic'
loop_
_space_group_symop_operation_xyz
x,y,z
-x,y,1/2-z
-x,-y,-z
x,-y,1/2+z
loop_
_atom_site_type_symbol
_atom_site_label
_atom_site_fract_x
_atom_site_fract_y
_atom_site_fract_z
Si Si1 0.705256 0.485669 0.735161
Si Si2 0.711903 0.050700 0.991741
Si Si3 0.594260 0.682755 0.048694
Si Si4 0.785684 0.908403 0.690817
Si Si5 0.871979 0.852601 0.341084
O O1 0.500000 0.497943 0.750000
O O2 0.699487 0.383906 0.640352
O O3 0.787970 0.694664 0.728443
O O4 0.829029 0.362366 0.807789
O O5 0.553270 0.164618 0.934440
O O6 0.863956 0.126264 0.943200
O O7 0.697649 0.115596 0.090407
O O8 0.701611 0.819082 0.991160
O O9 0.500000 0.500000 0.000000
O O10 0.729658 0.031251 0.771146
O O11 0.952483 0.032533 0.670073
#
# Coordination Sequence:
#
# PCOD9237790 Si02
#       5
#     4   4   4   4   4
#     4  12  25  45  76 107 143 194 248 307 362 436
#     4  11  23  43  73 103 143 194 243 302 373 436
#     4  11  23  41  68 108 144 181 248 311 358 431
#     4  11  26  46  70 104 150 189 244 302 374 441
#     4  11  26  46  70 105 147 197 238 301 373 448
#
# _framework density 24.257185
#
# number of rings (size 3 to 8) (size 9 to 14) (size 15 to 20)
#    0.000    0.800    6.000    0.600    2.800    4.000 
#    0.000    1.000    0.000    0.000    0.000    0.000 
#    0.000    0.000    0.000    0.000    0.000    0.000 
#
# Total GULP energy -111391.479534 kJ/mol
# GULP energy per Si atom -5569.573977 kJ/mol
# Density = 2.420197 g / cm^3
# Si number density = 24.257185 Si / 1000 Ang^3
#
#
#
# Elastic Constant Matrix: (Units=GPa)
#
#
# Indices 1 2 3 4 5 6 
#
# 1 75.1951 39.8279 -0.0481 0.0000 -5.9208 0.0000
# 2 39.8279 205.3063 47.7125 0.0000 -5.1749 0.0000
# 3 -0.0481 47.7125 90.2247 0.0000 -0.4612 0.0000
# 4 0.0000 0.0000 0.0000 38.2677 0.0000 16.4310
# 5 -5.9208 -5.1749 -0.4612 0.0000 20.4655 0.0000
# 6 0.0000 0.0000 0.0000 16.4310 0.0000 16.6968
#
#
#
# Elastic Compliance Matrix: (Units=1/GPa)
#
#
# Indices 1 2 3 4 5 6 
#
# 1 0.015331 -0.003293 0.001768 0.000000 0.003642 0.000000
# 2 -0.003293 0.006298 -0.003329 0.000000 0.000565 0.000000
# 3 0.001768 -0.003329 0.012845 0.000000 -0.000041 0.000000
# 4 0.000000 0.000000 0.000000 0.045252 0.000000 -0.044532
# 5 0.003642 0.000565 -0.000041 0.000000 0.050058 0.000000
# 6 0.000000 0.000000 0.000000 -0.044532 0.000000 0.103714
#
#
# Mechanical properties :
#
#
# Convention : Reuss Voigt Hill
#
# Bulk Modulus (GPa) = 40.37944 60.63454 50.50699
# Shear Modulus (GPa) = 19.88379 33.96826 26.92602
#
# Velocity S-wave (km/s) = 2.86616 3.74617 3.33531
# Velocity P-wave (km/s) = 5.25696 6.61532 5.97487
#
# Compressibility (1/GPa) = 0.02476508
#
# Stress axis : x y z
#
# Youngs Moduli (GPa) = 65.22748 158.79215 77.85330
#
# Poissons Ratio (x) = 0.52294 -0.13767
# Poissons Ratio (y) = 0.21481 0.25918
# Poissons Ratio (z) = -0.11534 0.52864
#
# Static dielectric constant tensor:
#      x y z
#    x 2.213530 0.000000 0.049890 
#    y 0.000000 1.916430 0.000000 
#    z 0.049890 0.000000 2.148330 
# 
# From -- ./inp_files/62412.got.cif
#   From: 2010.05.17/outbox.cif.g08.bks.cpg/sg13_32_cif.got.tgz:62412.got - 2010.06.03 16:44:36.
