data_PCOD9237269
_publ_section_title
;
Structure prediction by ZEFSAII (Michael W. Deem and Ramdas Pophale) SiO2 
 PCOD9237269
Probable space group: P 2/C
;
_chemical_formula_sum "Si O2"
_cell_formula_units_Z 28
_cell_length_a 15.301943
_cell_length_b 15.688788
_cell_length_c 14.128957
_cell_angle_alpha 90.000000
_cell_angle_beta 28.090263
_cell_angle_gamma 90.000000
_cell_volume 1597.127865
_symmetry_space_group_name_H-M "P 2/C"
_symmetry_group_IT_number 13
_symmetry_cell_setting 'monoclinic'
loop_
_space_group_symop_operation_xyz
x,y,z
-x,y,1/2-z
-x,-y,-z
x,-y,1/2+z
loop_
_atom_site_type_symbol
_atom_site_label
_atom_site_fract_x
_atom_site_fract_y
_atom_site_fract_z
Si Si1 0.567123 0.510480 0.788993
Si Si2 0.960163 0.012121 0.395755
Si Si3 0.699409 0.045015 0.299739
Si Si4 0.914781 0.386202 0.434983
Si Si5 0.375415 0.788474 0.516221
Si Si6 0.284877 0.399614 0.177960
Si Si7 0.783550 0.803749 0.042093
O O1 0.500000 0.538739 0.750000
O O2 0.723809 0.437260 0.627866
O O3 0.653207 0.582593 0.774148
O O4 0.395604 0.467665 0.008057
O O5 0.897790 0.111533 0.455805
O O6 0.000000 0.987238 0.250000
O O7 0.147786 0.001951 0.277037
O O8 0.791610 0.963510 0.608415
O O9 0.680766 0.141372 0.353655
O O10 0.500000 0.000000 0.500000
O O11 0.881420 0.285006 0.472585
O O12 0.000000 0.404186 0.250000
O O13 0.067043 0.410773 0.367171
O O14 0.341145 0.693648 0.586669
O O15 0.589423 0.803505 0.283549
O O16 0.264706 0.801862 0.523592
#
# Coordination Sequence:
#
# PCOD9237269 Si02
#       7
#     4   4   4   4   4   4   4
#     4  11  22  39  57  84 120 157 199 238 288 355
#     4  11  22  38  59  89 119 154 190 236 300 356
#     4  11  23  37  59  88 120 153 192 240 292 354
#     4  12  20  34  59  93 119 147 189 248 303 346
#     4  11  20  37  60  89 118 153 192 244 301 349
#     4  11  23  37  61  85 118 157 193 246 295 343
#     4  11  20  34  63  90 121 146 187 249 311 347
#
# _framework density 17.531471
#
# number of rings (size 3 to 8) (size 9 to 14) (size 15 to 20)
#    0.000    0.857    7.143    1.714    0.000    0.571 
#    0.000    0.000    3.143    0.857    0.000    0.000 
#    0.000    0.000    0.000    0.000    0.000    0.000 
#
# Total GULP energy -156431.591127 kJ/mol
# GULP energy per Si atom -5586.842540 kJ/mol
# Density = 1.749157 g / cm^3
# Si number density = 17.531471 Si / 1000 Ang^3
#
#
#
# Elastic Constant Matrix: (Units=GPa)
#
#
# Indices 1 2 3 4 5 6 
#
# 1 120.1321 30.6367 46.9160 0.0000 0.1981 0.0000
# 2 30.6367 52.3932 15.0742 0.0000 3.7275 0.0000
# 3 46.9160 15.0742 95.2522 0.0000 -3.3797 0.0000
# 4 0.0000 0.0000 0.0000 26.4740 0.0000 0.8888
# 5 0.1981 3.7275 -3.3797 0.0000 35.4499 0.0000
# 6 0.0000 0.0000 0.0000 0.8888 0.0000 26.4805
#
#
#
# Elastic Compliance Matrix: (Units=1/GPa)
#
#
# Indices 1 2 3 4 5 6 
#
# 1 0.011594 -0.005385 -0.004857 0.000000 0.000038 0.000000
# 2 -0.005385 0.022706 -0.001028 0.000000 -0.002455 0.000000
# 3 -0.004857 -0.001028 0.013103 0.000000 0.001384 0.000000
# 4 0.000000 0.000000 0.000000 0.037815 0.000000 -0.001269
# 5 0.000038 -0.002455 0.001384 0.000000 0.028599 0.000000
# 6 0.000000 0.000000 0.000000 -0.001269 0.000000 0.037806
#
#
# Mechanical properties :
#
#
# Convention : Reuss Voigt Hill
#
# Bulk Modulus (GPa) = 40.22161 50.33682 45.27921
# Shear Modulus (GPa) = 27.40460 29.35759 28.38109
#
# Velocity S-wave (km/s) = 3.95798 4.09658 4.02788
# Velocity P-wave (km/s) = 6.62418 7.15196 6.89313
#
# Compressibility (1/GPa) = 0.02486226
#
# Stress axis : x y z
#
# Youngs Moduli (GPa) = 86.24918 44.04166 76.32056
#
# Poissons Ratio (x) = 0.23716 0.37070
# Poissons Ratio (y) = 0.46445 0.07846
# Poissons Ratio (z) = 0.41893 0.04528
#
# Static dielectric constant tensor:
#      x y z
#    x 1.602350 0.000000 -0.011770 
#    y 0.000000 1.565820 0.000000 
#    z -0.011770 0.000000 1.624000 
# 
# From -- ./inp_files/53822.got.cif
#   From: 2010.05.17/outbox.cif.g08.bks.cpg/sg13_27_cif.got.tgz:53822.got - 2010.06.03 16:44:36.
