data_PCOD9237495
_publ_section_title
;
Structure prediction by ZEFSAII (Michael W. Deem and Ramdas Pophale) SiO2 
 PCOD9237495
Probable space group: P 2/C
;
_chemical_formula_sum "Si O2"
_cell_formula_units_Z 20
_cell_length_a 13.710072
_cell_length_b 4.919413
_cell_length_c 23.155590
_cell_angle_alpha 90.000000
_cell_angle_beta 29.298725
_cell_angle_gamma 90.000000
_cell_volume 764.258085
_symmetry_space_group_name_H-M "P 2/C"
_symmetry_group_IT_number 13
_symmetry_cell_setting 'monoclinic'
loop_
_space_group_symop_operation_xyz
x,y,z
-x,y,1/2-z
-x,-y,-z
x,-y,1/2+z
loop_
_atom_site_type_symbol
_atom_site_label
_atom_site_fract_x
_atom_site_fract_y
_atom_site_fract_z
Si Si1 0.874649 0.497350 0.367082
Si Si2 0.090451 0.768353 0.030215
Si Si3 0.536786 0.380041 0.897193
Si Si4 0.807328 0.905075 0.744442
Si Si5 0.327357 0.270846 0.883399
O O1 0.859544 0.702615 0.428348
O O2 0.651618 0.424102 0.463886
O O3 0.000000 0.612365 0.250000
O O4 0.002782 0.238373 0.323381
O O5 0.138551 0.475474 0.978280
O O6 0.242458 0.970396 0.921545
O O7 0.885454 0.935711 0.146206
O O8 0.658436 0.649305 0.816381
O O9 0.425406 0.285228 0.896052
O O10 0.684636 0.141202 0.839537
O O11 0.500000 0.341139 0.750000
#
# Coordination Sequence:
#
# PCOD9237495 Si02
#       5
#     4   4   4   4   4
#     4  11  26  46  72 100 141 185 227 282 340 404
#     4  11  21  46  65  96 144 170 223 289 329 397
#     4  11  24  43  70  96 139 183 222 287 340 395
#     4  12  23  45  68 101 140 179 229 278 342 403
#     4  11  23  44  74  99 133 185 228 277 348 406
#
# _framework density 26.169170000000001
#
# number of rings (size 3 to 8) (size 9 to 14) (size 15 to 20)
#    0.000    0.800    6.000    3.000    0.000    2.400 
#    0.000    6.000    0.000    0.000    0.000    0.000 
#    0.000    0.000    0.000    0.000    0.000    0.000 
#
# Total GULP energy -111878.649660 kJ/mol
# GULP energy per Si atom -5593.932483 kJ/mol
# Density = 2.610961 g / cm^3
# Si number density = 26.169170 Si / 1000 Ang^3
#
#
#
# Elastic Constant Matrix: (Units=GPa)
#
#
# Indices 1 2 3 4 5 6 
#
# 1 76.6780 13.6938 28.0837 0.0000 -16.7056 0.0000
# 2 13.6938 148.4410 26.6974 0.0000 -20.3979 0.0000
# 3 28.0837 26.6974 150.1174 0.0000 -23.6731 0.0000
# 4 0.0000 0.0000 0.0000 28.0537 0.0000 20.1184
# 5 -16.7056 -20.3979 -23.6731 0.0000 41.2072 0.0000
# 6 0.0000 0.0000 0.0000 20.1184 0.0000 -10.2070
#
#
#
# Elastic Compliance Matrix: (Units=1/GPa)
#
#
# Indices 1 2 3 4 5 6 
#
# 1 0.014855 -0.000369 -0.001971 0.000000 0.004707 0.000000
# 2 -0.000369 0.007324 -0.000754 0.000000 0.003043 0.000000
# 3 -0.001971 -0.000754 0.007675 0.000000 0.003237 0.000000
# 4 0.000000 0.000000 0.000000 0.014769 0.000000 0.029111
# 5 0.004707 0.003043 0.003237 0.000000 0.029542 0.000000
# 6 0.000000 0.000000 0.000000 0.029111 0.000000 -0.040593
#
#
# Mechanical properties :
#
#
# Convention : Reuss Voigt Hill
#
# Bulk Modulus (GPa) = 42.25397 56.90959 49.58178
# Shear Modulus (GPa) = 104.93519 32.26155 68.59837
#
# Velocity S-wave (km/s) = 6.33923 3.51494 5.12546
# Velocity P-wave (km/s) = 8.35240 6.18604 7.34948
#
# Compressibility (1/GPa) = 0.02366642
#
# Stress axis : x y z
#
# Youngs Moduli (GPa) = 67.31776 136.52923 130.29859
#
# Poissons Ratio (x) = 0.05038 0.25683
# Poissons Ratio (y) = 0.02484 0.09820
# Poissons Ratio (z) = 0.13269 0.10290
#
# Static dielectric constant tensor:
#      x y z
#    x 2.124330 0.000000 -0.018860 
#    y 0.000000 1.996110 0.000000 
#    z -0.018860 0.000000 2.091300 
# 
# From -- ./inp_files/97111.got.cif
#   From: 2010.05.17/outbox.cif.g08.bks.cpg/sg13_49_cif.got.tgz:97111.got - 2010.06.03 16:44:36.
