data_PCOD9237856
_publ_section_title
;
Structure prediction by ZEFSAII (Michael W. Deem and Ramdas Pophale) SiO2 
 PCOD9237856
Probable space group: P 2/C
;
_chemical_formula_sum "Si O2"
_cell_formula_units_Z 20
_cell_length_a 17.316356
_cell_length_b 5.155299
_cell_length_c 12.898873
_cell_angle_alpha 90.000000
_cell_angle_beta 49.984087
_cell_angle_gamma 90.000000
_cell_volume 881.890894
_symmetry_space_group_name_H-M "P 2/C"
_symmetry_group_IT_number 13
_symmetry_cell_setting 'monoclinic'
loop_
_space_group_symop_operation_xyz
x,y,z
-x,y,1/2-z
-x,-y,-z
x,-y,1/2+z
loop_
_atom_site_type_symbol
_atom_site_label
_atom_site_fract_x
_atom_site_fract_y
_atom_site_fract_z
Si Si1 0.928586 0.249248 0.064578
Si Si2 0.429769 0.574363 0.729865
Si Si3 0.796491 0.931068 0.871056
Si Si4 0.575639 0.800067 0.987835
Si Si5 0.205559 0.564012 0.007934
O O1 0.859275 0.188903 0.223165
O O2 0.854033 0.304366 0.033815
O O3 0.000000 0.500000 0.000000
O O4 0.000000 0.000000 0.000000
O O5 0.500000 0.741528 0.750000
O O6 0.396396 0.641931 0.640498
O O7 0.510509 0.351152 0.629708
O O8 0.323826 0.548304 0.878858
O O9 0.677786 0.907224 0.947904
O O10 0.823096 0.732059 0.941399
O O11 0.814073 0.232793 0.881430
O O12 0.500000 0.000000 0.000000
#
# Coordination Sequence:
#
# PCOD9237856 Si02
#       5
#     4   4   4   4   4
#     4  12  28  51  78 106 144 190 247 315 371 428
#     4  11  23  43  67 106 144 192 237 286 363 429
#     4  12  27  48  74 110 146 192 249 299 368 443
#     4  11  25  40  70 102 151 197 242 294 355 443
#     4  12  27  47  77 108 149 193 241 302 367 441
#
# _framework density 22.678540000000002
#
# number of rings (size 3 to 8) (size 9 to 14) (size 15 to 20)
#    0.000    0.400    4.000    3.600    5.600    7.200 
#    0.000    0.000    0.000    0.000    0.000    0.000 
#    0.000    0.000    0.000    0.000    0.000    0.000 
#
# Total GULP energy -111574.166807 kJ/mol
# GULP energy per Si atom -5578.708340 kJ/mol
# Density = 2.262692 g / cm^3
# Si number density = 22.678540 Si / 1000 Ang^3
#
#
#
# Elastic Constant Matrix: (Units=GPa)
#
#
# Indices 1 2 3 4 5 6 
#
# 1 88.7874 15.1725 34.5470 0.0000 -7.4670 0.0000
# 2 15.1725 104.6295 28.8724 0.0000 -13.7659 0.0000
# 3 34.5470 28.8724 70.4530 0.0000 -1.1856 0.0000
# 4 0.0000 0.0000 0.0000 20.7487 0.0000 1.8424
# 5 -7.4670 -13.7659 -1.1856 0.0000 34.2255 0.0000
# 6 0.0000 0.0000 0.0000 1.8424 0.0000 37.7501
#
#
#
# Elastic Compliance Matrix: (Units=1/GPa)
#
#
# Indices 1 2 3 4 5 6 
#
# 1 0.014199 0.000269 -0.007023 0.000000 0.002963 0.000000
# 2 0.000269 0.011415 -0.004734 0.000000 0.004486 0.000000
# 3 -0.007023 -0.004734 0.019531 0.000000 -0.002760 0.000000
# 4 0.000000 0.000000 0.000000 0.048406 0.000000 -0.002362
# 5 0.002963 0.004486 -0.002760 0.000000 0.031573 0.000000
# 6 0.000000 0.000000 0.000000 -0.002362 0.000000 0.026605
#
#
# Mechanical properties :
#
#
# Convention : Reuss Voigt Hill
#
# Bulk Modulus (GPa) = 45.10915 46.78375 45.94645
# Shear Modulus (GPa) = 27.45821 30.89672 29.17747
#
# Velocity S-wave (km/s) = 3.48337 3.69504 3.59077
# Velocity P-wave (km/s) = 6.00935 6.23525 6.12334
#
# Compressibility (1/GPa) = 0.02216845
#
# Stress axis : x y z
#
# Youngs Moduli (GPa) = 70.42960 87.60243 51.20019
#
# Poissons Ratio (x) = -0.02354 0.35956
# Poissons Ratio (y) = -0.01892 0.24240
# Poissons Ratio (z) = 0.49460 0.41474
#
# Static dielectric constant tensor:
#      x y z
#    x 2.275270 0.000000 0.203570 
#    y 0.000000 1.889990 0.000000 
#    z 0.203570 0.000000 1.884690 
# 
# From -- ./inp_files/38084.got.cif
#   From: 2010.05.17/outbox.cif.g08.bks.cpg/sg13_20_cif.got.tgz:38084.got - 2010.06.03 16:44:36.
