data_PCOD9237404
_publ_section_title
;
Structure prediction by ZEFSAII (Michael W. Deem and Ramdas Pophale) SiO2 
 PCOD9237404
Probable space group: P 2/C
;
_chemical_formula_sum "Si O2"
_cell_formula_units_Z 32
_cell_length_a 15.792468
_cell_length_b 6.276813
_cell_length_c 27.298703
_cell_angle_alpha 90.000000
_cell_angle_beta 29.330509
_cell_angle_gamma 90.000000
_cell_volume 1325.535719
_symmetry_space_group_name_H-M "P 2/C"
_symmetry_group_IT_number 13
_symmetry_cell_setting 'monoclinic'
loop_
_space_group_symop_operation_xyz
x,y,z
-x,y,1/2-z
-x,-y,-z
x,-y,1/2+z
loop_
_atom_site_type_symbol
_atom_site_label
_atom_site_fract_x
_atom_site_fract_y
_atom_site_fract_z
Si Si1 0.762520 0.939527 0.767672
Si Si2 0.711242 0.988614 0.137794
Si Si3 0.582159 0.676834 0.129277
Si Si4 0.924801 0.314765 0.340944
Si Si5 0.729883 0.621469 0.691581
Si Si6 0.924858 0.237438 0.612891
Si Si7 0.212483 0.682744 0.028300
Si Si8 0.585142 0.944149 0.031417
O O1 0.937077 0.842524 0.702992
O O2 0.706087 0.775794 0.751545
O O3 0.817000 0.159169 0.714300
O O4 0.610659 0.987186 0.883988
O O5 0.500000 0.974414 0.250000
O O6 0.731354 0.240034 0.141484
O O7 0.719358 0.806536 0.092141
O O8 0.849140 0.898460 0.107290
O O9 0.413662 0.567549 0.238479
O O10 0.662066 0.475947 0.062153
O O11 0.543220 0.846546 0.106238
O O12 0.000000 0.359164 0.250000
O O13 0.913878 0.530494 0.377705
O O14 0.729160 0.216576 0.436883
O O15 0.902700 0.485366 0.612742
O O16 0.117702 0.187979 0.532922
O O17 0.311269 0.838430 0.014163
#
# Coordination Sequence:
#
# PCOD9237404 Si02
#       8
#     4   4   4   4   4   4   4   4
#     4  11  21  42  73  99 132 184 230 272 343 415
#     4  11  24  35  60  98 132 174 235 289 328 387
#     4  11  23  41  64  99 136 178 236 290 332 397
#     4  11  26  45  69 106 142 170 222 290 353 419
#     4  11  21  38  65  92 131 182 227 273 340 393
#     4  11  22  41  64  93 128 186 229 273 338 402
#     4  11  24  43  70  94 138 181 226 284 351 412
#     4  11  23  43  73 100 133 184 231 282 340 416
#
# _framework density 24.141185
#
# number of rings (size 3 to 8) (size 9 to 14) (size 15 to 20)
#    0.000    1.000    6.250    0.750    1.750    1.500 
#    0.000    1.875    0.000    0.000    0.000    0.000 
#    0.000    0.000    0.000    0.000    0.000    0.000 
#
# Total GULP energy -178443.358408 kJ/mol
# GULP energy per Si atom -5576.354950 kJ/mol
# Density = 2.408624 g / cm^3
# Si number density = 24.141185 Si / 1000 Ang^3
#
#
#
# Elastic Constant Matrix: (Units=GPa)
#
#
# Indices 1 2 3 4 5 6 
#
# 1 42.0338 1.3078 3.6154 0.0000 0.2738 0.0000
# 2 1.3078 100.1678 15.9780 0.0000 -5.7809 0.0000
# 3 3.6154 15.9780 68.3752 0.0000 -2.3759 0.0000
# 4 0.0000 0.0000 0.0000 26.4009 0.0000 -21.8467
# 5 0.2738 -5.7809 -2.3759 0.0000 21.5349 0.0000
# 6 0.0000 0.0000 0.0000 -21.8467 0.0000 31.3935
#
#
#
# Elastic Compliance Matrix: (Units=1/GPa)
#
#
# Indices 1 2 3 4 5 6 
#
# 1 0.023905 -0.000141 -0.001248 0.000000 -0.000479 0.000000
# 2 -0.000141 0.010509 -0.002359 0.000000 0.002563 0.000000
# 3 -0.001248 -0.002359 0.015280 0.000000 0.001068 0.000000
# 4 0.000000 0.000000 0.000000 0.089303 0.000000 0.062146
# 5 -0.000479 0.002563 0.001068 0.000000 0.047248 0.000000
# 6 0.000000 0.000000 0.000000 0.062146 0.000000 0.075101
#
#
# Mechanical properties :
#
#
# Convention : Reuss Voigt Hill
#
# Bulk Modulus (GPa) = 23.69757 28.04214 25.86985
# Shear Modulus (GPa) = 17.67359 28.51090 23.09225
#
# Velocity S-wave (km/s) = 2.70866 3.44031 3.09617
# Velocity P-wave (km/s) = 4.42944 5.23661 4.84985
#
# Compressibility (1/GPa) = 0.04219843
#
# Stress axis : x y z
#
# Youngs Moduli (GPa) = 41.83189 95.15357 65.44667
#
# Poissons Ratio (x) = 0.01339 0.08166
# Poissons Ratio (y) = 0.00589 0.15441
# Poissons Ratio (z) = 0.05220 0.22450
#
# Static dielectric constant tensor:
#      x y z
#    x 1.989370 0.000000 -0.035380 
#    y 0.000000 1.872120 0.000000 
#    z -0.035380 0.000000 1.859330 
# 
# From -- ./inp_files/97239.got.cif
#   From: 2010.05.17/outbox.cif.g08.bks.cpg/sg13_49_cif.got.tgz:97239.got - 2010.06.03 16:44:36.
