data_PCOD9237692
_publ_section_title
;
Structure prediction by ZEFSAII (Michael W. Deem and Ramdas Pophale) SiO2 
 PCOD9237692
Probable space group: P 2/C
;
_chemical_formula_sum "Si O2"
_cell_formula_units_Z 20
_cell_length_a 7.577658
_cell_length_b 12.811066
_cell_length_c 9.341542
_cell_angle_alpha 90.000000
_cell_angle_beta 92.995202
_cell_angle_gamma 90.000000
_cell_volume 905.618218
_symmetry_space_group_name_H-M "P 2/C"
_symmetry_group_IT_number 13
_symmetry_cell_setting 'monoclinic'
loop_
_space_group_symop_operation_xyz
x,y,z
-x,y,1/2-z
-x,-y,-z
x,-y,1/2+z
loop_
_atom_site_type_symbol
_atom_site_label
_atom_site_fract_x
_atom_site_fract_y
_atom_site_fract_z
Si Si1 0.864400 0.253454 0.359666
Si Si2 0.675126 0.924844 0.667732
Si Si3 0.110287 0.872166 0.389507
Si Si4 0.551380 0.603900 0.917674
Si Si5 0.505999 0.801562 0.419901
O O1 0.738855 0.173326 0.264849
O O2 0.976782 0.176876 0.472029
O O3 0.752298 0.350131 0.420757
O O4 0.000000 0.298357 0.250000
O O5 0.500000 0.964322 0.750000
O O6 0.614660 0.890160 0.506668
O O7 0.828501 0.010940 0.651444
O O8 0.301347 0.826462 0.435099
O O9 0.000000 0.832723 0.250000
O O10 0.500000 0.594272 0.750000
O O11 0.500000 0.500000 0.000000
O O12 0.448039 0.695683 0.996660
O O13 0.500000 0.791412 0.250000
#
# Coordination Sequence:
#
# PCOD9237692 Si02
#       5
#     4   4   4   4   4
#     4  11  25  45  68  99 147 185 224 292 361 411
#     4  12  22  44  65  94 140 192 243 283 334 417
#     4  11  26  39  61 103 142 190 233 279 342 413
#     4  11  22  46  75 103 129 176 238 293 359 425
#     4  11  23  41  66  99 134 181 238 291 341 417
#
# _framework density 22.084361999999999
#
# number of rings (size 3 to 8) (size 9 to 14) (size 15 to 20)
#    0.000    0.800    6.000    2.400    5.600    1.600 
#    0.000    1.000    0.000    2.400    0.000    0.000 
#    0.000    0.000    0.000    0.000    0.000    0.000 
#
# Total GULP energy -111398.423275 kJ/mol
# GULP energy per Si atom -5569.921164 kJ/mol
# Density = 2.203410 g / cm^3
# Si number density = 22.084362 Si / 1000 Ang^3
#
#
#
# Elastic Constant Matrix: (Units=GPa)
#
#
# Indices 1 2 3 4 5 6 
#
# 1 57.8378 28.5516 27.4853 0.0000 1.6929 0.0000
# 2 28.5516 119.8853 54.6773 0.0000 -5.6975 0.0000
# 3 27.4853 54.6773 205.4173 0.0000 11.1909 0.0000
# 4 0.0000 0.0000 0.0000 33.8072 0.0000 -69.4905
# 5 1.6929 -5.6975 11.1909 0.0000 44.6249 0.0000
# 6 0.0000 0.0000 0.0000 -69.4905 0.0000 418.8964
#
#
#
# Elastic Compliance Matrix: (Units=1/GPa)
#
#
# Indices 1 2 3 4 5 6 
#
# 1 0.020084 -0.004123 -0.001541 0.000000 -0.000902 0.000000
# 2 -0.004123 0.010497 -0.002356 0.000000 0.002087 0.000000
# 3 -0.001541 -0.002356 0.005794 0.000000 -0.001695 0.000000
# 4 0.000000 0.000000 0.000000 0.044884 0.000000 0.007446
# 5 -0.000902 0.002087 -0.001695 0.000000 0.023135 0.000000
# 6 0.000000 0.000000 0.000000 0.007446 0.000000 0.003622
#
#
# Mechanical properties :
#
#
# Convention : Reuss Voigt Hill
#
# Bulk Modulus (GPa) = 49.17733 67.17430 58.17582
# Shear Modulus (GPa) = 38.21624 117.62745 77.92184
#
# Velocity S-wave (km/s) = 4.16440 7.30605 5.94645
# Velocity P-wave (km/s) = 6.74086 10.08238 8.57594
#
# Compressibility (1/GPa) = 0.02033457
#
# Stress axis : x y z
#
# Youngs Moduli (GPa) = 49.79160 95.26465 172.59931
#
# Poissons Ratio (x) = 0.39281 0.26590
# Poissons Ratio (y) = 0.20531 0.40666
# Poissons Ratio (z) = 0.07671 0.22445
#
# Static dielectric constant tensor:
#      x y z
#    x 1.627270 0.000000 0.278660 
#    y 0.000000 1.830760 0.000000 
#    z 0.278660 0.000000 1.375490 
# 
# From -- ./inp_files/11866.got.cif
#   From: 2010.05.17/outbox.cif.g08.bks.cpg/sg13_6_cif.got.tgz:11866.got - 2010.06.03 16:44:36.
