data_PCOD9237108
_publ_section_title
;
Structure prediction by ZEFSAII (Michael W. Deem and Ramdas Pophale) SiO2 
 PCOD9237108
Probable space group: P 2/C
;
_chemical_formula_sum "Si O2"
_cell_formula_units_Z 24
_cell_length_a 13.026541
_cell_length_b 6.428350
_cell_length_c 24.685841
_cell_angle_alpha 90.000000
_cell_angle_beta 33.135343
_cell_angle_gamma 90.000000
_cell_volume 1129.954516
_symmetry_space_group_name_H-M "P 2/C"
_symmetry_group_IT_number 13
_symmetry_cell_setting 'monoclinic'
loop_
_space_group_symop_operation_xyz
x,y,z
-x,y,1/2-z
-x,-y,-z
x,-y,1/2+z
loop_
_atom_site_type_symbol
_atom_site_label
_atom_site_fract_x
_atom_site_fract_y
_atom_site_fract_z
Si Si1 0.000000 0.849208 0.250000
Si Si2 0.597309 0.923508 0.613933
Si Si3 0.788685 0.476409 0.074985
Si Si4 0.500000 0.237217 0.750000
Si Si5 0.789550 0.189527 0.268957
Si Si6 0.274783 0.515125 0.604487
Si Si7 0.849109 0.754315 0.946055
O O1 0.156392 0.699005 0.152991
O O2 0.115109 0.996377 0.240799
O O3 0.699493 0.748630 0.604796
O O4 0.422848 0.844912 0.655929
O O5 0.511097 0.093697 0.692671
O O6 0.751164 0.033036 0.507710
O O7 0.674611 0.609236 0.169051
O O8 0.780585 0.587201 0.020026
O O9 0.000000 0.500000 0.000000
O O10 0.783347 0.383852 0.312571
O O11 0.926370 0.228276 0.157559
O O12 0.500000 0.500000 0.500000
O O13 0.213547 0.675138 0.584896
#
# Coordination Sequence:
#
# PCOD9237108 Si02
#       7
#     2   4   4   2   4   4   4
#     4  12  24  44  68 100 144 190 224 292 336 408
#     4  11  27  45  72 101 139 183 231 299 348 422
#     4  11  27  46  75 102 138 183 233 295 356 419
#     4  10  26  48  68 106 132 180 234 286 362 414
#     4  12  26  44  70 105 139 185 237 281 355 417
#     4  12  25  45  70 102 147 183 236 286 344 420
#     4  11  25  44  66 109 135 182 240 278 358 415
#
# _framework density 21.239792000000001
#
# number of rings (size 3 to 8) (size 9 to 14) (size 15 to 20)
#    0.000    0.667    3.333    2.500   11.667    4.000 
#    0.000    0.000    0.000    0.000    0.000    0.000 
#    0.000    0.000    0.000    0.000    0.000    0.000 
#
# Total GULP energy -134189.928439 kJ/mol
# GULP energy per Si atom -5591.247018 kJ/mol
# Density = 2.119145 g / cm^3
# Si number density = 21.239792 Si / 1000 Ang^3
#
#
#
# Elastic Constant Matrix: (Units=GPa)
#
#
# Indices 1 2 3 4 5 6 
#
# 1 57.6254 19.2334 20.5922 0.0000 -23.4233 0.0000
# 2 19.2334 98.4155 46.3275 0.0000 -12.0828 0.0000
# 3 20.5922 46.3275 139.7585 0.0000 -15.3232 0.0000
# 4 0.0000 0.0000 0.0000 43.3860 0.0000 0.4566
# 5 -23.4233 -12.0828 -15.3232 0.0000 38.9208 0.0000
# 6 0.0000 0.0000 0.0000 0.4566 0.0000 14.1605
#
#
#
# Elastic Compliance Matrix: (Units=1/GPa)
#
#
# Indices 1 2 3 4 5 6 
#
# 1 0.023985 -0.002473 -0.001271 0.000000 0.013167 0.000000
# 2 -0.002473 0.012489 -0.003672 0.000000 0.000943 0.000000
# 3 -0.001271 -0.003672 0.008728 0.000000 0.001531 0.000000
# 4 0.000000 0.000000 0.000000 0.023057 0.000000 -0.000743
# 5 0.013167 0.000943 0.001531 0.000000 0.034513 0.000000
# 6 0.000000 0.000000 0.000000 -0.000743 0.000000 0.070643
#
#
# Mechanical properties :
#
#
# Convention : Reuss Voigt Hill
#
# Bulk Modulus (GPa) = 32.92717 52.01172 42.46944
# Shear Modulus (GPa) = 25.20574 33.26989 29.23782
#
# Velocity S-wave (km/s) = 3.44862 3.96206 3.71423
# Velocity P-wave (km/s) = 5.60300 6.74327 6.19940
#
# Compressibility (1/GPa) = 0.03037006
#
# Stress axis : x y z
#
# Youngs Moduli (GPa) = 41.69320 80.07316 114.58001
#
# Poissons Ratio (x) = 0.19800 0.14560
# Poissons Ratio (y) = 0.10309 0.42074
# Poissons Ratio (z) = 0.05298 0.29403
#
# Static dielectric constant tensor:
#      x y z
#    x 1.519810 0.000000 0.110470 
#    y 0.000000 1.776910 0.000000 
#    z 0.110470 0.000000 1.703400 
# 
# From -- ./inp_files/92625.got.cif
#   From: 2010.05.17/outbox.cif.g08.bks.cpg/sg13_47_cif.got.tgz:92625.got - 2010.06.03 16:44:36.
