data_PCOD9237073
_publ_section_title
;
Structure prediction by ZEFSAII (Michael W. Deem and Ramdas Pophale) SiO2 
 PCOD9237073
Probable space group: P 2/C
;
_chemical_formula_sum "Si O2"
_cell_formula_units_Z 20
_cell_length_a 8.680581
_cell_length_b 5.071243
_cell_length_c 19.382492
_cell_angle_alpha 90.000000
_cell_angle_beta 85.672553
_cell_angle_gamma 90.000000
_cell_volume 850.810676
_symmetry_space_group_name_H-M "P 2/C"
_symmetry_group_IT_number 13
_symmetry_cell_setting 'monoclinic'
loop_
_space_group_symop_operation_xyz
x,y,z
-x,y,1/2-z
-x,-y,-z
x,-y,1/2+z
loop_
_atom_site_type_symbol
_atom_site_label
_atom_site_fract_x
_atom_site_fract_y
_atom_site_fract_z
Si Si1 0.186768 0.206391 0.067275
Si Si2 0.623640 0.434771 0.555148
Si Si3 0.162191 0.308542 0.782694
Si Si4 0.160657 0.185999 0.377443
Si Si5 0.666881 0.707297 0.361070
O O1 0.247222 0.448286 0.112242
O O2 0.002690 0.195461 0.077764
O O3 0.261719 0.948309 0.098303
O O4 0.249419 0.258987 0.988263
O O5 0.500000 0.500000 0.500000
O O6 0.704645 0.698411 0.579430
O O7 0.514976 0.313177 0.617638
O O8 0.155153 0.599203 0.815371
O O9 0.292101 0.274084 0.720391
O O10 0.000000 0.254114 0.750000
O O11 0.180082 0.097669 0.842788
#
# Coordination Sequence:
#
# PCOD9237073 Si02
#       5
#     4   4   4   4   4
#     4  11  21  42  70  98 133 177 229 282 338 411
#     4  10  26  46  65  99 142 181 226 283 347 413
#     4  12  23  43  71 102 138 173 237 289 342 414
#     4  12  24  42  73 103 130 184 233 284 347 412
#     4  11  23  42  68  97 138 181 217 285 351 403
#
# _framework density 23.506990999999999
#
# number of rings (size 3 to 8) (size 9 to 14) (size 15 to 20)
#    0.000    0.800    4.000    3.000    0.000    7.200 
#    0.000    9.000    0.000    0.000    0.000    0.000 
#    0.000    0.000    0.000    0.000    0.000    0.000 
#
# Total GULP energy -112153.304342 kJ/mol
# GULP energy per Si atom -5607.665217 kJ/mol
# Density = 2.345349 g / cm^3
# Si number density = 23.506991 Si / 1000 Ang^3
#
#
#
# Elastic Constant Matrix: (Units=GPa)
#
#
# Indices 1 2 3 4 5 6 
#
# 1 225.4713 -3.5387 60.8184 0.0000 -38.1472 0.0000
# 2 -3.5387 90.4674 -1.0217 0.0000 6.7678 0.0000
# 3 60.8184 -1.0217 124.7172 0.0000 -34.6093 0.0000
# 4 0.0000 0.0000 0.0000 48.5600 0.0000 7.7643
# 5 -38.1472 6.7678 -34.6093 0.0000 68.7689 0.0000
# 6 0.0000 0.0000 0.0000 7.7643 0.0000 37.1276
#
#
#
# Elastic Compliance Matrix: (Units=1/GPa)
#
#
# Indices 1 2 3 4 5 6 
#
# 1 0.005315 0.000042 -0.002062 0.000000 0.001906 0.000000
# 2 0.000042 0.011143 -0.000264 0.000000 -0.001206 0.000000
# 3 -0.002062 -0.000264 0.010126 0.000000 0.003978 0.000000
# 4 0.000000 0.000000 0.000000 0.021305 0.000000 -0.004455
# 5 0.001906 -0.001206 0.003978 0.000000 0.017719 0.000000
# 6 0.000000 0.000000 0.000000 -0.004455 0.000000 0.027866
#
#
# Mechanical properties :
#
#
# Convention : Reuss Voigt Hill
#
# Bulk Modulus (GPa) = 45.42529 61.46355 53.44442
# Shear Modulus (GPa) = 47.44729 56.51783 51.98256
#
# Velocity S-wave (km/s) = 4.49757 4.90868 4.70762
# Velocity P-wave (km/s) = 6.80713 7.63745 7.23421
#
# Compressibility (1/GPa) = 0.02201417
#
# Stress axis : x y z
#
# Youngs Moduli (GPa) = 188.16094 89.74570 98.76001
#
# Poissons Ratio (x) = -0.00377 0.20368
# Poissons Ratio (y) = -0.00790 0.02606
# Poissons Ratio (z) = 0.38806 0.02368
#
# Static dielectric constant tensor:
#      x y z
#    x 1.865490 0.000000 -0.013460 
#    y 0.000000 1.810720 0.000000 
#    z -0.013460 0.000000 1.876370 
# 
# From -- ./inp_files/62383.got.cif
#   From: 2010.05.17/outbox.cif.g08.bks.cpg/sg13_32_cif.got.tgz:62383.got - 2010.06.03 16:44:36.
