data_PCOD9237065
_publ_section_title
;
Structure prediction by ZEFSAII (Michael W. Deem and Ramdas Pophale) SiO2 
 PCOD9237065
Probable space group: P 2/C
;
_chemical_formula_sum "Si O2"
_cell_formula_units_Z 20
_cell_length_a 10.858884
_cell_length_b 4.975177
_cell_length_c 15.835549
_cell_angle_alpha 90.000000
_cell_angle_beta 111.996346
_cell_angle_gamma 90.000000
_cell_volume 793.238718
_symmetry_space_group_name_H-M "P 2/C"
_symmetry_group_IT_number 13
_symmetry_cell_setting 'monoclinic'
loop_
_space_group_symop_operation_xyz
x,y,z
-x,y,1/2-z
-x,-y,-z
x,-y,1/2+z
loop_
_atom_site_type_symbol
_atom_site_label
_atom_site_fract_x
_atom_site_fract_y
_atom_site_fract_z
Si Si1 0.292238 0.065449 0.474942
Si Si2 0.006285 0.064114 0.149414
Si Si3 0.415384 0.273162 0.148449
Si Si4 0.651215 0.428775 0.614720
Si Si5 0.824553 0.567446 0.323899
O O1 0.355166 0.964181 0.577267
O O2 0.135893 0.004296 0.427210
O O3 0.053154 0.637171 0.640188
O O4 0.311539 0.371366 0.451808
O O5 0.118900 0.861521 0.145511
O O6 0.000000 0.035171 0.250000
O O7 0.500000 0.166088 0.250000
O O8 0.233609 0.558478 0.285982
O O9 0.520138 0.452053 0.123471
O O10 0.294649 0.457801 0.149824
O O11 0.640239 0.126901 0.578664
#
# Coordination Sequence:
#
# PCOD9237065 Si02
#       5
#     4   4   4   4   4
#     4  12  24  41  70  96 126 173 214 261 314 381
#     4  12  22  40  69  97 130 163 217 260 316 385
#     4  10  26  45  65  95 133 168 215 267 321 372
#     4  11  22  43  68  95 128 169 217 259 313 383
#     4  11  23  42  66  97 131 169 204 269 322 371
#
# _framework density 25.213090999999999
#
# number of rings (size 3 to 8) (size 9 to 14) (size 15 to 20)
#    0.000    0.800    4.000    3.000    0.000    4.800 
#    0.000    9.000    0.000    0.000    0.000    0.000 
#    0.000    0.000    0.000    0.000    0.000    0.000 
#
# Total GULP energy -112342.896680 kJ/mol
# GULP energy per Si atom -5617.144834 kJ/mol
# Density = 2.515570 g / cm^3
# Si number density = 25.213091 Si / 1000 Ang^3
#
#
#
# Elastic Constant Matrix: (Units=GPa)
#
#
# Indices 1 2 3 4 5 6 
#
# 1 118.6085 1.5767 52.0027 0.0000 13.7392 0.0000
# 2 1.5767 79.6401 7.3535 0.0000 3.7235 0.0000
# 3 52.0027 7.3535 90.7148 0.0000 20.3668 0.0000
# 4 0.0000 0.0000 0.0000 16.4687 0.0000 1.2623
# 5 13.7392 3.7235 20.3668 0.0000 38.2041 0.0000
# 6 0.0000 0.0000 0.0000 1.2623 0.0000 44.7380
#
#
#
# Elastic Compliance Matrix: (Units=1/GPa)
#
#
# Indices 1 2 3 4 5 6 
#
# 1 0.011290 0.000396 -0.006343 0.000000 -0.000717 0.000000
# 2 0.000396 0.012686 -0.001074 0.000000 -0.000806 0.000000
# 3 -0.006343 -0.001074 0.016143 0.000000 -0.006220 0.000000
# 4 0.000000 0.000000 0.000000 0.060853 0.000000 -0.001717
# 5 -0.000717 -0.000806 -0.006220 0.000000 0.029828 0.000000
# 6 0.000000 0.000000 0.000000 -0.001717 0.000000 0.022401
#
#
# Mechanical properties :
#
#
# Convention : Reuss Voigt Hill
#
# Bulk Modulus (GPa) = 38.34983 45.64771 41.99877
# Shear Modulus (GPa) = 28.41951 35.08417 31.75184
#
# Velocity S-wave (km/s) = 3.36098 3.73434 3.55257
# Velocity P-wave (km/s) = 5.50499 6.06117 5.78976
#
# Compressibility (1/GPa) = 0.02607573
#
# Stress axis : x y z
#
# Youngs Moduli (GPa) = 88.57408 78.82999 61.94491
#
# Poissons Ratio (x) = -0.03119 0.39292
# Poissons Ratio (y) = -0.03505 0.06654
# Poissons Ratio (z) = 0.56183 0.08468
#
# Static dielectric constant tensor:
#      x y z
#    x 1.949460 0.000000 -0.025180 
#    y 0.000000 1.895100 0.000000 
#    z -0.025180 0.000000 2.003810 
# 
# From -- ./inp_files/48819.got.cif
#   From: 2010.05.17/outbox.cif.g08.bks.cpg/sg13_25_cif.got.tgz:48819.got - 2010.06.03 16:44:36.
