data_PCOD9237112
_publ_section_title
;
Structure prediction by ZEFSAII (Michael W. Deem and Ramdas Pophale) SiO2 
 PCOD9237112
Probable space group: P 2/C
;
_chemical_formula_sum "Si O2"
_cell_formula_units_Z 20
_cell_length_a 11.435155
_cell_length_b 8.509448
_cell_length_c 11.049017
_cell_angle_alpha 90.000000
_cell_angle_beta 65.277285
_cell_angle_gamma 90.000000
_cell_volume 976.599940
_symmetry_space_group_name_H-M "P 2/C"
_symmetry_group_IT_number 13
_symmetry_cell_setting 'monoclinic'
loop_
_space_group_symop_operation_xyz
x,y,z
-x,y,1/2-z
-x,-y,-z
x,-y,1/2+z
loop_
_atom_site_type_symbol
_atom_site_label
_atom_site_fract_x
_atom_site_fract_y
_atom_site_fract_z
Si Si1 0.351994 0.455352 0.522219
Si Si2 0.000000 0.969780 0.750000
Si Si3 0.811979 0.750741 0.961627
Si Si4 0.500000 0.332483 0.250000
Si Si5 0.770599 0.189881 0.750787
Si Si6 0.387729 0.080594 0.119515
O O1 0.500000 0.500000 0.500000
O O2 0.239104 0.586593 0.573982
O O3 0.384984 0.422807 0.366959
O O4 0.296411 0.308877 0.624297
O O5 0.891523 0.090378 0.749083
O O6 0.943345 0.844499 0.872368
O O7 0.710403 0.866879 0.941757
O O8 0.803755 0.732184 0.109015
O O9 0.436370 0.224943 0.175804
O O10 0.670587 0.049962 0.767310
O O11 0.500000 0.000000 0.000000
#
# Coordination Sequence:
#
# PCOD9237112 Si02
#       6
#     4   2   4   2   4   4
#     4  12  24  42  67 106 138 174 207 271 352 402
#     4  10  26  48  68  98 120 184 238 272 326 374
#     4  11  24  44  66  93 136 171 224 276 326 392
#     4  12  22  38  64 102 142 164 222 260 338 414
#     4  11  24  44  69  95 134 174 227 274 324 393
#     4  11  21  38  65  98 131 176 217 268 330 391
#
# _framework density 20.479216000000001
#
# number of rings (size 3 to 8) (size 9 to 14) (size 15 to 20)
#    0.000    0.800    4.000    3.000    2.800    2.400 
#    0.000    2.000    0.000    0.000    0.000    0.000 
#    0.000    0.000    0.000    0.000    0.000    0.000 
#
# Total GULP energy -111340.203939 kJ/mol
# GULP energy per Si atom -5567.010197 kJ/mol
# Density = 2.043260 g / cm^3
# Si number density = 20.479216 Si / 1000 Ang^3
#
#
#
# Elastic Constant Matrix: (Units=GPa)
#
#
# Indices 1 2 3 4 5 6 
#
# 1 51.6407 30.5982 30.3045 0.0000 -5.1102 0.0000
# 2 30.5982 113.4280 43.8313 0.0000 -10.2146 0.0000
# 3 30.3045 43.8313 108.6292 0.0000 2.0078 0.0000
# 4 0.0000 0.0000 0.0000 43.8373 0.0000 -8.1767
# 5 -5.1102 -10.2146 2.0078 0.0000 24.7390 0.0000
# 6 0.0000 0.0000 0.0000 -8.1767 0.0000 40.3945
#
#
#
# Elastic Compliance Matrix: (Units=1/GPa)
#
#
# Indices 1 2 3 4 5 6 
#
# 1 0.025561 -0.004458 -0.005404 0.000000 0.003878 0.000000
# 2 -0.004458 0.011788 -0.003591 0.000000 0.004238 0.000000
# 3 -0.005404 -0.003591 0.012228 0.000000 -0.003591 0.000000
# 4 0.000000 0.000000 0.000000 0.023707 0.000000 0.004799
# 5 0.003878 0.004238 -0.003591 0.000000 0.043264 0.000000
# 6 0.000000 0.000000 0.000000 0.004799 0.000000 0.025727
#
#
# Mechanical properties :
#
#
# Convention : Reuss Voigt Hill
#
# Bulk Modulus (GPa) = 44.10744 53.68511 48.89627
# Shear Modulus (GPa) = 28.29041 33.05841 30.67441
#
# Velocity S-wave (km/s) = 3.72078 4.02212 3.87438
# Velocity P-wave (km/s) = 6.32798 6.91674 6.62890
#
# Compressibility (1/GPa) = 0.02267191
#
# Stress axis : x y z
#
# Youngs Moduli (GPa) = 39.12239 84.83162 81.77630
#
# Poissons Ratio (x) = 0.37817 0.44189
# Poissons Ratio (y) = 0.17440 0.29367
# Poissons Ratio (z) = 0.21140 0.30464
#
# Static dielectric constant tensor:
#      x y z
#    x 1.755030 0.000000 -0.026550 
#    y 0.000000 1.750100 0.000000 
#    z -0.026550 0.000000 1.816180 
# 
# From -- ./inp_files/23979.got.cif
#   From: 2010.05.17/outbox.cif.g08.bks.cpg/sg13_12_cif.got.tgz:23979.got - 2010.06.03 16:44:36.
