data_PCOD9237063
_publ_section_title
;
Structure prediction by ZEFSAII (Michael W. Deem and Ramdas Pophale) SiO2 
 PCOD9237063
Probable space group: P 2/C
;
_chemical_formula_sum "Si O2"
_cell_formula_units_Z 26
_cell_length_a 27.873097
_cell_length_b 5.888841
_cell_length_c 19.175404
_cell_angle_alpha 90.000000
_cell_angle_beta 20.285630
_cell_angle_gamma 90.000000
_cell_volume 1091.224073
_symmetry_space_group_name_H-M "P 2/C"
_symmetry_group_IT_number 13
_symmetry_cell_setting 'monoclinic'
loop_
_space_group_symop_operation_xyz
x,y,z
-x,y,1/2-z
-x,-y,-z
x,-y,1/2+z
loop_
_atom_site_type_symbol
_atom_site_label
_atom_site_fract_x
_atom_site_fract_y
_atom_site_fract_z
Si Si1 0.198500 0.346753 0.834987
Si Si2 0.500000 0.073018 0.750000
Si Si3 0.057212 0.242859 0.899273
Si Si4 0.659106 0.241949 0.128083
Si Si5 0.363629 0.096381 0.720298
Si Si6 0.948580 0.601400 0.241285
Si Si7 0.550648 0.598255 0.052157
O O1 0.191453 0.261935 0.765164
O O2 0.260531 0.159924 0.800664
O O3 0.305175 0.559526 0.684413
O O4 0.052941 0.410164 0.070027
O O5 0.445296 0.232335 0.887727
O O6 0.373167 0.922316 0.892998
O O7 0.043827 0.224493 0.834122
O O8 0.000000 0.500000 0.000000
O O9 0.000000 0.000000 0.000000
O O10 0.510413 0.357759 0.340952
O O11 0.694343 0.077074 0.144201
O O12 0.781840 0.428964 0.962163
O O13 0.427747 0.314662 0.670403
O O14 0.500000 0.000000 0.500000
O O15 0.000000 0.653974 0.250000
#
# Coordination Sequence:
#
# PCOD9237063 Si02
#       7
#     4   2   4   4   4   4   4
#     4  11  25  48  77 108 152 206 261 329 394 485
#     4  10  26  44  74 114 146 190 260 330 388 476
#     4  10  26  50  73 108 154 211 266 326 404 485
#     4  11  25  46  72 107 150 203 248 322 398 467
#     4  11  24  42  75 111 143 194 261 317 385 479
#     4  11  27  48  74 109 156 205 261 329 403 475
#     4  11  24  46  76 106 151 195 255 317 394 466
#
# _framework density 23.826456
#
# number of rings (size 3 to 8) (size 9 to 14) (size 15 to 20)
#    0.000    1.231    1.538    1.846    8.615    3.692 
#   13.846    0.000    0.000    0.000    0.000    0.000 
#    0.000    0.000    0.000    0.000    0.000    0.000 
#
# Total GULP energy -144810.383819 kJ/mol
# GULP energy per Si atom -5569.630147 kJ/mol
# Density = 2.377223 g / cm^3
# Si number density = 23.826456 Si / 1000 Ang^3
#
#
#
# Elastic Constant Matrix: (Units=GPa)
#
#
# Indices 1 2 3 4 5 6 
#
# 1 185.8203 37.5593 32.5790 0.0000 3.3232 0.0000
# 2 37.5593 72.2599 33.7199 0.0000 -0.3574 0.0000
# 3 32.5790 33.7199 106.4139 0.0000 -12.4941 0.0000
# 4 0.0000 0.0000 0.0000 21.7701 0.0000 -1.3790
# 5 3.3232 -0.3574 -12.4941 0.0000 36.3328 0.0000
# 6 0.0000 0.0000 0.0000 -1.3790 0.0000 36.8254
#
#
#
# Elastic Compliance Matrix: (Units=1/GPa)
#
#
# Indices 1 2 3 4 5 6 
#
# 1 0.006138 -0.002658 -0.001153 0.000000 -0.000984 0.000000
# 2 -0.002658 0.017490 -0.004877 0.000000 -0.001262 0.000000
# 3 -0.001153 -0.004877 0.011778 0.000000 0.004108 0.000000
# 4 0.000000 0.000000 0.000000 0.046044 0.000000 0.001724
# 5 -0.000984 -0.001262 0.004108 0.000000 0.029013 0.000000
# 6 0.000000 0.000000 0.000000 0.001724 0.000000 0.027220
#
#
# Mechanical properties :
#
#
# Convention : Reuss Voigt Hill
#
# Bulk Modulus (GPa) = 55.45666 63.57894 59.51780
# Shear Modulus (GPa) = 31.04295 36.36139 33.70217
#
# Velocity S-wave (km/s) = 3.61346 3.91076 3.76504
# Velocity P-wave (km/s) = 6.38241 6.86543 6.62832
#
# Compressibility (1/GPa) = 0.01803210
#
# Stress axis : x y z
#
# Youngs Moduli (GPa) = 162.90856 57.17653 84.90626
#
# Poissons Ratio (x) = 0.15195 0.09787
# Poissons Ratio (y) = 0.43294 0.41405
# Poissons Ratio (z) = 0.18779 0.27882
#
# Static dielectric constant tensor:
#      x y z
#    x 1.747250 0.000000 -0.086690 
#    y 0.000000 1.690530 0.000000 
#    z -0.086690 0.000000 1.946380 
# 
# From -- ./inp_files/82661.got.cif
#   From: 2010.05.17/outbox.cif.g08.bks.cpg/sg13_42_cif.got.tgz:82661.got - 2010.06.03 16:44:36.
