data_PCOD9237709
_publ_section_title
;
Structure prediction by ZEFSAII (Michael W. Deem and Ramdas Pophale) SiO2 
 PCOD9237709
Probable space group: P 2/C
;
_chemical_formula_sum "Si O2"
_cell_formula_units_Z 16
_cell_length_a 15.383476
_cell_length_b 7.680714
_cell_length_c 20.366328
_cell_angle_alpha 90.000000
_cell_angle_beta 19.343356
_cell_angle_gamma 90.000000
_cell_volume 797.070019
_symmetry_space_group_name_H-M "P 2/C"
_symmetry_group_IT_number 13
_symmetry_cell_setting 'monoclinic'
loop_
_space_group_symop_operation_xyz
x,y,z
-x,y,1/2-z
-x,-y,-z
x,-y,1/2+z
loop_
_atom_site_type_symbol
_atom_site_label
_atom_site_fract_x
_atom_site_fract_y
_atom_site_fract_z
Si Si1 0.227418 0.633619 0.141199
Si Si2 0.722305 0.203769 0.239406
Si Si3 0.309755 0.592827 0.226030
Si Si4 0.726197 0.891957 0.140754
O O1 0.151741 0.628909 0.271414
O O2 0.000000 0.652007 0.250000
O O3 0.447715 0.783409 0.973397
O O4 0.391190 0.455093 0.010103
O O5 0.770593 0.405883 0.186827
O O6 0.701719 0.080676 0.191289
O O7 0.977067 0.135560 0.096653
O O8 0.302584 0.751181 0.280499
O O9 0.500000 0.863804 0.250000
#
# Coordination Sequence:
#
# PCOD9237709 Si02
#       4
#     4   4   4   4
#     4   9  20  39  63  87 117 157 194 244 305 342
#     4   9  22  40  54  89 122 144 205 245 280 366
#     4   9  21  39  60  86 120 149 202 244 286 358
#     4  11  23  37  61  89 117 163 195 238 302 347
#
# _framework density 20.073518
#
# number of rings (size 3 to 8) (size 9 to 14) (size 15 to 20)
#    1.500    1.000    0.000    0.750    3.500    6.000 
#    0.000    1.250    0.000    0.000    0.000    0.000 
#    0.000    0.000    0.000    0.000    0.000    0.000 
#
# Total GULP energy -89082.434406 kJ/mol
# GULP energy per Si atom -5567.652150 kJ/mol
# Density = 2.002783 g / cm^3
# Si number density = 20.073518 Si / 1000 Ang^3
#
#
#
# Elastic Constant Matrix: (Units=GPa)
#
#
# Indices 1 2 3 4 5 6 
#
# 1 161.4376 69.2884 55.4610 0.0000 -34.1129 0.0000
# 2 69.2884 112.1660 29.7675 0.0000 7.4141 0.0000
# 3 55.4610 29.7675 63.1037 0.0000 -20.6020 0.0000
# 4 0.0000 0.0000 0.0000 20.6745 0.0000 1.4841
# 5 -34.1129 7.4141 -20.6020 0.0000 29.9866 0.0000
# 6 0.0000 0.0000 0.0000 1.4841 0.0000 17.4351
#
#
#
# Elastic Compliance Matrix: (Units=1/GPa)
#
#
# Indices 1 2 3 4 5 6 
#
# 1 0.015058 -0.009671 -0.002964 0.000000 0.017485 0.000000
# 2 -0.009671 0.017906 -0.006426 0.000000 -0.019844 0.000000
# 3 -0.002964 -0.006426 0.026945 0.000000 0.016729 0.000000
# 4 0.000000 0.000000 0.000000 0.048666 0.000000 -0.004143
# 5 0.017485 -0.019844 0.016729 0.000000 0.069639 0.000000
# 6 0.000000 0.000000 0.000000 -0.004143 0.000000 0.057708
#
#
# Mechanical properties :
#
#
# Convention : Reuss Voigt Hill
#
# Bulk Modulus (GPa) = 45.89672 71.74902 58.82287
# Shear Modulus (GPa) = 17.77422 25.76527 21.76975
#
# Velocity S-wave (km/s) = 2.97889 3.58655 3.29675
# Velocity P-wave (km/s) = 5.89455 7.27817 6.62259
#
# Compressibility (1/GPa) = 0.02178805
#
# Stress axis : x y z
#
# Youngs Moduli (GPa) = 66.41025 55.84596 37.11300
#
# Poissons Ratio (x) = 0.54008 0.10999
# Poissons Ratio (y) = 0.64225 0.23848
# Poissons Ratio (z) = 0.19682 0.35886
#
# Static dielectric constant tensor:
#      x y z
#    x 1.680500 0.000000 0.038480 
#    y 0.000000 1.704320 0.000000 
#    z 0.038480 0.000000 1.823440 
# 
# From -- ./inp_files/27442.got.cif
#   From: 2010.05.17/outbox.cif.g08.bks.cpg/sg13_14_cif.got.tgz:27442.got - 2010.06.03 16:44:36.
