data_PCOD9237399
_publ_section_title
;
Structure prediction by ZEFSAII (Michael W. Deem and Ramdas Pophale) SiO2 
 PCOD9237399
Probable space group: P 2/C
;
_chemical_formula_sum "Si O2"
_cell_formula_units_Z 24
_cell_length_a 11.238795
_cell_length_b 15.250986
_cell_length_c 14.445925
_cell_angle_alpha 90.000000
_cell_angle_beta 149.818212
_cell_angle_gamma 90.000000
_cell_volume 1244.832630
_symmetry_space_group_name_H-M "P 2/C"
_symmetry_group_IT_number 13
_symmetry_cell_setting 'monoclinic'
loop_
_space_group_symop_operation_xyz
x,y,z
-x,y,1/2-z
-x,-y,-z
x,-y,1/2+z
loop_
_atom_site_type_symbol
_atom_site_label
_atom_site_fract_x
_atom_site_fract_y
_atom_site_fract_z
Si Si1 0.853733 0.657085 0.817745
Si Si2 0.500000 0.942403 0.250000
Si Si3 0.777376 0.598535 0.962305
Si Si4 0.954121 0.167819 0.110474
Si Si5 0.574327 0.934255 0.630366
Si Si6 0.598351 0.236879 0.418542
Si Si7 0.000000 0.460394 0.250000
O O1 0.901115 0.604678 0.945054
O O2 0.601514 0.705623 0.663112
O O3 0.038731 0.736283 0.930523
O O4 0.857345 0.599522 0.727326
O O5 0.712304 0.882674 0.429973
O O6 0.407405 0.006046 0.267427
O O7 0.500000 0.588415 0.750000
O O8 0.801629 0.693251 0.030069
O O9 0.851149 0.523155 0.081959
O O10 0.000000 0.179369 0.250000
O O11 0.175650 0.112114 0.221072
O O12 0.383943 0.855176 0.517054
O O13 0.500000 0.000000 0.500000
O O14 0.500000 0.212707 0.250000
#
# Coordination Sequence:
#
# PCOD9237399 Si02
#       7
#     4   2   4   4   4   4   2
#     4   9  20  38  61  82 122 157 185 254 302 349
#     4  12  24  40  64  94 120 162 208 252 296 364
#     4   9  21  40  58  86 114 154 200 241 294 365
#     4  11  22  42  60  89 125 159 203 248 310 358
#     4  11  21  38  64  89 123 162 201 252 303 360
#     4   8  17  37  60  78 117 157 189 240 304 345
#     4  12  20  36  62  88 116 154 196 246 302 356
#
# _framework density 19.279699999999998
#
# number of rings (size 3 to 8) (size 9 to 14) (size 15 to 20)
#    0.000    2.333    3.333    1.000    0.000    2.667 
#    4.500    0.000    0.000    0.000    0.000    0.000 
#    0.000    0.000    0.000    0.000    0.000    0.000 
#
# Total GULP energy -133744.154215 kJ/mol
# GULP energy per Si atom -5572.673092 kJ/mol
# Density = 1.923582 g / cm^3
# Si number density = 19.279700 Si / 1000 Ang^3
#
#
#
# Elastic Constant Matrix: (Units=GPa)
#
#
# Indices 1 2 3 4 5 6 
#
# 1 133.3635 66.0995 31.0742 0.0000 -22.0984 0.0000
# 2 66.0995 129.9303 35.8167 0.0000 -19.7904 0.0000
# 3 31.0742 35.8167 53.4298 0.0000 -11.0382 0.0000
# 4 0.0000 0.0000 0.0000 37.2941 0.0000 -25.5366
# 5 -22.0984 -19.7904 -11.0382 0.0000 19.7593 0.0000
# 6 0.0000 0.0000 0.0000 -25.5366 0.0000 46.5965
#
#
#
# Elastic Compliance Matrix: (Units=1/GPa)
#
#
# Indices 1 2 3 4 5 6 
#
# 1 0.011208 -0.003941 -0.002377 0.000000 0.007260 0.000000
# 2 -0.003941 0.011680 -0.004558 0.000000 0.004745 0.000000
# 3 -0.002377 -0.004558 0.024488 0.000000 0.006456 0.000000
# 4 0.000000 0.000000 0.000000 0.042920 0.000000 0.023522
# 5 0.007260 0.004745 0.006456 0.000000 0.067088 0.000000
# 6 0.000000 0.000000 0.000000 0.023522 0.000000 0.034352
#
#
# Mechanical properties :
#
#
# Convention : Reuss Voigt Hill
#
# Bulk Modulus (GPa) = 39.02376 64.74494 51.88435
# Shear Modulus (GPa) = 22.51952 32.97886 27.74919
#
# Velocity S-wave (km/s) = 3.42137 4.14036 3.79792
# Velocity P-wave (km/s) = 5.99104 7.51742 6.79721
#
# Compressibility (1/GPa) = 0.02562541
#
# Stress axis : x y z
#
# Youngs Moduli (GPa) = 89.21813 85.61288 40.83698
#
# Poissons Ratio (x) = 0.33740 0.09707
# Poissons Ratio (y) = 0.35161 0.18612
# Poissons Ratio (z) = 0.21207 0.39019
#
# Static dielectric constant tensor:
#      x y z
#    x 1.713440 0.000000 -0.002430 
#    y 0.000000 1.705170 0.000000 
#    z -0.002430 0.000000 1.649140 
# 
# From -- ./inp_files/51536.got.cif
#   From: 2010.05.17/outbox.cif.g08.bks.cpg/sg13_26_cif.got.tgz:51536.got - 2010.06.03 16:44:36.
