data_PCOD9237947
_publ_section_title
;
Structure prediction by ZEFSAII (Michael W. Deem and Ramdas Pophale) SiO2 
 PCOD9237947
Probable space group: P 2/C
;
_chemical_formula_sum "Si O2"
_cell_formula_units_Z 20
_cell_length_a 16.731981
_cell_length_b 5.254555
_cell_length_c 29.122350
_cell_angle_alpha 90.000000
_cell_angle_beta 163.058492
_cell_angle_gamma 90.000000
_cell_volume 746.091750
_symmetry_space_group_name_H-M "P 2/C"
_symmetry_group_IT_number 13
_symmetry_cell_setting 'monoclinic'
loop_
_space_group_symop_operation_xyz
x,y,z
-x,y,1/2-z
-x,-y,-z
x,-y,1/2+z
loop_
_atom_site_type_symbol
_atom_site_label
_atom_site_fract_x
_atom_site_fract_y
_atom_site_fract_z
Si Si1 0.059462 0.012176 0.346987
Si Si2 0.247681 0.525031 0.077769
Si Si3 0.958654 0.964033 0.398012
Si Si4 0.519853 0.368943 0.891206
Si Si5 0.523254 0.701306 0.553667
O O1 0.235300 0.270687 0.442073
O O2 0.236503 0.814941 0.414852
O O3 0.745094 0.079719 0.163171
O O4 0.063241 0.949402 0.402983
O O5 0.500000 0.573490 0.250000
O O6 0.097327 0.259081 0.004027
O O7 0.370904 0.504149 0.094392
O O8 0.037969 0.762158 0.961194
O O9 0.647780 0.874349 0.219577
O O10 0.352688 0.553573 0.833097
O O11 0.500000 0.500000 0.500000
#
# Coordination Sequence:
#
# PCOD9237947 Si02
#       5
#     4   4   4   4   4
#     4  11  25  52  80 115 161 215 270 340 419 497
#     4  11  25  43  74 118 163 214 274 342 413 492
#     4  11  23  45  76 111 160 215 270 335 413 492
#     4  11  24  47  77 108 162 213 272 337 415 490
#     4  12  28  53  82 119 162 217 278 349 416 503
#
# _framework density 26.806356000000001
#
# number of rings (size 3 to 8) (size 9 to 14) (size 15 to 20)
#    0.000    0.800    4.000    3.000    0.000    3.200 
#    7.200    1.000    0.000    0.000    0.000    0.000 
#    0.000    0.000    0.000    0.000    0.000    0.000 
#
# Total GULP energy -112139.569482 kJ/mol
# GULP energy per Si atom -5606.978474 kJ/mol
# Density = 2.674534 g / cm^3
# Si number density = 26.806356 Si / 1000 Ang^3
#
#
#
# Elastic Constant Matrix: (Units=GPa)
#
#
# Indices 1 2 3 4 5 6 
#
# 1 112.2724 34.6758 23.8764 0.0000 -8.8556 0.0000
# 2 34.6758 130.1768 44.0714 0.0000 -2.7608 0.0000
# 3 23.8764 44.0714 143.7080 0.0000 9.7901 0.0000
# 4 0.0000 0.0000 0.0000 54.6902 0.0000 7.8072
# 5 -8.8556 -2.7608 9.7901 0.0000 43.2391 0.0000
# 6 0.0000 0.0000 0.0000 7.8072 0.0000 14.6225
#
#
#
# Elastic Compliance Matrix: (Units=1/GPa)
#
#
# Indices 1 2 3 4 5 6 
#
# 1 0.010008 -0.002240 -0.001123 0.000000 0.002161 0.000000
# 2 -0.002240 0.009131 -0.002475 0.000000 0.000685 0.000000
# 3 -0.001123 -0.002475 0.008055 0.000000 -0.002212 0.000000
# 4 0.000000 0.000000 0.000000 0.019793 0.000000 -0.010568
# 5 0.002161 0.000685 -0.002212 0.000000 0.024114 0.000000
# 6 0.000000 0.000000 0.000000 -0.010568 0.000000 0.074030
#
#
# Mechanical properties :
#
#
# Convention : Reuss Voigt Hill
#
# Bulk Modulus (GPa) = 64.43986 65.71160 65.07573
# Shear Modulus (GPa) = 30.86813 41.41260 36.14036
#
# Velocity S-wave (km/s) = 3.39709 3.93476 3.67577
# Velocity P-wave (km/s) = 6.28317 6.72382 6.50722
#
# Compressibility (1/GPa) = 0.01551835
#
# Stress axis : x y z
#
# Youngs Moduli (GPa) = 99.92028 109.51925 124.15044
#
# Poissons Ratio (x) = 0.24530 0.13943
# Poissons Ratio (y) = 0.22380 0.30723
# Poissons Ratio (z) = 0.11222 0.27102
#
# Static dielectric constant tensor:
#      x y z
#    x 2.098930 0.000000 0.064810 
#    y 0.000000 2.148550 0.000000 
#    z 0.064810 0.000000 2.180110 
# 
# From -- ./inp_files/97086.got.cif
#   From: 2010.05.17/outbox.cif.g08.bks.cpg/sg13_49_cif.got.tgz:97086.got - 2010.06.03 16:44:36.
