data_PCOD9237209
_publ_section_title
;
Structure prediction by ZEFSAII (Michael W. Deem and Ramdas Pophale) SiO2 
 PCOD9237209
Probable space group: P 2/C
;
_chemical_formula_sum "Si O2"
_cell_formula_units_Z 20
_cell_length_a 20.239162
_cell_length_b 11.346745
_cell_length_c 9.770354
_cell_angle_alpha 90.000000
_cell_angle_beta 159.337886
_cell_angle_gamma 90.000000
_cell_volume 791.720510
_symmetry_space_group_name_H-M "P 2/C"
_symmetry_group_IT_number 13
_symmetry_cell_setting 'monoclinic'
loop_
_space_group_symop_operation_xyz
x,y,z
-x,y,1/2-z
-x,-y,-z
x,-y,1/2+z
loop_
_atom_site_type_symbol
_atom_site_label
_atom_site_fract_x
_atom_site_fract_y
_atom_site_fract_z
Si Si1 0.342581 0.146613 0.773054
Si Si2 0.772525 0.781697 0.167003
Si Si3 0.641459 0.531143 0.898570
Si Si4 0.710389 0.284643 0.107378
Si Si5 0.856565 0.089984 0.584692
O O1 0.292126 0.199930 0.528611
O O2 0.303258 0.008056 0.712163
O O3 0.220983 0.207255 0.657323
O O4 0.560477 0.174844 0.220412
O O5 0.769321 0.644808 0.120295
O O6 0.902572 0.867881 0.328114
O O7 0.500000 0.561059 0.750000
O O8 0.500000 0.500000 0.500000
O O9 0.766284 0.416603 0.175523
O O10 0.500000 0.302584 0.750000
O O11 0.802001 0.213164 0.407479
O O12 0.000000 0.041456 0.750000
#
# Coordination Sequence:
#
# PCOD9237209 Si02
#       5
#     4   4   4   4   4
#     4  11  22  38  64  93 127 165 208 261 310 371
#     4  11  21  39  65  96 125 159 211 267 315 368
#     4  11  18  36  63  98 125 152 202 268 313 364
#     4  11  22  38  67  98 123 164 212 257 316 375
#     4  12  27  43  60  90 134 173 210 256 313 375
#
# _framework density 25.261437999999998
#
# number of rings (size 3 to 8) (size 9 to 14) (size 15 to 20)
#    0.000    0.800    6.000    3.000    2.800    3.200 
#    0.000    1.000    0.000    2.400    0.000    0.000 
#    0.000    0.000    0.000    0.000    0.000    0.000 
#
# Total GULP energy -111938.560710 kJ/mol
# GULP energy per Si atom -5596.928035 kJ/mol
# Density = 2.520394 g / cm^3
# Si number density = 25.261438 Si / 1000 Ang^3
#
#
#
# Elastic Constant Matrix: (Units=GPa)
#
#
# Indices 1 2 3 4 5 6 
#
# 1 165.5324 35.3022 13.0981 0.0000 -22.4535 0.0000
# 2 35.3022 185.4974 11.7892 0.0000 0.6383 0.0000
# 3 13.0981 11.7892 13.3051 0.0000 5.5479 0.0000
# 4 0.0000 0.0000 0.0000 -31.7450 0.0000 -5.5611
# 5 -22.4535 0.6383 5.5479 0.0000 45.1888 0.0000
# 6 0.0000 0.0000 0.0000 -5.5611 0.0000 42.8555
#
#
#
# Elastic Compliance Matrix: (Units=1/GPa)
#
#
# Indices 1 2 3 4 5 6 
#
# 1 0.007578 -0.000907 -0.008676 0.000000 0.004843 0.000000
# 2 -0.000907 0.005835 -0.004273 0.000000 -0.000009 0.000000
# 3 -0.008676 -0.004273 0.094075 0.000000 -0.015800 0.000000
# 4 0.000000 0.000000 0.000000 -0.030801 0.000000 -0.003997
# 5 0.004843 -0.000009 -0.015800 0.000000 0.026476 0.000000
# 6 0.000000 0.000000 0.000000 -0.003997 0.000000 0.022816
#
#
# Mechanical properties :
#
#
# Convention : Reuss Voigt Hill
#
# Bulk Modulus (GPa) = 12.53528 53.85710 33.19619
# Shear Modulus (GPa) = 27.73410 31.53622 29.63516
#
# Velocity S-wave (km/s) = 3.31703 3.53709 3.42883
# Velocity P-wave (km/s) = 4.43207 6.16827 5.37079
#
# Compressibility (1/GPa) = 0.07977486
#
# Stress axis : x y z
#
# Youngs Moduli (GPa) = 131.95922 171.37243 10.62985
#
# Poissons Ratio (x) = 0.15552 0.09222
# Poissons Ratio (y) = 0.11975 0.04543
# Poissons Ratio (z) = 1.14483 0.73235
#
# Static dielectric constant tensor:
#      x y z
#    x 2.104390 0.000000 0.025090 
#    y 0.000000 1.997990 0.000000 
#    z 0.025090 0.000000 2.009290 
# 
# From -- ./inp_files/21774.got.cif
#   From: 2010.05.17/outbox.cif.g08.bks.cpg/sg13_11_cif.got.tgz:21774.got - 2010.06.03 16:44:36.
