data_PCOD9237983
_publ_section_title
;
Structure prediction by ZEFSAII (Michael W. Deem and Ramdas Pophale) SiO2 
 PCOD9237983
Probable space group: P 2/C
;
_chemical_formula_sum "Si O2"
_cell_formula_units_Z 24
_cell_length_a 11.226288
_cell_length_b 11.820115
_cell_length_c 14.307831
_cell_angle_alpha 90.000000
_cell_angle_beta 151.034091
_cell_angle_gamma 90.000000
_cell_volume 919.467556
_symmetry_space_group_name_H-M "P 2/C"
_symmetry_group_IT_number 13
_symmetry_cell_setting 'monoclinic'
loop_
_space_group_symop_operation_xyz
x,y,z
-x,y,1/2-z
-x,-y,-z
x,-y,1/2+z
loop_
_atom_site_type_symbol
_atom_site_label
_atom_site_fract_x
_atom_site_fract_y
_atom_site_fract_z
Si Si1 0.482752 0.574852 0.845089
Si Si2 0.745546 0.041452 0.555106
Si Si3 0.684446 0.740209 0.137039
Si Si4 0.732039 0.669404 0.520933
Si Si5 0.755200 0.069783 0.342454
Si Si6 0.979777 0.698990 0.960571
O O1 0.500000 0.617523 0.750000
O O2 0.196061 0.591177 0.675305
O O3 0.635722 0.646653 0.024366
O O4 0.584712 0.448417 0.916430
O O5 0.754832 0.146177 0.631849
O O6 0.737717 0.082147 0.442076
O O7 0.461579 0.002431 0.359651
O O8 0.000000 0.974095 0.750000
O O9 0.898775 0.703087 0.354634
O O10 0.438184 0.747955 0.031676
O O11 0.802646 0.709323 0.465473
O O12 0.000000 0.653448 0.750000
O O13 0.798083 0.193162 0.328472
O O14 0.000000 0.000000 0.500000
#
# Coordination Sequence:
#
# PCOD9237983 Si02
#       6
#     4   4   4   4   4   4
#     4  12  27  43  70 106 147 198 258 313 374 459
#     4  11  23  47  77 113 148 193 247 310 389 456
#     4  12  25  46  75 103 148 200 253 313 379 460
#     4  12  27  47  69 109 154 205 259 312 390 460
#     4  11  25  49  78 114 150 195 255 320 388 465
#     4  12  26  49  73 105 155 199 255 327 387 456
#
# _framework density 26.102063999999999
#
# number of rings (size 3 to 8) (size 9 to 14) (size 15 to 20)
#    0.000    0.333    5.000    3.000    2.333    2.000 
#    6.000    0.833    0.000    0.000    0.000    0.000 
#    0.000    0.000    0.000    0.000    0.000    0.000 
#
# Total GULP energy -134508.273044 kJ/mol
# GULP energy per Si atom -5604.511377 kJ/mol
# Density = 2.604265 g / cm^3
# Si number density = 26.102064 Si / 1000 Ang^3
#
#
#
# Elastic Constant Matrix: (Units=GPa)
#
#
# Indices 1 2 3 4 5 6 
#
# 1 135.1648 33.9775 32.4830 0.0000 -18.2608 0.0000
# 2 33.9775 60.6835 30.7933 0.0000 -2.4289 0.0000
# 3 32.4830 30.7933 216.0985 0.0000 0.9935 0.0000
# 4 0.0000 0.0000 0.0000 21.2520 0.0000 -104.7044
# 5 -18.2608 -2.4289 0.9935 0.0000 61.7486 0.0000
# 6 0.0000 0.0000 0.0000 -104.7044 0.0000 -602.0988
#
#
#
# Elastic Compliance Matrix: (Units=1/GPa)
#
#
# Indices 1 2 3 4 5 6 
#
# 1 0.009070 -0.004614 -0.000717 0.000000 0.002512 0.000000
# 2 -0.004614 0.020144 -0.002174 0.000000 -0.000537 0.000000
# 3 -0.000717 -0.002174 0.005047 0.000000 -0.000379 0.000000
# 4 0.000000 0.000000 0.000000 0.025342 0.000000 -0.004407
# 5 0.002512 -0.000537 -0.000379 0.000000 0.016923 0.000000
# 6 0.000000 0.000000 0.000000 -0.004407 0.000000 -0.000894
#
#
# Mechanical properties :
#
#
# Convention : Reuss Voigt Hill
#
# Bulk Modulus (GPa) = 51.94889 67.38382 59.66636
# Shear Modulus (GPa) = 51.51479 -82.84011 -15.66266
#
# Velocity S-wave (km/s) = 4.44733 -5.63967 -2.45226
# Velocity P-wave (km/s) = 6.80567 4.06649 3.85881
#
# Compressibility (1/GPa) = 0.01924969
#
# Stress axis : x y z
#
# Youngs Moduli (GPa) = 110.25327 49.64208 198.13892
#
# Poissons Ratio (x) = 0.22904 0.14216
# Poissons Ratio (y) = 0.50869 0.43085
# Poissons Ratio (z) = 0.07910 0.10795
#
# Static dielectric constant tensor:
#      x y z
#    x 1.879670 0.000000 0.076550 
#    y 0.000000 2.159170 0.000000 
#    z 0.076550 0.000000 2.084600 
# 
# From -- ./inp_files/51519.got.cif
#   From: 2010.05.17/outbox.cif.g08.bks.cpg/sg13_26_cif.got.tgz:51519.got - 2010.06.03 16:44:36.
