data_PCOD9237846
_publ_section_title
;
Structure prediction by ZEFSAII (Michael W. Deem and Ramdas Pophale) SiO2 
 PCOD9237846
Probable space group: P 2/C
;
_chemical_formula_sum "Si O2"
_cell_formula_units_Z 28
_cell_length_a 24.135936
_cell_length_b 9.274155
_cell_length_c 8.991960
_cell_angle_alpha 90.000000
_cell_angle_beta 138.443190
_cell_angle_gamma 90.000000
_cell_volume 1335.191831
_symmetry_space_group_name_H-M "P 2/C"
_symmetry_group_IT_number 13
_symmetry_cell_setting 'monoclinic'
loop_
_space_group_symop_operation_xyz
x,y,z
-x,y,1/2-z
-x,-y,-z
x,-y,1/2+z
loop_
_atom_site_type_symbol
_atom_site_label
_atom_site_fract_x
_atom_site_fract_y
_atom_site_fract_z
Si Si1 0.088269 0.336944 0.844952
Si Si2 0.495941 0.656511 0.921339
Si Si3 0.352184 0.843889 0.768837
Si Si4 0.170008 0.168460 0.258014
Si Si5 0.360795 0.848937 0.146206
Si Si6 0.090607 0.330151 0.354561
Si Si7 0.831641 0.833034 0.237207
O O1 0.101327 0.503596 0.825643
O O2 0.096752 0.224140 0.729077
O O3 0.000000 0.329813 0.750000
O O4 0.156288 0.279931 0.097546
O O5 0.500000 0.657531 0.750000
O O6 0.410833 0.726281 0.811469
O O7 0.500000 0.500000 0.000000
O O8 0.573079 0.743219 0.147896
O O9 0.256332 0.823819 0.524896
O O10 0.380058 0.994319 0.751356
O O11 0.361620 0.847744 0.967089
O O12 0.265352 0.183004 0.502137
O O13 0.104351 0.219402 0.248981
O O14 0.157370 0.999766 0.192120
O O15 0.160441 0.278376 0.611863
O O16 0.000000 0.319790 0.250000
#
# Coordination Sequence:
#
# PCOD9237846 Si02
#       7
#     4   4   4   4   4   4   4
#     4  11  23  43  63  92 133 176 223 277 342 411
#     4  12  27  46  71 104 142 180 224 276 329 400
#     4  11  24  45  71 100 135 177 224 278 343 408
#     4  11  24  41  67  97 131 173 228 280 338 401
#     4  11  24  45  71 100 135 177 224 278 343 408
#     4  11  25  41  63  94 133 180 225 281 348 413
#     4  11  24  41  67  97 131 173 228 280 338 401
#
# _framework density 20.970769000000001
#
# number of rings (size 3 to 8) (size 9 to 14) (size 15 to 20)
#    0.000    0.857    1.429    5.143    8.000    8.000 
#    0.000    0.000    0.000    0.000    0.000    0.000 
#    0.000    0.000    0.000    0.000    0.000    0.000 
#
# Total GULP energy -156487.184292 kJ/mol
# GULP energy per Si atom -5588.828010 kJ/mol
# Density = 2.092304 g / cm^3
# Si number density = 20.970769 Si / 1000 Ang^3
#
#
#
# Elastic Constant Matrix: (Units=GPa)
#
#
# Indices 1 2 3 4 5 6 
#
# 1 94.2299 49.1927 23.5931 0.0000 -3.7514 0.0000
# 2 49.1927 125.6859 48.2022 0.0000 20.6909 0.0000
# 3 23.5931 48.2022 103.6510 0.0000 -12.4787 0.0000
# 4 0.0000 0.0000 0.0000 22.4623 0.0000 72.5022
# 5 -3.7514 20.6909 -12.4787 0.0000 30.3007 0.0000
# 6 0.0000 0.0000 0.0000 72.5022 0.0000 -699.4268
#
#
#
# Elastic Compliance Matrix: (Units=1/GPa)
#
#
# Indices 1 2 3 4 5 6 
#
# 1 0.014390 -0.007124 0.000881 0.000000 0.007009 0.000000
# 2 -0.007124 0.016202 -0.007735 0.000000 -0.015131 0.000000
# 3 0.000881 -0.007735 0.014407 0.000000 0.011324 0.000000
# 4 0.000000 0.000000 0.000000 0.033358 0.000000 0.003458
# 5 0.007009 -0.015131 0.011324 0.000000 0.048866 0.000000
# 6 0.000000 0.000000 0.000000 0.003458 0.000000 -0.001071
#
#
# Mechanical properties :
#
#
# Convention : Reuss Voigt Hill
#
# Bulk Modulus (GPa) = 58.66954 62.83808 60.75381
# Shear Modulus (GPa) = 31.29156 -115.82751 -42.26797
#
# Velocity S-wave (km/s) = 3.86703 -7.43994 -4.49438
# Velocity P-wave (km/s) = 6.92648 6.61619 1.44950
#
# Compressibility (1/GPa) = 0.01704462
#
# Stress axis : x y z
#
# Youngs Moduli (GPa) = 69.49384 61.72146 69.40880
#
# Poissons Ratio (x) = 0.43970 -0.06118
# Poissons Ratio (y) = 0.49507 0.53685
# Poissons Ratio (z) = -0.06125 0.47739
#
# Static dielectric constant tensor:
#      x y z
#    x 1.789840 0.000000 -0.033760 
#    y 0.000000 1.904330 0.000000 
#    z -0.033760 0.000000 1.803780 
# 
# From -- ./inp_files/24600.got.cif
#   From: 2010.05.17/outbox.cif.g08.bks.cpg/sg13_13_cif.got.tgz:24600.got - 2010.06.03 16:44:36.
