data_PCOD9237961
_publ_section_title
;
Structure prediction by ZEFSAII (Michael W. Deem and Ramdas Pophale) SiO2 
 PCOD9237961
Probable space group: P 2/C
;
_chemical_formula_sum "Si O2"
_cell_formula_units_Z 16
_cell_length_a 4.980076
_cell_length_b 10.801055
_cell_length_c 12.645085
_cell_angle_alpha 90.000000
_cell_angle_beta 113.815030
_cell_angle_gamma 90.000000
_cell_volume 622.265304
_symmetry_space_group_name_H-M "P 2/C"
_symmetry_group_IT_number 13
_symmetry_cell_setting 'monoclinic'
loop_
_space_group_symop_operation_xyz
x,y,z
-x,y,1/2-z
-x,-y,-z
x,-y,1/2+z
loop_
_atom_site_type_symbol
_atom_site_label
_atom_site_fract_x
_atom_site_fract_y
_atom_site_fract_z
Si Si1 0.773141 0.403118 0.555057
Si Si2 0.000000 0.573396 0.750000
Si Si3 0.968709 0.766735 0.587023
Si Si4 0.000000 0.960021 0.750000
Si Si5 0.444795 0.835829 0.364630
O O1 0.500000 0.500000 0.500000
O O2 0.037165 0.477177 0.657901
O O3 0.866314 0.328243 0.464779
O O4 0.689822 0.293703 0.620603
O O5 0.180133 0.677949 0.846156
O O6 0.135633 0.870853 0.681144
O O7 0.739228 0.839384 0.479008
O O8 0.230039 0.048991 0.844173
O O9 0.500000 0.830862 0.250000
#
# Coordination Sequence:
#
# PCOD9237961 Si02
#       5
#     4   2   4   2   4
#     4  12  26  45  77 112 155 200 254 317 397 469
#     4  11  23  46  72 110 153 193 250 318 390 463
#     4  11  26  48  74 113 152 204 256 323 385 466
#     4  11  27  50  78 110 157 209 268 316 390 457
#     4  12  26  47  75 110 155 208 258 322 385 462
#
# _framework density 25.712503000000002
#
# number of rings (size 3 to 8) (size 9 to 14) (size 15 to 20)
#    0.000    0.500    2.500    5.250    3.500    6.000 
#    0.000    0.000    0.000    0.000    0.000    0.000 
#    0.000    0.000    0.000    0.000    0.000    0.000 
#
# Total GULP energy -89095.752374 kJ/mol
# GULP energy per Si atom -5568.484523 kJ/mol
# Density = 2.565398 g / cm^3
# Si number density = 25.712503 Si / 1000 Ang^3
#
#
#
# Elastic Constant Matrix: (Units=GPa)
#
#
# Indices 1 2 3 4 5 6 
#
# 1 69.5719 62.9850 56.3818 0.0000 -0.2771 0.0000
# 2 62.9850 194.4307 104.1046 0.0000 -12.8576 0.0000
# 3 56.3818 104.1046 143.5985 0.0000 10.4371 0.0000
# 4 0.0000 0.0000 0.0000 90.0849 0.0000 -37.5633
# 5 -0.2771 -12.8576 10.4371 0.0000 24.0495 0.0000
# 6 0.0000 0.0000 0.0000 -37.5633 0.0000 526.1933
#
#
#
# Elastic Compliance Matrix: (Units=1/GPa)
#
#
# Indices 1 2 3 4 5 6 
#
# 1 0.023090 -0.004176 -0.006088 0.000000 0.000676 0.000000
# 2 -0.004176 0.010651 -0.006704 0.000000 0.008556 0.000000
# 3 -0.006088 -0.006704 0.014952 0.000000 -0.010143 0.000000
# 4 0.000000 0.000000 0.000000 0.011441 0.000000 0.000817
# 5 0.000676 0.008556 -0.010143 0.000000 0.050565 0.000000
# 6 0.000000 0.000000 0.000000 0.000817 0.000000 0.001959
#
#
# Mechanical properties :
#
#
# Convention : Reuss Voigt Hill
#
# Bulk Modulus (GPa) = 67.76089 94.94934 81.35512
# Shear Modulus (GPa) = 33.00028 140.34086 86.67057
#
# Velocity S-wave (km/s) = 3.58639 7.39590 5.81212
# Velocity P-wave (km/s) = 6.60001 10.48522 8.76071
#
# Compressibility (1/GPa) = 0.01475778
#
# Stress axis : x y z
#
# Youngs Moduli (GPa) = 43.30811 93.88409 66.88113
#
# Poissons Ratio (x) = 0.39203 0.40717
# Poissons Ratio (y) = 0.18084 0.44839
# Poissons Ratio (z) = 0.26366 0.62943
#
# Static dielectric constant tensor:
#      x y z
#    x 2.196820 0.000000 0.027440 
#    y 0.000000 2.006030 0.000000 
#    z 0.027440 0.000000 2.030890 
# 
# From -- ./inp_files/25952.got.cif
#   From: 2010.05.17/outbox.cif.g08.bks.cpg/sg13_13_cif.got.tgz:25952.got - 2010.06.03 16:44:36.
