data_PCOD9237841
_publ_section_title
;
Structure prediction by ZEFSAII (Michael W. Deem and Ramdas Pophale) SiO2 
 PCOD9237841
Probable space group: P 2/C
;
_chemical_formula_sum "Si O2"
_cell_formula_units_Z 22
_cell_length_a 13.698850
_cell_length_b 10.820183
_cell_length_c 15.818873
_cell_angle_alpha 90.000000
_cell_angle_beta 22.988323
_cell_angle_gamma 90.000000
_cell_volume 915.722091
_symmetry_space_group_name_H-M "P 2/C"
_symmetry_group_IT_number 13
_symmetry_cell_setting 'monoclinic'
loop_
_space_group_symop_operation_xyz
x,y,z
-x,y,1/2-z
-x,-y,-z
x,-y,1/2+z
loop_
_atom_site_type_symbol
_atom_site_label
_atom_site_fract_x
_atom_site_fract_y
_atom_site_fract_z
Si Si1 0.000000 0.844360 0.250000
Si Si2 0.505219 0.235093 0.646698
Si Si3 0.466510 0.338188 0.369696
Si Si4 0.809233 0.459421 0.327532
Si Si5 0.050553 0.726594 0.920256
Si Si6 0.749194 0.044327 0.348126
O O1 0.753144 0.762621 0.462300
O O2 0.930972 0.933226 0.226672
O O3 0.500000 0.255871 0.750000
O O4 0.664280 0.341718 0.477878
O O5 0.643758 0.107279 0.517408
O O6 0.229511 0.246377 0.827689
O O7 0.500000 0.399201 0.250000
O O8 0.383072 0.426945 0.514112
O O9 0.734657 0.284292 0.181535
O O10 0.942151 0.403493 0.138738
O O11 0.000000 0.495429 0.250000
O O12 0.121143 0.845102 0.806539
O O13 0.500000 0.000000 0.500000
#
# Coordination Sequence:
#
# PCOD9237841 Si02
#       6
#     2   4   4   4   4   4
#     4  12  26  48  66  96 150 182 226 288 350 398
#     4  11  23  42  74 104 133 173 238 289 340 412
#     4  12  28  44  70 104 142 187 230 284 348 421
#     4  11  23  45  72 102 139 179 229 288 354 408
#     4  11  25  46  74 103 135 184 235 286 348 411
#     4  11  25  45  70  98 137 185 229 284 345 408
#
# _framework density 24.024754999999999
#
# number of rings (size 3 to 8) (size 9 to 14) (size 15 to 20)
#    0.000    0.727    4.545    2.182    5.091    3.636 
#    0.000    0.000    0.000    0.000    0.000    0.000 
#    0.000    0.000    0.000    0.000    0.000    0.000 
#
# Total GULP energy -123132.298558 kJ/mol
# GULP energy per Si atom -5596.922662 kJ/mol
# Density = 2.397007 g / cm^3
# Si number density = 24.024755 Si / 1000 Ang^3
#
#
#
# Elastic Constant Matrix: (Units=GPa)
#
#
# Indices 1 2 3 4 5 6 
#
# 1 67.9832 15.6102 2.3899 0.0000 -10.1378 0.0000
# 2 15.6102 84.3619 -2.7655 0.0000 0.9887 0.0000
# 3 2.3899 -2.7655 42.7656 0.0000 -14.3089 0.0000
# 4 0.0000 0.0000 0.0000 28.9126 0.0000 -10.0646
# 5 -10.1378 0.9887 -14.3089 0.0000 41.3447 0.0000
# 6 0.0000 0.0000 0.0000 -10.0646 0.0000 25.4011
#
#
#
# Elastic Compliance Matrix: (Units=1/GPa)
#
#
# Indices 1 2 3 4 5 6 
#
# 1 0.015998 -0.002999 0.000281 0.000000 0.004092 0.000000
# 2 -0.002999 0.012441 0.000709 0.000000 -0.000788 0.000000
# 3 0.000281 0.000709 0.026499 0.000000 0.009223 0.000000
# 4 0.000000 0.000000 0.000000 0.040121 0.000000 0.015897
# 5 0.004092 -0.000788 0.009223 0.000000 0.028401 0.000000
# 6 0.000000 0.000000 0.000000 0.015897 0.000000 0.045667
#
#
# Mechanical properties :
#
#
# Convention : Reuss Voigt Hill
#
# Bulk Modulus (GPa) = 19.63861 25.06442 22.35152
# Shear Modulus (GPa) = 26.29918 31.12343 28.71130
#
# Velocity S-wave (km/s) = 3.31217 3.60317 3.46073
# Velocity P-wave (km/s) = 4.77696 5.26933 5.02918
#
# Compressibility (1/GPa) = 0.05092011
#
# Stress axis : x y z
#
# Youngs Moduli (GPa) = 62.50601 80.37881 37.73685
#
# Poissons Ratio (x) = 0.24106 -0.01061
# Poissons Ratio (y) = 0.18746 -0.02674
# Poissons Ratio (z) = -0.01757 -0.05696
#
# Static dielectric constant tensor:
#      x y z
#    x 1.972920 0.000000 0.011100 
#    y 0.000000 1.900630 0.000000 
#    z 0.011100 0.000000 1.914940 
# 
# From -- ./inp_files/43776.got.cif
#   From: 2010.05.17/outbox.cif.g08.bks.cpg/sg13_22_cif.got.tgz:43776.got - 2010.06.03 16:44:36.
