data_PCOD9237239
_publ_section_title
;
Structure prediction by ZEFSAII (Michael W. Deem and Ramdas Pophale) SiO2 
 PCOD9237239
Probable space group: P 2/C
;
_chemical_formula_sum "Si O2"
_cell_formula_units_Z 16
_cell_length_a 9.573703
_cell_length_b 7.003099
_cell_length_c 13.435070
_cell_angle_alpha 90.000000
_cell_angle_beta 46.536839
_cell_angle_gamma 90.000000
_cell_volume 653.788339
_symmetry_space_group_name_H-M "P 2/C"
_symmetry_group_IT_number 13
_symmetry_cell_setting 'monoclinic'
loop_
_space_group_symop_operation_xyz
x,y,z
-x,y,1/2-z
-x,-y,-z
x,-y,1/2+z
loop_
_atom_site_type_symbol
_atom_site_label
_atom_site_fract_x
_atom_site_fract_y
_atom_site_fract_z
Si Si1 0.144197 0.692363 0.091990
Si Si2 0.788010 0.084481 0.328535
Si Si3 0.592035 0.339039 0.563049
Si Si4 0.782254 0.802253 0.162131
O O1 0.000000 0.618998 0.250000
O O2 0.999285 0.732898 0.071724
O O3 0.217889 0.892359 0.100797
O O4 0.307152 0.542706 0.986545
O O5 0.631866 0.234919 0.439669
O O6 0.769009 0.995346 0.726040
O O7 0.000000 0.163929 0.250000
O O8 0.371381 0.332543 0.704137
O O9 0.707618 0.209894 0.587195
#
# Coordination Sequence:
#
# PCOD9237239 Si02
#       4
#     4   4   4   4
#     4   9  20  36  53  80 112 142 183 226 266 323
#     4   9  20  36  53  80 112 142 183 226 266 323
#     4  11  19  36  60  78 111 153 176 218 284 317
#     4   9  21  36  54  86 113 137 188 230 256 329
#
# _framework density 24.472750999999999
#
# number of rings (size 3 to 8) (size 9 to 14) (size 15 to 20)
#    0.000    3.000    0.000    2.250    0.000    8.000 
#    0.000   15.000    0.000    0.000    0.000    0.000 
#    0.000    0.000    0.000    0.000    0.000    0.000 
#
# Total GULP energy -89483.466334 kJ/mol
# GULP energy per Si atom -5592.716646 kJ/mol
# Density = 2.441705 g / cm^3
# Si number density = 24.472751 Si / 1000 Ang^3
#
#
#
# Elastic Constant Matrix: (Units=GPa)
#
#
# Indices 1 2 3 4 5 6 
#
# 1 112.4897 17.5306 5.4802 0.0000 -12.2873 0.0000
# 2 17.5306 64.6295 30.0900 0.0000 1.5014 0.0000
# 3 5.4802 30.0900 81.8099 0.0000 -12.9256 0.0000
# 4 0.0000 0.0000 0.0000 21.4139 0.0000 -1.5286
# 5 -12.2873 1.5014 -12.9256 0.0000 33.5246 0.0000
# 6 0.0000 0.0000 0.0000 -1.5286 0.0000 11.9172
#
#
#
# Elastic Compliance Matrix: (Units=1/GPa)
#
#
# Indices 1 2 3 4 5 6 
#
# 1 0.009810 -0.003335 0.001236 0.000000 0.004222 0.000000
# 2 -0.003335 0.020247 -0.008050 0.000000 -0.005233 0.000000
# 3 0.001236 -0.008050 0.016218 0.000000 0.007067 0.000000
# 4 0.000000 0.000000 0.000000 0.047130 0.000000 0.006045
# 5 0.004222 -0.005233 0.007067 0.000000 0.034335 0.000000
# 6 0.000000 0.000000 0.000000 0.006045 0.000000 0.084688
#
#
# Mechanical properties :
#
#
# Convention : Reuss Voigt Hill
#
# Bulk Modulus (GPa) = 38.49408 40.57008 39.53208
# Shear Modulus (GPa) = 20.71384 27.09304 23.90344
#
# Velocity S-wave (km/s) = 2.91246 3.33088 3.12867
# Velocity P-wave (km/s) = 5.20321 5.60416 5.40740
#
# Compressibility (1/GPa) = 0.02597802
#
# Stress axis : x y z
#
# Youngs Moduli (GPa) = 101.93377 49.39023 61.65975
#
# Poissons Ratio (x) = 0.16470 -0.07623
# Poissons Ratio (y) = 0.33992 0.49638
# Poissons Ratio (z) = -0.12603 0.39760
#
# Static dielectric constant tensor:
#      x y z
#    x 2.014030 0.000000 -0.007970 
#    y 0.000000 1.900540 0.000000 
#    z -0.007970 0.000000 1.957410 
# 
# From -- ./inp_files/27367.got.cif
#   From: 2010.05.17/outbox.cif.g08.bks.cpg/sg13_14_cif.got.tgz:27367.got - 2010.06.03 16:44:36.
