data_PCOD9237646
_publ_section_title
;
Structure prediction by ZEFSAII (Michael W. Deem and Ramdas Pophale) SiO2 
 PCOD9237646
Probable space group: P 2/C
;
_chemical_formula_sum "Si O2"
_cell_formula_units_Z 32
_cell_length_a 13.748315
_cell_length_b 9.838485
_cell_length_c 22.496461
_cell_angle_alpha 90.000000
_cell_angle_beta 30.882480
_cell_angle_gamma 90.000000
_cell_volume 1561.871399
_symmetry_space_group_name_H-M "P 2/C"
_symmetry_group_IT_number 13
_symmetry_cell_setting 'monoclinic'
loop_
_space_group_symop_operation_xyz
x,y,z
-x,y,1/2-z
-x,-y,-z
x,-y,1/2+z
loop_
_atom_site_type_symbol
_atom_site_label
_atom_site_fract_x
_atom_site_fract_y
_atom_site_fract_z
Si Si1 0.928296 0.952926 0.473052
Si Si2 0.283320 0.072709 0.701535
Si Si3 0.635892 0.650077 0.397273
Si Si4 0.397630 0.783863 0.627564
Si Si5 0.591058 0.153873 0.638081
Si Si6 0.380364 0.731851 0.872902
Si Si7 0.071833 0.593457 0.773289
Si Si8 0.669212 0.562724 0.044685
O O1 0.774970 0.063225 0.534326
O O2 0.644438 0.310791 0.601818
O O3 0.000000 0.000000 0.500000
O O4 0.096331 0.951638 0.337878
O O5 0.265790 0.208792 0.672617
O O6 0.444865 0.112024 0.664053
O O7 0.341689 0.935511 0.636329
O O8 0.522208 0.695113 0.516063
O O9 0.798385 0.535384 0.313995
O O10 0.479856 0.596392 0.430840
O O11 0.508805 0.801687 0.630690
O O12 0.207468 0.696554 0.736865
O O13 0.500000 0.128260 0.750000
O O14 0.819180 0.808298 0.531782
O O15 0.500000 0.743417 0.750000
O O16 0.367819 0.576840 0.901543
O O17 0.000000 0.661641 0.750000
O O18 0.882941 0.556386 0.907806
#
# Coordination Sequence:
#
# PCOD9237646 Si02
#       8
#     4   4   4   4   4   4   4   4
#     4  12  23  43  68  99 134 185 231 280 345 410
#     4  11  24  41  67  97 134 173 230 280 340 408
#     4  11  24  44  68  98 135 181 224 286 346 405
#     4  12  23  45  69  98 138 179 223 286 346 407
#     4  11  22  43  66  94 136 181 224 286 341 400
#     4  12  25  44  69 101 137 182 230 283 342 408
#     4  12  23  43  70  98 131 181 226 273 344 419
#     4  11  24  43  67  99 139 176 229 285 343 406
#
# _framework density 20.488244999999999
#
# number of rings (size 3 to 8) (size 9 to 14) (size 15 to 20)
#    0.000    0.500    5.000    4.500    0.000    0.000 
#    0.000    1.875    0.000    0.000    0.000    0.000 
#    0.000    0.000    0.000    0.000    0.000    0.000 
#
# Total GULP energy -178911.158806 kJ/mol
# GULP energy per Si atom -5590.973713 kJ/mol
# Density = 2.044161 g / cm^3
# Si number density = 20.488245 Si / 1000 Ang^3
#
#
#
# Elastic Constant Matrix: (Units=GPa)
#
#
# Indices 1 2 3 4 5 6 
#
# 1 57.8327 6.2512 17.4052 0.0000 -8.3790 0.0000
# 2 6.2512 139.2450 26.5294 0.0000 -7.9615 0.0000
# 3 17.4052 26.5294 100.4614 0.0000 -17.9231 0.0000
# 4 0.0000 0.0000 0.0000 37.4032 0.0000 -3.6036
# 5 -8.3790 -7.9615 -17.9231 0.0000 25.9031 0.0000
# 6 0.0000 0.0000 0.0000 -3.6036 0.0000 30.3364
#
#
#
# Elastic Compliance Matrix: (Units=1/GPa)
#
#
# Indices 1 2 3 4 5 6 
#
# 1 0.018662 -0.000128 -0.002429 0.000000 0.004316 0.000000
# 2 -0.000128 0.007589 -0.001795 0.000000 0.001049 0.000000
# 3 -0.002429 -0.001795 0.012105 0.000000 0.007038 0.000000
# 4 0.000000 0.000000 0.000000 0.027045 0.000000 0.003213
# 5 0.004316 0.001049 0.007038 0.000000 0.045194 0.000000
# 6 0.000000 0.000000 0.000000 0.003213 0.000000 0.033345
#
#
# Mechanical properties :
#
#
# Convention : Reuss Voigt Hill
#
# Bulk Modulus (GPa) = 33.72561 44.21231 38.96896
# Shear Modulus (GPa) = 30.76395 35.21875 32.99135
#
# Velocity S-wave (km/s) = 3.87918 4.15055 4.01715
# Velocity P-wave (km/s) = 6.04655 6.67799 6.37010
#
# Compressibility (1/GPa) = 0.02965106
#
# Stress axis : x y z
#
# Youngs Moduli (GPa) = 53.58612 131.76486 82.61369
#
# Poissons Ratio (x) = 0.01689 0.20069
# Poissons Ratio (y) = 0.00687 0.14827
# Poissons Ratio (z) = 0.13017 0.23648
#
# Static dielectric constant tensor:
#      x y z
#    x 1.699650 0.000000 -0.002310 
#    y 0.000000 1.757250 0.000000 
#    z -0.002310 0.000000 1.691750 
# 
# From -- ./inp_files/87409.got.cif
#   From: 2010.05.17/outbox.cif.g08.bks.cpg/sg13_44_cif.got.tgz:87409.got - 2010.06.03 16:44:36.
