data_PCOD9237002
_publ_section_title
;
Structure prediction by ZEFSAII (Michael W. Deem and Ramdas Pophale) SiO2 
 PCOD9237002
Probable space group: P 2/C
;
_chemical_formula_sum "Si O2"
_cell_formula_units_Z 16
_cell_length_a 5.036521
_cell_length_b 5.165796
_cell_length_c 23.939141
_cell_angle_alpha 90.000000
_cell_angle_beta 102.223767
_cell_angle_gamma 90.000000
_cell_volume 608.719019
_symmetry_space_group_name_H-M "P 2/C"
_symmetry_group_IT_number 13
_symmetry_cell_setting 'monoclinic'
loop_
_space_group_symop_operation_xyz
x,y,z
-x,y,1/2-z
-x,-y,-z
x,-y,1/2+z
loop_
_atom_site_type_symbol
_atom_site_label
_atom_site_fract_x
_atom_site_fract_y
_atom_site_fract_z
Si Si1 0.884101 0.733301 0.187641
Si Si2 0.317238 0.251746 0.503284
Si Si3 0.108083 0.026258 0.095688
Si Si4 0.613469 0.375610 0.312336
O O1 0.590015 0.610342 0.183034
O O2 0.000000 0.856530 0.250000
O O3 0.091443 0.495163 0.186141
O O4 0.920799 0.916319 0.136548
O O5 0.500000 0.500000 0.500000
O O6 0.061171 0.222004 0.450757
O O7 0.500000 0.000000 0.500000
O O8 0.207310 0.207270 0.560804
O O9 0.353360 0.175403 0.136344
O O10 0.500000 0.254485 0.250000
#
# Coordination Sequence:
#
# PCOD9237002 Si02
#       4
#     4   4   4   4
#     4  10  25  47  77 119 163 210 268 334 413 501
#     4  11  30  53  81 118 162 218 286 344 410 482
#     4  11  28  48  82 112 166 213 278 336 420 487
#     4  10  25  47  77 119 163 210 268 334 413 501
#
# _framework density 26.284703
#
# number of rings (size 3 to 8) (size 9 to 14) (size 15 to 20)
#    0.000    1.500    0.000    0.000   14.000    8.000 
#    0.000    3.750    0.000    0.000    0.000    0.000 
#    0.000    0.000    0.000    0.000    0.000    0.000 
#
# Total GULP energy -89902.623800 kJ/mol
# GULP energy per Si atom -5618.913987 kJ/mol
# Density = 2.622488 g / cm^3
# Si number density = 26.284703 Si / 1000 Ang^3
#
#
#
# Elastic Constant Matrix: (Units=GPa)
#
#
# Indices 1 2 3 4 5 6 
#
# 1 83.3394 36.2656 32.4949 0.0000 -3.1874 0.0000
# 2 36.2656 119.9834 43.2773 0.0000 4.0501 0.0000
# 3 32.4949 43.2773 200.7582 0.0000 9.2150 0.0000
# 4 0.0000 0.0000 0.0000 21.2947 0.0000 -4.8251
# 5 -3.1874 4.0501 9.2150 0.0000 48.4061 0.0000
# 6 0.0000 0.0000 0.0000 -4.8251 0.0000 64.2660
#
#
#
# Elastic Compliance Matrix: (Units=1/GPa)
#
#
# Indices 1 2 3 4 5 6 
#
# 1 0.014332 -0.003819 -0.001568 0.000000 0.001562 0.000000
# 2 -0.003819 0.010062 -0.001514 0.000000 -0.000805 0.000000
# 3 -0.001568 -0.001514 0.005609 0.000000 -0.001044 0.000000
# 4 0.000000 0.000000 0.000000 0.047773 0.000000 0.003587
# 5 0.001562 -0.000805 -0.001044 0.000000 0.021028 0.000000
# 6 0.000000 0.000000 0.000000 0.003587 0.000000 0.015830
#
#
# Mechanical properties :
#
#
# Convention : Reuss Voigt Hill
#
# Bulk Modulus (GPa) = 61.72448 69.79519 65.75984
# Shear Modulus (GPa) = 37.35905 46.26290 41.81097
#
# Velocity S-wave (km/s) = 3.77413 4.19987 3.99268
# Velocity P-wave (km/s) = 6.52121 7.08023 6.80646
#
# Compressibility (1/GPa) = 0.01620103
#
# Stress axis : x y z
#
# Youngs Moduli (GPa) = 69.77292 99.38311 178.27671
#
# Poissons Ratio (x) = 0.37955 0.27958
# Poissons Ratio (y) = 0.26647 0.26990
# Poissons Ratio (z) = 0.10942 0.15046
#
# Static dielectric constant tensor:
#      x y z
#    x 2.063020 0.000000 -0.016240 
#    y 0.000000 2.052990 0.000000 
#    z -0.016240 0.000000 2.066000 
# 
# From -- ./inp_files/82878.got.cif
#   From: 2010.05.17/outbox.cif.g08.bks.cpg/sg13_42_cif.got.tgz:82878.got - 2010.06.03 16:44:36.
