data_PCOD9237829
_publ_section_title
;
Structure prediction by ZEFSAII (Michael W. Deem and Ramdas Pophale) SiO2 
 PCOD9237829
Probable space group: P 2/C
;
_chemical_formula_sum "Si O2"
_cell_formula_units_Z 22
_cell_length_a 23.960844
_cell_length_b 8.918408
_cell_length_c 15.565797
_cell_angle_alpha 90.000000
_cell_angle_beta 17.629525
_cell_angle_gamma 90.000000
_cell_volume 1007.405266
_symmetry_space_group_name_H-M "P 2/C"
_symmetry_group_IT_number 13
_symmetry_cell_setting 'monoclinic'
loop_
_space_group_symop_operation_xyz
x,y,z
-x,y,1/2-z
-x,-y,-z
x,-y,1/2+z
loop_
_atom_site_type_symbol
_atom_site_label
_atom_site_fract_x
_atom_site_fract_y
_atom_site_fract_z
Si Si1 0.000000 0.622531 0.750000
Si Si2 0.681790 0.180288 0.234465
Si Si3 0.948614 0.632609 0.464610
Si Si4 0.721053 0.142259 0.610879
Si Si5 0.360588 0.347199 0.377541
Si Si6 0.308369 0.678282 0.499127
O O1 0.006625 0.516244 0.656465
O O2 0.175405 0.731605 0.485937
O O3 0.836426 0.265110 0.062024
O O4 0.500072 0.153874 0.558017
O O5 0.607339 0.273901 0.261993
O O6 0.762003 0.024237 0.081553
O O7 0.818193 0.618845 0.738342
O O8 0.145592 0.692488 0.208214
O O9 0.781775 0.194034 0.426918
O O10 0.500000 0.303831 0.250000
O O11 0.369140 0.528388 0.358421
O O12 0.500000 0.744787 0.250000
#
# Coordination Sequence:
#
# PCOD9237829 Si02
#       6
#     2   4   4   4   4   4
#     4  12  26  40  76 106 136 182 250 288 346 416
#     4  11  25  48  71  97 149 190 234 278 359 423
#     4  12  23  45  75 103 137 185 234 299 345 417
#     4  11  26  44  68 105 141 189 228 288 351 430
#     4  11  25  42  69 102 140 181 232 292 350 412
#     4  11  23  42  69 103 139 178 236 294 348 407
#
# _framework density 21.838280000000001
#
# number of rings (size 3 to 8) (size 9 to 14) (size 15 to 20)
#    0.000    0.727    5.455    0.545    7.636    2.182 
#    0.000    0.909    0.000    0.000    0.000    0.000 
#    0.000    0.000    0.000    0.000    0.000    0.000 
#
# Total GULP energy -122851.011417 kJ/mol
# GULP energy per Si atom -5584.136883 kJ/mol
# Density = 2.178857 g / cm^3
# Si number density = 21.838280 Si / 1000 Ang^3
#
#
#
# Elastic Constant Matrix: (Units=GPa)
#
#
# Indices 1 2 3 4 5 6 
#
# 1 140.0352 65.6555 31.3576 0.0000 -16.5188 0.0000
# 2 65.6555 120.6849 29.6294 0.0000 3.4639 0.0000
# 3 31.3576 29.6294 65.4060 0.0000 -9.5319 0.0000
# 4 0.0000 0.0000 0.0000 27.4509 0.0000 -6.2740
# 5 -16.5188 3.4639 -9.5319 0.0000 54.8990 0.0000
# 6 0.0000 0.0000 0.0000 -6.2740 0.0000 10.3814
#
#
#
# Elastic Compliance Matrix: (Units=1/GPa)
#
#
# Indices 1 2 3 4 5 6 
#
# 1 0.010452 -0.005238 -0.002187 0.000000 0.003096 0.000000
# 2 -0.005238 0.012047 -0.003372 0.000000 -0.002922 0.000000
# 3 -0.002187 -0.003372 0.018262 0.000000 0.002726 0.000000
# 4 0.000000 0.000000 0.000000 0.042267 0.000000 0.025544
# 5 0.003096 -0.002922 0.002726 0.000000 0.019804 0.000000
# 6 0.000000 0.000000 0.000000 0.025544 0.000000 0.111763
#
#
# Mechanical properties :
#
#
# Convention : Reuss Voigt Hill
#
# Bulk Modulus (GPa) = 52.17145 64.37900 58.27523
# Shear Modulus (GPa) = 20.61183 31.84517 26.22850
#
# Velocity S-wave (km/s) = 3.07553 3.82282 3.46935
# Velocity P-wave (km/s) = 6.04596 7.00208 6.54151
#
# Compressibility (1/GPa) = 0.01916757
#
# Stress axis : x y z
#
# Youngs Moduli (GPa) = 95.67772 83.00577 54.75739
#
# Poissons Ratio (x) = 0.43478 0.11975
# Poissons Ratio (y) = 0.50116 0.18465
# Poissons Ratio (z) = 0.20924 0.27990
#
# Static dielectric constant tensor:
#      x y z
#    x 1.858400 0.000000 -0.010170 
#    y 0.000000 1.778570 0.000000 
#    z -0.010170 0.000000 1.823170 
# 
# From -- ./inp_files/58640.got.cif
#   From: 2010.05.17/outbox.cif.g08.bks.cpg/sg13_30_cif.got.tgz:58640.got - 2010.06.03 16:44:36.
