data_PCOD9237979
_publ_section_title
;
Structure prediction by ZEFSAII (Michael W. Deem and Ramdas Pophale) SiO2 
 PCOD9237979
Probable space group: P 2/C
;
_chemical_formula_sum "Si O2"
_cell_formula_units_Z 14
_cell_length_a 5.596372
_cell_length_b 9.487693
_cell_length_c 11.487290
_cell_angle_alpha 90.000000
_cell_angle_beta 96.130209
_cell_angle_gamma 90.000000
_cell_volume 606.448972
_symmetry_space_group_name_H-M "P 2/C"
_symmetry_group_IT_number 13
_symmetry_cell_setting 'monoclinic'
loop_
_space_group_symop_operation_xyz
x,y,z
-x,y,1/2-z
-x,-y,-z
x,-y,1/2+z
loop_
_atom_site_type_symbol
_atom_site_label
_atom_site_fract_x
_atom_site_fract_y
_atom_site_fract_z
Si Si1 0.500000 0.796894 0.750000
Si Si2 0.037059 0.318843 0.883415
Si Si3 0.257542 0.923661 0.530752
Si Si4 0.705687 0.399848 0.060201
O O1 0.307134 0.887886 0.668353
O O2 0.373460 0.698716 0.839020
O O3 0.000000 0.270560 0.750000
O O4 0.102259 0.484590 0.885205
O O5 0.811031 0.311747 0.958153
O O6 0.232537 0.221489 0.956704
O O7 0.500000 0.000000 0.500000
O O8 0.000000 0.000000 0.500000
O O9 0.500000 0.500000 0.000000
#
# Coordination Sequence:
#
# PCOD9237979 Si02
#       4
#     2   4   4   4
#     4  12  26  52  84 106 166 196 270 334 396 470
#     4  11  26  45  76 111 158 195 262 323 395 478
#     4  12  30  52  77 112 154 221 266 318 393 474
#     4  11  23  47  75 118 148 202 252 332 411 465
#
# _framework density 23.085208999999999
#
# number of rings (size 3 to 8) (size 9 to 14) (size 15 to 20)
#    0.000    0.571    2.857    3.429    8.000    2.286 
#    0.000    0.000    0.000    0.000    0.000    0.000 
#    0.000    0.000    0.000    0.000    0.000    0.000 
#
# Total GULP energy -78342.756196 kJ/mol
# GULP energy per Si atom -5595.911157 kJ/mol
# Density = 2.303267 g / cm^3
# Si number density = 23.085209 Si / 1000 Ang^3
#
#
#
# Elastic Constant Matrix: (Units=GPa)
#
#
# Indices 1 2 3 4 5 6 
#
# 1 155.3228 65.7932 87.1013 0.0000 -14.5436 0.0000
# 2 65.7932 95.1138 57.2132 0.0000 -2.8334 0.0000
# 3 87.1013 57.2132 220.4531 0.0000 2.8180 0.0000
# 4 0.0000 0.0000 0.0000 52.0940 0.0000 9.4450
# 5 -14.5436 -2.8334 2.8180 0.0000 43.8968 0.0000
# 6 0.0000 0.0000 0.0000 9.4450 0.0000 55.7568
#
#
#
# Elastic Compliance Matrix: (Units=1/GPa)
#
#
# Indices 1 2 3 4 5 6 
#
# 1 0.010712 -0.005614 -0.002818 0.000000 0.003368 0.000000
# 2 -0.005614 0.015446 -0.001781 0.000000 -0.000749 0.000000
# 3 -0.002818 -0.001781 0.006130 0.000000 -0.001442 0.000000
# 4 0.000000 0.000000 0.000000 0.019804 0.000000 -0.003355
# 5 0.003368 -0.000749 -0.001442 0.000000 0.023941 0.000000
# 6 0.000000 0.000000 0.000000 -0.003355 0.000000 0.018503
#
#
# Mechanical properties :
#
#
# Convention : Reuss Voigt Hill
#
# Bulk Modulus (GPa) = 84.30614 99.01166 91.65890
# Shear Modulus (GPa) = 42.04576 47.73498 44.89037
#
# Velocity S-wave (km/s) = 4.27233 4.55221 4.41449
# Velocity P-wave (km/s) = 7.80615 8.40315 8.11014
#
# Compressibility (1/GPa) = 0.01186153
#
# Stress axis : x y z
#
# Youngs Moduli (GPa) = 93.35174 64.74063 163.12440
#
# Poissons Ratio (x) = 0.36347 0.45975
# Poissons Ratio (y) = 0.52410 0.29051
# Poissons Ratio (z) = 0.26310 0.11530
#
# Static dielectric constant tensor:
#      x y z
#    x 1.930600 0.000000 0.025120 
#    y 0.000000 1.896680 0.000000 
#    z 0.025120 0.000000 1.815840 
# 
# From -- ./inp_files/25238.got.cif
#   From: 2010.05.17/outbox.cif.g08.bks.cpg/sg13_13_cif.got.tgz:25238.got - 2010.06.03 16:44:36.
