data_PCOD9237659
_publ_section_title
;
Structure prediction by ZEFSAII (Michael W. Deem and Ramdas Pophale) SiO2 
 PCOD9237659
Probable space group: P 2/C
;
_chemical_formula_sum "Si O2"
_cell_formula_units_Z 32
_cell_length_a 9.695286
_cell_length_b 13.516847
_cell_length_c 26.999541
_cell_angle_alpha 90.000000
_cell_angle_beta 27.847524
_cell_angle_gamma 90.000000
_cell_volume 1652.802831
_symmetry_space_group_name_H-M "P 2/C"
_symmetry_group_IT_number 13
_symmetry_cell_setting 'monoclinic'
loop_
_space_group_symop_operation_xyz
x,y,z
-x,y,1/2-z
-x,-y,-z
x,-y,1/2+z
loop_
_atom_site_type_symbol
_atom_site_label
_atom_site_fract_x
_atom_site_fract_y
_atom_site_fract_z
Si Si1 0.363708 0.091006 0.512770
Si Si2 0.166558 0.855647 0.250783
Si Si3 0.772853 0.631790 0.276393
Si Si4 0.151990 0.215936 0.363652
Si Si5 0.090368 0.583659 0.513007
Si Si6 0.870535 0.747734 0.845894
Si Si7 0.838950 0.468656 0.396322
Si Si8 0.772414 0.041162 0.533059
O O1 0.571200 0.187913 0.447643
O O2 0.053207 0.107655 0.637655
O O3 0.500000 0.000000 0.500000
O O4 0.321773 0.049814 0.471483
O O5 0.226416 0.741881 0.244578
O O6 0.472886 0.913109 0.149939
O O7 0.000000 0.863153 0.250000
O O8 0.435068 0.607709 0.395172
O O9 0.000000 0.637020 0.250000
O O10 0.922759 0.547290 0.197041
O O11 0.500000 0.195131 0.250000
O O12 0.086442 0.311283 0.421210
O O13 0.059218 0.229931 0.335532
O O14 0.945460 0.127057 0.448386
O O15 0.082077 0.543597 0.571349
O O16 0.000000 0.500000 0.500000
O O17 0.843502 0.629803 0.861156
O O18 0.000000 0.770553 0.750000
O O19 0.500000 0.500000 0.500000
O O20 0.000000 0.000000 0.500000
#
# Coordination Sequence:
#
# PCOD9237659 Si02
#       8
#     4   4   4   4   4   4   4   4
#     4  12  25  43  72 101 135 181 238 285 345 423
#     4  11  23  45  73  99 136 180 234 290 349 415
#     4  11  22  43  73  98 135 182 226 293 351 408
#     4  11  26  48  68  97 143 184 233 289 352 431
#     4  11  26  44  68 100 139 184 230 278 356 420
#     4  11  26  43  70 108 136 178 239 288 350 421
#     4  11  23  42  69 104 139 172 229 287 343 414
#     4  12  28  46  69 102 142 186 231 293 361 412
#
# _framework density 19.361052999999998
#
# number of rings (size 3 to 8) (size 9 to 14) (size 15 to 20)
#    0.000    0.750    5.000    1.125   12.250    0.000 
#    2.250    1.250    0.000    0.000    0.000    0.000 
#    0.000    0.000    0.000    0.000    0.000    0.000 
#
# Total GULP energy -178461.758020 kJ/mol
# GULP energy per Si atom -5576.929938 kJ/mol
# Density = 1.931699 g / cm^3
# Si number density = 19.361053 Si / 1000 Ang^3
#
#
#
# Elastic Constant Matrix: (Units=GPa)
#
#
# Indices 1 2 3 4 5 6 
#
# 1 74.2871 39.1736 26.6142 0.0000 -7.5653 0.0000
# 2 39.1736 105.1819 71.7936 0.0000 -0.0293 0.0000
# 3 26.6142 71.7936 175.8500 0.0000 -16.2639 0.0000
# 4 0.0000 0.0000 0.0000 58.5964 0.0000 -6.8134
# 5 -7.5653 -0.0293 -16.2639 0.0000 31.4928 0.0000
# 6 0.0000 0.0000 0.0000 -6.8134 0.0000 19.0460
#
#
#
# Elastic Compliance Matrix: (Units=1/GPa)
#
#
# Indices 1 2 3 4 5 6 
#
# 1 0.017316 -0.006849 0.000588 0.000000 0.004457 0.000000
# 2 -0.006849 0.016147 -0.005993 0.000000 -0.004725 0.000000
# 3 0.000588 -0.005993 0.008461 0.000000 0.004505 0.000000
# 4 0.000000 0.000000 0.000000 0.017807 0.000000 0.006370
# 5 0.004457 -0.004725 0.004505 0.000000 0.035146 0.000000
# 6 0.000000 0.000000 0.000000 0.006370 0.000000 0.054783
#
#
# Mechanical properties :
#
#
# Convention : Reuss Voigt Hill
#
# Bulk Modulus (GPa) = 57.41768 70.05355 63.73561
# Shear Modulus (GPa) = 27.78164 36.34286 32.06225
#
# Velocity S-wave (km/s) = 3.79215 4.33727 4.07384
# Velocity P-wave (km/s) = 6.99246 7.83223 7.42423
#
# Compressibility (1/GPa) = 0.01741624
#
# Stress axis : x y z
#
# Youngs Moduli (GPa) = 57.74878 61.92927 118.18829
#
# Poissons Ratio (x) = 0.42417 -0.06946
# Poissons Ratio (y) = 0.39553 0.70829
# Poissons Ratio (z) = -0.03394 0.37113
#
# Static dielectric constant tensor:
#      x y z
#    x 1.670270 0.000000 0.023530 
#    y 0.000000 1.685370 0.000000 
#    z 0.023530 0.000000 1.620430 
# 
# From -- ./inp_files/85316.got.cif
#   From: 2010.05.17/outbox.cif.g08.bks.cpg/sg13_43_cif.got.tgz:85316.got - 2010.06.03 16:44:36.
