data_PCOD9237954
_publ_section_title
;
Structure prediction by ZEFSAII (Michael W. Deem and Ramdas Pophale) SiO2 
 PCOD9237954
Probable space group: P 2/C
;
_chemical_formula_sum "Si O2"
_cell_formula_units_Z 24
_cell_length_a 8.114975
_cell_length_b 14.407393
_cell_length_c 17.681826
_cell_angle_alpha 90.000000
_cell_angle_beta 148.648168
_cell_angle_gamma 90.000000
_cell_volume 1075.589977
_symmetry_space_group_name_H-M "P 2/C"
_symmetry_group_IT_number 13
_symmetry_cell_setting 'monoclinic'
loop_
_space_group_symop_operation_xyz
x,y,z
-x,y,1/2-z
-x,-y,-z
x,-y,1/2+z
loop_
_atom_site_type_symbol
_atom_site_label
_atom_site_fract_x
_atom_site_fract_y
_atom_site_fract_z
Si Si1 0.395817 0.294209 0.291693
Si Si2 0.411065 0.289619 0.802626
Si Si3 0.928433 0.099194 0.311347
Si Si4 0.484307 0.915724 0.337005
Si Si5 0.788371 0.610192 0.056584
Si Si6 0.203144 0.400525 0.442137
O O1 0.500000 0.324523 0.250000
O O2 0.269097 0.189728 0.241105
O O3 0.696317 0.309244 0.462381
O O4 0.132372 0.365827 0.220131
O O5 0.500000 0.294322 0.750000
O O6 0.331161 0.184574 0.793747
O O7 0.134556 0.359539 0.718261
O O8 0.725294 0.324189 0.966957
O O9 0.000000 0.118713 0.250000
O O10 0.207088 0.084086 0.484720
O O11 0.722654 0.005727 0.227316
O O12 0.500000 0.917054 0.250000
O O13 0.815008 0.505594 0.035891
O O14 0.501642 0.606446 0.003417
#
# Coordination Sequence:
#
# PCOD9237954 Si02
#       6
#     4   4   4   4   4   4
#     4  12  26  43  69  99 139 184 234 292 358 419
#     4  11  24  42  67 101 139 180 235 285 352 420
#     4  12  26  47  73 107 144 183 237 295 352 429
#     4  11  26  46  74 104 147 184 232 293 355 429
#     4  11  25  40  71  96 136 188 228 296 348 421
#     4  11  23  46  63 100 137 178 240 289 353 416
#
# _framework density 22.313337000000001
#
# number of rings (size 3 to 8) (size 9 to 14) (size 15 to 20)
#    0.000    0.667    1.667    5.500    4.667    8.000 
#    0.000    0.000    0.000    0.000    0.000    0.000 
#    0.000    0.000    0.000    0.000    0.000    0.000 
#
# Total GULP energy -133907.690098 kJ/mol
# GULP energy per Si atom -5579.487087 kJ/mol
# Density = 2.226255 g / cm^3
# Si number density = 22.313337 Si / 1000 Ang^3
#
#
#
# Elastic Constant Matrix: (Units=GPa)
#
#
# Indices 1 2 3 4 5 6 
#
# 1 69.7342 20.6664 21.9377 0.0000 -0.1628 0.0000
# 2 20.6664 126.8574 13.7304 0.0000 7.3084 0.0000
# 3 21.9377 13.7304 110.9046 0.0000 -22.2787 0.0000
# 4 0.0000 0.0000 0.0000 46.2984 0.0000 20.1285
# 5 -0.1628 7.3084 -22.2787 0.0000 31.8197 0.0000
# 6 0.0000 0.0000 0.0000 20.1285 0.0000 30.7813
#
#
#
# Elastic Compliance Matrix: (Units=1/GPa)
#
#
# Indices 1 2 3 4 5 6 
#
# 1 0.015994 -0.002158 -0.003236 0.000000 -0.001688 0.000000
# 2 -0.002158 0.008525 -0.001192 0.000000 -0.002803 0.000000
# 3 -0.003236 -0.001192 0.011469 0.000000 0.008287 0.000000
# 4 0.000000 0.000000 0.000000 0.030179 0.000000 -0.019734
# 5 -0.001688 -0.002803 0.008287 0.000000 0.037865 0.000000
# 6 0.000000 0.000000 0.000000 -0.019734 0.000000 0.045392
#
#
# Mechanical properties :
#
#
# Convention : Reuss Voigt Hill
#
# Bulk Modulus (GPa) = 43.82695 46.68503 45.25599
# Shear Modulus (GPa) = 29.37733 38.52400 33.95066
#
# Velocity S-wave (km/s) = 3.63241 4.15963 3.90493
# Velocity P-wave (km/s) = 6.10547 6.63610 6.37631
#
# Compressibility (1/GPa) = 0.02281701
#
# Stress axis : x y z
#
# Youngs Moduli (GPa) = 62.52479 117.30297 87.19098
#
# Poissons Ratio (x) = 0.25315 0.28211
# Poissons Ratio (y) = 0.13493 0.10390
# Poissons Ratio (z) = 0.20230 0.13979
#
# Static dielectric constant tensor:
#      x y z
#    x 1.838690 0.000000 -0.037940 
#    y 0.000000 1.742160 0.000000 
#    z -0.037940 0.000000 1.801360 
# 
# From -- ./inp_files/64701.got.cif
#   From: 2010.05.17/outbox.cif.g08.bks.cpg/sg13_33_cif.got.tgz:64701.got - 2010.06.03 16:44:36.
