data_PCOD9237183
_publ_section_title
;
Structure prediction by ZEFSAII (Michael W. Deem and Ramdas Pophale) SiO2 
 PCOD9237183
Probable space group: P 2/C
;
_chemical_formula_sum "Si O2"
_cell_formula_units_Z 16
_cell_length_a 5.643602
_cell_length_b 14.029064
_cell_length_c 7.770350
_cell_angle_alpha 90.000000
_cell_angle_beta 90.539746
_cell_angle_gamma 90.000000
_cell_volume 615.185918
_symmetry_space_group_name_H-M "P 2/C"
_symmetry_group_IT_number 13
_symmetry_cell_setting 'monoclinic'
loop_
_space_group_symop_operation_xyz
x,y,z
-x,y,1/2-z
-x,-y,-z
x,-y,1/2+z
loop_
_atom_site_type_symbol
_atom_site_label
_atom_site_fract_x
_atom_site_fract_y
_atom_site_fract_z
Si Si1 0.500000 0.731718 0.750000
Si Si2 0.000000 0.294625 0.750000
Si Si3 0.392804 0.398778 0.563169
Si Si4 0.229380 0.882973 0.435538
Si Si5 0.500000 0.032165 0.250000
Si Si6 0.000000 0.162313 0.250000
O O1 0.508042 0.670622 0.578447
O O2 0.761991 0.777517 0.748629
O O3 0.878523 0.363601 0.893763
O O4 0.816656 0.217938 0.660532
O O5 0.500000 0.386155 0.750000
O O6 0.500000 0.500000 0.500000
O O7 0.442302 0.906067 0.577465
O O8 0.012575 0.891381 0.567380
O O9 0.285779 0.960598 0.291352
#
# Coordination Sequence:
#
# PCOD9237183 Si02
#       6
#     2   2   4   4   2   2
#     4  12  27  52  79 128 160 230 282 357 424 519
#     4  12  28  50  86 122 160 234 286 358 430 540
#     4  12  28  52  82 122 170 218 288 364 442 522
#     4  11  26  49  78 121 170 219 290 346 437 515
#     4  10  27  50  81 120 170 226 280 367 428 509
#     4  12  26  48  82 114 168 218 290 340 424 524
#
# _framework density 26.008395
#
# number of rings (size 3 to 8) (size 9 to 14) (size 15 to 20)
#    0.000    0.500    3.750    2.250    5.250    9.000 
#    0.000    0.000    0.000    0.000    0.000    0.000 
#    0.000    0.000    0.000    0.000    0.000    0.000 
#
# Total GULP energy -89158.037703 kJ/mol
# GULP energy per Si atom -5572.377356 kJ/mol
# Density = 2.594920 g / cm^3
# Si number density = 26.008395 Si / 1000 Ang^3
#
#
#
# Elastic Constant Matrix: (Units=GPa)
#
#
# Indices 1 2 3 4 5 6 
#
# 1 145.8111 106.2087 68.7591 0.0000 -22.3594 0.0000
# 2 106.2087 164.9935 78.1467 0.0000 -27.2670 0.0000
# 3 68.7591 78.1467 198.5657 0.0000 -19.8393 0.0000
# 4 0.0000 0.0000 0.0000 44.8910 0.0000 -8.0217
# 5 -22.3594 -27.2670 -19.8393 0.0000 71.2437 0.0000
# 6 0.0000 0.0000 0.0000 -8.0217 0.0000 25.7697
#
#
#
# Elastic Compliance Matrix: (Units=1/GPa)
#
#
# Indices 1 2 3 4 5 6 
#
# 1 0.013317 -0.007735 -0.001487 0.000000 0.000805 0.000000
# 2 -0.007735 0.012259 -0.001975 0.000000 0.001714 0.000000
# 3 -0.001487 -0.001975 0.006384 0.000000 0.000555 0.000000
# 4 0.000000 0.000000 0.000000 0.023588 0.000000 0.007343
# 5 0.000805 0.001714 0.000555 0.000000 0.015100 0.000000
# 6 0.000000 0.000000 0.000000 0.007343 0.000000 0.041091
#
#
# Mechanical properties :
#
#
# Convention : Reuss Voigt Hill
#
# Bulk Modulus (GPa) = 104.53613 112.84438 108.69025
# Shear Modulus (GPa) = 36.41137 45.46461 40.93799
#
# Velocity S-wave (km/s) = 3.74570 4.18553 3.97171
# Velocity P-wave (km/s) = 7.68033 8.17558 7.93182
#
# Compressibility (1/GPa) = 0.00956607
#
# Stress axis : x y z
#
# Youngs Moduli (GPa) = 75.09205 81.57517 156.65210
#
# Poissons Ratio (x) = 0.63099 0.23290
# Poissons Ratio (y) = 0.58085 0.30934
# Poissons Ratio (z) = 0.11164 0.16108
#
# Static dielectric constant tensor:
#      x y z
#    x 2.183530 0.000000 0.017750 
#    y 0.000000 2.260780 0.000000 
#    z 0.017750 0.000000 2.094710 
# 
# From -- ./inp_files/8965.got.cif
#   From: 2010.05.17/outbox.cif.g08.bks.cpg/sg13_5_cif.got.tgz:8965.got - 2010.06.03 16:44:36.
