data_PCOD9237337
_publ_section_title
;
Structure prediction by ZEFSAII (Michael W. Deem and Ramdas Pophale) SiO2 
 PCOD9237337
Probable space group: P 2/C
;
_chemical_formula_sum "Si O2"
_cell_formula_units_Z 28
_cell_length_a 16.201992
_cell_length_b 9.343476
_cell_length_c 21.201457
_cell_angle_alpha 90.000000
_cell_angle_beta 154.587285
_cell_angle_gamma 90.000000
_cell_volume 1377.327215
_symmetry_space_group_name_H-M "P 2/C"
_symmetry_group_IT_number 13
_symmetry_cell_setting 'monoclinic'
loop_
_space_group_symop_operation_xyz
x,y,z
-x,y,1/2-z
-x,-y,-z
x,-y,1/2+z
loop_
_atom_site_type_symbol
_atom_site_label
_atom_site_fract_x
_atom_site_fract_y
_atom_site_fract_z
Si Si1 0.722281 0.212673 0.390529
Si Si2 0.726105 0.022329 0.665635
Si Si3 0.300104 0.422766 0.372082
Si Si4 0.795608 0.194923 0.106533
Si Si5 0.719431 0.128682 0.910359
Si Si6 0.950954 0.701669 0.288318
Si Si7 0.125927 0.784932 0.644994
O O1 0.500000 0.253406 0.250000
O O2 0.801666 0.245895 0.375351
O O3 0.860552 0.282669 0.538170
O O4 0.731827 0.039694 0.403043
O O5 0.814659 0.936952 0.667499
O O6 0.796844 0.940119 0.777093
O O7 0.500000 0.000000 0.500000
O O8 0.799299 0.183114 0.711459
O O9 0.500000 0.500000 0.500000
O O10 0.340920 0.311425 0.456983
O O11 0.143645 0.545730 0.276196
O O12 0.221815 0.326966 0.259939
O O13 0.000000 0.271949 0.250000
O O14 0.752750 0.145894 0.007628
O O15 0.500000 0.179028 0.750000
O O16 0.894505 0.207754 0.994953
O O17 0.000000 0.739243 0.250000
#
# Coordination Sequence:
#
# PCOD9237337 Si02
#       7
#     4   4   4   4   4   4   4
#     4  11  26  44  70 106 144 178 225 295 359 411
#     4  11  23  36  70 102 134 177 235 291 345 406
#     4  11  26  45  70  98 139 186 234 288 344 415
#     4  11  20  44  67  97 133 177 233 288 339 404
#     4  11  23  40  72 105 137 178 223 287 351 416
#     4  12  25  42  69 100 137 185 233 284 346 415
#     4  11  24  46  67 102 144 178 233 293 346 414
#
# _framework density 20.329228000000001
#
# number of rings (size 3 to 8) (size 9 to 14) (size 15 to 20)
#    0.000    0.857    4.286    3.857    8.000    1.714 
#    0.000    0.714    0.000    0.000    0.000    0.000 
#    0.000    0.000    0.000    0.000    0.000    0.000 
#
# Total GULP energy -156420.678147 kJ/mol
# GULP energy per Si atom -5586.452791 kJ/mol
# Density = 2.028296 g / cm^3
# Si number density = 20.329228 Si / 1000 Ang^3
#
#
#
# Elastic Constant Matrix: (Units=GPa)
#
#
# Indices 1 2 3 4 5 6 
#
# 1 116.2887 13.6133 49.8930 0.0000 -4.0420 0.0000
# 2 13.6133 76.5352 10.7277 0.0000 5.8680 0.0000
# 3 49.8930 10.7277 137.8334 0.0000 16.1313 0.0000
# 4 0.0000 0.0000 0.0000 39.1170 0.0000 19.7744
# 5 -4.0420 5.8680 16.1313 0.0000 29.6111 0.0000
# 6 0.0000 0.0000 0.0000 19.7744 0.0000 34.3229
#
#
#
# Elastic Compliance Matrix: (Units=1/GPa)
#
#
# Indices 1 2 3 4 5 6 
#
# 1 0.010755 -0.001632 -0.004246 0.000000 0.004105 0.000000
# 2 -0.001632 0.013593 -0.000134 0.000000 -0.002843 0.000000
# 3 -0.004246 -0.000134 0.009471 0.000000 -0.005713 0.000000
# 4 0.000000 0.000000 0.000000 0.036069 0.000000 -0.020780
# 5 0.004105 -0.002843 -0.005713 0.000000 0.038007 0.000000
# 6 0.000000 0.000000 0.000000 -0.020780 0.000000 0.041107
#
#
# Mechanical properties :
#
#
# Convention : Reuss Voigt Hill
#
# Bulk Modulus (GPa) = 45.88635 53.23613 49.56124
# Shear Modulus (GPa) = 29.70995 37.70508 33.70752
#
# Velocity S-wave (km/s) = 3.82703 4.31132 4.07637
# Velocity P-wave (km/s) = 6.49221 7.14333 6.82554
#
# Compressibility (1/GPa) = 0.02179298
#
# Stress axis : x y z
#
# Youngs Moduli (GPa) = 92.98004 73.56683 105.58205
#
# Poissons Ratio (x) = 0.12010 0.44835
# Poissons Ratio (y) = 0.15179 0.01417
# Poissons Ratio (z) = 0.39484 0.00988
#
# Static dielectric constant tensor:
#      x y z
#    x 1.853220 0.000000 0.066940 
#    y 0.000000 1.705680 0.000000 
#    z 0.066940 0.000000 1.731010 
# 
# From -- ./inp_files/80019.got.cif
#   From: 2010.05.17/outbox.cif.g08.bks.cpg/sg13_41_cif.got.tgz:80019.got - 2010.06.03 16:44:36.
