data_PCOD9237295
_publ_section_title
;
Structure prediction by ZEFSAII (Michael W. Deem and Ramdas Pophale) SiO2 
 PCOD9237295
Probable space group: P 2/C
;
_chemical_formula_sum "Si O2"
_cell_formula_units_Z 20
_cell_length_a 14.322240
_cell_length_b 7.312520
_cell_length_c 27.714860
_cell_angle_alpha 90.000000
_cell_angle_beta 17.937244
_cell_angle_gamma 90.000000
_cell_volume 893.935807
_symmetry_space_group_name_H-M "P 2/C"
_symmetry_group_IT_number 13
_symmetry_cell_setting 'monoclinic'
loop_
_space_group_symop_operation_xyz
x,y,z
-x,y,1/2-z
-x,-y,-z
x,-y,1/2+z
loop_
_atom_site_type_symbol
_atom_site_label
_atom_site_fract_x
_atom_site_fract_y
_atom_site_fract_z
Si Si1 0.754024 0.659769 0.775994
Si Si2 0.877104 0.255941 0.032243
Si Si3 0.230158 0.423244 0.599804
Si Si4 0.029503 0.119493 0.060601
Si Si5 0.459743 0.414590 0.703107
O O1 0.715742 0.493329 0.756828
O O2 0.846022 0.834871 0.699018
O O3 0.026246 0.585616 0.676369
O O4 0.428352 0.681535 0.962172
O O5 0.847698 0.180307 0.101194
O O6 0.212354 0.340841 0.861993
O O7 0.654880 0.414851 0.125501
O O8 0.871884 0.085876 0.998399
O O9 0.500000 0.500000 0.500000
O O10 0.000000 0.322874 0.750000
O O11 0.319802 0.250957 0.919498
#
# Coordination Sequence:
#
# PCOD9237295 Si02
#       5
#     4   4   4   4   4
#     4  11  20  37  63  99 132 178 223 272 343 407
#     4  11  27  41  63  95 138 196 226 295 324 392
#     4   9  19  36  64 102 137 166 222 280 358 430
#     4  11  25  41  62  97 142 177 246 273 342 394
#     4  12  23  42  65  92 135 183 235 277 338 401
#
# _framework density 22.372969999999999
#
# number of rings (size 3 to 8) (size 9 to 14) (size 15 to 20)
#    0.000    1.200    4.000    1.200    5.600    0.000 
#    0.000    0.000    0.000    0.000    0.000   88.200 
#    0.000    0.000    0.000    0.000    0.000    0.000 
#
# Total GULP energy -111870.213964 kJ/mol
# GULP energy per Si atom -5593.510698 kJ/mol
# Density = 2.232205 g / cm^3
# Si number density = 22.372970 Si / 1000 Ang^3
#
#
#
# Elastic Constant Matrix: (Units=GPa)
#
#
# Indices 1 2 3 4 5 6 
#
# 1 91.4555 25.3210 25.2386 0.0000 -2.2896 0.0000
# 2 25.3210 130.2353 47.1773 0.0000 -1.2491 0.0000
# 3 25.2386 47.1773 176.4504 0.0000 27.8432 0.0000
# 4 0.0000 0.0000 0.0000 18.9544 0.0000 6.2086
# 5 -2.2896 -1.2491 27.8432 0.0000 51.1247 0.0000
# 6 0.0000 0.0000 0.0000 6.2086 0.0000 17.1307
#
#
#
# Elastic Compliance Matrix: (Units=1/GPa)
#
#
# Indices 1 2 3 4 5 6 
#
# 1 0.011849 -0.001778 -0.001418 0.000000 0.001260 0.000000
# 2 -0.001778 0.008887 -0.002345 0.000000 0.001415 0.000000
# 3 -0.001418 -0.002345 0.007129 0.000000 -0.004003 0.000000
# 4 0.000000 0.000000 0.000000 0.059865 0.000000 -0.021697
# 5 0.001260 0.001415 -0.004003 0.000000 0.021831 0.000000
# 6 0.000000 0.000000 0.000000 -0.021697 0.000000 0.066238
#
#
# Mechanical properties :
#
#
# Convention : Reuss Voigt Hill
#
# Bulk Modulus (GPa) = 59.58461 65.95721 62.77091
# Shear Modulus (GPa) = 25.97714 37.46892 31.72303
#
# Velocity S-wave (km/s) = 3.41118 4.09680 3.76961
# Velocity P-wave (km/s) = 6.49655 7.20577 6.86033
#
# Compressibility (1/GPa) = 0.01678286
#
# Stress axis : x y z
#
# Youngs Moduli (GPa) = 84.39197 112.52194 140.27449
#
# Poissons Ratio (x) = 0.20006 0.19895
# Poissons Ratio (y) = 0.15005 0.32895
# Poissons Ratio (z) = 0.11969 0.26387
#
# Static dielectric constant tensor:
#      x y z
#    x 1.912800 0.000000 0.030120 
#    y 0.000000 1.779800 0.000000 
#    z 0.030120 0.000000 1.911450 
# 
# From -- ./inp_files/92759.got.cif
#   From: 2010.05.17/outbox.cif.g08.bks.cpg/sg13_47_cif.got.tgz:92759.got - 2010.06.03 16:44:36.
