data_PCOD9237040
_publ_section_title
;
Structure prediction by ZEFSAII (Michael W. Deem and Ramdas Pophale) SiO2 
 PCOD9237040
Probable space group: P 2/C
;
_chemical_formula_sum "Si O2"
_cell_formula_units_Z 30
_cell_length_a 11.409094
_cell_length_b 11.839693
_cell_length_c 14.528946
_cell_angle_alpha 90.000000
_cell_angle_beta 51.912536
_cell_angle_gamma 90.000000
_cell_volume 1544.681952
_symmetry_space_group_name_H-M "P 2/C"
_symmetry_group_IT_number 13
_symmetry_cell_setting 'monoclinic'
loop_
_space_group_symop_operation_xyz
x,y,z
-x,y,1/2-z
-x,-y,-z
x,-y,1/2+z
loop_
_atom_site_type_symbol
_atom_site_label
_atom_site_fract_x
_atom_site_fract_y
_atom_site_fract_z
Si Si1 0.805174 0.449194 0.432052
Si Si2 0.327087 0.703339 0.222912
Si Si3 0.240410 0.656313 0.932821
Si Si4 0.338145 0.761280 0.418880
Si Si5 0.849656 0.524833 0.700800
Si Si6 0.597600 0.988686 0.543192
Si Si7 0.160086 0.813643 0.130937
Si Si8 0.500000 0.170842 0.250000
O O1 0.709874 0.544786 0.532498
O O2 0.782833 0.323630 0.481276
O O3 0.782734 0.443808 0.333232
O O4 0.974527 0.489473 0.368433
O O5 0.306900 0.774760 0.325642
O O6 0.506221 0.696048 0.133357
O O7 0.240109 0.587342 0.282257
O O8 0.259746 0.755994 0.162957
O O9 0.166354 0.610808 0.875740
O O10 0.366065 0.743134 0.837327
O O11 0.144788 0.727695 0.052760
O O12 0.359470 0.886226 0.446148
O O13 0.747667 0.920154 0.448973
O O14 0.502553 0.914948 0.662339
O O15 0.500000 0.000000 0.500000
O O16 0.000000 0.840262 0.250000
#
# Coordination Sequence:
#
# PCOD9237040 Si02
#       8
#     4   4   4   4   4   4   4   2
#     4  11  24  40  63 100 138 178 220 268 347 406
#     4  11  22  40  68  98 135 173 226 272 334 421
#     4  11  23  40  67  96 138 169 220 279 336 407
#     4  11  25  41  68  99 129 181 224 280 338 393
#     4  11  24  40  62  98 144 178 212 277 338 416
#     4  11  24  48  69  93 137 179 229 290 332 392
#     4  11  24  44  71  99 129 185 228 275 342 409
#     4  10  26  42  64 102 122 174 234 274 342 392
#
# _framework density 19.421475000000001
#
# number of rings (size 3 to 8) (size 9 to 14) (size 15 to 20)
#    0.000    1.067    4.000    2.000    5.600    0.533 
#    2.400    0.667    0.000    0.000    0.000    0.000 
#    0.000    0.000    0.000    0.000    0.000    0.000 
#
# Total GULP energy -167361.860171 kJ/mol
# GULP energy per Si atom -5578.728672 kJ/mol
# Density = 1.937727 g / cm^3
# Si number density = 19.421475 Si / 1000 Ang^3
#
#
#
# Elastic Constant Matrix: (Units=GPa)
#
#
# Indices 1 2 3 4 5 6 
#
# 1 74.8096 39.2073 47.3612 0.0000 25.3701 0.0000
# 2 39.2073 131.6449 57.5519 0.0000 10.4084 0.0000
# 3 47.3612 57.5519 116.8925 0.0000 20.2124 0.0000
# 4 0.0000 0.0000 0.0000 19.3768 0.0000 8.0567
# 5 25.3701 10.4084 20.2124 0.0000 30.7141 0.0000
# 6 0.0000 0.0000 0.0000 8.0567 0.0000 30.6426
#
#
#
# Elastic Compliance Matrix: (Units=1/GPa)
#
#
# Indices 1 2 3 4 5 6 
#
# 1 0.023574 -0.003560 -0.005236 0.000000 -0.014820 0.000000
# 2 -0.003560 0.010218 -0.003947 0.000000 0.002076 0.000000
# 3 -0.005236 -0.003947 0.013135 0.000000 -0.002982 0.000000
# 4 0.000000 0.000000 0.000000 0.057943 0.000000 -0.015235
# 5 -0.014820 0.002076 -0.002982 0.000000 0.046058 0.000000
# 6 0.000000 0.000000 0.000000 -0.015235 0.000000 0.036640
#
#
# Mechanical properties :
#
#
# Convention : Reuss Voigt Hill
#
# Bulk Modulus (GPa) = 46.64089 67.95421 57.29755
# Shear Modulus (GPa) = 22.70644 28.09514 25.40079
#
# Velocity S-wave (km/s) = 3.42298 3.80755 3.62037
# Velocity P-wave (km/s) = 6.29997 7.37530 6.85874
#
# Compressibility (1/GPa) = 0.02144041
#
# Stress axis : x y z
#
# Youngs Moduli (GPa) = 42.41984 97.86609 76.13073
#
# Poissons Ratio (x) = 0.34842 0.39862
# Poissons Ratio (y) = 0.15102 0.30051
# Poissons Ratio (z) = 0.22211 0.38631
#
# Static dielectric constant tensor:
#      x y z
#    x 1.660660 0.000000 -0.000860 
#    y 0.000000 1.670590 0.000000 
#    z -0.000860 0.000000 1.729070 
# 
# From -- ./inp_files/51176.got.cif
#   From: 2010.05.17/outbox.cif.g08.bks.cpg/sg13_26_cif.got.tgz:51176.got - 2010.06.03 16:44:36.
