data_PCOD9237433
_publ_section_title
;
Structure prediction by ZEFSAII (Michael W. Deem and Ramdas Pophale) SiO2 
 PCOD9237433
Probable space group: P 2/C
;
_chemical_formula_sum "Si O2"
_cell_formula_units_Z 32
_cell_length_a 8.716933
_cell_length_b 19.477903
_cell_length_c 14.850456
_cell_angle_alpha 90.000000
_cell_angle_beta 38.298413
_cell_angle_gamma 90.000000
_cell_volume 1562.670246
_symmetry_space_group_name_H-M "P 2/C"
_symmetry_group_IT_number 13
_symmetry_cell_setting 'monoclinic'
loop_
_space_group_symop_operation_xyz
x,y,z
-x,y,1/2-z
-x,-y,-z
x,-y,1/2+z
loop_
_atom_site_type_symbol
_atom_site_label
_atom_site_fract_x
_atom_site_fract_y
_atom_site_fract_z
Si Si1 0.749928 0.852413 0.680664
Si Si2 0.571846 0.127063 0.922379
Si Si3 0.291044 0.246092 0.138256
Si Si4 0.096334 0.965210 0.608819
Si Si5 0.260938 0.426480 0.327748
Si Si6 0.294061 0.572628 0.412023
Si Si7 0.947535 0.887975 0.414948
Si Si8 0.704486 0.399823 0.384625
O O1 0.500000 0.880721 0.750000
O O2 0.687422 0.789010 0.773728
O O3 0.915427 0.840500 0.516463
O O4 0.901653 0.906971 0.669814
O O5 0.728433 0.121804 0.943038
O O6 0.783487 0.125370 0.750197
O O7 0.421703 0.197323 0.005060
O O8 0.366987 0.068255 0.997790
O O9 0.393914 0.323006 0.086583
O O10 0.000000 0.246838 0.250000
O O11 0.000000 0.991571 0.750000
O O12 0.081861 0.030889 0.551146
O O13 0.500000 0.383960 0.250000
O O14 0.259909 0.495257 0.389192
O O15 0.323883 0.442605 0.194205
O O16 0.984950 0.395921 0.462529
O O17 0.500000 0.603976 0.250000
O O18 0.371594 0.574813 0.481366
O O19 0.000000 0.393957 0.250000
#
# Coordination Sequence:
#
# PCOD9237433 Si02
#       8
#     4   4   4   4   4   4   4   4
#     4  12  23  38  58  87 111 147 198 250 298 355
#     4  11  21  40  60  80 116 157 192 244 311 360
#     4  11  21  42  64  78 112 163 210 237 290 373
#     4  12  21  39  61  82 115 154 192 239 309 383
#     4   9  18  34  58  91 128 161 201 245 300 355
#     4   9  18  35  60  91 130 161 198 252 299 352
#     4  11  25  36  59  89 115 146 192 259 312 352
#     4   9  20  37  61  89 120 168 209 238 298 373
#
# _framework density 20.477768999999999
#
# number of rings (size 3 to 8) (size 9 to 14) (size 15 to 20)
#    0.000    1.500    5.000    0.750    1.750    3.000 
#    0.000    5.625    2.750    0.000    0.000    0.000 
#    0.000    0.000    0.000    0.000    0.000    0.000 
#
# Total GULP energy -178261.154703 kJ/mol
# GULP energy per Si atom -5570.661084 kJ/mol
# Density = 2.043116 g / cm^3
# Si number density = 20.477769 Si / 1000 Ang^3
#
#
#
# Elastic Constant Matrix: (Units=GPa)
#
#
# Indices 1 2 3 4 5 6 
#
# 1 89.6769 17.9283 57.8994 0.0000 3.1474 0.0000
# 2 17.9283 73.3558 35.3828 0.0000 8.7292 0.0000
# 3 57.8994 35.3828 145.2478 0.0000 11.7095 0.0000
# 4 0.0000 0.0000 0.0000 4.4729 0.0000 1.2171
# 5 3.1474 8.7292 11.7095 0.0000 46.6949 0.0000
# 6 0.0000 0.0000 0.0000 1.2171 0.0000 17.7903
#
#
#
# Elastic Compliance Matrix: (Units=1/GPa)
#
#
# Indices 1 2 3 4 5 6 
#
# 1 0.015084 -0.000948 -0.005832 0.000000 0.000623 0.000000
# 2 -0.000948 0.015689 -0.003279 0.000000 -0.002047 0.000000
# 3 -0.005832 -0.003279 0.010132 0.000000 -0.001535 0.000000
# 4 0.000000 0.000000 0.000000 0.227810 0.000000 -0.015586
# 5 0.000623 -0.002047 -0.001535 0.000000 0.022141 0.000000
# 6 0.000000 0.000000 0.000000 -0.015586 0.000000 0.057277
#
#
# Mechanical properties :
#
#
# Convention : Reuss Voigt Hill
#
# Bulk Modulus (GPa) = 48.10602 58.96681 53.53641
# Shear Modulus (GPa) = 13.32689 26.92962 20.12826
#
# Velocity S-wave (km/s) = 2.55384 3.63032 3.13858
# Velocity P-wave (km/s) = 5.67794 6.81398 6.27173
#
# Compressibility (1/GPa) = 0.02078742
#
# Stress axis : x y z
#
# Youngs Moduli (GPa) = 66.29378 63.73886 98.69468
#
# Poissons Ratio (x) = 0.06040 0.57563
# Poissons Ratio (y) = 0.06282 0.32364
# Poissons Ratio (z) = 0.38665 0.20901
#
# Static dielectric constant tensor:
#      x y z
#    x 1.801750 0.000000 -0.007000 
#    y 0.000000 1.764400 0.000000 
#    z -0.007000 0.000000 1.778770 
# 
# From -- ./inp_files/48166.got.cif
#   From: 2010.05.17/outbox.cif.g08.bks.cpg/sg13_25_cif.got.tgz:48166.got - 2010.06.03 16:44:36.
