data_PCOD9237331
_publ_section_title
;
Structure prediction by ZEFSAII (Michael W. Deem and Ramdas Pophale) SiO2 
 PCOD9237331
Probable space group: P 2/C
;
_chemical_formula_sum "Si O2"
_cell_formula_units_Z 32
_cell_length_a 18.684656
_cell_length_b 10.922629
_cell_length_c 15.918332
_cell_angle_alpha 90.000000
_cell_angle_beta 24.836706
_cell_angle_gamma 90.000000
_cell_volume 1364.563762
_symmetry_space_group_name_H-M "P 2/C"
_symmetry_group_IT_number 13
_symmetry_cell_setting 'monoclinic'
loop_
_space_group_symop_operation_xyz
x,y,z
-x,y,1/2-z
-x,-y,-z
x,-y,1/2+z
loop_
_atom_site_type_symbol
_atom_site_label
_atom_site_fract_x
_atom_site_fract_y
_atom_site_fract_z
Si Si1 0.819429 0.976155 0.465339
Si Si2 0.659011 0.037203 0.457492
Si Si3 0.099442 0.566693 0.998243
Si Si4 0.226325 0.816907 0.819481
Si Si5 0.677767 0.793018 0.170945
Si Si6 0.742977 0.535030 0.339882
Si Si7 0.391990 0.224077 0.569759
Si Si8 0.595538 0.528917 0.227260
O O1 0.718570 0.986763 0.484631
O O2 0.826478 0.118523 0.483346
O O3 0.000000 0.921183 0.250000
O O4 0.765416 0.905907 0.607909
O O5 0.781895 0.112713 0.261710
O O6 0.494589 0.123644 0.648276
O O7 0.617949 0.914986 0.449453
O O8 0.091147 0.709319 0.979187
O O9 0.179861 0.494548 0.833527
O O10 0.242383 0.547416 0.916352
O O11 0.910139 0.516994 0.219539
O O12 0.409774 0.750923 0.624873
O O13 0.703170 0.762196 0.240896
O O14 0.656873 0.667098 0.144174
O O15 0.683651 0.675286 0.410680
O O16 0.567017 0.460913 0.537166
O O17 0.500000 0.472000 0.250000
#
# Coordination Sequence:
#
# PCOD9237331 Si02
#       8
#     4   4   4   4   4   4   4   4
#     4  12  27  43  63 103 145 177 228 290 347 422
#     4  11  23  42  72  98 131 185 232 286 345 423
#     4  11  25  45  72 103 141 177 239 295 339 429
#     4  11  23  45  70  99 140 185 231 288 354 416
#     4  11  22  46  70  98 131 178 238 281 348 416
#     4  11  24  45  72 104 132 186 237 288 350 408
#     4  11  20  41  77  96 131 182 233 288 346 419
#     4  12  25  45  71  97 140 191 228 290 349 413
#
# _framework density 23.450717999999998
#
# number of rings (size 3 to 8) (size 9 to 14) (size 15 to 20)
#    0.000    0.750    5.000    3.750    1.750    3.000 
#    4.500    0.000    0.000    0.000    0.000    0.000 
#    0.000    0.000    0.000    0.000    0.000    0.000 
#
# Total GULP energy -178600.982290 kJ/mol
# GULP energy per Si atom -5581.280697 kJ/mol
# Density = 2.339734 g / cm^3
# Si number density = 23.450718 Si / 1000 Ang^3
#
#
#
# Elastic Constant Matrix: (Units=GPa)
#
#
# Indices 1 2 3 4 5 6 
#
# 1 83.3480 7.7486 15.3839 0.0000 11.9498 0.0000
# 2 7.7486 83.9042 -1.7849 0.0000 -3.0503 0.0000
# 3 15.3839 -1.7849 59.0054 0.0000 6.3056 0.0000
# 4 0.0000 0.0000 0.0000 12.6309 0.0000 3.8087
# 5 11.9498 -3.0503 6.3056 0.0000 26.0205 0.0000
# 6 0.0000 0.0000 0.0000 3.8087 0.0000 12.2071
#
#
#
# Elastic Compliance Matrix: (Units=1/GPa)
#
#
# Indices 1 2 3 4 5 6 
#
# 1 0.013496 -0.001515 -0.002960 0.000000 -0.005658 0.000000
# 2 -0.001515 0.012142 0.000550 0.000000 0.001986 0.000000
# 3 -0.002960 0.000550 0.018051 0.000000 -0.002951 0.000000
# 4 0.000000 0.000000 0.000000 0.087393 0.000000 -0.027267
# 5 -0.005658 0.001986 -0.002951 0.000000 0.041978 0.000000
# 6 0.000000 0.000000 0.000000 -0.027267 0.000000 0.090427
#
#
# Mechanical properties :
#
#
# Convention : Reuss Voigt Hill
#
# Bulk Modulus (GPa) = 27.90180 29.88365 28.89273
# Shear Modulus (GPa) = 17.65010 23.83236 20.74123
#
# Velocity S-wave (km/s) = 2.74642 3.19136 2.97721
# Velocity P-wave (km/s) = 4.68839 5.13328 4.91587
#
# Compressibility (1/GPa) = 0.03583998
#
# Stress axis : x y z
#
# Youngs Moduli (GPa) = 74.09422 82.35757 55.39775
#
# Poissons Ratio (x) = 0.12478 0.16397
# Poissons Ratio (y) = 0.11226 -0.03047
# Poissons Ratio (z) = 0.21931 -0.04530
#
# Static dielectric constant tensor:
#      x y z
#    x 1.998030 0.000000 0.027740 
#    y 0.000000 1.896670 0.000000 
#    z 0.027740 0.000000 1.998290 
# 
# From -- ./inp_files/55813.got.cif
#   From: 2010.05.17/outbox.cif.g08.bks.cpg/sg13_28_cif.got.tgz:55813.got - 2010.06.03 16:44:36.
