data_PCOD9237580
_publ_section_title
;
Structure prediction by ZEFSAII (Michael W. Deem and Ramdas Pophale) SiO2 
 PCOD9237580
Probable space group: P 2/C
;
_chemical_formula_sum "Si O2"
_cell_formula_units_Z 28
_cell_length_a 20.709825
_cell_length_b 11.113840
_cell_length_c 10.917718
_cell_angle_alpha 90.000000
_cell_angle_beta 146.745165
_cell_angle_gamma 90.000000
_cell_volume 1377.974619
_symmetry_space_group_name_H-M "P 2/C"
_symmetry_group_IT_number 13
_symmetry_cell_setting 'monoclinic'
loop_
_space_group_symop_operation_xyz
x,y,z
-x,y,1/2-z
-x,-y,-z
x,-y,1/2+z
loop_
_atom_site_type_symbol
_atom_site_label
_atom_site_fract_x
_atom_site_fract_y
_atom_site_fract_z
Si Si1 0.881232 0.702226 0.781563
Si Si2 0.880483 0.101399 0.485639
Si Si3 0.118484 0.535689 0.497674
Si Si4 0.482022 0.395608 0.366081
Si Si5 0.888431 0.172590 0.926338
Si Si6 0.763578 0.255981 0.478537
Si Si7 0.725361 0.679903 0.318654
O O1 0.859645 0.813710 0.836945
O O2 0.766268 0.665552 0.522982
O O3 0.909360 0.591665 0.915248
O O4 0.992015 0.750069 0.879967
O O5 0.773598 0.137075 0.407696
O O6 0.903943 0.968943 0.469953
O O7 0.000000 0.133984 0.750000
O O8 0.162882 0.642778 0.479299
O O9 0.219375 0.435804 0.662685
O O10 0.000000 0.485566 0.250000
O O11 0.500000 0.433074 0.250000
O O12 0.500000 0.500000 0.500000
O O13 0.360421 0.321959 0.190313
O O14 0.590742 0.309543 0.572347
O O15 0.827156 0.214293 0.703227
O O16 0.797892 0.207462 0.887790
#
# Coordination Sequence:
#
# PCOD9237580 Si02
#       7
#     4   4   4   4   4   4   4
#     4  11  23  40  65 102 137 174 225 282 350 419
#     4  11  23  42  72 100 137 184 226 285 351 418
#     4  11  22  40  64 100 140 176 214 290 352 421
#     4  12  27  48  73  97 136 190 237 289 346 421
#     4  12  23  41  68 100 138 174 222 282 346 418
#     4  11  23  44  68  99 133 179 235 281 343 417
#     4  12  27  38  65  99 132 177 231 279 352 413
#
# _framework density 20.319676999999999
#
# number of rings (size 3 to 8) (size 9 to 14) (size 15 to 20)
#    0.000    0.571    5.714    3.429    6.000    1.143 
#    0.000    0.714    3.143    0.000    0.000    0.000 
#    0.000    0.000    0.000    0.000    0.000    0.000 
#
# Total GULP energy -156290.427262 kJ/mol
# GULP energy per Si atom -5581.800974 kJ/mol
# Density = 2.027343 g / cm^3
# Si number density = 20.319677 Si / 1000 Ang^3
#
#
#
# Elastic Constant Matrix: (Units=GPa)
#
#
# Indices 1 2 3 4 5 6 
#
# 1 98.2416 29.3112 50.7226 0.0000 -5.4789 0.0000
# 2 29.3112 84.0990 22.5391 0.0000 -2.4178 0.0000
# 3 50.7226 22.5391 110.9830 0.0000 -1.7041 0.0000
# 4 0.0000 0.0000 0.0000 16.7305 0.0000 -12.8336
# 5 -5.4789 -2.4178 -1.7041 0.0000 31.2627 0.0000
# 6 0.0000 0.0000 0.0000 -12.8336 0.0000 23.5029
#
#
#
# Elastic Compliance Matrix: (Units=1/GPa)
#
#
# Indices 1 2 3 4 5 6 
#
# 1 0.014296 -0.003367 -0.005820 0.000000 0.001928 0.000000
# 2 -0.003367 0.013390 -0.001174 0.000000 0.000381 0.000000
# 3 -0.005820 -0.001174 0.011902 0.000000 -0.000462 0.000000
# 4 0.000000 0.000000 0.000000 0.102852 0.000000 0.056162
# 5 0.001928 0.000381 -0.000462 0.000000 0.032329 0.000000
# 6 0.000000 0.000000 0.000000 0.056162 0.000000 0.073215
#
#
# Mechanical properties :
#
#
# Convention : Reuss Voigt Hill
#
# Bulk Modulus (GPa) = 53.01155 55.38548 54.19851
# Shear Modulus (GPa) = 18.18203 27.01591 22.59897
#
# Velocity S-wave (km/s) = 2.99456 3.65025 3.33854
# Velocity P-wave (km/s) = 6.17268 6.71431 6.44918
#
# Compressibility (1/GPa) = 0.01886381
#
# Stress axis : x y z
#
# Youngs Moduli (GPa) = 69.94830 74.68191 84.02016
#
# Poissons Ratio (x) = 0.25148 0.48903
# Poissons Ratio (y) = 0.23554 0.09868
# Poissons Ratio (z) = 0.40712 0.08771
#
# Static dielectric constant tensor:
#      x y z
#    x 1.794100 0.000000 -0.015050 
#    y 0.000000 1.735920 0.000000 
#    z -0.015050 0.000000 1.714050 
# 
# From -- ./inp_files/40822.got.cif
#   From: 2010.05.17/outbox.cif.g08.bks.cpg/sg13_21_cif.got.tgz:40822.got - 2010.06.03 16:44:36.
