data_PCOD9237222
_publ_section_title
;
Structure prediction by ZEFSAII (Michael W. Deem and Ramdas Pophale) SiO2 
 PCOD9237222
Probable space group: P 2/C
;
_chemical_formula_sum "Si O2"
_cell_formula_units_Z 28
_cell_length_a 24.030235
_cell_length_b 12.274380
_cell_length_c 25.444804
_cell_angle_alpha 90.000000
_cell_angle_beta 11.037686
_cell_angle_gamma 90.000000
_cell_volume 1436.886716
_symmetry_space_group_name_H-M "P 2/C"
_symmetry_group_IT_number 13
_symmetry_cell_setting 'monoclinic'
loop_
_space_group_symop_operation_xyz
x,y,z
-x,y,1/2-z
-x,-y,-z
x,-y,1/2+z
loop_
_atom_site_type_symbol
_atom_site_label
_atom_site_fract_x
_atom_site_fract_y
_atom_site_fract_z
Si Si1 0.263511 0.113964 0.182869
Si Si2 0.310748 0.837934 0.476869
Si Si3 0.802591 0.580822 0.115671
Si Si4 0.193152 0.674033 0.675047
Si Si5 0.650209 0.988995 0.244988
Si Si6 0.504224 0.795775 0.565401
Si Si7 0.015099 0.656369 0.440534
O O1 0.221751 0.223352 0.188071
O O2 0.315941 0.149140 0.193327
O O3 0.996509 0.030521 0.420768
O O4 0.554190 0.063744 0.889294
O O5 0.225293 0.729932 0.588892
O O6 0.497882 0.916737 0.341168
O O7 0.000000 0.889984 0.750000
O O8 0.500000 0.815396 0.250000
O O9 0.454192 0.587914 0.440827
O O10 0.892382 0.653447 0.083621
O O11 0.895155 0.624944 0.972695
O O12 0.988045 0.470266 0.950097
O O13 0.508775 0.109318 0.378727
O O14 0.783351 0.739321 0.279564
O O15 0.311324 0.696832 0.763849
#
# Coordination Sequence:
#
# PCOD9237222 Si02
#       7
#     4   4   4   4   4   4   4
#     4  11  19  34  51  81 114 152 185 221 267 342
#     4  11  23  40  60  85 107 137 187 243 292 344
#     4  11  20  36  52  83 113 157 186 225 273 322
#     4  11  20  35  60  78 114 146 186 230 292 339
#     4  11  23  35  55  79 113 148 187 231 286 334
#     4  12  21  35  51  82 116 160 187 226 262 337
#     4  11  22  33  54  79 120 154 195 221 254 332
#
# _framework density 19.486574999999998
#
# number of rings (size 3 to 8) (size 9 to 14) (size 15 to 20)
#    0.000    0.857    2.857    7.714    0.000    2.286 
#    0.000    0.000    0.000    0.000    0.000   20.000 
#    0.000    0.000    0.000    0.000    0.000    0.000 
#
# Total GULP energy -156035.596847 kJ/mol
# GULP energy per Si atom -5572.699887 kJ/mol
# Density = 1.944222 g / cm^3
# Si number density = 19.486575 Si / 1000 Ang^3
#
#
#
# Elastic Constant Matrix: (Units=GPa)
#
#
# Indices 1 2 3 4 5 6 
#
# 1 58.0845 24.3930 26.3098 0.0000 12.5429 0.0000
# 2 24.3930 50.4722 15.7435 0.0000 13.1873 0.0000
# 3 26.3098 15.7435 102.1521 0.0000 25.5944 0.0000
# 4 0.0000 0.0000 0.0000 33.7263 0.0000 1.7991
# 5 12.5429 13.1873 25.5944 0.0000 23.5969 0.0000
# 6 0.0000 0.0000 0.0000 1.7991 0.0000 8.4959
#
#
#
# Elastic Compliance Matrix: (Units=1/GPa)
#
#
# Indices 1 2 3 4 5 6 
#
# 1 0.023569 -0.009377 -0.003844 0.000000 -0.003118 0.000000
# 2 -0.009377 0.026946 0.001080 0.000000 -0.011246 0.000000
# 3 -0.003844 0.001080 0.014078 0.000000 -0.013830 0.000000
# 4 0.000000 0.000000 0.000000 0.029989 0.000000 -0.006350
# 5 -0.003118 -0.011246 -0.013830 0.000000 0.065322 0.000000
# 6 0.000000 0.000000 0.000000 -0.006350 0.000000 0.119049
#
#
# Mechanical properties :
#
#
# Convention : Reuss Voigt Hill
#
# Bulk Modulus (GPa) = 24.80685 38.17794 31.49239
# Shear Modulus (GPa) = 15.78920 22.78130 19.28525
#
# Velocity S-wave (km/s) = 2.84960 3.42289 3.14931
# Velocity P-wave (km/s) = 4.85642 5.93767 5.42406
#
# Compressibility (1/GPa) = 0.04031145
#
# Stress axis : x y z
#
# Youngs Moduli (GPa) = 42.42921 37.11089 71.03265
#
# Poissons Ratio (x) = 0.34799 0.27303
# Poissons Ratio (y) = 0.39785 -0.07671
# Poissons Ratio (z) = 0.16309 -0.04008
#
# Static dielectric constant tensor:
#      x y z
#    x 1.680560 0.000000 -0.005610 
#    y 0.000000 1.778980 0.000000 
#    z -0.005610 0.000000 1.693960 
# 
# From -- ./inp_files/94127.got.cif
#   From: 2010.05.17/outbox.cif.g08.bks.cpg/sg13_48_cif.got.tgz:94127.got - 2010.06.03 16:44:36.
