data_PCOD9237743
_publ_section_title
;
Structure prediction by ZEFSAII (Michael W. Deem and Ramdas Pophale) SiO2 
 PCOD9237743
Probable space group: P 2/C
;
_chemical_formula_sum "Si O2"
_cell_formula_units_Z 28
_cell_length_a 19.866907
_cell_length_b 9.512580
_cell_length_c 9.916263
_cell_angle_alpha 90.000000
_cell_angle_beta 127.479136
_cell_angle_gamma 90.000000
_cell_volume 1487.183562
_symmetry_space_group_name_H-M "P 2/C"
_symmetry_group_IT_number 13
_symmetry_cell_setting 'monoclinic'
loop_
_space_group_symop_operation_xyz
x,y,z
-x,y,1/2-z
-x,-y,-z
x,-y,1/2+z
loop_
_atom_site_type_symbol
_atom_site_label
_atom_site_fract_x
_atom_site_fract_y
_atom_site_fract_z
Si Si1 0.790428 0.479256 0.959979
Si Si2 0.830862 0.009798 0.987127
Si Si3 0.911933 0.574953 0.352977
Si Si4 0.701104 0.233054 0.269599
Si Si5 0.694177 0.789156 0.444396
Si Si6 0.927533 0.098506 0.850092
Si Si7 0.561131 0.022767 0.199904
O O1 0.847225 0.436722 0.900219
O O2 0.734446 0.617937 0.862681
O O3 0.723664 0.356780 0.914686
O O4 0.858340 0.509256 0.163036
O O5 0.773771 0.110141 0.009913
O O6 0.854945 0.082616 0.876404
O O7 0.779492 0.871778 0.885548
O O8 0.904901 0.961666 0.176538
O O9 0.939200 0.734917 0.353806
O O10 0.000000 0.500000 0.500000
O O11 0.624176 0.154043 0.251532
O O12 0.680443 0.236447 0.085849
O O13 0.616171 0.880661 0.291336
O O14 0.000000 0.000000 0.000000
O O15 0.500000 0.049574 0.250000
O O16 0.500000 0.000000 0.000000
#
# Coordination Sequence:
#
# PCOD9237743 Si02
#       7
#     4   4   4   4   4   4   4
#     4  12  25  44  68  94 136 179 232 270 334 410
#     4  11  23  40  63  91 120 172 225 274 321 393
#     4  12  28  42  62  93 136 183 228 288 343 382
#     4  11  23  42  71  98 130 174 216 270 330 397
#     4  11  23  42  71  98 131 173 220 267 332 392
#     4  12  26  39  60  90 127 170 228 283 335 383
#     4  11  24  45  75 105 138 169 211 268 334 404
#
# _framework density 18.827535000000001
#
# number of rings (size 3 to 8) (size 9 to 14) (size 15 to 20)
#    0.000    0.571    7.143    0.857    4.000    3.429 
#    0.000    1.429    0.000    0.000    0.000    0.000 
#    0.000    0.000    0.000    0.000    0.000    0.000 
#
# Total GULP energy -156322.724960 kJ/mol
# GULP energy per Si atom -5582.954463 kJ/mol
# Density = 1.878468 g / cm^3
# Si number density = 18.827535 Si / 1000 Ang^3
#
#
#
# Elastic Constant Matrix: (Units=GPa)
#
#
# Indices 1 2 3 4 5 6 
#
# 1 89.5082 27.3894 35.1234 0.0000 -1.8652 0.0000
# 2 27.3894 135.0805 38.6482 0.0000 13.3525 0.0000
# 3 35.1234 38.6482 109.1105 0.0000 1.4350 0.0000
# 4 0.0000 0.0000 0.0000 19.3422 0.0000 -6.2748
# 5 -1.8652 13.3525 1.4350 0.0000 35.4025 0.0000
# 6 0.0000 0.0000 0.0000 -6.2748 0.0000 24.1798
#
#
#
# Elastic Compliance Matrix: (Units=1/GPa)
#
#
# Indices 1 2 3 4 5 6 
#
# 1 0.013173 -0.001782 -0.003629 0.000000 0.001513 0.000000
# 2 -0.001782 0.008808 -0.002503 0.000000 -0.003315 0.000000
# 3 -0.003629 -0.002503 0.011216 0.000000 0.000298 0.000000
# 4 0.000000 0.000000 0.000000 0.056453 0.000000 0.014650
# 5 0.001513 -0.003315 0.000298 0.000000 0.029564 0.000000
# 6 0.000000 0.000000 0.000000 0.014650 0.000000 0.045158
#
#
# Mechanical properties :
#
#
# Convention : Reuss Voigt Hill
#
# Bulk Modulus (GPa) = 57.57392 59.55792 58.56592
# Shear Modulus (GPa) = 26.88313 31.28746 29.08530
#
# Velocity S-wave (km/s) = 3.78281 4.08093 3.93469
# Velocity P-wave (km/s) = 7.05163 7.34217 7.19837
#
# Compressibility (1/GPa) = 0.01736898
#
# Stress axis : x y z
#
# Youngs Moduli (GPa) = 75.91196 113.53274 89.16002
#
# Poissons Ratio (x) = 0.20235 0.32357
# Poissons Ratio (y) = 0.13530 0.22313
# Poissons Ratio (z) = 0.27549 0.28413
#
# Static dielectric constant tensor:
#      x y z
#    x 1.668250 0.000000 -0.005500 
#    y 0.000000 1.860150 0.000000 
#    z -0.005500 0.000000 1.650690 
# 
# From -- ./inp_files/23016.got.cif
#   From: 2010.05.17/outbox.cif.g08.bks.cpg/sg13_12_cif.got.tgz:23016.got - 2010.06.03 16:44:36.
