data_PCOD9237890
_publ_section_title
;
Structure prediction by ZEFSAII (Michael W. Deem and Ramdas Pophale) SiO2 
 PCOD9237890
Probable space group: P 2/C
;
_chemical_formula_sum "Si O2"
_cell_formula_units_Z 22
_cell_length_a 13.900145
_cell_length_b 15.661146
_cell_length_c 4.935929
_cell_angle_alpha 90.000000
_cell_angle_beta 73.750314
_cell_angle_gamma 90.000000
_cell_volume 1031.587932
_symmetry_space_group_name_H-M "P 2/C"
_symmetry_group_IT_number 13
_symmetry_cell_setting 'monoclinic'
loop_
_space_group_symop_operation_xyz
x,y,z
-x,y,1/2-z
-x,-y,-z
x,-y,1/2+z
loop_
_atom_site_type_symbol
_atom_site_label
_atom_site_fract_x
_atom_site_fract_y
_atom_site_fract_z
Si Si1 0.245360 0.444047 0.595522
Si Si2 0.500000 0.170454 0.250000
Si Si3 0.888126 0.711010 0.230947
Si Si4 0.394965 0.692262 0.197486
Si Si5 0.778293 0.781980 0.827579
Si Si6 0.348942 0.942303 0.537950
O O1 0.245779 0.472747 0.285067
O O2 0.149138 0.386864 0.747714
O O3 0.341088 0.386102 0.592790
O O4 0.423108 0.231426 0.469817
O O5 0.441775 0.112879 0.077855
O O6 0.812326 0.753386 0.506142
O O7 0.000000 0.718083 0.250000
O O8 0.867087 0.756822 0.963548
O O9 0.500000 0.666881 0.250000
O O10 0.316881 0.729514 0.478929
O O11 0.745999 0.880376 0.852653
O O12 0.349771 0.024959 0.731011
#
# Coordination Sequence:
#
# PCOD9237890 Si02
#       6
#     4   2   4   4   4   4
#     4  11  25  42  62  96 134 164 214 273 326 385
#     4  12  24  40  62  94 132 182 236 260 290 388
#     4  11  24  45  75  96 120 169 222 274 332 387
#     4  11  24  40  66  88 133 185 220 257 312 377
#     4  11  23  44  66  98 133 168 221 265 316 400
#     4  12  24  39  63  96 136 172 210 269 328 367
#
# _framework density 21.326345
#
# number of rings (size 3 to 8) (size 9 to 14) (size 15 to 20)
#    0.000    0.727    1.818    7.636    2.545    1.455 
#    0.000    0.000    0.000   10.909    0.000    0.000 
#    0.000    0.000    0.000    0.000    0.000    0.000 
#
# Total GULP energy -123219.810612 kJ/mol
# GULP energy per Si atom -5600.900482 kJ/mol
# Density = 2.127780 g / cm^3
# Si number density = 21.326345 Si / 1000 Ang^3
#
#
#
# Elastic Constant Matrix: (Units=GPa)
#
#
# Indices 1 2 3 4 5 6 
#
# 1 107.1058 14.2442 -19.7523 0.0000 -4.6881 0.0000
# 2 14.2442 73.1898 -2.1122 0.0000 -6.0710 0.0000
# 3 -19.7523 -2.1122 53.5792 0.0000 1.7613 0.0000
# 4 0.0000 0.0000 0.0000 38.5086 0.0000 15.0122
# 5 -4.6881 -6.0710 1.7613 0.0000 31.5393 0.0000
# 6 0.0000 0.0000 0.0000 15.0122 0.0000 25.7566
#
#
#
# Elastic Compliance Matrix: (Units=1/GPa)
#
#
# Indices 1 2 3 4 5 6 
#
# 1 0.010302 -0.001818 0.003694 0.000000 0.000975 0.000000
# 2 -0.001818 0.014217 -0.000191 0.000000 0.002477 0.000000
# 3 0.003694 -0.000191 0.020038 0.000000 -0.000607 0.000000
# 4 0.000000 0.000000 0.000000 0.033604 0.000000 -0.019586
# 5 0.000975 0.002477 -0.000607 0.000000 0.032362 0.000000
# 6 0.000000 0.000000 0.000000 -0.019586 0.000000 0.050241
#
#
# Mechanical properties :
#
#
# Convention : Reuss Voigt Hill
#
# Bulk Modulus (GPa) = 20.86423 24.29266 22.57845
# Shear Modulus (GPa) = 28.84033 35.26058 32.05046
#
# Velocity S-wave (km/s) = 3.68140 4.07059 3.88088
# Velocity P-wave (km/s) = 5.27966 5.78866 5.54001
#
# Compressibility (1/GPa) = 0.04792891
#
# Stress axis : x y z
#
# Youngs Moduli (GPa) = 97.06611 70.33935 49.90442
#
# Poissons Ratio (x) = 0.12784 -0.18436
# Poissons Ratio (y) = 0.17642 0.00953
# Poissons Ratio (z) = -0.35859 0.01343
#
# Static dielectric constant tensor:
#      x y z
#    x 1.773970 0.000000 0.012730 
#    y 0.000000 1.773680 0.000000 
#    z 0.012730 0.000000 1.760510 
# 
# From -- ./inp_files/4913.got.cif
#   From: 2010.05.17/outbox.cif.g08.bks.cpg/sg13_3_cif.got.tgz:4913.got - 2010.06.03 16:44:36.
