data_PCOD9237569
_publ_section_title
;
Structure prediction by ZEFSAII (Michael W. Deem and Ramdas Pophale) SiO2 
 PCOD9237569
Probable space group: P 2/C
;
_chemical_formula_sum "Si O2"
_cell_formula_units_Z 30
_cell_length_a 14.609071
_cell_length_b 5.509192
_cell_length_c 22.839149
_cell_angle_alpha 90.000000
_cell_angle_beta 131.777693
_cell_angle_gamma 90.000000
_cell_volume 1370.803521
_symmetry_space_group_name_H-M "P 2/C"
_symmetry_group_IT_number 13
_symmetry_cell_setting 'monoclinic'
loop_
_space_group_symop_operation_xyz
x,y,z
-x,y,1/2-z
-x,-y,-z
x,-y,1/2+z
loop_
_atom_site_type_symbol
_atom_site_label
_atom_site_fract_x
_atom_site_fract_y
_atom_site_fract_z
Si Si1 0.093969 0.740335 0.389253
Si Si2 0.873349 0.487973 0.339030
Si Si3 0.132270 0.012925 0.589821
Si Si4 0.505749 0.886163 0.567974
Si Si5 0.731700 0.911481 0.466576
Si Si6 0.000000 0.053929 0.250000
Si Si7 0.745359 0.275420 0.177147
Si Si8 0.321576 0.510325 0.969019
O O1 0.215208 0.676017 0.404452
O O2 0.013830 0.511831 0.375642
O O3 0.157743 0.916512 0.463035
O O4 0.006703 0.891817 0.310411
O O5 0.857611 0.245614 0.371951
O O6 0.782002 0.453909 0.245154
O O7 0.864003 0.747522 0.367552
O O8 0.242503 0.065633 0.590895
O O9 0.000000 0.000000 0.500000
O O10 0.640496 0.911189 0.654530
O O11 0.445962 0.616484 0.540184
O O12 0.500000 0.000000 0.500000
O O13 0.400508 0.007069 0.564598
O O14 0.736867 0.650228 0.500562
O O15 0.874859 0.198029 0.205035
O O16 0.669337 0.345353 0.086729
#
# Coordination Sequence:
#
# PCOD9237569 Si02
#       8
#     4   4   4   4   4   2   4   4
#     4  11  22  39  67 105 141 185 235 301 378 444
#     4  12  27  44  72 106 150 193 237 310 378 436
#     4  12  26  47  73 106 142 195 258 303 360 437
#     4  11  24  44  71 106 141 187 248 302 378 451
#     4  11  24  43  74  99 138 190 252 310 356 445
#     4  12  22  42  68 106 156 182 230 302 402 460
#     4  12  24  43  70 105 147 182 239 301 383 457
#     4  11  22  42  70 104 136 186 243 299 370 445
#
# _framework density 21.884975000000001
#
# number of rings (size 3 to 8) (size 9 to 14) (size 15 to 20)
#    0.000    0.533    4.000    4.800    3.733    1.067 
#    0.000    0.667    0.000    0.000    0.000    0.000 
#    0.000    0.000    0.000    0.000    0.000    0.000 
#
# Total GULP energy -167120.669400 kJ/mol
# GULP energy per Si atom -5570.688980 kJ/mol
# Density = 2.183516 g / cm^3
# Si number density = 21.884975 Si / 1000 Ang^3
#
#
#
# Elastic Constant Matrix: (Units=GPa)
#
#
# Indices 1 2 3 4 5 6 
#
# 1 149.2170 35.5771 52.3010 0.0000 12.0641 0.0000
# 2 35.5771 94.5068 46.0869 0.0000 -6.2701 0.0000
# 3 52.3010 46.0869 73.1210 0.0000 8.7420 0.0000
# 4 0.0000 0.0000 0.0000 41.1552 0.0000 -29.7246
# 5 12.0641 -6.2701 8.7420 0.0000 37.7765 0.0000
# 6 0.0000 0.0000 0.0000 -29.7246 0.0000 202.3618
#
#
#
# Elastic Compliance Matrix: (Units=1/GPa)
#
#
# Indices 1 2 3 4 5 6 
#
# 1 0.009045 -0.000656 -0.005859 0.000000 -0.001641 0.000000
# 2 -0.000656 0.016260 -0.010415 0.000000 0.005319 0.000000
# 3 -0.005859 -0.010415 0.025109 0.000000 -0.005668 0.000000
# 4 0.000000 0.000000 0.000000 0.027182 0.000000 0.003993
# 5 -0.001641 0.005319 -0.005668 0.000000 0.029190 0.000000
# 6 0.000000 0.000000 0.000000 0.003993 0.000000 0.005528
#
#
# Mechanical properties :
#
#
# Convention : Reuss Voigt Hill
#
# Bulk Modulus (GPa) = 60.41404 64.97497 62.69450
# Shear Modulus (GPa) = 32.96146 68.45067 50.70607
#
# Velocity S-wave (km/s) = 3.88509 5.59869 4.81868
# Velocity P-wave (km/s) = 6.91306 8.45858 7.72457
#
# Compressibility (1/GPa) = 0.01655244
#
# Stress axis : x y z
#
# Youngs Moduli (GPa) = 110.56350 61.50042 39.82658
#
# Poissons Ratio (x) = 0.04037 0.23336
# Poissons Ratio (y) = 0.07257 0.41479
# Poissons Ratio (z) = 0.64783 0.64051
#
# Static dielectric constant tensor:
#      x y z
#    x 1.896190 0.000000 -0.088480 
#    y 0.000000 1.954040 0.000000 
#    z -0.088480 0.000000 2.075830 
# 
# From -- ./inp_files/86995.got.cif
#   From: 2010.05.17/outbox.cif.g08.bks.cpg/sg13_44_cif.got.tgz:86995.got - 2010.06.03 16:44:36.
