data_PCOD9237001
_publ_section_title
;
Structure prediction by ZEFSAII (Michael W. Deem and Ramdas Pophale) SiO2 
 PCOD9237001
Probable space group: P 2/C
;
_chemical_formula_sum "Si O2"
_cell_formula_units_Z 16
_cell_length_a 16.306326
_cell_length_b 8.481822
_cell_length_c 9.478759
_cell_angle_alpha 90.000000
_cell_angle_beta 148.276366
_cell_angle_gamma 90.000000
_cell_volume 689.343952
_symmetry_space_group_name_H-M "P 2/C"
_symmetry_group_IT_number 13
_symmetry_cell_setting 'monoclinic'
loop_
_space_group_symop_operation_xyz
x,y,z
-x,y,1/2-z
-x,-y,-z
x,-y,1/2+z
loop_
_atom_site_type_symbol
_atom_site_label
_atom_site_fract_x
_atom_site_fract_y
_atom_site_fract_z
Si Si1 0.000000 0.948186 0.750000
Si Si2 0.500000 0.925295 0.250000
Si Si3 0.116388 0.542146 0.294598
Si Si4 0.577718 0.620686 0.219814
Si Si5 0.801565 0.136734 0.694574
O O1 0.896367 0.857511 0.481199
O O2 0.103674 0.053209 0.794633
O O3 0.533199 0.806203 0.165894
O O4 0.648561 0.033435 0.493715
O O5 0.236823 0.403907 0.508000
O O6 0.221509 0.687578 0.396307
O O7 0.000000 0.585981 0.250000
O O8 0.000000 0.500000 0.000000
O O9 0.500000 0.564309 0.250000
O O10 0.500000 0.500000 0.000000
#
# Coordination Sequence:
#
# PCOD9237001 Si02
#       5
#     2   2   4   4   4
#     4  10  26  44  76 104 148 182 250 298 370 430
#     4  10  28  48  76 104 152 196 246 302 378 442
#     4  12  28  48  78 108 148 194 251 306 377 444
#     4  10  25  47  74 106 146 190 246 299 371 443
#     4  11  26  49  74 108 148 194 247 307 371 444
#
# _framework density 23.210474000000001
#
# number of rings (size 3 to 8) (size 9 to 14) (size 15 to 20)
#    0.750    0.500    1.250    1.500   14.000    3.000 
#    0.000    0.000    0.000    0.000    0.000    0.000 
#    0.000    0.000    0.000    0.000    0.000    0.000 
#
# Total GULP energy -89373.273963 kJ/mol
# GULP energy per Si atom -5585.829623 kJ/mol
# Density = 2.315765 g / cm^3
# Si number density = 23.210474 Si / 1000 Ang^3
#
#
#
# Elastic Constant Matrix: (Units=GPa)
#
#
# Indices 1 2 3 4 5 6 
#
# 1 116.3854 70.1077 73.7364 0.0000 -4.6319 0.0000
# 2 70.1077 129.9743 39.6392 0.0000 18.6434 0.0000
# 3 73.7364 39.6392 113.7750 0.0000 8.7678 0.0000
# 4 0.0000 0.0000 0.0000 -25.6605 0.0000 -22.1210
# 5 -4.6319 18.6434 8.7678 0.0000 52.3442 0.0000
# 6 0.0000 0.0000 0.0000 -22.1210 0.0000 39.4772
#
#
#
# Elastic Compliance Matrix: (Units=1/GPa)
#
#
# Indices 1 2 3 4 5 6 
#
# 1 0.021612 -0.009216 -0.011342 0.000000 0.007095 0.000000
# 2 -0.009216 0.012902 0.001920 0.000000 -0.005732 0.000000
# 3 -0.011342 0.001920 0.015805 0.000000 -0.004335 0.000000
# 4 0.000000 0.000000 0.000000 -0.026277 0.000000 -0.014724
# 5 0.007095 -0.005732 -0.004335 0.000000 0.022500 0.000000
# 6 0.000000 0.000000 0.000000 -0.014724 0.000000 0.017080
#
#
# Mechanical properties :
#
#
# Convention : Reuss Voigt Hill
#
# Bulk Modulus (GPa) = 76.67812 80.78902 78.73357
# Shear Modulus (GPa) = 47.50734 25.00894 36.25814
#
# Velocity S-wave (km/s) = 4.52907 3.28607 3.95669
# Velocity P-wave (km/s) = 7.77546 7.02000 7.40736
#
# Compressibility (1/GPa) = 0.01304153
#
# Stress axis : x y z
#
# Youngs Moduli (GPa) = 46.27070 77.50935 63.26932
#
# Poissons Ratio (x) = 0.71432 0.71763
# Poissons Ratio (y) = 0.42643 -0.12145
# Poissons Ratio (z) = 0.52482 -0.14878
#
# Static dielectric constant tensor:
#      x y z
#    x 1.823590 0.000000 0.017700 
#    y 0.000000 1.888490 0.000000 
#    z 0.017700 0.000000 1.844540 
# 
# From -- ./inp_files/21287.got.cif
#   From: 2010.05.17/outbox.cif.g08.bks.cpg/sg13_11_cif.got.tgz:21287.got - 2010.06.03 16:44:36.
