data_PCOD9237896
_publ_section_title
;
Structure prediction by ZEFSAII (Michael W. Deem and Ramdas Pophale) SiO2 
 PCOD9237896
Probable space group: P 2/C
;
_chemical_formula_sum "Si O2"
_cell_formula_units_Z 22
_cell_length_a 12.620646
_cell_length_b 7.209370
_cell_length_c 12.651868
_cell_angle_alpha 90.000000
_cell_angle_beta 55.050683
_cell_angle_gamma 90.000000
_cell_volume 943.554125
_symmetry_space_group_name_H-M "P 2/C"
_symmetry_group_IT_number 13
_symmetry_cell_setting 'monoclinic'
loop_
_space_group_symop_operation_xyz
x,y,z
-x,y,1/2-z
-x,-y,-z
x,-y,1/2+z
loop_
_atom_site_type_symbol
_atom_site_label
_atom_site_fract_x
_atom_site_fract_y
_atom_site_fract_z
Si Si1 0.748624 0.883980 0.281025
Si Si2 0.337413 0.307521 0.153703
Si Si3 0.160682 0.362152 0.442137
Si Si4 0.000000 0.014032 0.750000
Si Si5 0.088678 0.223878 0.002682
Si Si6 0.373375 0.374620 0.487883
O O1 0.791167 0.845894 0.136293
O O2 0.651858 0.740183 0.389947
O O3 0.693038 0.089814 0.330032
O O4 0.883021 0.869675 0.268596
O O5 0.224980 0.392182 0.290774
O O6 0.343590 0.413018 0.038139
O O7 0.477383 0.346516 0.124905
O O8 0.106515 0.557410 0.513403
O O9 0.275283 0.305059 0.454911
O O10 0.044544 0.218829 0.489995
O O11 0.061766 0.883731 0.624941
#
# Coordination Sequence:
#
# PCOD9237896 Si02
#       6
#     4   4   4   2   4   4
#     4  12  24  43  69 103 131 175 223 275 330 403
#     4  11  24  46  68  97 138 174 228 272 322 401
#     4  11  23  44  68 100 135 176 223 276 336 398
#     4  12  24  40  68  98 138 172 214 282 336 396
#     4  11  25  42  70 101 135 171 225 278 337 401
#     4  11  25  45  70  96 135 184 220 272 331 393
#
# _framework density 23.316096000000002
#
# number of rings (size 3 to 8) (size 9 to 14) (size 15 to 20)
#    0.000    0.727    3.636    3.818    2.545    0.000 
#    0.000    0.000    0.000    0.000    0.000    0.000 
#    0.000    0.000    0.000    0.000    0.000    0.000 
#
# Total GULP energy -123148.665602 kJ/mol
# GULP energy per Si atom -5597.666618 kJ/mol
# Density = 2.326303 g / cm^3
# Si number density = 23.316096 Si / 1000 Ang^3
#
#
#
# Elastic Constant Matrix: (Units=GPa)
#
#
# Indices 1 2 3 4 5 6 
#
# 1 77.7239 -17.8306 9.4296 0.0000 -4.9131 0.0000
# 2 -17.8306 58.5772 26.6082 0.0000 -3.7160 0.0000
# 3 9.4296 26.6082 93.0091 0.0000 -18.1068 0.0000
# 4 0.0000 0.0000 0.0000 30.8805 0.0000 -4.4278
# 5 -4.9131 -3.7160 -18.1068 0.0000 32.8095 0.0000
# 6 0.0000 0.0000 0.0000 -4.4278 0.0000 25.1875
#
#
#
# Elastic Compliance Matrix: (Units=1/GPa)
#
#
# Indices 1 2 3 4 5 6 
#
# 1 0.014644 0.005863 -0.002919 0.000000 0.001246 0.000000
# 2 0.005863 0.021997 -0.006981 0.000000 -0.000484 0.000000
# 3 -0.002919 -0.006981 0.014347 0.000000 0.006690 0.000000
# 4 0.000000 0.000000 0.000000 0.033220 0.000000 0.005840
# 5 0.001246 -0.000484 0.006690 0.000000 0.034303 0.000000
# 6 0.000000 0.000000 0.000000 0.005840 0.000000 0.040729
#
#
# Mechanical properties :
#
#
# Convention : Reuss Voigt Hill
#
# Bulk Modulus (GPa) = 23.30368 29.52498 26.41433
# Shear Modulus (GPa) = 27.53003 31.84901 29.68952
#
# Velocity S-wave (km/s) = 3.43990 3.69991 3.57227
# Velocity P-wave (km/s) = 5.07874 5.56263 5.32618
#
# Compressibility (1/GPa) = 0.04291168
#
# Stress axis : x y z
#
# Youngs Moduli (GPa) = 68.28766 45.46158 69.69978
#
# Poissons Ratio (x) = -0.26653 0.20348
# Poissons Ratio (y) = -0.40035 0.48660
# Poissons Ratio (z) = 0.19935 0.31738
#
# Static dielectric constant tensor:
#      x y z
#    x 1.894880 0.000000 0.032430 
#    y 0.000000 1.896290 0.000000 
#    z 0.032430 0.000000 1.855600 
# 
# From -- ./inp_files/35840.got.cif
#   From: 2010.05.17/outbox.cif.g08.bks.cpg/sg13_18_cif.got.tgz:35840.got - 2010.06.03 16:44:36.
