data_PCOD9237305
_publ_section_title
;
Structure prediction by ZEFSAII (Michael W. Deem and Ramdas Pophale) SiO2 
 PCOD9237305
Probable space group: P 2/C
;
_chemical_formula_sum "Si O2"
_cell_formula_units_Z 20
_cell_length_a 9.721371
_cell_length_b 8.405598
_cell_length_c 10.085896
_cell_angle_alpha 90.000000
_cell_angle_beta 71.609677
_cell_angle_gamma 90.000000
_cell_volume 782.067935
_symmetry_space_group_name_H-M "P 2/C"
_symmetry_group_IT_number 13
_symmetry_cell_setting 'monoclinic'
loop_
_space_group_symop_operation_xyz
x,y,z
-x,y,1/2-z
-x,-y,-z
x,-y,1/2+z
loop_
_atom_site_type_symbol
_atom_site_label
_atom_site_fract_x
_atom_site_fract_y
_atom_site_fract_z
Si Si1 0.366803 0.617611 0.685265
Si Si2 0.911437 0.660854 0.557939
Si Si3 0.372829 0.957966 0.682313
Si Si4 0.699416 0.713157 0.379166
Si Si5 0.900430 0.885028 0.147724
O O1 0.500000 0.629120 0.750000
O O2 0.387749 0.446649 0.613948
O O3 0.374057 0.787916 0.610880
O O4 0.199212 0.627304 0.788093
O O5 0.799141 0.264749 0.719107
O O6 0.000000 0.500000 0.500000
O O7 0.015964 0.818997 0.507451
O O8 0.500000 0.971762 0.750000
O O9 0.370869 0.112455 0.590367
O O10 0.221968 0.978348 0.812050
O O11 0.800956 0.686423 0.471554
O O12 0.000000 0.909931 0.250000
#
# Coordination Sequence:
#
# PCOD9237305 Si02
#       5
#     4   4   4   4   4
#     4  11  23  38  59  89 119 152 199 245 292 358
#     4  11  20  38  62  88 116 156 204 241 295 354
#     4   9  19  38  59  84 122 155 193 243 292 345
#     4   9  20  39  60  82 121 158 186 249 295 343
#     4   8  17  36  58  81 114 152 190 238 285 340
#
# _framework density 25.573225999999998
#
# number of rings (size 3 to 8) (size 9 to 14) (size 15 to 20)
#    1.200    1.200    2.000    0.600    0.000    1.600 
#    3.600    8.000    0.000    0.000    0.000    0.000 
#    0.000    0.000    0.000    0.000    0.000    0.000 
#
# Total GULP energy -111442.128761 kJ/mol
# GULP energy per Si atom -5572.106438 kJ/mol
# Density = 2.551502 g / cm^3
# Si number density = 25.573226 Si / 1000 Ang^3
#
#
#
# Elastic Constant Matrix: (Units=GPa)
#
#
# Indices 1 2 3 4 5 6 
#
# 1 68.6132 58.2930 -12.7968 0.0000 -15.3728 0.0000
# 2 58.2930 222.6290 -7.8333 0.0000 8.0674 0.0000
# 3 -12.7968 -7.8333 70.8143 0.0000 -32.4324 0.0000
# 4 0.0000 0.0000 0.0000 9.6244 0.0000 -13.9465
# 5 -15.3728 8.0674 -32.4324 0.0000 32.5051 0.0000
# 6 0.0000 0.0000 0.0000 -13.9465 0.0000 36.3955
#
#
#
# Elastic Compliance Matrix: (Units=1/GPa)
#
#
# Indices 1 2 3 4 5 6 
#
# 1 0.043132 -0.012173 0.031626 0.000000 0.054976 0.000000
# 2 -0.012173 0.007968 -0.008951 0.000000 -0.016666 0.000000
# 3 0.031626 -0.008951 0.049194 0.000000 0.066263 0.000000
# 4 0.000000 0.000000 0.000000 0.233633 0.000000 0.089527
# 5 0.054976 -0.016666 0.066263 0.000000 0.127016 0.000000
# 6 0.000000 0.000000 0.000000 0.089527 0.000000 0.061782
#
#
# Mechanical properties :
#
#
# Convention : Reuss Voigt Hill
#
# Bulk Modulus (GPa) = 8.24410 48.59802 28.42106
# Shear Modulus (GPa) = 9.22246 37.33127 23.27686
#
# Velocity S-wave (km/s) = 1.90109 3.82485 3.02023
# Velocity P-wave (km/s) = 2.83717 6.20892 4.82702
#
# Compressibility (1/GPa) = 0.12129892
#
# Stress axis : x y z
#
# Youngs Moduli (GPa) = 23.18441 125.49986 20.32749
#
# Poissons Ratio (x) = 1.52772 -0.64288
# Poissons Ratio (y) = 0.28223 0.18196
# Poissons Ratio (z) = -0.73324 1.12338
#
# Static dielectric constant tensor:
#      x y z
#    x 1.930500 0.000000 -0.101260 
#    y 0.000000 2.103340 0.000000 
#    z -0.101260 0.000000 2.098640 
# 
# From -- ./inp_files/49498.got.cif
#   From: 2010.05.17/outbox.cif.g08.bks.cpg/sg13_25_cif.got.tgz:49498.got - 2010.06.03 16:44:36.
