data_PCOD9237133
_publ_section_title
;
Structure prediction by ZEFSAII (Michael W. Deem and Ramdas Pophale) SiO2 
 PCOD9237133
Probable space group: P 2/C
;
_chemical_formula_sum "Si O2"
_cell_formula_units_Z 14
_cell_length_a 15.269417
_cell_length_b 5.118736
_cell_length_c 9.332027
_cell_angle_alpha 90.000000
_cell_angle_beta 42.524729
_cell_angle_gamma 90.000000
_cell_volume 493.002349
_symmetry_space_group_name_H-M "P 2/C"
_symmetry_group_IT_number 13
_symmetry_cell_setting 'monoclinic'
loop_
_space_group_symop_operation_xyz
x,y,z
-x,y,1/2-z
-x,-y,-z
x,-y,1/2+z
loop_
_atom_site_type_symbol
_atom_site_label
_atom_site_fract_x
_atom_site_fract_y
_atom_site_fract_z
Si Si1 0.500000 0.500000 0.500000
Si Si2 0.226068 0.009458 0.641245
Si Si3 0.000000 0.692660 0.250000
Si Si4 0.219674 0.647407 0.406064
Si Si5 0.500000 0.935526 0.250000
O O1 0.657776 0.485351 0.293952
O O2 0.503350 0.753977 0.385043
O O3 0.228166 0.726718 0.563439
O O4 0.371644 0.111447 0.421212
O O5 0.102178 0.143745 0.718696
O O6 0.216440 0.085329 0.818149
O O7 0.911484 0.509443 0.455484
#
# Coordination Sequence:
#
# PCOD9237133 Si02
#       5
#     2   4   2   4   2
#     4  10  26  48  80 110 150 198 256 312 384 442
#     4  11  28  49  78 113 154 195 261 312 381 455
#     4  12  28  48  76 114 158 206 244 320 378 466
#     4  11  28  48  80 112 152 206 252 317 379 453
#     4  10  26  48  82 114 148 202 256 324 372 454
#
# _framework density 28.397434000000001
#
# number of rings (size 3 to 8) (size 9 to 14) (size 15 to 20)
#    0.000    1.143    0.000    1.714   16.000    6.857 
#    0.000    0.000    0.000    0.000    0.000    0.000 
#    0.000    0.000    0.000    0.000    0.000    0.000 
#
# Total GULP energy -78058.574766 kJ/mol
# GULP energy per Si atom -5575.612483 kJ/mol
# Density = 2.833280 g / cm^3
# Si number density = 28.397434 Si / 1000 Ang^3
#
#
#
# Elastic Constant Matrix: (Units=GPa)
#
#
# Indices 1 2 3 4 5 6 
#
# 1 132.0751 22.4686 80.9881 0.0000 -17.2068 0.0000
# 2 22.4686 79.7679 69.8333 0.0000 8.2135 0.0000
# 3 80.9881 69.8333 211.7778 0.0000 -48.3142 0.0000
# 4 0.0000 0.0000 0.0000 84.1062 0.0000 -3.8843
# 5 -17.2068 8.2135 -48.3142 0.0000 77.3198 0.0000
# 6 0.0000 0.0000 0.0000 -3.8843 0.0000 31.3176
#
#
#
# Elastic Compliance Matrix: (Units=1/GPa)
#
#
# Indices 1 2 3 4 5 6 
#
# 1 0.009939 0.000974 -0.004246 0.000000 -0.000545 0.000000
# 2 0.000974 0.020952 -0.009026 0.000000 -0.007649 0.000000
# 3 -0.004246 -0.009026 0.010876 0.000000 0.006810 0.000000
# 4 0.000000 0.000000 0.000000 0.011958 0.000000 0.001483
# 5 -0.000545 -0.007649 0.006810 0.000000 0.017880 0.000000
# 6 0.000000 0.000000 0.000000 0.001483 0.000000 0.032115
#
#
# Mechanical properties :
#
#
# Convention : Reuss Voigt Hill
#
# Bulk Modulus (GPa) = 58.24442 85.57786 71.91114
# Shear Modulus (GPa) = 37.30261 55.23744 46.27003
#
# Velocity S-wave (km/s) = 3.62828 4.41518 4.04093
# Velocity P-wave (km/s) = 6.17313 7.49619 6.86660
#
# Compressibility (1/GPa) = 0.01716903
#
# Stress axis : x y z
#
# Youngs Moduli (GPa) = 100.61874 47.72862 91.94762
#
# Poissons Ratio (x) = -0.04649 0.39043
# Poissons Ratio (y) = -0.09801 0.82995
# Poissons Ratio (z) = 0.42725 0.43082
#
# Static dielectric constant tensor:
#      x y z
#    x 2.273400 0.000000 0.029320 
#    y 0.000000 2.248030 0.000000 
#    z 0.029320 0.000000 2.182060 
# 
# From -- ./inp_files/14208.got.cif
#   From: 2010.05.17/outbox.cif.g08.bks.cpg/sg13_8_cif.got.tgz:14208.got - 2010.06.03 16:44:36.
