data_PCOD9237457
_publ_section_title
;
Structure prediction by ZEFSAII (Michael W. Deem and Ramdas Pophale) SiO2 
 PCOD9237457
Probable space group: P 2/C
;
_chemical_formula_sum "Si O2"
_cell_formula_units_Z 28
_cell_length_a 26.691332
_cell_length_b 8.404725
_cell_length_c 9.881498
_cell_angle_alpha 90.000000
_cell_angle_beta 37.009364
_cell_angle_gamma 90.000000
_cell_volume 1334.362235
_symmetry_space_group_name_H-M "P 2/C"
_symmetry_group_IT_number 13
_symmetry_cell_setting 'monoclinic'
loop_
_space_group_symop_operation_xyz
x,y,z
-x,y,1/2-z
-x,-y,-z
x,-y,1/2+z
loop_
_atom_site_type_symbol
_atom_site_label
_atom_site_fract_x
_atom_site_fract_y
_atom_site_fract_z
Si Si1 0.309044 0.814662 0.448623
Si Si2 0.270009 0.300354 0.734065
Si Si3 0.764975 0.328158 0.142794
Si Si4 0.096598 0.303770 0.069645
Si Si5 0.518865 0.351123 0.863909
Si Si6 0.902804 0.496453 0.687098
Si Si7 0.636600 0.824679 0.706029
O O1 0.284919 0.770046 0.348911
O O2 0.237853 0.772548 0.712547
O O3 0.387149 0.706253 0.322407
O O4 0.339851 0.995067 0.377939
O O5 0.261968 0.490828 0.765915
O O6 0.345634 0.268462 0.470713
O O7 0.185805 0.221979 0.847955
O O8 0.699127 0.246809 0.183938
O O9 0.851042 0.357278 0.874428
O O10 0.114896 0.345668 0.187468
O O11 0.000000 0.247893 0.250000
O O12 0.104977 0.461250 0.955236
O O13 0.500000 0.392710 0.750000
O O14 0.500000 0.500000 0.000000
O O15 0.455938 0.209395 0.042631
O O16 0.000000 0.500000 0.500000
#
# Coordination Sequence:
#
# PCOD9237457 Si02
#       7
#     4   4   4   4   4   4   4
#     4  12  27  43  66  99 135 185 228 278 353 410
#     4  11  23  39  69  95 129 174 230 286 331 402
#     4  11  21  41  65  97 132 172 231 282 332 402
#     4   9  18  33  56  92 128 162 209 281 336 384
#     4  12  27  47  70  99 136 178 235 293 338 401
#     4   9  18  32  57  94 127 160 211 281 334 384
#     4  12  25  45  67  96 140 184 226 282 345 418
#
# _framework density 20.983806000000001
#
# number of rings (size 3 to 8) (size 9 to 14) (size 15 to 20)
#    0.000    1.143    2.857    3.857    8.000    0.000 
#    0.000    0.000    0.000    0.857    3.714    1.000 
#    0.000    0.000    0.000    0.000    0.000    0.000 
#
# Total GULP energy -155964.039165 kJ/mol
# GULP energy per Si atom -5570.144256 kJ/mol
# Density = 2.093605 g / cm^3
# Si number density = 20.983806 Si / 1000 Ang^3
#
#
#
# Elastic Constant Matrix: (Units=GPa)
#
#
# Indices 1 2 3 4 5 6 
#
# 1 92.2567 0.8634 19.1307 0.0000 5.9163 0.0000
# 2 0.8634 84.9344 13.3436 0.0000 6.1331 0.0000
# 3 19.1307 13.3436 98.9822 0.0000 0.1651 0.0000
# 4 0.0000 0.0000 0.0000 16.2528 0.0000 4.1416
# 5 5.9163 6.1331 0.1651 0.0000 46.2416 0.0000
# 6 0.0000 0.0000 0.0000 4.1416 0.0000 8.2545
#
#
#
# Elastic Compliance Matrix: (Units=1/GPa)
#
#
# Indices 1 2 3 4 5 6 
#
# 1 0.011398 0.000345 -0.002247 0.000000 -0.001496 0.000000
# 2 0.000345 0.012157 -0.001703 0.000000 -0.001650 0.000000
# 3 -0.002247 -0.001703 0.010766 0.000000 0.000475 0.000000
# 4 0.000000 0.000000 0.000000 0.070548 0.000000 -0.035397
# 5 -0.001496 -0.001650 0.000475 0.000000 0.022034 0.000000
# 6 0.000000 0.000000 0.000000 -0.035397 0.000000 0.138906
#
#
# Mechanical properties :
#
#
# Convention : Reuss Voigt Hill
#
# Bulk Modulus (GPa) = 36.88459 38.09430 37.48944
# Shear Modulus (GPa) = 17.72702 30.33881 24.03291
#
# Velocity S-wave (km/s) = 2.90969 3.80652 3.38791
# Velocity P-wave (km/s) = 5.37626 6.12479 5.76269
#
# Compressibility (1/GPa) = 0.02711159
#
# Stress axis : x y z
#
# Youngs Moduli (GPa) = 87.73489 82.25724 92.88608
#
# Poissons Ratio (x) = -0.02839 0.20871
# Poissons Ratio (y) = -0.03028 0.15817
# Poissons Ratio (z) = 0.19714 0.14007
#
# Static dielectric constant tensor:
#      x y z
#    x 3.128720 0.000000 -0.650800 
#    y 0.000000 2.712810 0.000000 
#    z -0.650800 0.000000 2.260740 
# 
# From -- ./inp_files/24417.got.cif
#   From: 2010.05.17/outbox.cif.g08.bks.cpg/sg13_13_cif.got.tgz:24417.got - 2010.06.03 16:44:36.
