data_PCOD9237509
_publ_section_title
;
Structure prediction by ZEFSAII (Michael W. Deem and Ramdas Pophale) SiO2 
 PCOD9237509
Probable space group: P 2/C
;
_chemical_formula_sum "Si O2"
_cell_formula_units_Z 20
_cell_length_a 9.497910
_cell_length_b 7.062884
_cell_length_c 15.987014
_cell_angle_alpha 90.000000
_cell_angle_beta 119.683008
_cell_angle_gamma 90.000000
_cell_volume 931.722321
_symmetry_space_group_name_H-M "P 2/C"
_symmetry_group_IT_number 13
_symmetry_cell_setting 'monoclinic'
loop_
_space_group_symop_operation_xyz
x,y,z
-x,y,1/2-z
-x,-y,-z
x,-y,1/2+z
loop_
_atom_site_type_symbol
_atom_site_label
_atom_site_fract_x
_atom_site_fract_y
_atom_site_fract_z
Si Si1 0.051724 0.323997 0.676185
Si Si2 0.602108 0.702062 0.202787
Si Si3 0.042692 0.275520 0.359558
Si Si4 0.374725 0.890210 0.021504
Si Si5 0.788731 0.999787 0.857061
O O1 0.229656 0.406390 0.752796
O O2 0.079712 0.172853 0.611401
O O3 0.000000 0.233245 0.750000
O O4 0.944893 0.500461 0.618984
O O5 0.500000 0.626715 0.250000
O O6 0.483681 0.719734 0.090825
O O7 0.666353 0.914629 0.249764
O O8 0.212532 0.176254 0.428366
O O9 0.000000 0.253685 0.250000
O O10 0.892852 0.182158 0.365565
O O11 0.306650 0.999149 0.084109
O O12 0.500000 0.000000 0.000000
#
# Coordination Sequence:
#
# PCOD9237509 Si02
#       5
#     4   4   4   4   4
#     4   9  20  38  65  85 119 163 204 240 309 360
#     4   8  18  39  59  82 121 159 194 253 306 345
#     4  11  22  39  61  92 119 159 211 243 299 380
#     4  11  22  36  64  95 120 159 208 253 309 360
#     4   9  20  40  65  81 125 164 196 247 309 361
#
# _framework density 21.465622
#
# number of rings (size 3 to 8) (size 9 to 14) (size 15 to 20)
#    1.200    1.200    0.000    2.400    2.800    0.800 
#    0.000   11.000    4.400    0.000    0.000    0.000 
#    0.000    0.000    0.000    0.000    0.000    0.000 
#
# Total GULP energy -111334.726012 kJ/mol
# GULP energy per Si atom -5566.736301 kJ/mol
# Density = 2.141677 g / cm^3
# Si number density = 21.465622 Si / 1000 Ang^3
#
#
#
# Elastic Constant Matrix: (Units=GPa)
#
#
# Indices 1 2 3 4 5 6 
#
# 1 129.1865 17.5264 22.7303 0.0000 -24.5571 0.0000
# 2 17.5264 44.5670 7.1617 0.0000 -20.0514 0.0000
# 3 22.7303 7.1617 72.4244 0.0000 4.6676 0.0000
# 4 0.0000 0.0000 0.0000 10.8531 0.0000 8.6605
# 5 -24.5571 -20.0514 4.6676 0.0000 37.1082 0.0000
# 6 0.0000 0.0000 0.0000 8.6605 0.0000 13.7674
#
#
#
# Elastic Compliance Matrix: (Units=1/GPa)
#
#
# Indices 1 2 3 4 5 6 
#
# 1 0.009649 -0.000231 -0.003437 0.000000 0.006693 0.000000
# 2 -0.000231 0.030844 -0.004075 0.000000 0.017026 0.000000
# 3 -0.003437 -0.004075 0.015705 0.000000 -0.006452 0.000000
# 4 0.000000 0.000000 0.000000 0.185010 0.000000 -0.116382
# 5 0.006693 0.017026 -0.006452 0.000000 0.041389 0.000000
# 6 0.000000 0.000000 0.000000 -0.116382 0.000000 0.145846
#
#
# Mechanical properties :
#
#
# Convention : Reuss Voigt Hill
#
# Bulk Modulus (GPa) = 24.56238 37.89054 31.22646
# Shear Modulus (GPa) = 10.92899 25.59639 18.26269
#
# Velocity S-wave (km/s) = 2.25886 3.45691 2.91999
# Velocity P-wave (km/s) = 4.27443 5.79860 5.09384
#
# Compressibility (1/GPa) = 0.04071267
#
# Stress axis : x y z
#
# Youngs Moduli (GPa) = 103.63707 32.42103 63.67448
#
# Poissons Ratio (x) = 0.00749 0.21884
# Poissons Ratio (y) = 0.02395 0.25946
# Poissons Ratio (z) = 0.35618 0.13211
#
# Static dielectric constant tensor:
#      x y z
#    x 1.862590 0.000000 -0.028740 
#    y 0.000000 1.823400 0.000000 
#    z -0.028740 0.000000 1.849900 
# 
# From -- ./inp_files/62998.got.cif
#   From: 2010.05.17/outbox.cif.g08.bks.cpg/sg13_32_cif.got.tgz:62998.got - 2010.06.03 16:44:36.
