data_PCOD9237571
_publ_section_title
;
Structure prediction by ZEFSAII (Michael W. Deem and Ramdas Pophale) SiO2 
 PCOD9237571
Probable space group: P 2/C
;
_chemical_formula_sum "Si O2"
_cell_formula_units_Z 32
_cell_length_a 6.395630
_cell_length_b 8.952259
_cell_length_c 27.256794
_cell_angle_alpha 90.000000
_cell_angle_beta 97.760888
_cell_angle_gamma 90.000000
_cell_volume 1546.302233
_symmetry_space_group_name_H-M "P 2/C"
_symmetry_group_IT_number 13
_symmetry_cell_setting 'monoclinic'
loop_
_space_group_symop_operation_xyz
x,y,z
-x,y,1/2-z
-x,-y,-z
x,-y,1/2+z
loop_
_atom_site_type_symbol
_atom_site_label
_atom_site_fract_x
_atom_site_fract_y
_atom_site_fract_z
Si Si1 0.645145 0.466918 0.629497
Si Si2 0.638942 0.875382 0.977014
Si Si3 0.845296 0.920637 0.883487
Si Si4 0.001943 0.668692 0.020734
Si Si5 0.619023 0.686956 0.805638
Si Si6 0.266339 0.739537 0.124131
Si Si7 0.231684 0.733667 0.930285
Si Si8 0.932358 0.428966 0.800765
O O1 0.524456 0.582130 0.662946
O O2 0.492989 0.326298 0.613607
O O3 0.735074 0.564825 0.587219
O O4 0.855239 0.415599 0.662218
O O5 0.792757 0.935353 0.939982
O O6 0.467263 0.791690 0.938781
O O7 0.779451 0.758333 0.012543
O O8 0.500000 0.000000 0.000000
O O9 0.698452 0.821723 0.842810
O O10 0.071425 0.833290 0.892406
O O11 0.801730 0.091033 0.868262
O O12 0.110055 0.678895 0.076854
O O13 0.000000 0.500000 0.000000
O O14 0.147899 0.743455 0.983275
O O15 0.500000 0.721114 0.750000
O O16 0.828531 0.593091 0.797410
O O17 0.239067 0.666414 0.176347
O O18 0.000000 0.378518 0.750000
#
# Coordination Sequence:
#
# PCOD9237571 Si02
#       8
#     4   4   4   4   4   4   4   4
#     4  11  22  41  68  93 121 172 219 270 325 391
#     4  11  23  39  64  89 130 180 216 257 326 395
#     4  11  24  43  62  99 136 169 217 278 333 395
#     4  11  24  40  61  96 133 171 226 275 319 391
#     4  11  22  42  70  94 122 164 223 275 322 393
#     4  11  26  41  62  98 141 169 209 284 339 388
#     4  11  22  39  67  91 126 175 223 262 317 395
#     4  11  23  44  69  93 122 168 222 269 329 398
#
# _framework density 20.694528999999999
#
# number of rings (size 3 to 8) (size 9 to 14) (size 15 to 20)
#    0.000    1.000    3.750    3.000    3.500    8.000 
#    2.250    0.625    0.000    0.000    0.000    0.000 
#    0.000    0.000    0.000    0.000    0.000    0.000 
#
# Total GULP energy -178253.462713 kJ/mol
# GULP energy per Si atom -5570.420710 kJ/mol
# Density = 2.064743 g / cm^3
# Si number density = 20.694529 Si / 1000 Ang^3
#
#
#
# Elastic Constant Matrix: (Units=GPa)
#
#
# Indices 1 2 3 4 5 6 
#
# 1 86.7027 14.3488 11.6508 0.0000 3.0957 0.0000
# 2 14.3488 70.9925 8.7619 0.0000 -0.2660 0.0000
# 3 11.6508 8.7619 85.9578 0.0000 -9.9323 0.0000
# 4 0.0000 0.0000 0.0000 19.4139 0.0000 0.5022
# 5 3.0957 -0.2660 -9.9323 0.0000 29.6182 0.0000
# 6 0.0000 0.0000 0.0000 0.5022 0.0000 -8.4005
#
#
#
# Elastic Compliance Matrix: (Units=1/GPa)
#
#
# Indices 1 2 3 4 5 6 
#
# 1 0.012195 -0.002270 -0.001634 0.000000 -0.001843 0.000000
# 2 -0.002270 0.014692 -0.001194 0.000000 -0.000031 0.000000
# 3 -0.001634 -0.001194 0.012479 0.000000 0.004345 0.000000
# 4 0.000000 0.000000 0.000000 0.051430 0.000000 0.003075
# 5 -0.001843 -0.000031 0.004345 0.000000 0.035412 0.000000
# 6 0.000000 0.000000 0.000000 0.003075 0.000000 -0.118857
#
#
# Mechanical properties :
#
#
# Convention : Reuss Voigt Hill
#
# Bulk Modulus (GPa) = 34.28210 34.79733 34.53971
# Shear Modulus (GPa) = 183.34989 22.05242 102.70116
#
# Velocity S-wave (km/s) = 9.42288 3.26792 7.05230
# Velocity P-wave (km/s) = 11.61848 5.57587 9.11261
#
# Compressibility (1/GPa) = 0.02916975
#
# Stress axis : x y z
#
# Youngs Moduli (GPa) = 82.00235 68.06433 80.13553
#
# Poissons Ratio (x) = 0.15450 0.13098
# Poissons Ratio (y) = 0.18614 0.09564
# Poissons Ratio (z) = 0.13403 0.08124
#
# Static dielectric constant tensor:
#      x y z
#    x 1.777350 0.000000 -0.038460 
#    y 0.000000 1.888670 0.000000 
#    z -0.038460 0.000000 1.723470 
# 
# From -- ./inp_files/95041.got.cif
#   From: 2010.05.17/outbox.cif.g08.bks.cpg/sg13_48_cif.got.tgz:95041.got - 2010.06.03 16:44:36.
