data_PCOD9237648
_publ_section_title
;
Structure prediction by ZEFSAII (Michael W. Deem and Ramdas Pophale) SiO2 
 PCOD9237648
Probable space group: P 2/C
;
_chemical_formula_sum "Si O2"
_cell_formula_units_Z 20
_cell_length_a 12.823413
_cell_length_b 8.858871
_cell_length_c 8.353383
_cell_angle_alpha 90.000000
_cell_angle_beta 53.188189
_cell_angle_gamma 90.000000
_cell_volume 759.738713
_symmetry_space_group_name_H-M "P 2/C"
_symmetry_group_IT_number 13
_symmetry_cell_setting 'monoclinic'
loop_
_space_group_symop_operation_xyz
x,y,z
-x,y,1/2-z
-x,-y,-z
x,-y,1/2+z
loop_
_atom_site_type_symbol
_atom_site_label
_atom_site_fract_x
_atom_site_fract_y
_atom_site_fract_z
Si Si1 0.365868 0.728576 0.643481
Si Si2 0.220592 0.026406 0.097738
Si Si3 0.137206 0.227266 0.896065
Si Si4 0.500000 0.917865 0.750000
Si Si5 0.286240 0.466827 0.935516
Si Si6 0.000000 0.577740 0.750000
O O1 0.485922 0.824966 0.597354
O O2 0.336562 0.619844 0.818094
O O3 0.374082 0.616458 0.485711
O O4 0.250646 0.846030 0.704656
O O5 0.159669 0.871918 0.219342
O O6 0.365431 0.004511 0.892542
O O7 0.137745 0.101891 0.035908
O O8 0.256933 0.340678 0.826035
O O9 0.016476 0.329144 0.067152
O O10 0.139868 0.499583 0.137366
#
# Coordination Sequence:
#
# PCOD9237648 Si02
#       6
#     4   4   4   2   4   2
#     4  11  24  43  67  95 132 180 223 276 324 399
#     4  11  22  43  67  99 132 175 226 275 326 401
#     4   9  21  41  67  96 136 168 223 272 328 404
#     4  12  26  42  70  98 136 182 220 278 344 368
#     4   9  23  44  63  98 134 170 224 270 331 397
#     4   8  20  44  66  94 140 174 204 290 338 382
#
# _framework density 26.324839000000001
#
# number of rings (size 3 to 8) (size 9 to 14) (size 15 to 20)
#    1.200    0.800    2.000    0.600    2.800    2.400 
#    0.000    1.000    0.000    0.000    0.000    0.000 
#    0.000    0.000    0.000    0.000    0.000    0.000 
#
# Total GULP energy -111762.867232 kJ/mol
# GULP energy per Si atom -5588.143362 kJ/mol
# Density = 2.626492 g / cm^3
# Si number density = 26.324839 Si / 1000 Ang^3
#
#
#
# Elastic Constant Matrix: (Units=GPa)
#
#
# Indices 1 2 3 4 5 6 
#
# 1 49.7278 1.0351 18.2955 0.0000 7.5408 0.0000
# 2 1.0351 84.2791 35.3495 0.0000 -1.3668 0.0000
# 3 18.2955 35.3495 46.1315 0.0000 -9.0656 0.0000
# 4 0.0000 0.0000 0.0000 52.1978 0.0000 12.8468
# 5 7.5408 -1.3668 -9.0656 0.0000 31.6489 0.0000
# 6 0.0000 0.0000 0.0000 12.8468 0.0000 32.9279
#
#
#
# Elastic Compliance Matrix: (Units=1/GPa)
#
#
# Indices 1 2 3 4 5 6 
#
# 1 0.029173 0.007827 -0.019993 0.000000 -0.012340 0.000000
# 2 0.007827 0.019910 -0.019665 0.000000 -0.006638 0.000000
# 3 -0.019993 -0.019665 0.048155 0.000000 0.017708 0.000000
# 4 0.000000 0.000000 0.000000 0.021193 0.000000 -0.008268
# 5 -0.012340 -0.006638 0.017708 0.000000 0.039322 0.000000
# 6 0.000000 0.000000 0.000000 -0.008268 0.000000 0.033595
#
#
# Mechanical properties :
#
#
# Convention : Reuss Voigt Hill
#
# Bulk Modulus (GPa) = 29.78247 32.16652 30.97449
# Shear Modulus (GPa) = 18.78270 31.71880 25.25075
#
# Velocity S-wave (km/s) = 2.67403 3.47493 3.10045
# Velocity P-wave (km/s) = 4.56858 5.32408 4.96073
#
# Compressibility (1/GPa) = 0.03357680
#
# Stress axis : x y z
#
# Youngs Moduli (GPa) = 34.27779 50.22666 20.76628
#
# Poissons Ratio (x) = -0.39313 0.41518
# Poissons Ratio (y) = -0.26830 0.40837
# Poissons Ratio (z) = 0.68531 0.98771
#
# Static dielectric constant tensor:
#      x y z
#    x 2.012400 0.000000 0.060680 
#    y 0.000000 2.092150 0.000000 
#    z 0.060680 0.000000 2.129580 
# 
# From -- ./inp_files/20837.got.cif
#   From: 2010.05.17/outbox.cif.g08.bks.cpg/sg13_11_cif.got.tgz:20837.got - 2010.06.03 16:44:36.
