data_PCOD9237319
_publ_section_title
;
Structure prediction by ZEFSAII (Michael W. Deem and Ramdas Pophale) SiO2 
 PCOD9237319
Probable space group: P 2/C
;
_chemical_formula_sum "Si O2"
_cell_formula_units_Z 14
_cell_length_a 7.096599
_cell_length_b 7.000354
_cell_length_c 14.126133
_cell_angle_alpha 90.000000
_cell_angle_beta 69.379680
_cell_angle_gamma 90.000000
_cell_volume 656.809017
_symmetry_space_group_name_H-M "P 2/C"
_symmetry_group_IT_number 13
_symmetry_cell_setting 'monoclinic'
loop_
_space_group_symop_operation_xyz
x,y,z
-x,y,1/2-z
-x,-y,-z
x,-y,1/2+z
loop_
_atom_site_type_symbol
_atom_site_label
_atom_site_fract_x
_atom_site_fract_y
_atom_site_fract_z
Si Si1 0.500000 0.989811 0.250000
Si Si2 0.534663 0.197002 0.940113
Si Si3 0.207002 0.534677 0.584280
Si Si4 0.833166 0.279420 0.214981
O O1 0.682717 0.134327 0.194463
O O2 0.444440 0.860236 0.171910
O O3 0.727136 0.317834 0.940429
O O4 0.342945 0.332374 0.994227
O O5 0.500000 0.000000 0.000000
O O6 0.265677 0.592793 0.683785
O O7 0.971656 0.589142 0.623618
O O8 0.000000 0.167398 0.250000
#
# Coordination Sequence:
#
# PCOD9237319 Si02
#       4
#     2   4   4   4
#     4  12  22  36  76  98 122 178 226 262 320 392
#     4  11  20  40  65  97 129 169 219 270 318 384
#     4   8  20  42  61  86 140 169 196 275 329 368
#     4   8  19  43  61  92 134 165 211 265 323 384
#
# _framework density 21.315176000000001
#
# number of rings (size 3 to 8) (size 9 to 14) (size 15 to 20)
#    1.714    0.571    2.857    0.000    0.000    2.286 
#   15.429    1.429    0.000    0.000    0.000    0.000 
#    0.000    0.000    0.000    0.000    0.000    0.000 
#
# Total GULP energy -77977.997312 kJ/mol
# GULP energy per Si atom -5569.856951 kJ/mol
# Density = 2.126666 g / cm^3
# Si number density = 21.315176 Si / 1000 Ang^3
#
#
#
# Elastic Constant Matrix: (Units=GPa)
#
#
# Indices 1 2 3 4 5 6 
#
# 1 64.4064 46.2455 10.6017 0.0000 -19.2865 0.0000
# 2 46.2455 140.0485 39.2208 0.0000 -10.2466 0.0000
# 3 10.6017 39.2208 73.2631 0.0000 -18.1848 0.0000
# 4 0.0000 0.0000 0.0000 13.5352 0.0000 14.4624
# 5 -19.2865 -10.2466 -18.1848 0.0000 26.8728 0.0000
# 6 0.0000 0.0000 0.0000 14.4624 0.0000 -9.7500
#
#
#
# Elastic Compliance Matrix: (Units=1/GPa)
#
#
# Indices 1 2 3 4 5 6 
#
# 1 0.027102 -0.009150 0.005935 0.000000 0.019978 0.000000
# 2 -0.009150 0.011490 -0.006453 0.000000 -0.006553 0.000000
# 3 0.005935 -0.006453 0.020061 0.000000 0.015375 0.000000
# 4 0.000000 0.000000 0.000000 0.028581 0.000000 0.042396
# 5 0.019978 -0.006553 0.015375 0.000000 0.059456 0.000000
# 6 0.000000 0.000000 0.000000 0.042396 0.000000 -0.039678
#
#
# Mechanical properties :
#
#
# Convention : Reuss Voigt Hill
#
# Bulk Modulus (GPa) = 25.43410 52.20598 38.82004
# Shear Modulus (GPa) = 35.85422 18.24162 27.04792
#
# Velocity S-wave (km/s) = 4.10579 2.92859 3.56610
# Velocity P-wave (km/s) = 5.86813 5.99842 5.93363
#
# Compressibility (1/GPa) = 0.03931730
#
# Stress axis : x y z
#
# Youngs Moduli (GPa) = 36.89803 87.03566 49.84693
#
# Poissons Ratio (x) = 0.79635 -0.29586
# Poissons Ratio (y) = 0.33761 0.32167
# Poissons Ratio (z) = -0.21900 0.56166
#
# Static dielectric constant tensor:
#      x y z
#    x 1.791390 0.000000 -0.023080 
#    y 0.000000 1.740620 0.000000 
#    z -0.023080 0.000000 1.769970 
# 
# From -- ./inp_files/44977.got.cif
#   From: 2010.05.17/outbox.cif.g08.bks.cpg/sg13_23_cif.got.tgz:44977.got - 2010.06.03 16:44:36.
