data_PCOD9237243
_publ_section_title
;
Structure prediction by ZEFSAII (Michael W. Deem and Ramdas Pophale) SiO2 
 PCOD9237243
Probable space group: P 2/C
;
_chemical_formula_sum "Si O2"
_cell_formula_units_Z 18
_cell_length_a 5.376914
_cell_length_b 9.466226
_cell_length_c 17.471810
_cell_angle_alpha 90.000000
_cell_angle_beta 75.149217
_cell_angle_gamma 90.000000
_cell_volume 859.593495
_symmetry_space_group_name_H-M "P 2/C"
_symmetry_group_IT_number 13
_symmetry_cell_setting 'monoclinic'
loop_
_space_group_symop_operation_xyz
x,y,z
-x,y,1/2-z
-x,-y,-z
x,-y,1/2+z
loop_
_atom_site_type_symbol
_atom_site_label
_atom_site_fract_x
_atom_site_fract_y
_atom_site_fract_z
Si Si1 0.768069 0.616967 0.530099
Si Si2 0.590762 0.626609 0.382179
Si Si3 0.000000 0.518546 0.750000
Si Si4 0.000000 0.989530 0.250000
Si Si5 0.762014 0.776287 0.682658
Si Si6 0.500000 0.193822 0.750000
O O1 0.681250 0.686108 0.456645
O O2 0.548217 0.516907 0.582155
O O3 0.784925 0.740122 0.591580
O O4 0.000000 0.500000 0.500000
O O5 0.841652 0.579529 0.317578
O O6 0.432277 0.714470 0.331435
O O7 0.173984 0.625827 0.784005
O O8 0.746593 0.894680 0.259686
O O9 0.973073 0.103062 0.183330
O O10 0.500000 0.819061 0.750000
#
# Coordination Sequence:
#
# PCOD9237243 Si02
#       6
#     4   4   2   2   4   2
#     4  11  23  40  65 111 138 167 216 288 367 411
#     4  11  24  38  69 102 143 169 220 292 353 414
#     4  11  19  36  68 104 129 181 216 282 364 407
#     4  11  27  44  72  94 131 195 250 272 316 405
#     4  11  21  42  70  95 140 180 230 280 338 413
#     4  12  26  48  68  98 134 192 240 278 328 404
#
# _framework density 20.940131999999998
#
# number of rings (size 3 to 8) (size 9 to 14) (size 15 to 20)
#    0.000    0.889    5.556    2.000    3.111    0.000 
#    0.000    2.222    0.000    0.000    0.000    0.000 
#    0.000    0.000    0.000    0.000    0.000    0.000 
#
# Total GULP energy -100255.138969 kJ/mol
# GULP energy per Si atom -5569.729943 kJ/mol
# Density = 2.089247 g / cm^3
# Si number density = 20.940132 Si / 1000 Ang^3
#
#
#
# Elastic Constant Matrix: (Units=GPa)
#
#
# Indices 1 2 3 4 5 6 
#
# 1 97.0718 33.5668 51.5613 0.0000 7.6126 0.0000
# 2 33.5668 75.8459 46.7791 0.0000 16.5251 0.0000
# 3 51.5613 46.7791 171.8107 0.0000 27.8469 0.0000
# 4 0.0000 0.0000 0.0000 -25.7905 0.0000 -18.9390
# 5 7.6126 16.5251 27.8469 0.0000 43.3920 0.0000
# 6 0.0000 0.0000 0.0000 -18.9390 0.0000 26.8607
#
#
#
# Elastic Compliance Matrix: (Units=1/GPa)
#
#
# Indices 1 2 3 4 5 6 
#
# 1 0.013293 -0.004289 -0.003023 0.000000 0.001241 0.000000
# 2 -0.004289 0.017763 -0.002874 0.000000 -0.004168 0.000000
# 3 -0.003023 -0.002874 0.008088 0.000000 -0.003566 0.000000
# 4 0.000000 0.000000 0.000000 -0.025547 0.000000 -0.018012
# 5 0.001241 -0.004168 -0.003566 0.000000 0.026704 0.000000
# 6 0.000000 0.000000 0.000000 -0.018012 0.000000 0.024529
#
#
# Mechanical properties :
#
#
# Convention : Reuss Voigt Hill
#
# Bulk Modulus (GPa) = 53.26734 67.61586 60.44160
# Shear Modulus (GPa) = 54.66938 23.08052 38.87495
#
# Velocity S-wave (km/s) = 5.11509 3.32356 4.31336
# Velocity P-wave (km/s) = 7.77037 6.86209 7.33031
#
# Compressibility (1/GPa) = 0.01877323
#
# Stress axis : x y z
#
# Youngs Moduli (GPa) = 75.22744 56.29541 123.64279
#
# Poissons Ratio (x) = 0.24146 0.37373
# Poissons Ratio (y) = 0.32267 0.35531
# Poissons Ratio (z) = 0.22739 0.16177
#
# Static dielectric constant tensor:
#      x y z
#    x 1.854620 0.000000 0.213510 
#    y 0.000000 1.770080 0.000000 
#    z 0.213510 0.000000 0.951520 
# 
# From -- ./inp_files/60371.got.cif
#   From: 2010.05.17/outbox.cif.g08.bks.cpg/sg13_31_cif.got.tgz:60371.got - 2010.06.03 16:44:36.
