data_PCOD9237045
_publ_section_title
;
Structure prediction by ZEFSAII (Michael W. Deem and Ramdas Pophale) SiO2 
 PCOD9237045
Probable space group: P 2/C
;
_chemical_formula_sum "Si O2"
_cell_formula_units_Z 18
_cell_length_a 26.915492
_cell_length_b 5.073560
_cell_length_c 13.816079
_cell_angle_alpha 90.000000
_cell_angle_beta 24.343348
_cell_angle_gamma 90.000000
_cell_volume 777.699641
_symmetry_space_group_name_H-M "P 2/C"
_symmetry_group_IT_number 13
_symmetry_cell_setting 'monoclinic'
loop_
_space_group_symop_operation_xyz
x,y,z
-x,y,1/2-z
-x,-y,-z
x,-y,1/2+z
loop_
_atom_site_type_symbol
_atom_site_label
_atom_site_fract_x
_atom_site_fract_y
_atom_site_fract_z
Si Si1 0.264848 0.944526 0.027128
Si Si2 0.232917 0.681605 0.272947
Si Si3 0.934655 0.293891 0.046940
Si Si4 0.641267 0.445918 0.752122
Si Si5 0.000000 0.989023 0.250000
O O1 0.333355 0.183755 0.854996
O O2 0.285888 0.687888 0.924778
O O3 0.128914 0.054687 0.283234
O O4 0.300073 0.861713 0.074106
O O5 0.174441 0.444735 0.314981
O O6 0.314034 0.594543 0.217790
O O7 0.117965 0.837863 0.520596
O O8 0.983551 0.808363 0.185544
O O9 0.000000 0.500000 0.000000
O O10 0.500000 0.500000 0.000000
#
# Coordination Sequence:
#
# PCOD9237045 Si02
#       5
#     4   4   4   4   2
#     4  11  27  51  77 114 154 199 263 319 382 460
#     4  11  27  46  77 115 154 203 250 314 384 461
#     4  11  26  45  74 114 159 203 249 313 386 466
#     4  12  29  53  79 112 151 206 266 325 385 456
#     4  10  26  42  76 116 154 208 246 308 388 470
#
# _framework density 23.145184
#
# number of rings (size 3 to 8) (size 9 to 14) (size 15 to 20)
#    0.000    0.889    2.222    1.333   15.556    2.667 
#    4.000    3.333    0.000    0.000    0.000    0.000 
#    0.000    0.000    0.000    0.000    0.000    0.000 
#
# Total GULP energy -100908.065700 kJ/mol
# GULP energy per Si atom -5606.003650 kJ/mol
# Density = 2.309250 g / cm^3
# Si number density = 23.145184 Si / 1000 Ang^3
#
#
#
# Elastic Constant Matrix: (Units=GPa)
#
#
# Indices 1 2 3 4 5 6 
#
# 1 236.2964 99.6106 107.2961 0.0000 16.6564 0.0000
# 2 99.6106 159.8642 43.9666 0.0000 22.5108 0.0000
# 3 107.2961 43.9666 73.6582 0.0000 11.1945 0.0000
# 4 0.0000 0.0000 0.0000 51.4541 0.0000 21.2385
# 5 16.6564 22.5108 11.1945 0.0000 34.2005 0.0000
# 6 0.0000 0.0000 0.0000 21.2385 0.0000 46.0124
#
#
#
# Elastic Compliance Matrix: (Units=1/GPa)
#
#
# Indices 1 2 3 4 5 6 
#
# 1 0.014276 -0.004013 -0.018674 0.000000 0.001801 0.000000
# 2 -0.004013 0.009070 0.001097 0.000000 -0.004375 0.000000
# 3 -0.018674 0.001097 0.040885 0.000000 -0.005010 0.000000
# 4 0.000000 0.000000 0.000000 0.024009 0.000000 -0.011082
# 5 0.001801 -0.004375 -0.005010 0.000000 0.032881 0.000000
# 6 0.000000 0.000000 0.000000 -0.011082 0.000000 0.026849
#
#
# Mechanical properties :
#
#
# Convention : Reuss Voigt Hill
#
# Bulk Modulus (GPa) = 47.50511 107.95170 77.72841
# Shear Modulus (GPa) = 25.23116 40.92977 33.08047
#
# Velocity S-wave (km/s) = 3.30529 4.20979 3.78466
# Velocity P-wave (km/s) = 5.92756 8.38881 7.26320
#
# Compressibility (1/GPa) = 0.02105037
#
# Stress axis : x y z
#
# Youngs Moduli (GPa) = 70.04712 110.25028 24.45901
#
# Poissons Ratio (x) = 0.44246 0.45674
# Poissons Ratio (y) = 0.28111 -0.02682
# Poissons Ratio (z) = 1.30805 -0.12091
#
# Static dielectric constant tensor:
#      x y z
#    x 1.898600 0.000000 0.006560 
#    y 0.000000 1.911650 0.000000 
#    z 0.006560 0.000000 1.852970 
# 
# From -- ./inp_files/41173.got.cif
#   From: 2010.05.17/outbox.cif.g08.bks.cpg/sg13_21_cif.got.tgz:41173.got - 2010.06.03 16:44:36.
