data_PCOD9237718
_publ_section_title
;
Structure prediction by ZEFSAII (Michael W. Deem and Ramdas Pophale) SiO2 
 PCOD9237718
Probable space group: P 2/C
;
_chemical_formula_sum "Si O2"
_cell_formula_units_Z 28
_cell_length_a 12.361517
_cell_length_b 8.566169
_cell_length_c 16.162461
_cell_angle_alpha 90.000000
_cell_angle_beta 51.657568
_cell_angle_gamma 90.000000
_cell_volume 1342.324806
_symmetry_space_group_name_H-M "P 2/C"
_symmetry_group_IT_number 13
_symmetry_cell_setting 'monoclinic'
loop_
_space_group_symop_operation_xyz
x,y,z
-x,y,1/2-z
-x,-y,-z
x,-y,1/2+z
loop_
_atom_site_type_symbol
_atom_site_label
_atom_site_fract_x
_atom_site_fract_y
_atom_site_fract_z
Si Si1 0.155613 0.787833 0.303852
Si Si2 0.862903 0.200944 0.958792
Si Si3 0.561064 0.206090 0.136868
Si Si4 0.843287 0.532834 0.326475
Si Si5 0.855499 0.048516 0.330207
Si Si6 0.537024 0.844836 0.319578
Si Si7 0.604336 0.721676 0.947376
O O1 0.178253 0.620554 0.250675
O O2 0.126629 0.907624 0.242829
O O3 0.298572 0.850332 0.268098
O O4 0.016029 0.787229 0.423663
O O5 0.853541 0.334425 0.892453
O O6 0.846853 0.031804 0.923553
O O7 0.723990 0.222469 0.073826
O O8 0.500000 0.272183 0.250000
O O9 0.499146 0.281925 0.082183
O O10 0.522214 0.021467 0.148479
O O11 0.711706 0.422306 0.404151
O O12 0.000000 0.466909 0.250000
O O13 0.000000 0.138082 0.250000
O O14 0.713971 0.137634 0.381292
O O15 0.500000 0.766530 0.250000
O O16 0.482834 0.757409 0.427782
#
# Coordination Sequence:
#
# PCOD9237718 Si02
#       7
#     4   4   4   4   4   4   4
#     4   9  18  37  58  80 116 160 194 232 291 355
#     4   9  18  37  58  80 116 160 194 232 291 355
#     4  11  23  38  59  92 119 149 202 251 293 348
#     4   9  20  36  60  92 121 155 201 236 288 363
#     4   9  16  29  56  85 107 147 197 228 282 349
#     4  11  23  38  59  92 119 149 202 251 293 348
#     4  12  20  36  61  85 120 156 184 254 301 327
#
# _framework density 20.859335000000002
#
# number of rings (size 3 to 8) (size 9 to 14) (size 15 to 20)
#    0.000    2.000    2.857    4.286    0.000    2.286 
#    0.000    8.571    0.000    3.429    0.000    0.000 
#    0.000    0.000    0.000    0.000    0.000    0.000 
#
# Total GULP energy -155921.602132 kJ/mol
# GULP energy per Si atom -5568.628648 kJ/mol
# Density = 2.081186 g / cm^3
# Si number density = 20.859335 Si / 1000 Ang^3
#
#
#
# Elastic Constant Matrix: (Units=GPa)
#
#
# Indices 1 2 3 4 5 6 
#
# 1 93.7916 5.9228 65.6668 0.0000 -34.8262 0.0000
# 2 5.9228 56.0771 1.1211 0.0000 -6.8645 0.0000
# 3 65.6668 1.1211 109.2732 0.0000 -26.9467 0.0000
# 4 0.0000 0.0000 0.0000 25.4400 0.0000 6.8551
# 5 -34.8262 -6.8645 -26.9467 0.0000 47.7648 0.0000
# 6 0.0000 0.0000 0.0000 6.8551 0.0000 35.6770
#
#
#
# Elastic Compliance Matrix: (Units=1/GPa)
#
#
# Indices 1 2 3 4 5 6 
#
# 1 0.021837 -0.000899 -0.010709 0.000000 0.009751 0.000000
# 2 -0.000899 0.018215 0.000972 0.000000 0.002511 0.000000
# 3 -0.010709 0.000972 0.015898 0.000000 0.001300 0.000000
# 4 0.000000 0.000000 0.000000 0.041454 0.000000 -0.007965
# 5 0.009751 0.002511 0.001300 0.000000 0.029140 0.000000
# 6 0.000000 0.000000 0.000000 -0.007965 0.000000 0.029560
#
#
# Mechanical properties :
#
#
# Convention : Reuss Voigt Hill
#
# Bulk Modulus (GPa) = 28.83537 44.95150 36.89344
# Shear Modulus (GPa) = 26.46414 34.20512 30.33463
#
# Velocity S-wave (km/s) = 3.56574 4.05384 3.81760
# Velocity P-wave (km/s) = 5.55035 6.59606 6.09567
#
# Compressibility (1/GPa) = 0.03467963
#
# Stress axis : x y z
#
# Youngs Moduli (GPa) = 45.79337 54.89846 62.90285
#
# Poissons Ratio (x) = 0.04934 0.67363
# Poissons Ratio (y) = 0.04115 -0.06117
# Poissons Ratio (z) = 0.49040 -0.05338
#
# Static dielectric constant tensor:
#      x y z
#    x 1.866670 0.000000 -0.037310 
#    y 0.000000 1.774080 0.000000 
#    z -0.037310 0.000000 1.768640 
# 
# From -- ./inp_files/50231.got.cif
#   From: 2010.05.17/outbox.cif.g08.bks.cpg/sg13_26_cif.got.tgz:50231.got - 2010.06.03 16:44:36.
