data_PCOD9237658
_publ_section_title
;
Structure prediction by ZEFSAII (Michael W. Deem and Ramdas Pophale) SiO2 
 PCOD9237658
Probable space group: P 2/C
;
_chemical_formula_sum "Si O2"
_cell_formula_units_Z 18
_cell_length_a 7.430418
_cell_length_b 12.263095
_cell_length_c 7.883629
_cell_angle_alpha 90.000000
_cell_angle_beta 72.349914
_cell_angle_gamma 90.000000
_cell_volume 684.539771
_symmetry_space_group_name_H-M "P 2/C"
_symmetry_group_IT_number 13
_symmetry_cell_setting 'monoclinic'
loop_
_space_group_symop_operation_xyz
x,y,z
-x,y,1/2-z
-x,-y,-z
x,-y,1/2+z
loop_
_atom_site_type_symbol
_atom_site_label
_atom_site_fract_x
_atom_site_fract_y
_atom_site_fract_z
Si Si1 0.647956 0.057869 0.331561
Si Si2 0.275356 0.404435 0.344066
Si Si3 0.141390 0.139461 0.921687
Si Si4 0.000000 0.237510 0.250000
Si Si5 0.286441 0.359067 0.736680
O O1 0.500000 0.113697 0.250000
O O2 0.786313 0.962936 0.211059
O O3 0.500000 0.000000 0.500000
O O4 0.743332 0.137433 0.435794
O O5 0.500000 0.405210 0.250000
O O6 0.165573 0.327767 0.243345
O O7 0.263735 0.371059 0.542943
O O8 0.210031 0.529856 0.340322
O O9 0.180371 0.248802 0.814307
O O10 0.954288 0.160663 0.088517
O O11 0.500000 0.345637 0.750000
#
# Coordination Sequence:
#
# PCOD9237658 Si02
#       5
#     4   4   4   2   4
#     4   9  20  41  68  98 134 178 234 297 349 413
#     4  11  25  45  71 106 147 185 235 293 350 427
#     4  11  24  41  66 101 140 186 237 291 360 422
#     4  12  28  46  72 106 144 190 236 290 356 434
#     4  11  22  43  73 105 142 188 237 290 355 426
#
# _framework density 26.295036
#
# number of rings (size 3 to 8) (size 9 to 14) (size 15 to 20)
#    0.000    1.333    0.000    7.333    0.000   11.556 
#    0.000    1.111    0.000    0.000    0.000    0.000 
#    0.000    0.000    0.000    0.000    0.000    0.000 
#
# Total GULP energy -100285.399199 kJ/mol
# GULP energy per Si atom -5571.411067 kJ/mol
# Density = 2.623519 g / cm^3
# Si number density = 26.295036 Si / 1000 Ang^3
#
#
#
# Elastic Constant Matrix: (Units=GPa)
#
#
# Indices 1 2 3 4 5 6 
#
# 1 62.7144 36.9990 14.4276 0.0000 22.4155 0.0000
# 2 36.9990 219.0430 97.4443 0.0000 -7.2690 0.0000
# 3 14.4276 97.4443 171.9283 0.0000 1.4696 0.0000
# 4 0.0000 0.0000 0.0000 41.5325 0.0000 -2.2212
# 5 22.4155 -7.2690 1.4696 0.0000 36.1472 0.0000
# 6 0.0000 0.0000 0.0000 -2.2212 0.0000 31.1658
#
#
#
# Elastic Compliance Matrix: (Units=1/GPa)
#
#
# Indices 1 2 3 4 5 6 
#
# 1 0.024576 -0.005131 0.000985 0.000000 -0.016312 0.000000
# 2 -0.005131 0.007244 -0.003716 0.000000 0.004789 0.000000
# 3 0.000985 -0.003716 0.007854 0.000000 -0.001677 0.000000
# 4 0.000000 0.000000 0.000000 0.024170 0.000000 0.001723
# 5 -0.016312 0.004789 -0.001677 0.000000 0.038811 0.000000
# 6 0.000000 0.000000 0.000000 0.001723 0.000000 0.032209
#
#
# Mechanical properties :
#
#
# Convention : Reuss Voigt Hill
#
# Bulk Modulus (GPa) = 41.75273 83.49192 62.62233
# Shear Modulus (GPa) = 31.53162 42.09008 36.81085
#
# Velocity S-wave (km/s) = 3.46663 4.00520 3.74560
# Velocity P-wave (km/s) = 5.65123 7.29450 6.52480
#
# Compressibility (1/GPa) = 0.02395053
#
# Stress axis : x y z
#
# Youngs Moduli (GPa) = 40.69065 138.04449 127.31953
#
# Poissons Ratio (x) = 0.70826 -0.12541
# Poissons Ratio (y) = 0.20877 0.47313
# Poissons Ratio (z) = -0.04008 0.51299
#
# Static dielectric constant tensor:
#      x y z
#    x 2.004590 0.000000 0.238690 
#    y 0.000000 1.972360 0.000000 
#    z 0.238690 0.000000 1.985200 
# 
# From -- ./inp_files/11320.got.cif
#   From: 2010.05.17/outbox.cif.g08.bks.cpg/sg13_6_cif.got.tgz:11320.got - 2010.06.03 16:44:36.
