data_PCOD9237238
_publ_section_title
;
Structure prediction by ZEFSAII (Michael W. Deem and Ramdas Pophale) SiO2 
 PCOD9237238
Probable space group: P 2/C
;
_chemical_formula_sum "Si O2"
_cell_formula_units_Z 28
_cell_length_a 12.796470
_cell_length_b 9.078993
_cell_length_c 14.140953
_cell_angle_alpha 90.000000
_cell_angle_beta 55.811134
_cell_angle_gamma 90.000000
_cell_volume 1358.975746
_symmetry_space_group_name_H-M "P 2/C"
_symmetry_group_IT_number 13
_symmetry_cell_setting 'monoclinic'
loop_
_space_group_symop_operation_xyz
x,y,z
-x,y,1/2-z
-x,-y,-z
x,-y,1/2+z
loop_
_atom_site_type_symbol
_atom_site_label
_atom_site_fract_x
_atom_site_fract_y
_atom_site_fract_z
Si Si1 0.352455 0.566488 0.835413
Si Si2 0.131874 0.918136 0.443307
Si Si3 0.280207 0.298119 0.749557
Si Si4 0.256403 0.830236 0.569644
Si Si5 0.488265 0.944346 0.143986
Si Si6 0.282915 0.156265 0.261208
Si Si7 0.649892 0.495793 0.952637
O O1 0.500000 0.596101 0.750000
O O2 0.328445 0.400961 0.811071
O O3 0.280211 0.681981 0.805826
O O4 0.326603 0.580811 0.958938
O O5 0.160868 0.790127 0.351685
O O6 0.158708 0.855450 0.534197
O O7 0.233821 0.043554 0.364703
O O8 0.000000 0.000000 0.500000
O O9 0.385601 0.178182 0.665855
O O10 0.272136 0.409446 0.666576
O O11 0.380576 0.922293 0.475424
O O12 0.211121 0.867933 0.698659
O O13 0.303688 0.662552 0.556886
O O14 0.500000 0.917265 0.250000
O O15 0.425991 0.104829 0.165113
O O16 0.500000 0.500000 0.000000
#
# Coordination Sequence:
#
# PCOD9237238 Si02
#       7
#     4   4   4   4   4   4   4
#     4  12  21  35  60 103 147 173 217 273 348 445
#     4  11  27  49  69  87 128 191 248 299 333 397
#     4  11  21  39  65  98 137 181 230 264 358 423
#     4  12  21  40  66  95 140 177 227 282 365 421
#     4  11  19  36  59  97 141 181 206 270 351 440
#     4  11  25  37  63 102 133 174 230 286 356 427
#     4  12  21  34  65 105 145 188 214 275 360 449
#
# _framework density 20.603750999999999
#
# number of rings (size 3 to 8) (size 9 to 14) (size 15 to 20)
#    0.000    0.571    8.571    1.286    0.000    2.857 
#    0.000    0.714    0.000    0.000    0.000    0.000 
#    0.000    0.000    0.000    0.000    0.000    0.000 
#
# Total GULP energy -156366.928116 kJ/mol
# GULP energy per Si atom -5584.533147 kJ/mol
# Density = 2.055686 g / cm^3
# Si number density = 20.603751 Si / 1000 Ang^3
#
#
#
# Elastic Constant Matrix: (Units=GPa)
#
#
# Indices 1 2 3 4 5 6 
#
# 1 80.4524 36.0103 49.0533 0.0000 15.4154 0.0000
# 2 36.0103 87.3516 26.5683 0.0000 8.9372 0.0000
# 3 49.0533 26.5683 87.4836 0.0000 33.1429 0.0000
# 4 0.0000 0.0000 0.0000 35.9963 0.0000 8.0354
# 5 15.4154 8.9372 33.1429 0.0000 34.0279 0.0000
# 6 0.0000 0.0000 0.0000 8.0354 0.0000 28.6537
#
#
#
# Elastic Compliance Matrix: (Units=1/GPa)
#
#
# Indices 1 2 3 4 5 6 
#
# 1 0.021303 -0.005632 -0.011313 0.000000 0.002847 0.000000
# 2 -0.005632 0.014112 -0.001093 0.000000 -0.000090 0.000000
# 3 -0.011313 -0.001093 0.025445 0.000000 -0.019371 0.000000
# 4 0.000000 0.000000 0.000000 0.029636 0.000000 -0.008311
# 5 0.002847 -0.000090 -0.019371 0.000000 0.046988 0.000000
# 6 0.000000 0.000000 0.000000 -0.008311 0.000000 0.037230
#
#
# Mechanical properties :
#
#
# Convention : Reuss Voigt Hill
#
# Bulk Modulus (GPa) = 40.35283 53.17236 46.76259
# Shear Modulus (GPa) = 22.82561 29.31262 26.06912
#
# Velocity S-wave (km/s) = 3.33203 3.77594 3.56091
# Velocity P-wave (km/s) = 5.86779 6.69876 6.29700
#
# Compressibility (1/GPa) = 0.02478141
#
# Stress axis : x y z
#
# Youngs Moduli (GPa) = 46.94178 70.86310 39.30083
#
# Poissons Ratio (x) = 0.39913 0.44461
# Poissons Ratio (y) = 0.26440 0.04297
# Poissons Ratio (z) = 0.53106 0.07749
#
# Static dielectric constant tensor:
#      x y z
#    x 1.786720 0.000000 0.035800 
#    y 0.000000 1.768520 0.000000 
#    z 0.035800 0.000000 1.779770 
# 
# From -- ./inp_files/50233.got.cif
#   From: 2010.05.17/outbox.cif.g08.bks.cpg/sg13_26_cif.got.tgz:50233.got - 2010.06.03 16:44:36.
