data_PCOD9237832
_publ_section_title
;
Structure prediction by ZEFSAII (Michael W. Deem and Ramdas Pophale) SiO2 
 PCOD9237832
Probable space group: P 2/C
;
_chemical_formula_sum "Si O2"
_cell_formula_units_Z 20
_cell_length_a 8.959906
_cell_length_b 12.415458
_cell_length_c 8.863355
_cell_angle_alpha 90.000000
_cell_angle_beta 96.111899
_cell_angle_gamma 90.000000
_cell_volume 980.367052
_symmetry_space_group_name_H-M "P 2/C"
_symmetry_group_IT_number 13
_symmetry_cell_setting 'monoclinic'
loop_
_space_group_symop_operation_xyz
x,y,z
-x,y,1/2-z
-x,-y,-z
x,-y,1/2+z
loop_
_atom_site_type_symbol
_atom_site_label
_atom_site_fract_x
_atom_site_fract_y
_atom_site_fract_z
Si Si1 0.843904 0.106838 0.824945
Si Si2 0.165265 0.127597 0.313473
Si Si3 0.654891 0.309049 0.346407
Si Si4 0.335575 0.691225 0.294951
Si Si5 0.882008 0.499887 0.850847
O O1 0.719517 0.194712 0.773383
O O2 0.000000 0.134174 0.750000
O O3 0.805126 0.987842 0.761362
O O4 0.848164 0.109870 0.007593
O O5 0.275387 0.214635 0.250502
O O6 0.000000 0.164513 0.250000
O O7 0.500000 0.335149 0.250000
O O8 0.646217 0.287225 0.524150
O O9 0.752652 0.415866 0.358774
O O10 0.500000 0.658469 0.250000
O O11 0.203472 0.606888 0.225154
O O12 0.000000 0.548681 0.750000
O O13 0.000000 0.500000 0.000000
#
# Coordination Sequence:
#
# PCOD9237832 Si02
#       5
#     4   4   4   4   4
#     4  11  23  42  71 102 140 178 230 278 337 402
#     4  11  23  42  70 103 137 181 228 281 335 405
#     4  12  27  45  69 101 141 181 228 282 345 406
#     4  12  27  45  68 101 142 180 227 284 343 406
#     4  12  27  46  74 101 134 179 230 283 339 407
#
# _framework density 20.400523
#
# number of rings (size 3 to 8) (size 9 to 14) (size 15 to 20)
#    0.000    0.400    2.000    7.800    8.400    2.400 
#    0.000    4.000    0.000    0.000    0.000    0.000 
#    0.000    0.000    0.000    0.000    0.000    0.000 
#
# Total GULP energy -111434.050595 kJ/mol
# GULP energy per Si atom -5571.702530 kJ/mol
# Density = 2.035409 g / cm^3
# Si number density = 20.400523 Si / 1000 Ang^3
#
#
#
# Elastic Constant Matrix: (Units=GPa)
#
#
# Indices 1 2 3 4 5 6 
#
# 1 88.6058 54.6574 58.4973 0.0000 30.0175 0.0000
# 2 54.6574 64.5420 43.4798 0.0000 9.2764 0.0000
# 3 58.4973 43.4798 230.6163 0.0000 6.2767 0.0000
# 4 0.0000 0.0000 0.0000 28.7597 0.0000 -10.3508
# 5 30.0175 9.2764 6.2767 0.0000 41.6770 0.0000
# 6 0.0000 0.0000 0.0000 -10.3508 0.0000 25.1643
#
#
#
# Elastic Compliance Matrix: (Units=1/GPa)
#
#
# Indices 1 2 3 4 5 6 
#
# 1 0.035952 -0.025002 -0.003868 0.000000 -0.019747 0.000000
# 2 -0.025002 0.035647 -0.000656 0.000000 0.010172 0.000000
# 3 -0.003868 -0.000656 0.005383 0.000000 0.002121 0.000000
# 4 0.000000 0.000000 0.000000 0.040813 0.000000 0.016787
# 5 -0.019747 0.010172 0.002121 0.000000 0.035633 0.000000
# 6 0.000000 0.000000 0.000000 0.016787 0.000000 0.046644
#
#
# Mechanical properties :
#
#
# Convention : Reuss Voigt Hill
#
# Bulk Modulus (GPa) = 55.77218 77.44813 66.61016
# Shear Modulus (GPa) = 18.86075 34.26218 26.56146
#
# Velocity S-wave (km/s) = 3.04389 4.10259 3.61224
# Velocity P-wave (km/s) = 6.30489 7.77739 7.07953
#
# Compressibility (1/GPa) = 0.01793009
#
# Stress axis : x y z
#
# Youngs Moduli (GPa) = 27.81453 28.05314 185.76035
#
# Poissons Ratio (x) = 0.70139 0.71856
# Poissons Ratio (y) = 0.69543 0.12178
# Poissons Ratio (z) = 0.10759 0.01839
#
# Static dielectric constant tensor:
#      x y z
#    x 1.912360 0.000000 0.017220 
#    y 0.000000 1.702080 0.000000 
#    z 0.017220 0.000000 1.787540 
# 
# From -- ./inp_files/11789.got.cif
#   From: 2010.05.17/outbox.cif.g08.bks.cpg/sg13_6_cif.got.tgz:11789.got - 2010.06.03 16:44:36.
