data_PCOD9237324
_publ_section_title
;
Structure prediction by ZEFSAII (Michael W. Deem and Ramdas Pophale) SiO2 
 PCOD9237324
Probable space group: P 2/C
;
_chemical_formula_sum "Si O2"
_cell_formula_units_Z 28
_cell_length_a 8.071401
_cell_length_b 7.899258
_cell_length_c 28.368777
_cell_angle_alpha 90.000000
_cell_angle_beta 47.870674
_cell_angle_gamma 90.000000
_cell_volume 1341.419594
_symmetry_space_group_name_H-M "P 2/C"
_symmetry_group_IT_number 13
_symmetry_cell_setting 'monoclinic'
loop_
_space_group_symop_operation_xyz
x,y,z
-x,y,1/2-z
-x,-y,-z
x,-y,1/2+z
loop_
_atom_site_type_symbol
_atom_site_label
_atom_site_fract_x
_atom_site_fract_y
_atom_site_fract_z
Si Si1 0.234656 0.642427 0.182485
Si Si2 0.389267 0.385772 0.419183
Si Si3 0.899323 0.906789 0.565841
Si Si4 0.783634 0.368179 0.471714
Si Si5 0.412584 0.179398 0.502355
Si Si6 0.971757 0.329949 0.879377
Si Si7 0.419202 0.839695 0.316353
O O1 0.406797 0.488880 0.141351
O O2 0.140551 0.710060 0.149863
O O3 0.379154 0.768765 0.188955
O O4 0.000000 0.587710 0.250000
O O5 0.233145 0.270815 0.417258
O O6 0.236066 0.522182 0.476718
O O7 0.476187 0.242167 0.438684
O O8 0.111291 0.818153 0.549398
O O9 0.725837 0.026013 0.626162
O O10 0.000000 0.000000 0.500000
O O11 0.525159 0.325234 0.512085
O O12 0.901284 0.484284 0.410321
O O13 0.149991 0.202903 0.560632
O O14 0.500000 0.000000 0.500000
O O15 0.235812 0.302444 0.835409
O O16 0.500000 0.908595 0.250000
#
# Coordination Sequence:
#
# PCOD9237324 Si02
#       7
#     4   4   4   4   4   4   4
#     4  12  24  46  73  95 130 183 240 279 335 420
#     4  11  22  41  65 103 133 174 237 278 335 409
#     4  12  25  43  68 105 141 180 231 287 347 417
#     4  11  20  41  67  98 138 169 223 287 337 402
#     4  11  21  36  65 101 139 168 209 285 349 396
#     4  11  22  45  69  98 134 179 229 276 342 412
#     4  12  27  47  68 100 139 183 227 283 356 414
#
# _framework density 20.873408999999999
#
# number of rings (size 3 to 8) (size 9 to 14) (size 15 to 20)
#    0.000    0.571    4.286    6.429    2.000    0.000 
#    2.571    0.714    0.000    0.000    0.000    0.000 
#    0.000    0.000    0.000    0.000    0.000    0.000 
#
# Total GULP energy -156001.992458 kJ/mol
# GULP energy per Si atom -5571.499731 kJ/mol
# Density = 2.082590 g / cm^3
# Si number density = 20.873409 Si / 1000 Ang^3
#
#
#
# Elastic Constant Matrix: (Units=GPa)
#
#
# Indices 1 2 3 4 5 6 
#
# 1 109.7890 29.4254 32.5167 0.0000 -9.5703 0.0000
# 2 29.4254 77.5767 23.8169 0.0000 1.6829 0.0000
# 3 32.5167 23.8169 116.0624 0.0000 -0.3492 0.0000
# 4 0.0000 0.0000 0.0000 24.2450 0.0000 -2.0699
# 5 -9.5703 1.6829 -0.3492 0.0000 31.6798 0.0000
# 6 0.0000 0.0000 0.0000 -2.0699 0.0000 47.8466
#
#
#
# Elastic Compliance Matrix: (Units=1/GPa)
#
#
# Indices 1 2 3 4 5 6 
#
# 1 0.011064 -0.003548 -0.002361 0.000000 0.003505 0.000000
# 2 -0.003548 0.014913 -0.002072 0.000000 -0.001887 0.000000
# 3 -0.002361 -0.002072 0.009701 0.000000 -0.000496 0.000000
# 4 0.000000 0.000000 0.000000 0.041399 0.000000 0.001791
# 5 0.003505 -0.001887 -0.000496 0.000000 0.032719 0.000000
# 6 0.000000 0.000000 0.000000 0.001791 0.000000 0.020978
#
#
# Mechanical properties :
#
#
# Convention : Reuss Voigt Hill
#
# Bulk Modulus (GPa) = 50.71875 52.77180 51.74527
# Shear Modulus (GPa) = 32.61398 35.26554 33.93976
#
# Velocity S-wave (km/s) = 3.95709 4.11481 4.03672
# Velocity P-wave (km/s) = 6.72526 6.92187 6.82427
#
# Compressibility (1/GPa) = 0.01971658
#
# Stress axis : x y z
#
# Youngs Moduli (GPa) = 90.38243 67.05448 103.07914
#
# Poissons Ratio (x) = 0.23790 0.24339
# Poissons Ratio (y) = 0.32066 0.21358
# Poissons Ratio (z) = 0.21341 0.13894
#
# Static dielectric constant tensor:
#      x y z
#    x 2.343400 0.000000 -0.033230 
#    y 0.000000 1.836380 0.000000 
#    z -0.033230 0.000000 1.798640 
# 
# From -- ./inp_files/95908.got.cif
#   From: 2010.05.17/outbox.cif.g08.bks.cpg/sg13_48_cif.got.tgz:95908.got - 2010.06.03 16:44:36.
