data_PCOD9237842
_publ_section_title
;
Structure prediction by ZEFSAII (Michael W. Deem and Ramdas Pophale) SiO2 
 PCOD9237842
Probable space group: P 2/C
;
_chemical_formula_sum "Si O2"
_cell_formula_units_Z 26
_cell_length_a 25.166981
_cell_length_b 9.001983
_cell_length_c 10.758457
_cell_angle_alpha 90.000000
_cell_angle_beta 155.571692
_cell_angle_gamma 90.000000
_cell_volume 1007.979869
_symmetry_space_group_name_H-M "P 2/C"
_symmetry_group_IT_number 13
_symmetry_cell_setting 'monoclinic'
loop_
_space_group_symop_operation_xyz
x,y,z
-x,y,1/2-z
-x,-y,-z
x,-y,1/2+z
loop_
_atom_site_type_symbol
_atom_site_label
_atom_site_fract_x
_atom_site_fract_y
_atom_site_fract_z
Si Si1 0.348069 0.767244 0.296544
Si Si2 0.000000 0.589457 0.250000
Si Si3 0.601053 0.713310 0.354608
Si Si4 0.058887 0.669658 0.625689
Si Si5 0.770835 0.045524 0.347508
Si Si6 0.272391 0.584420 0.358047
Si Si7 0.143335 0.143195 0.698482
O O1 0.433242 0.779989 0.353998
O O2 0.206276 0.714031 0.946854
O O3 0.356487 0.645579 0.422882
O O4 0.338219 0.924661 0.345058
O O5 0.988056 0.702095 0.111429
O O6 0.130912 0.487891 0.521063
O O7 0.711716 0.809191 0.657768
O O8 0.648680 0.549931 0.419145
O O9 0.500000 0.703252 0.250000
O O10 0.990537 0.770919 0.579887
O O11 0.000000 0.500000 0.500000
O O12 0.834172 0.074409 0.617296
O O13 0.844882 0.966345 0.391830
O O14 0.242938 0.721237 0.385696
#
# Coordination Sequence:
#
# PCOD9237842 Si02
#       7
#     4   2   4   4   4   4   4
#     4  11  24  46  66 105 144 186 242 288 353 442
#     4  12  20  36  70 110 144 184 216 294 362 416
#     4  12  27  48  71 103 138 185 248 306 358 415
#     4  12  22  38  69 105 146 188 226 287 353 415
#     4  11  26  48  70 101 146 191 235 289 359 421
#     4  11  23  42  74 105 142 185 239 291 360 424
#     4  11  24  47  72 106 150 189 235 286 354 442
#
# _framework density 25.794163999999999
#
# number of rings (size 3 to 8) (size 9 to 14) (size 15 to 20)
#    0.000    0.615    6.154    0.923    2.154    3.692 
#    2.769    1.538    0.000    0.000    0.000    0.000 
#    0.000    0.000    0.000    0.000    0.000    0.000 
#
# Total GULP energy -145277.843080 kJ/mol
# GULP energy per Si atom -5587.609349 kJ/mol
# Density = 2.573546 g / cm^3
# Si number density = 25.794164 Si / 1000 Ang^3
#
#
#
# Elastic Constant Matrix: (Units=GPa)
#
#
# Indices 1 2 3 4 5 6 
#
# 1 198.0856 61.1965 25.8316 0.0000 5.1452 0.0000
# 2 61.1965 109.6517 18.5627 0.0000 1.6868 0.0000
# 3 25.8316 18.5627 42.6004 0.0000 12.4066 0.0000
# 4 0.0000 0.0000 0.0000 -1.5583 0.0000 -12.3620
# 5 5.1452 1.6868 12.4066 0.0000 39.7895 0.0000
# 6 0.0000 0.0000 0.0000 -12.3620 0.0000 40.5953
#
#
#
# Elastic Compliance Matrix: (Units=1/GPa)
#
#
# Indices 1 2 3 4 5 6 
#
# 1 0.006335 -0.003111 -0.002514 0.000000 0.000096 0.000000
# 2 -0.003111 0.011412 -0.003368 0.000000 0.000969 0.000000
# 3 -0.002514 -0.003368 0.028959 0.000000 -0.008562 0.000000
# 4 0.000000 0.000000 0.000000 -0.187872 0.000000 -0.057210
# 5 0.000096 0.000969 -0.008562 0.000000 0.027748 0.000000
# 6 0.000000 0.000000 0.000000 -0.057210 0.000000 0.007212
#
#
# Mechanical properties :
#
#
# Convention : Reuss Voigt Hill
#
# Bulk Modulus (GPa) = 34.81932 62.39102 48.60517
# Shear Modulus (GPa) = -63.57510 32.08176 -15.74667
#
# Velocity S-wave (km/s) = -4.96997 3.53052 -2.47346
# Velocity P-wave (km/s) = 4.40521 6.39218 3.27522
#
# Compressibility (1/GPa) = 0.02871969
#
# Stress axis : x y z
#
# Youngs Moduli (GPa) = 157.85694 87.63076 34.53138
#
# Poissons Ratio (x) = 0.27266 0.08680
# Poissons Ratio (y) = 0.49116 0.11630
# Poissons Ratio (z) = 0.39679 0.29513
#
# Static dielectric constant tensor:
#      x y z
#    x 2.667620 0.000000 -0.279490 
#    y 0.000000 2.047480 0.000000 
#    z -0.279490 0.000000 2.289630 
# 
# From -- ./inp_files/41668.got.cif
#   From: 2010.05.17/outbox.cif.g08.bks.cpg/sg13_21_cif.got.tgz:41668.got - 2010.06.03 16:44:36.
