data_PCOD9237901
_publ_section_title
;
Structure prediction by ZEFSAII (Michael W. Deem and Ramdas Pophale) SiO2 
 PCOD9237901
Probable space group: P 2/C
;
_chemical_formula_sum "Si O2"
_cell_formula_units_Z 28
_cell_length_a 9.358370
_cell_length_b 8.548245
_cell_length_c 21.902600
_cell_angle_alpha 90.000000
_cell_angle_beta 49.248285
_cell_angle_gamma 90.000000
_cell_volume 1327.338025
_symmetry_space_group_name_H-M "P 2/C"
_symmetry_group_IT_number 13
_symmetry_cell_setting 'monoclinic'
loop_
_space_group_symop_operation_xyz
x,y,z
-x,y,1/2-z
-x,-y,-z
x,-y,1/2+z
loop_
_atom_site_type_symbol
_atom_site_label
_atom_site_fract_x
_atom_site_fract_y
_atom_site_fract_z
Si Si1 0.630340 0.813864 0.318326
Si Si2 0.885089 0.142233 0.094759
Si Si3 0.918317 0.197759 0.946427
Si Si4 0.500000 0.962586 0.750000
Si Si5 0.473249 0.184889 0.515194
Si Si6 0.128271 0.720912 0.622245
Si Si7 0.000000 0.986257 0.750000
Si Si8 0.085104 0.403356 0.792978
O O1 0.537675 0.788607 0.409542
O O2 0.696676 0.644929 0.275305
O O3 0.514505 0.921627 0.304255
O O4 0.822595 0.915401 0.275207
O O5 0.687797 0.140182 0.186722
O O6 0.052888 0.243793 0.076137
O O7 0.859621 0.208544 0.033774
O O8 0.963214 0.964505 0.081697
O O9 0.724291 0.207307 0.962839
O O10 0.035305 0.316605 0.870915
O O11 0.645680 0.285649 0.440052
O O12 0.500000 0.000000 0.500000
O O13 0.074490 0.872973 0.676457
O O14 0.005226 0.574263 0.677282
O O15 0.000000 0.352478 0.750000
#
# Coordination Sequence:
#
# PCOD9237901 Si02
#       8
#     4   4   4   2   4   4   2   4
#     4  12  23  42  72  96 134 180 235 277 338 411
#     4  11  24  43  68 102 136 177 232 294 339 403
#     4  11  23  44  70  97 137 177 231 287 346 404
#     4  12  24  40  70 104 130 178 236 288 334 416
#     4  12  22  40  71 107 127 173 235 297 335 405
#     4  12  26  41  69 104 141 177 225 290 356 409
#     4  12  20  42  70  96 130 180 230 284 336 402
#     4  12  24  46  68  95 140 189 226 276 348 421
#
# _framework density 21.094853000000001
#
# number of rings (size 3 to 8) (size 9 to 14) (size 15 to 20)
#    0.000    0.286    8.571    0.857    2.000    1.143 
#    0.000    0.714    0.000    0.000    0.000    0.000 
#    0.000    0.000    0.000    0.000    0.000    0.000 
#
# Total GULP energy -156002.284874 kJ/mol
# GULP energy per Si atom -5571.510174 kJ/mol
# Density = 2.104684 g / cm^3
# Si number density = 21.094853 Si / 1000 Ang^3
#
#
#
# Elastic Constant Matrix: (Units=GPa)
#
#
# Indices 1 2 3 4 5 6 
#
# 1 55.5279 -6.9521 1.5597 0.0000 3.8661 0.0000
# 2 -6.9521 50.5886 0.1925 0.0000 -6.2522 0.0000
# 3 1.5597 0.1925 76.4467 0.0000 -3.0971 0.0000
# 4 0.0000 0.0000 0.0000 34.6162 0.0000 -7.5108
# 5 3.8661 -6.2522 -3.0971 0.0000 37.4581 0.0000
# 6 0.0000 0.0000 0.0000 -7.5108 0.0000 5.6851
#
#
#
# Elastic Compliance Matrix: (Units=1/GPa)
#
#
# Indices 1 2 3 4 5 6 
#
# 1 0.018422 0.002342 -0.000444 0.000000 -0.001547 0.000000
# 2 0.002342 0.020482 0.000029 0.000000 0.003179 0.000000
# 3 -0.000444 0.000029 0.013136 0.000000 0.001137 0.000000
# 4 0.000000 0.000000 0.000000 0.040497 0.000000 0.053502
# 5 -0.001547 0.003179 0.001137 0.000000 0.027481 0.000000
# 6 0.000000 0.000000 0.000000 0.053502 0.000000 0.246583
#
#
# Mechanical properties :
#
#
# Convention : Reuss Voigt Hill
#
# Bulk Modulus (GPa) = 17.89076 19.12927 18.51002
# Shear Modulus (GPa) = 13.11033 28.06942 20.58988
#
# Velocity S-wave (km/s) = 2.49568 3.65174 3.12759
# Velocity P-wave (km/s) = 4.09928 5.18345 4.67291
#
# Compressibility (1/GPa) = 0.05589476
#
# Stress axis : x y z
#
# Youngs Moduli (GPa) = 54.28172 48.82340 76.12631
#
# Poissons Ratio (x) = -0.11435 0.03383
# Poissons Ratio (y) = -0.12714 -0.00224
# Poissons Ratio (z) = 0.02413 -0.00144
#
# Static dielectric constant tensor:
#      x y z
#    x 2.172120 0.000000 -0.249730 
#    y 0.000000 1.828560 0.000000 
#    z -0.249730 0.000000 1.994960 
# 
# From -- ./inp_files/75963.got.cif
#   From: 2010.05.17/outbox.cif.g08.bks.cpg/sg13_38_cif.got.tgz:75963.got - 2010.06.03 16:44:36.
