data_PCOD9237868
_publ_section_title
;
Structure prediction by ZEFSAII (Michael W. Deem and Ramdas Pophale) SiO2 
 PCOD9237868
Probable space group: P 2/C
;
_chemical_formula_sum "Si O2"
_cell_formula_units_Z 16
_cell_length_a 8.374296
_cell_length_b 18.175407
_cell_length_c 9.308294
_cell_angle_alpha 90.000000
_cell_angle_beta 148.336971
_cell_angle_gamma 90.000000
_cell_volume 743.699977
_symmetry_space_group_name_H-M "P 2/C"
_symmetry_group_IT_number 13
_symmetry_cell_setting 'monoclinic'
loop_
_space_group_symop_operation_xyz
x,y,z
-x,y,1/2-z
-x,-y,-z
x,-y,1/2+z
loop_
_atom_site_type_symbol
_atom_site_label
_atom_site_fract_x
_atom_site_fract_y
_atom_site_fract_z
Si Si1 0.808820 0.951146 0.748735
Si Si2 0.791537 0.349701 0.367306
Si Si3 0.154707 0.189245 0.020767
Si Si4 0.422855 0.425279 0.857988
O O1 0.816431 0.872345 0.834254
O O2 0.000000 0.944597 0.750000
O O3 0.500000 0.000000 0.500000
O O4 0.000000 0.000000 0.000000
O O5 0.500000 0.359968 0.250000
O O6 0.950628 0.269522 0.507944
O O7 0.067708 0.405565 0.606206
O O8 0.640567 0.363689 0.096984
O O9 0.500000 0.204828 0.250000
O O10 0.000000 0.166109 0.750000
O O11 0.500000 0.432021 0.750000
O O12 0.500000 0.500000 0.000000
#
# Coordination Sequence:
#
# PCOD9237868 Si02
#       4
#     4   4   4   4
#     4  12  25  42  66  97 135 176 222 273 329 394
#     4  11  24  45  70  98 132 176 225 278 339 403
#     4  11  23  43  69  97 132 176 223 277 337 402
#     4  12  26  44  67  98 136 176 222 278 337 403
#
# _framework density 21.514050999999998
#
# number of rings (size 3 to 8) (size 9 to 14) (size 15 to 20)
#    0.000    0.500    0.000   10.500    0.000    4.000 
#    0.000    0.000    0.000    0.000    0.000    0.000 
#    0.000    0.000    0.000    0.000    0.000    0.000 
#
# Total GULP energy -89321.307363 kJ/mol
# GULP energy per Si atom -5582.581710 kJ/mol
# Density = 2.146508 g / cm^3
# Si number density = 21.514051 Si / 1000 Ang^3
#
#
#
# Elastic Constant Matrix: (Units=GPa)
#
#
# Indices 1 2 3 4 5 6 
#
# 1 128.6829 83.4801 66.1674 0.0000 -20.5271 0.0000
# 2 83.4801 141.5050 56.2845 0.0000 -4.2585 0.0000
# 3 66.1674 56.2845 177.5272 0.0000 0.0011 0.0000
# 4 0.0000 0.0000 0.0000 46.2665 0.0000 -5.6021
# 5 -20.5271 -4.2585 0.0011 0.0000 50.3501 0.0000
# 6 0.0000 0.0000 0.0000 -5.6021 0.0000 60.7338
#
#
#
# Elastic Compliance Matrix: (Units=1/GPa)
#
#
# Indices 1 2 3 4 5 6 
#
# 1 0.015219 -0.007501 -0.003295 0.000000 0.005570 0.000000
# 2 -0.007501 0.011807 -0.000948 0.000000 -0.002059 0.000000
# 3 -0.003295 -0.000948 0.007161 0.000000 -0.001423 0.000000
# 4 0.000000 0.000000 0.000000 0.021858 0.000000 0.002016
# 5 0.005570 -0.002059 -0.001423 0.000000 0.021958 0.000000
# 6 0.000000 0.000000 0.000000 0.002016 0.000000 0.016651
#
#
# Mechanical properties :
#
#
# Convention : Reuss Voigt Hill
#
# Bulk Modulus (GPa) = 93.44094 95.50880 94.47487
# Shear Modulus (GPa) = 41.08203 47.58896 44.33550
#
# Velocity S-wave (km/s) = 4.37457 4.70829 4.54449
# Velocity P-wave (km/s) = 8.30919 8.60508 8.45843
#
# Compressibility (1/GPa) = 0.01070195
#
# Stress axis : x y z
#
# Youngs Moduli (GPa) = 65.70528 84.69702 139.63845
#
# Poissons Ratio (x) = 0.63528 0.46005
# Poissons Ratio (y) = 0.49283 0.13234
# Poissons Ratio (z) = 0.21647 0.08027
#
# Static dielectric constant tensor:
#      x y z
#    x 1.749830 0.000000 -0.003270 
#    y 0.000000 1.872070 0.000000 
#    z -0.003270 0.000000 1.753400 
# 
# From -- ./inp_files/13213.got.cif
#   From: 2010.05.17/outbox.cif.g08.bks.cpg/sg13_7_cif.got.tgz:13213.got - 2010.06.03 16:44:36.
