data_PCOD9237880
_publ_section_title
;
Structure prediction by ZEFSAII (Michael W. Deem and Ramdas Pophale) SiO2 
 PCOD9237880
Probable space group: P 2/C
;
_chemical_formula_sum "Si O2"
_cell_formula_units_Z 24
_cell_length_a 8.575777
_cell_length_b 8.339552
_cell_length_c 19.877191
_cell_angle_alpha 90.000000
_cell_angle_beta 44.632859
_cell_angle_gamma 90.000000
_cell_volume 998.746853
_symmetry_space_group_name_H-M "P 2/C"
_symmetry_group_IT_number 13
_symmetry_cell_setting 'monoclinic'
loop_
_space_group_symop_operation_xyz
x,y,z
-x,y,1/2-z
-x,-y,-z
x,-y,1/2+z
loop_
_atom_site_type_symbol
_atom_site_label
_atom_site_fract_x
_atom_site_fract_y
_atom_site_fract_z
Si Si1 0.245266 0.895099 0.496259
Si Si2 0.449793 0.313127 0.505602
Si Si3 0.509799 0.828764 0.649074
Si Si4 0.047431 0.618306 0.313388
Si Si5 0.096822 0.965395 0.295614
Si Si6 0.891901 0.620133 0.587031
O O1 0.449269 0.799662 0.467737
O O2 0.069076 0.762881 0.529529
O O3 0.333560 0.017162 0.413627
O O4 0.107876 0.995051 0.593301
O O5 0.500000 0.500000 0.500000
O O6 0.546912 0.244897 0.406617
O O7 0.185990 0.319157 0.586011
O O8 0.654742 0.692152 0.639704
O O9 0.711193 0.903459 0.751368
O O10 0.188517 0.782839 0.274067
O O11 0.120423 0.471636 0.337568
O O12 0.000000 0.573916 0.250000
O O13 0.000000 0.977617 0.250000
O O14 0.000000 0.500000 0.500000
#
# Coordination Sequence:
#
# PCOD9237880 Si02
#       6
#     4   4   4   4   4   4
#     4  12  23  43  73 107 150 196 252 308 369 459
#     4  12  22  43  75 110 146 199 252 301 381 457
#     4  12  25  45  74 113 147 200 256 303 385 456
#     4  11  24  45  75 112 152 199 257 315 380 455
#     4  11  23  43  74 108 148 196 254 320 371 444
#     4  12  25  47  73 108 155 199 245 314 392 454
#
# _framework density 24.030113
#
# number of rings (size 3 to 8) (size 9 to 14) (size 15 to 20)
#    0.000    0.333    6.667    3.000    0.000    2.667 
#    0.000    5.000    0.000    0.000    0.000    0.000 
#    0.000    0.000    0.000    0.000    0.000    0.000 
#
# Total GULP energy -134423.997916 kJ/mol
# GULP energy per Si atom -5600.999913 kJ/mol
# Density = 2.397542 g / cm^3
# Si number density = 24.030113 Si / 1000 Ang^3
#
#
#
# Elastic Constant Matrix: (Units=GPa)
#
#
# Indices 1 2 3 4 5 6 
#
# 1 77.2323 46.7817 3.7848 0.0000 -11.3412 0.0000
# 2 46.7817 163.0334 29.0203 0.0000 6.2233 0.0000
# 3 3.7848 29.0203 71.9763 0.0000 -6.8988 0.0000
# 4 0.0000 0.0000 0.0000 32.7128 0.0000 16.5928
# 5 -11.3412 6.2233 -6.8988 0.0000 34.6567 0.0000
# 6 0.0000 0.0000 0.0000 16.5928 0.0000 167.7269
#
#
#
# Elastic Compliance Matrix: (Units=1/GPa)
#
#
# Indices 1 2 3 4 5 6 
#
# 1 0.017267 -0.005583 0.002019 0.000000 0.007055 0.000000
# 2 -0.005583 0.008519 -0.003530 0.000000 -0.004060 0.000000
# 3 0.002019 -0.003530 0.015633 0.000000 0.004407 0.000000
# 4 0.000000 0.000000 0.000000 0.032184 0.000000 -0.003184
# 5 0.007055 -0.004060 0.004407 0.000000 0.032769 0.000000
# 6 0.000000 0.000000 0.000000 -0.003184 0.000000 0.006277
#
#
# Mechanical properties :
#
#
# Convention : Reuss Voigt Hill
#
# Bulk Modulus (GPa) = 36.72346 52.37952 44.55149
# Shear Modulus (GPa) = 36.78754 62.52964 49.65859
#
# Velocity S-wave (km/s) = 3.91691 5.10665 4.55083
# Velocity P-wave (km/s) = 5.98094 7.52431 6.79658
#
# Compressibility (1/GPa) = 0.02723055
#
# Stress axis : x y z
#
# Youngs Moduli (GPa) = 57.91367 117.38112 63.96690
#
# Poissons Ratio (x) = 0.65540 -0.12918
# Poissons Ratio (y) = 0.32336 0.22583
# Poissons Ratio (z) = -0.11695 0.41440
#
# Static dielectric constant tensor:
#      x y z
#    x 1.911490 0.000000 0.019610 
#    y 0.000000 2.047880 0.000000 
#    z 0.019610 0.000000 1.907010 
# 
# From -- ./inp_files/63285.got.cif
#   From: 2010.05.17/outbox.cif.g08.bks.cpg/sg13_32_cif.got.tgz:63285.got - 2010.06.03 16:44:36.
