data_PCOD9237545
_publ_section_title
;
Structure prediction by ZEFSAII (Michael W. Deem and Ramdas Pophale) SiO2 
 PCOD9237545
Probable space group: P 2/C
;
_chemical_formula_sum "Si O2"
_cell_formula_units_Z 16
_cell_length_a 10.617759
_cell_length_b 10.322477
_cell_length_c 8.521326
_cell_angle_alpha 90.000000
_cell_angle_beta 62.757218
_cell_angle_gamma 90.000000
_cell_volume 830.352078
_symmetry_space_group_name_H-M "P 2/C"
_symmetry_group_IT_number 13
_symmetry_cell_setting 'monoclinic'
loop_
_space_group_symop_operation_xyz
x,y,z
-x,y,1/2-z
-x,-y,-z
x,-y,1/2+z
loop_
_atom_site_type_symbol
_atom_site_label
_atom_site_fract_x
_atom_site_fract_y
_atom_site_fract_z
Si Si1 0.067227 0.627615 0.041696
Si Si2 0.937343 0.126264 0.455384
Si Si3 0.654062 0.203134 0.105640
Si Si4 0.352003 0.069770 0.743422
O O1 0.000000 0.625002 0.250000
O O2 0.231801 0.679138 0.957930
O O3 0.000000 0.500000 0.000000
O O4 0.999016 0.746213 0.992229
O O5 0.771089 0.131781 0.581914
O O6 0.000000 0.117100 0.250000
O O7 0.000000 0.000000 0.500000
O O8 0.500000 0.251854 0.250000
O O9 0.680186 0.085216 0.216932
O O10 0.651050 0.130364 0.932922
O O11 0.500000 0.090013 0.750000
#
# Coordination Sequence:
#
# PCOD9237545 Si02
#       4
#     4   4   4   4
#     4  12  26  48  66  96 136 180 233 284 335 409
#     4  12  23  39  69 101 134 175 227 282 338 399
#     4  11  23  41  69 103 140 177 221 280 344 407
#     4  11  22  38  66 105 143 167 220 279 347 396
#
# _framework density 19.268934999999999
#
# number of rings (size 3 to 8) (size 9 to 14) (size 15 to 20)
#    0.000    0.500    5.000    6.000    3.500    0.000 
#    0.000    2.500    0.000    0.000    0.000    0.000 
#    0.000    0.000    0.000    0.000    0.000    0.000 
#
# Total GULP energy -89084.158528 kJ/mol
# GULP energy per Si atom -5567.759908 kJ/mol
# Density = 1.922508 g / cm^3
# Si number density = 19.268935 Si / 1000 Ang^3
#
#
#
# Elastic Constant Matrix: (Units=GPa)
#
#
# Indices 1 2 3 4 5 6 
#
# 1 121.5588 70.3394 91.9372 0.0000 -24.3638 0.0000
# 2 70.3394 145.4565 72.9234 0.0000 11.8028 0.0000
# 3 91.9372 72.9234 211.2577 0.0000 -8.3001 0.0000
# 4 0.0000 0.0000 0.0000 15.2066 0.0000 2.8450
# 5 -24.3638 11.8028 -8.3001 0.0000 50.6154 0.0000
# 6 0.0000 0.0000 0.0000 2.8450 0.0000 34.0815
#
#
#
# Elastic Compliance Matrix: (Units=1/GPa)
#
#
# Indices 1 2 3 4 5 6 
#
# 1 0.017923 -0.006899 -0.005049 0.000000 0.009408 0.000000
# 2 -0.006899 0.011276 -0.001131 0.000000 -0.006136 0.000000
# 3 -0.005049 -0.001131 0.007283 0.000000 -0.000972 0.000000
# 4 0.000000 0.000000 0.000000 0.066804 0.000000 -0.005577
# 5 0.009408 -0.006136 -0.000972 0.000000 0.025557 0.000000
# 6 0.000000 0.000000 0.000000 -0.005577 0.000000 0.029807
#
#
# Mechanical properties :
#
#
# Convention : Reuss Voigt Hill
#
# Bulk Modulus (GPa) = 96.86188 105.40812 101.13500
# Shear Modulus (GPa) = 26.56058 36.18556 31.37307
#
# Velocity S-wave (km/s) = 3.71673 4.33820 4.03943
# Velocity P-wave (km/s) = 8.29435 8.93956 8.62299
#
# Compressibility (1/GPa) = 0.01032398
#
# Stress axis : x y z
#
# Youngs Moduli (GPa) = 55.79504 88.68276 137.30924
#
# Poissons Ratio (x) = 0.61185 0.69322
# Poissons Ratio (y) = 0.38495 0.15529
# Poissons Ratio (z) = 0.28169 0.10029
#
# Static dielectric constant tensor:
#      x y z
#    x 1.783490 0.000000 -0.018090 
#    y 0.000000 1.149030 0.000000 
#    z -0.018090 0.000000 1.649120 
# 
# From -- ./inp_files/14443.got.cif
#   From: 2010.05.17/outbox.cif.g08.bks.cpg/sg13_8_cif.got.tgz:14443.got - 2010.06.03 16:44:36.
