data_PCOD9237214
_publ_section_title
;
Structure prediction by ZEFSAII (Michael W. Deem and Ramdas Pophale) SiO2 
 PCOD9237214
Probable space group: P 2/C
;
_chemical_formula_sum "Si O2"
_cell_formula_units_Z 18
_cell_length_a 7.842704
_cell_length_b 10.530436
_cell_length_c 9.568676
_cell_angle_alpha 90.000000
_cell_angle_beta 65.536912
_cell_angle_gamma 90.000000
_cell_volume 719.307077
_symmetry_space_group_name_H-M "P 2/C"
_symmetry_group_IT_number 13
_symmetry_cell_setting 'monoclinic'
loop_
_space_group_symop_operation_xyz
x,y,z
-x,y,1/2-z
-x,-y,-z
x,-y,1/2+z
loop_
_atom_site_type_symbol
_atom_site_label
_atom_site_fract_x
_atom_site_fract_y
_atom_site_fract_z
Si Si1 0.144352 0.954632 0.075187
Si Si2 0.217595 0.774748 0.629193
Si Si3 0.500000 0.665801 0.750000
Si Si4 0.750222 0.313513 0.934059
Si Si5 0.865905 0.384824 0.596460
O O1 0.293287 0.836977 0.037777
O O2 0.000000 0.935417 0.250000
O O3 0.254924 0.084580 0.065289
O O4 0.000000 0.000000 0.000000
O O5 0.343485 0.740306 0.717253
O O6 0.244819 0.676483 0.493018
O O7 0.000000 0.763207 0.750000
O O8 0.624868 0.605067 0.584665
O O9 0.755850 0.384160 0.781873
O O10 0.961485 0.294569 0.919458
O O11 0.000000 0.500000 0.500000
#
# Coordination Sequence:
#
# PCOD9237214 Si02
#       5
#     4   4   2   4   4
#     4  11  18  38  70 102 140 189 235 285 360 433
#     4  11  23  43  71 105 147 189 234 295 364 427
#     4  12  26  42  70 110 146 180 240 294 360 440
#     4  11  23  43  68 106 142 184 242 292 359 434
#     4  11  24  45  74 101 139 194 244 297 358 424
#
# _framework density 25.024083000000001
#
# number of rings (size 3 to 8) (size 9 to 14) (size 15 to 20)
#    0.000    0.889    6.667    1.333    3.111    1.778 
#    0.000    4.444    0.000    0.000    0.000    0.000 
#    0.000    0.000    0.000    0.000    0.000    0.000 
#
# Total GULP energy -100281.348569 kJ/mol
# GULP energy per Si atom -5571.186032 kJ/mol
# Density = 2.496713 g / cm^3
# Si number density = 25.024083 Si / 1000 Ang^3
#
#
#
# Elastic Constant Matrix: (Units=GPa)
#
#
# Indices 1 2 3 4 5 6 
#
# 1 87.9739 1.5623 32.1698 0.0000 9.6290 0.0000
# 2 1.5623 124.4068 60.4343 0.0000 8.6705 0.0000
# 3 32.1698 60.4343 229.5335 0.0000 0.4548 0.0000
# 4 0.0000 0.0000 0.0000 29.1361 0.0000 -0.9378
# 5 9.6290 8.6705 0.4548 0.0000 52.0557 0.0000
# 6 0.0000 0.0000 0.0000 -0.9378 0.0000 4.8240
#
#
#
# Elastic Compliance Matrix: (Units=1/GPa)
#
#
# Indices 1 2 3 4 5 6 
#
# 1 0.012340 0.000977 -0.001982 0.000000 -0.002428 0.000000
# 2 0.000977 0.009415 -0.002612 0.000000 -0.001726 0.000000
# 3 -0.001982 -0.002612 0.005321 0.000000 0.000755 0.000000
# 4 0.000000 0.000000 0.000000 0.034538 0.000000 0.006714
# 5 -0.002428 -0.001726 0.000755 0.000000 0.019940 0.000000
# 6 0.000000 0.000000 0.000000 0.006714 0.000000 0.208603
#
#
# Mechanical properties :
#
#
# Convention : Reuss Voigt Hill
#
# Bulk Modulus (GPa) = 50.39951 70.02744 60.21348
# Shear Modulus (GPa) = 16.44707 40.38634 28.41670
#
# Velocity S-wave (km/s) = 2.56647 4.02169 3.37348
# Velocity P-wave (km/s) = 5.38205 7.04345 6.26804
#
# Compressibility (1/GPa) = 0.01984146
#
# Stress axis : x y z
#
# Youngs Moduli (GPa) = 81.03619 106.21042 187.94214
#
# Poissons Ratio (x) = -0.10377 0.37249
# Poissons Ratio (y) = -0.07918 0.49100
# Poissons Ratio (z) = 0.16061 0.27747
#
# Static dielectric constant tensor:
#      x y z
#    x 1.983540 0.000000 -0.074880 
#    y 0.000000 2.317910 0.000000 
#    z -0.074880 0.000000 2.050970 
# 
# From -- ./inp_files/11666.got.cif
#   From: 2010.05.17/outbox.cif.g08.bks.cpg/sg13_6_cif.got.tgz:11666.got - 2010.06.03 16:44:36.
