data_PCOD9237510
_publ_section_title
;
Structure prediction by ZEFSAII (Michael W. Deem and Ramdas Pophale) SiO2 
 PCOD9237510
Probable space group: P 2/C
;
_chemical_formula_sum "Si O2"
_cell_formula_units_Z 28
_cell_length_a 5.323684
_cell_length_b 14.648048
_cell_length_c 19.888024
_cell_angle_alpha 90.000000
_cell_angle_beta 60.521083
_cell_angle_gamma 90.000000
_cell_volume 1350.115148
_symmetry_space_group_name_H-M "P 2/C"
_symmetry_group_IT_number 13
_symmetry_cell_setting 'monoclinic'
loop_
_space_group_symop_operation_xyz
x,y,z
-x,y,1/2-z
-x,-y,-z
x,-y,1/2+z
loop_
_atom_site_type_symbol
_atom_site_label
_atom_site_fract_x
_atom_site_fract_y
_atom_site_fract_z
Si Si1 0.173439 0.017958 0.797846
Si Si2 0.312786 0.561240 0.841235
Si Si3 0.813996 0.049128 0.466773
Si Si4 0.298332 0.345451 0.838860
Si Si5 0.379275 0.411154 0.058510
Si Si6 0.973051 0.204206 0.832602
Si Si7 0.600467 0.236330 0.537625
O O1 0.500000 0.984237 0.750000
O O2 0.000000 0.019418 0.750000
O O3 0.189602 0.123099 0.823555
O O4 0.984041 0.962716 0.874954
O O5 0.500000 0.588274 0.750000
O O6 0.332846 0.451283 0.843130
O O7 0.457522 0.594209 0.891463
O O8 0.968872 0.581228 0.884514
O O9 0.808565 0.156914 0.485090
O O10 0.500000 0.000000 0.500000
O O11 0.000000 0.000000 0.500000
O O12 0.500000 0.315052 0.750000
O O13 0.330268 0.289273 0.902510
O O14 0.994267 0.309634 0.852510
O O15 0.500000 0.500000 0.000000
O O16 0.433850 0.316962 0.011683
O O17 0.677180 0.176648 0.905197
O O18 0.000000 0.208169 0.750000
#
# Coordination Sequence:
#
# PCOD9237510 Si02
#       7
#     4   4   4   4   4   4   4
#     4  11  24  44  69  94 136 184 226 276 341 407
#     4  11  26  46  70  95 140 188 234 287 348 413
#     4  12  26  46  68 103 141 178 228 284 343 413
#     4  11  22  37  63  99 136 175 222 282 354 423
#     4  12  25  46  69 105 140 181 235 288 350 416
#     4  11  22  36  64  99 139 174 222 277 359 422
#     4  12  26  41  68 102 137 183 224 289 350 411
#
# _framework density 20.738972
#
# number of rings (size 3 to 8) (size 9 to 14) (size 15 to 20)
#    0.000    0.571    4.286    3.857    6.000    0.000 
#    0.000    2.143    0.000    0.000    0.000    0.000 
#    0.000    0.000    0.000    0.000    0.000    0.000 
#
# Total GULP energy -156141.138563 kJ/mol
# GULP energy per Si atom -5576.469234 kJ/mol
# Density = 2.069177 g / cm^3
# Si number density = 20.738972 Si / 1000 Ang^3
#
#
#
# Elastic Constant Matrix: (Units=GPa)
#
#
# Indices 1 2 3 4 5 6 
#
# 1 117.7121 22.6036 68.6761 0.0000 -5.1822 0.0000
# 2 22.6036 105.9951 64.2978 0.0000 12.6670 0.0000
# 3 68.6761 64.2978 165.8700 0.0000 0.7580 0.0000
# 4 0.0000 0.0000 0.0000 42.7541 0.0000 3.7057
# 5 -5.1822 12.6670 0.7580 0.0000 44.0619 0.0000
# 6 0.0000 0.0000 0.0000 3.7057 0.0000 26.7429
#
#
#
# Elastic Compliance Matrix: (Units=1/GPa)
#
#
# Indices 1 2 3 4 5 6 
#
# 1 0.011298 0.000360 -0.004823 0.000000 0.001308 0.000000
# 2 0.000360 0.012899 -0.005133 0.000000 -0.003577 0.000000
# 3 -0.004823 -0.005133 0.010012 0.000000 0.000736 0.000000
# 4 0.000000 0.000000 0.000000 0.023674 0.000000 -0.003280
# 5 0.001308 -0.003577 0.000736 0.000000 0.023865 0.000000
# 6 0.000000 0.000000 0.000000 -0.003280 0.000000 0.037848
#
#
# Mechanical properties :
#
#
# Convention : Reuss Voigt Hill
#
# Bulk Modulus (GPa) = 66.59184 77.85914 72.22549
# Shear Modulus (GPa) = 34.77228 38.31176 36.54202
#
# Velocity S-wave (km/s) = 4.09915 4.30272 4.20217
# Velocity P-wave (km/s) = 7.38805 7.89357 7.64499
#
# Compressibility (1/GPa) = 0.01501686
#
# Stress axis : x y z
#
# Youngs Moduli (GPa) = 88.51328 77.52676 99.87823
#
# Poissons Ratio (x) = -0.02793 0.48174
# Poissons Ratio (y) = -0.03189 0.51266
# Poissons Ratio (z) = 0.42693 0.39794
#
# Static dielectric constant tensor:
#      x y z
#    x 1.907700 0.000000 -0.033830 
#    y 0.000000 1.795450 0.000000 
#    z -0.033830 0.000000 1.768800 
# 
# From -- ./inp_files/61502.got.cif
#   From: 2010.05.17/outbox.cif.g08.bks.cpg/sg13_31_cif.got.tgz:61502.got - 2010.06.03 16:44:36.
