data_PCOD9237405
_publ_section_title
;
Structure prediction by ZEFSAII (Michael W. Deem and Ramdas Pophale) SiO2 
 PCOD9237405
Probable space group: P 2/C
;
_chemical_formula_sum "Si O2"
_cell_formula_units_Z 24
_cell_length_a 9.510505
_cell_length_b 5.030762
_cell_length_c 22.848466
_cell_angle_alpha 90.000000
_cell_angle_beta 57.046869
_cell_angle_gamma 90.000000
_cell_volume 917.310369
_symmetry_space_group_name_H-M "P 2/C"
_symmetry_group_IT_number 13
_symmetry_cell_setting 'monoclinic'
loop_
_space_group_symop_operation_xyz
x,y,z
-x,y,1/2-z
-x,-y,-z
x,-y,1/2+z
loop_
_atom_site_type_symbol
_atom_site_label
_atom_site_fract_x
_atom_site_fract_y
_atom_site_fract_z
Si Si1 0.067072 0.372850 0.042979
Si Si2 0.747015 0.251180 0.172214
Si Si3 0.763042 0.861933 0.461489
Si Si4 0.484684 0.927147 0.884434
Si Si5 0.326735 0.454545 0.699000
Si Si6 0.971956 0.115749 0.698381
O O1 0.222690 0.550713 0.026797
O O2 0.912587 0.421432 0.120891
O O3 0.110912 0.064428 0.032896
O O4 0.000000 0.500000 0.000000
O O5 0.653162 0.170295 0.133421
O O6 0.646891 0.412273 0.243478
O O7 0.830925 0.002739 0.186507
O O8 0.593750 0.950147 0.533063
O O9 0.851447 0.870755 0.377163
O O10 0.623947 0.695998 0.854612
O O11 0.556679 0.204647 0.844251
O O12 0.138836 0.348668 0.746248
O O13 0.000000 0.936364 0.750000
#
# Coordination Sequence:
#
# PCOD9237405 Si02
#       6
#     4   4   4   4   4   4
#     4  11  21  38  65  99 138 174 226 281 349 416
#     4  11  25  41  74 100 145 181 231 290 350 422
#     4  11  24  44  67 101 137 183 230 292 341 414
#     4  12  27  41  72 109 146 172 224 293 382 410
#     4  12  26  45  67 108 141 182 224 294 352 421
#     4  11  27  50  74 100 138 196 246 278 332 417
#
# _framework density 26.163444999999999
#
# number of rings (size 3 to 8) (size 9 to 14) (size 15 to 20)
#    0.000    0.667    5.000    2.000    7.000    0.667 
#    0.000    1.667    0.000    0.000    0.000    0.000 
#    0.000    0.000    0.000    0.000    0.000    0.000 
#
# Total GULP energy -133870.491970 kJ/mol
# GULP energy per Si atom -5577.937165 kJ/mol
# Density = 2.610390 g / cm^3
# Si number density = 26.163445 Si / 1000 Ang^3
#
#
#
# Elastic Constant Matrix: (Units=GPa)
#
#
# Indices 1 2 3 4 5 6 
#
# 1 63.7574 19.5111 41.5947 0.0000 2.1546 0.0000
# 2 19.5111 135.4261 58.8349 0.0000 -15.5898 0.0000
# 3 41.5947 58.8349 253.2678 0.0000 -25.7952 0.0000
# 4 0.0000 0.0000 0.0000 47.8931 0.0000 -16.5585
# 5 2.1546 -15.5898 -25.7952 0.0000 32.6848 0.0000
# 6 0.0000 0.0000 0.0000 -16.5585 0.0000 8.1356
#
#
#
# Elastic Compliance Matrix: (Units=1/GPa)
#
#
# Indices 1 2 3 4 5 6 
#
# 1 0.018390 -0.001842 -0.003051 0.000000 -0.004498 0.000000
# 2 -0.001842 0.008610 -0.001378 0.000000 0.003141 0.000000
# 3 -0.003051 -0.001378 0.005136 0.000000 0.003597 0.000000
# 4 0.000000 0.000000 0.000000 0.070466 0.000000 0.143420
# 5 -0.004498 0.003141 0.003597 0.000000 0.035229 0.000000
# 6 0.000000 0.000000 0.000000 0.143420 0.000000 0.414822
#
#
# Mechanical properties :
#
#
# Convention : Reuss Voigt Hill
#
# Bulk Modulus (GPa) = 51.03293 76.92586 63.97939
# Shear Modulus (GPa) = 8.74547 39.91007 24.32777
#
# Velocity S-wave (km/s) = 1.83027 3.90989 3.05263
# Velocity P-wave (km/s) = 4.90044 7.06037 6.07714
#
# Compressibility (1/GPa) = 0.01959519
#
# Stress axis : x y z
#
# Youngs Moduli (GPa) = 54.37645 116.15028 194.71238
#
# Poissons Ratio (x) = 0.21396 0.59397
# Poissons Ratio (y) = 0.10017 0.26824
# Poissons Ratio (z) = 0.16588 0.16001
#
# Static dielectric constant tensor:
#      x y z
#    x 2.200410 0.000000 -0.028010 
#    y 0.000000 2.072760 0.000000 
#    z -0.028010 0.000000 1.955720 
# 
# From -- ./inp_files/85770.got.cif
#   From: 2010.05.17/outbox.cif.g08.bks.cpg/sg13_43_cif.got.tgz:85770.got - 2010.06.03 16:44:36.
