data_PCOD9237703
_publ_section_title
;
Structure prediction by ZEFSAII (Michael W. Deem and Ramdas Pophale) SiO2 
 PCOD9237703
Probable space group: P 2/C
;
_chemical_formula_sum "Si O2"
_cell_formula_units_Z 16
_cell_length_a 20.420997
_cell_length_b 7.143009
_cell_length_c 25.874796
_cell_angle_alpha 90.000000
_cell_angle_beta 11.761932
_cell_angle_gamma 90.000000
_cell_volume 769.372202
_symmetry_space_group_name_H-M "P 2/C"
_symmetry_group_IT_number 13
_symmetry_cell_setting 'monoclinic'
loop_
_space_group_symop_operation_xyz
x,y,z
-x,y,1/2-z
-x,-y,-z
x,-y,1/2+z
loop_
_atom_site_type_symbol
_atom_site_label
_atom_site_fract_x
_atom_site_fract_y
_atom_site_fract_z
Si Si1 0.125666 0.376664 0.529705
Si Si2 0.704885 0.106033 0.915754
Si Si3 0.104233 0.208436 0.305011
Si Si4 0.764815 0.940677 0.635339
O O1 0.500000 0.409744 0.250000
O O2 0.107780 0.242651 0.492983
O O3 0.970814 0.258437 0.695855
O O4 0.949724 0.573035 0.659185
O O5 0.818888 0.904401 0.806654
O O6 0.404916 0.168041 0.110687
O O7 0.572550 0.092579 0.075867
O O8 0.797310 0.107067 0.568720
O O9 0.000000 0.000000 0.500000
#
# Coordination Sequence:
#
# PCOD9237703 Si02
#       4
#     4   4   4   4
#     4  11  23  36  54  85 121 151 187 241 296 341
#     4   9  19  37  59  81 110 149 193 235 281 342
#     4   9  19  36  59  85 111 146 191 238 286 340
#     4   9  20  38  60  84 109 146 194 237 279 340
#
# _framework density 20.796177
#
# number of rings (size 3 to 8) (size 9 to 14) (size 15 to 20)
#    0.000    2.500    0.000    2.250    0.000   11.000 
#    0.000    0.000    0.000    0.000    0.000    0.000 
#    0.000    0.000    0.000    0.000    0.000    0.000 
#
# Total GULP energy -89337.000099 kJ/mol
# GULP energy per Si atom -5583.562506 kJ/mol
# Density = 2.074884 g / cm^3
# Si number density = 20.796177 Si / 1000 Ang^3
#
#
#
# Elastic Constant Matrix: (Units=GPa)
#
#
# Indices 1 2 3 4 5 6 
#
# 1 68.3575 60.6416 47.4138 0.0000 17.9851 0.0000
# 2 60.6416 149.0763 24.4557 0.0000 16.3883 0.0000
# 3 47.4138 24.4557 93.0831 0.0000 36.9186 0.0000
# 4 0.0000 0.0000 0.0000 12.4751 0.0000 -0.2534
# 5 17.9851 16.3883 36.9186 0.0000 41.9657 0.0000
# 6 0.0000 0.0000 0.0000 -0.2534 0.0000 5.4827
#
#
#
# Elastic Compliance Matrix: (Units=1/GPa)
#
#
# Indices 1 2 3 4 5 6 
#
# 1 0.036259 -0.012441 -0.016840 0.000000 0.004134 0.000000
# 2 -0.012441 0.011360 0.004604 0.000000 -0.003154 0.000000
# 3 -0.016840 0.004604 0.024516 0.000000 -0.016148 0.000000
# 4 0.000000 0.000000 0.000000 0.080235 0.000000 0.003709
# 5 0.004134 -0.003154 -0.016148 0.000000 0.037495 0.000000
# 6 0.000000 0.000000 0.000000 0.003709 0.000000 0.182565
#
#
# Mechanical properties :
#
#
# Convention : Reuss Voigt Hill
#
# Bulk Modulus (GPa) = 43.89832 63.94880 53.92356
# Shear Modulus (GPa) = 11.64469 23.85174 17.74822
#
# Velocity S-wave (km/s) = 2.36888 3.39031 2.92453
# Velocity P-wave (km/s) = 5.35134 6.79284 6.11471
#
# Compressibility (1/GPa) = 0.02277991
#
# Stress axis : x y z
#
# Youngs Moduli (GPa) = 27.57936 88.02453 40.78925
#
# Poissons Ratio (x) = 1.09515 0.68690
# Poissons Ratio (y) = 0.34313 -0.18778
# Poissons Ratio (z) = 0.46444 -0.40524
#
# Static dielectric constant tensor:
#      x y z
#    x 1.737620 0.000000 -0.006840 
#    y 0.000000 1.692840 0.000000 
#    z -0.006840 0.000000 1.826670 
# 
# From -- ./inp_files/61943.got.cif
#   From: 2010.05.17/outbox.cif.g08.bks.cpg/sg13_31_cif.got.tgz:61943.got - 2010.06.03 16:44:36.
