data_PCOD9237535
_publ_section_title
;
Structure prediction by ZEFSAII (Michael W. Deem and Ramdas Pophale) SiO2 
 PCOD9237535
Probable space group: P 2/C
;
_chemical_formula_sum "Si O2"
_cell_formula_units_Z 32
_cell_length_a 21.327678
_cell_length_b 8.723176
_cell_length_c 16.178388
_cell_angle_alpha 90.000000
_cell_angle_beta 32.920545
_cell_angle_gamma 90.000000
_cell_volume 1635.812095
_symmetry_space_group_name_H-M "P 2/C"
_symmetry_group_IT_number 13
_symmetry_cell_setting 'monoclinic'
loop_
_space_group_symop_operation_xyz
x,y,z
-x,y,1/2-z
-x,-y,-z
x,-y,1/2+z
loop_
_atom_site_type_symbol
_atom_site_label
_atom_site_fract_x
_atom_site_fract_y
_atom_site_fract_z
Si Si1 0.779473 0.128998 0.368256
Si Si2 0.115485 0.593148 0.396694
Si Si3 0.967887 0.819361 0.870044
Si Si4 0.526177 0.678758 0.454852
Si Si5 0.262467 0.302238 0.252760
Si Si6 0.275329 0.158698 0.666666
Si Si7 0.394721 0.834055 0.302226
Si Si8 0.235800 0.030271 0.379805
O O1 0.775090 0.242391 0.295211
O O2 0.713093 0.206380 0.518617
O O3 0.914883 0.102757 0.229282
O O4 0.719177 0.966580 0.412025
O O5 0.080471 0.698852 0.511945
O O6 0.217622 0.475023 0.307399
O O7 0.174334 0.714417 0.268113
O O8 0.000000 0.500000 0.500000
O O9 0.000000 0.736510 0.750000
O O10 0.872969 0.948663 0.958800
O O11 0.500000 0.500000 0.500000
O O12 0.397140 0.742327 0.605128
O O13 0.609916 0.751693 0.431182
O O14 0.574648 0.721474 0.309106
O O15 0.212106 0.204789 0.384081
O O16 0.246928 0.054596 0.778695
O O17 0.500000 0.848407 0.250000
O O18 0.349275 0.987843 0.306603
#
# Coordination Sequence:
#
# PCOD9237535 Si02
#       8
#     4   4   4   4   4   4   4   4
#     4  11  22  38  64  91 122 163 209 264 314 362
#     4  11  22  38  61  91 123 162 213 250 308 393
#     4  11  22  40  61  87 124 164 204 261 321 367
#     4  11  22  40  65  91 130 167 206 258 315 382
#     4  11  22  38  63  92 119 166 208 252 315 374
#     4   9  22  37  60  92 121 158 209 255 307 369
#     4  11  22  38  63  92 122 161 214 259 315 375
#     4   9  22  37  60  89 119 155 208 255 301 373
#
# _framework density 19.562149999999999
#
# number of rings (size 3 to 8) (size 9 to 14) (size 15 to 20)
#    0.000    1.500    5.000    0.000    3.500    3.000 
#    0.000    1.875    5.500    0.000    0.000    0.000 
#    0.000    0.000    0.000    0.000    0.000    0.000 
#
# Total GULP energy -178196.835499 kJ/mol
# GULP energy per Si atom -5568.651109 kJ/mol
# Density = 1.951763 g / cm^3
# Si number density = 19.562150 Si / 1000 Ang^3
#
#
#
# Elastic Constant Matrix: (Units=GPa)
#
#
# Indices 1 2 3 4 5 6 
#
# 1 65.7110 22.0791 33.9491 0.0000 -8.0705 0.0000
# 2 22.0791 85.3182 35.0906 0.0000 6.3862 0.0000
# 3 33.9491 35.0906 97.8406 0.0000 -2.2600 0.0000
# 4 0.0000 0.0000 0.0000 26.8984 0.0000 -5.4588
# 5 -8.0705 6.3862 -2.2600 0.0000 34.9861 0.0000
# 6 0.0000 0.0000 0.0000 -5.4588 0.0000 18.0549
#
#
#
# Elastic Compliance Matrix: (Units=1/GPa)
#
#
# Indices 1 2 3 4 5 6 
#
# 1 0.019768 -0.003164 -0.005614 0.000000 0.004775 0.000000
# 2 -0.003164 0.014541 -0.004202 0.000000 -0.003656 0.000000
# 3 -0.005614 -0.004202 0.013684 0.000000 0.000356 0.000000
# 4 0.000000 0.000000 0.000000 0.039607 0.000000 0.011975
# 5 0.004775 -0.003656 0.000356 0.000000 0.030375 0.000000
# 6 0.000000 0.000000 0.000000 0.011975 0.000000 0.059007
#
#
# Mechanical properties :
#
#
# Convention : Reuss Voigt Hill
#
# Bulk Modulus (GPa) = 45.38556 47.90082 46.64319
# Shear Modulus (GPa) = 23.77699 26.50462 25.14081
#
# Velocity S-wave (km/s) = 3.49013 3.68488 3.58882
# Velocity P-wave (km/s) = 6.28430 6.53024 6.40845
#
# Compressibility (1/GPa) = 0.02203344
#
# Stress axis : x y z
#
# Youngs Moduli (GPa) = 50.58613 68.76890 73.07827
#
# Poissons Ratio (x) = 0.21759 0.41027
# Poissons Ratio (y) = 0.16006 0.30706
# Poissons Ratio (z) = 0.28400 0.28896
#
# Static dielectric constant tensor:
#      x y z
#    x 1.741330 0.000000 -0.033030 
#    y 0.000000 1.699180 0.000000 
#    z -0.033030 0.000000 1.760920 
# 
# From -- ./inp_files/71141.got.cif
#   From: 2010.05.17/outbox.cif.g08.bks.cpg/sg13_36_cif.got.tgz:71141.got - 2010.06.03 16:44:36.
