data_PCOD9237265
_publ_section_title
;
Structure prediction by ZEFSAII (Michael W. Deem and Ramdas Pophale) SiO2 
 PCOD9237265
Probable space group: P 2/C
;
_chemical_formula_sum "Si O2"
_cell_formula_units_Z 24
_cell_length_a 10.996485
_cell_length_b 11.865386
_cell_length_c 8.572488
_cell_angle_alpha 90.000000
_cell_angle_beta 78.368343
_cell_angle_gamma 90.000000
_cell_volume 1095.547272
_symmetry_space_group_name_H-M "P 2/C"
_symmetry_group_IT_number 13
_symmetry_cell_setting 'monoclinic'
loop_
_space_group_symop_operation_xyz
x,y,z
-x,y,1/2-z
-x,-y,-z
x,-y,1/2+z
loop_
_atom_site_type_symbol
_atom_site_label
_atom_site_fract_x
_atom_site_fract_y
_atom_site_fract_z
Si Si1 0.305477 0.494835 0.355326
Si Si2 0.132344 0.525792 0.153746
Si Si3 0.000000 0.932931 0.250000
Si Si4 0.168202 0.256776 0.122849
Si Si5 0.571545 0.714951 0.070614
Si Si6 0.084025 0.138885 0.424322
Si Si7 0.500000 0.307359 0.250000
O O1 0.245684 0.566409 0.231509
O O2 0.180592 0.447504 0.470132
O O3 0.395729 0.579694 0.425011
O O4 0.382561 0.390170 0.279083
O O5 0.138333 0.389247 0.144812
O O6 0.000000 0.564232 0.250000
O O7 0.910119 0.866285 0.390856
O O8 0.075842 0.015212 0.346785
O O9 0.048409 0.198096 0.078144
O O10 0.181462 0.204910 0.292599
O O11 0.290036 0.236002 0.988921
O O12 0.500000 0.743507 0.250000
O O13 0.503051 0.744620 0.924338
#
# Coordination Sequence:
#
# PCOD9237265 Si02
#       7
#     4   4   2   4   4   4   2
#     4  11  20  33  53  68  94 136 197 241 270 309
#     4  11  20  34  48  70 102 144 178 226 288 335
#     4   8  16  30  60  90 104 136 174 192 248 332
#     4   9  18  33  51  71 114 138 161 228 275 309
#     4  11  22  36  54  74 101 145 194 241 283 308
#     4   9  16  34  58  84 114 134 164 209 258 329
#     4  12  20  38  56  72  94 136 208 258 266 312
#
# _framework density 21.906859000000001
#
# number of rings (size 3 to 8) (size 9 to 14) (size 15 to 20)
#    0.000    2.000    5.833    2.000    0.000    0.000 
#    3.000    1.667    0.000    0.000    0.000   18.667 
#    0.000    0.000    0.000    0.000    0.000    0.000 
#
# Total GULP energy -133692.879884 kJ/mol
# GULP energy per Si atom -5570.536662 kJ/mol
# Density = 2.185700 g / cm^3
# Si number density = 21.906859 Si / 1000 Ang^3
#
#
#
# Elastic Constant Matrix: (Units=GPa)
#
#
# Indices 1 2 3 4 5 6 
#
# 1 62.0470 9.2834 33.1627 0.0000 -11.1041 0.0000
# 2 9.2834 27.0011 30.1126 0.0000 -6.1151 0.0000
# 3 33.1627 30.1126 186.6397 0.0000 -26.5992 0.0000
# 4 0.0000 0.0000 0.0000 24.3671 0.0000 -1.9323
# 5 -11.1041 -6.1151 -26.5992 0.0000 51.5925 0.0000
# 6 0.0000 0.0000 0.0000 -1.9323 0.0000 8.0937
#
#
#
# Elastic Compliance Matrix: (Units=1/GPa)
#
#
# Indices 1 2 3 4 5 6 
#
# 1 0.018286 -0.003057 -0.002425 0.000000 0.002323 0.000000
# 2 -0.003057 0.045815 -0.006658 0.000000 0.001340 0.000000
# 3 -0.002425 -0.006658 0.007206 0.000000 0.002404 0.000000
# 4 0.000000 0.000000 0.000000 0.041831 0.000000 0.009987
# 5 0.002323 0.001340 0.002404 0.000000 0.021281 0.000000
# 6 0.000000 0.000000 0.000000 0.009987 0.000000 0.125937
#
#
# Mechanical properties :
#
#
# Convention : Reuss Voigt Hill
#
# Bulk Modulus (GPa) = 21.26395 46.75615 34.01005
# Shear Modulus (GPa) = 16.64951 30.35259 23.50105
#
# Velocity S-wave (km/s) = 2.75982 3.72631 3.27887
# Velocity P-wave (km/s) = 4.45905 6.31691 5.46747
#
# Compressibility (1/GPa) = 0.04702796
#
# Stress axis : x y z
#
# Youngs Moduli (GPa) = 54.68686 21.82703 138.78232
#
# Poissons Ratio (x) = 0.06672 0.33653
# Poissons Ratio (y) = 0.16715 0.92397
# Poissons Ratio (z) = 0.13261 0.14532
#
# Static dielectric constant tensor:
#      x y z
#    x 1.888050 0.000000 0.071180 
#    y 0.000000 1.806820 0.000000 
#    z 0.071180 0.000000 1.959010 
# 
# From -- ./inp_files/15833.got.cif
#   From: 2010.05.17/outbox.cif.g08.bks.cpg/sg13_8_cif.got.tgz:15833.got - 2010.06.03 16:44:36.
