data_PCOD9237092
_publ_section_title
;
Structure prediction by ZEFSAII (Michael W. Deem and Ramdas Pophale) SiO2 
 PCOD9237092
Probable space group: P 2/C
;
_chemical_formula_sum "Si O2"
_cell_formula_units_Z 26
_cell_length_a 12.666357
_cell_length_b 5.124390
_cell_length_c 20.759680
_cell_angle_alpha 90.000000
_cell_angle_beta 124.999491
_cell_angle_gamma 90.000000
_cell_volume 1103.778105
_symmetry_space_group_name_H-M "P 2/C"
_symmetry_group_IT_number 13
_symmetry_cell_setting 'monoclinic'
loop_
_space_group_symop_operation_xyz
x,y,z
-x,y,1/2-z
-x,-y,-z
x,-y,1/2+z
loop_
_atom_site_type_symbol
_atom_site_label
_atom_site_fract_x
_atom_site_fract_y
_atom_site_fract_z
Si Si1 0.276573 0.648726 0.869382
Si Si2 0.500000 0.327994 0.250000
Si Si3 0.383403 0.975501 0.509605
Si Si4 0.157110 0.601462 0.430002
Si Si5 0.990503 0.094942 0.070272
Si Si6 0.457744 0.331265 0.850461
Si Si7 0.263159 0.952743 0.732290
O O1 0.165598 0.459499 0.856505
O O2 0.406588 0.493859 0.894215
O O3 0.249141 0.816769 0.797082
O O4 0.291268 0.825657 0.938395
O O5 0.469796 0.504205 0.177593
O O6 0.621614 0.164780 0.269790
O O7 0.449969 0.095909 0.595945
O O8 0.500000 0.000000 0.500000
O O9 0.304583 0.709939 0.495044
O O10 0.089159 0.364748 0.445867
O O11 0.076326 0.857531 0.416121
O O12 0.133647 0.100003 0.148968
O O13 0.000000 0.000000 0.000000
O O14 0.322574 0.235153 0.771147
#
# Coordination Sequence:
#
# PCOD9237092 Si02
#       7
#     4   2   4   4   4   4   4
#     4  11  23  46  74 117 157 199 256 323 400 468
#     4  10  26  46  74 118 154 206 256 322 412 450
#     4  12  23  45  78 119 162 191 260 326 404 471
#     4  12  27  52  79 117 149 219 255 327 400 461
#     4  12  31  56  78 108 160 215 276 320 384 481
#     4  11  24  44  77 115 156 204 255 325 399 476
#     4  11  26  51  73 114 156 204 264 330 384 472
#
# _framework density 23.555461000000001
#
# number of rings (size 3 to 8) (size 9 to 14) (size 15 to 20)
#    0.000    0.615    4.615    1.385    4.308    4.308 
#    5.538    0.000    0.000    0.000    0.000    0.000 
#    0.000    0.000    0.000    0.000    0.000    0.000 
#
# Total GULP energy -145178.410635 kJ/mol
# GULP energy per Si atom -5583.785024 kJ/mol
# Density = 2.350185 g / cm^3
# Si number density = 23.555461 Si / 1000 Ang^3
#
#
#
# Elastic Constant Matrix: (Units=GPa)
#
#
# Indices 1 2 3 4 5 6 
#
# 1 145.7007 56.2191 48.3662 0.0000 -1.9713 0.0000
# 2 56.2191 125.6886 34.0492 0.0000 0.0045 0.0000
# 3 48.3662 34.0492 93.6067 0.0000 18.1866 0.0000
# 4 0.0000 0.0000 0.0000 29.2403 0.0000 -4.3463
# 5 -1.9713 0.0045 18.1866 0.0000 29.9718 0.0000
# 6 0.0000 0.0000 0.0000 -4.3463 0.0000 44.4511
#
#
#
# Elastic Compliance Matrix: (Units=1/GPa)
#
#
# Indices 1 2 3 4 5 6 
#
# 1 0.009583 -0.003071 -0.004486 0.000000 0.003353 0.000000
# 2 -0.003071 0.009941 -0.002255 0.000000 0.001165 0.000000
# 3 -0.004486 -0.002255 0.015733 0.000000 -0.009841 0.000000
# 4 0.000000 0.000000 0.000000 0.034704 0.000000 0.003393
# 5 0.003353 0.001165 -0.009841 0.000000 0.039557 0.000000
# 6 0.000000 0.000000 0.000000 0.003393 0.000000 0.022828
#
#
# Mechanical properties :
#
#
# Convention : Reuss Voigt Hill
#
# Bulk Modulus (GPa) = 63.97018 71.36277 67.66647
# Shear Modulus (GPa) = 31.81048 35.82343 33.81696
#
# Velocity S-wave (km/s) = 3.67883 3.90399 3.79308
# Velocity P-wave (km/s) = 6.72765 7.11919 6.92619
#
# Compressibility (1/GPa) = 0.01563228
#
# Stress axis : x y z
#
# Youngs Moduli (GPa) = 104.35350 100.59496 63.56009
#
# Poissons Ratio (x) = 0.30895 0.28510
# Poissons Ratio (y) = 0.32050 0.14335
# Poissons Ratio (z) = 0.46809 0.22688
#
# Static dielectric constant tensor:
#      x y z
#    x 1.891010 0.000000 0.013220 
#    y 0.000000 1.990860 0.000000 
#    z 0.013220 0.000000 1.821220 
# 
# From -- ./inp_files/77322.got.cif
#   From: 2010.05.17/outbox.cif.g08.bks.cpg/sg13_39_cif.got.tgz:77322.got - 2010.06.03 16:44:36.
