data_PCOD9237617
_publ_section_title
;
Structure prediction by ZEFSAII (Michael W. Deem and Ramdas Pophale) SiO2 
 PCOD9237617
Probable space group: P 2/C
;
_chemical_formula_sum "Si O2"
_cell_formula_units_Z 16
_cell_length_a 26.595785
_cell_length_b 5.021120
_cell_length_c 10.350478
_cell_angle_alpha 90.000000
_cell_angle_beta 150.014446
_cell_angle_gamma 90.000000
_cell_volume 690.802837
_symmetry_space_group_name_H-M "P 2/C"
_symmetry_group_IT_number 13
_symmetry_cell_setting 'monoclinic'
loop_
_space_group_symop_operation_xyz
x,y,z
-x,y,1/2-z
-x,-y,-z
x,-y,1/2+z
loop_
_atom_site_type_symbol
_atom_site_label
_atom_site_fract_x
_atom_site_fract_y
_atom_site_fract_z
Si Si1 0.285059 0.113747 0.025405
Si Si2 0.212647 0.480000 0.059607
Si Si3 0.113648 0.993923 0.963182
Si Si4 0.383637 0.124612 0.506985
O O1 0.361872 0.063985 0.079752
O O2 0.248811 0.405721 0.994977
O O3 0.339348 0.001871 0.274868
O O4 0.182900 0.983496 0.744968
O O5 0.163774 0.752608 0.994789
O O6 0.313074 0.386766 0.361301
O O7 0.130046 0.257131 0.915261
O O8 0.000000 0.946051 0.750000
O O9 0.500000 0.185610 0.750000
#
# Coordination Sequence:
#
# PCOD9237617 Si02
#       4
#     4   4   4   4
#     4   9  21  39  65  98 130 166 220 261 316 392
#     4   9  23  38  63  96 128 164 218 258 315 387
#     4  11  22  42  64  95 130 171 211 268 321 373
#     4   9  18  40  67  97 130 170 209 268 324 377
#
# _framework density 23.161459000000001
#
# number of rings (size 3 to 8) (size 9 to 14) (size 15 to 20)
#    1.500    1.000    0.000    1.500    0.000    6.000 
#    0.000    6.250    0.000    0.000    0.000    0.000 
#    0.000    0.000    0.000    0.000    0.000    0.000 
#
# Total GULP energy -89155.090592 kJ/mol
# GULP energy per Si atom -5572.193162 kJ/mol
# Density = 2.310874 g / cm^3
# Si number density = 23.161459 Si / 1000 Ang^3
#
#
#
# Elastic Constant Matrix: (Units=GPa)
#
#
# Indices 1 2 3 4 5 6 
#
# 1 159.7534 43.6551 58.4018 0.0000 0.8181 0.0000
# 2 43.6551 99.5372 5.2812 0.0000 5.2311 0.0000
# 3 58.4018 5.2812 104.7995 0.0000 37.3679 0.0000
# 4 0.0000 0.0000 0.0000 11.2293 0.0000 -1.4524
# 5 0.8181 5.2311 37.3679 0.0000 59.0848 0.0000
# 6 0.0000 0.0000 0.0000 -1.4524 0.0000 33.0645
#
#
#
# Elastic Compliance Matrix: (Units=1/GPa)
#
#
# Indices 1 2 3 4 5 6 
#
# 1 0.009950 -0.004238 -0.006993 0.000000 0.004660 0.000000
# 2 -0.004238 0.011903 0.002733 0.000000 -0.002724 0.000000
# 3 -0.006993 0.002733 0.017241 0.000000 -0.011049 0.000000
# 4 0.000000 0.000000 0.000000 0.089561 0.000000 0.003934
# 5 0.004660 -0.002724 -0.011049 0.000000 0.024089 0.000000
# 6 0.000000 0.000000 0.000000 0.003934 0.000000 0.030417
#
#
# Mechanical properties :
#
#
# Convention : Reuss Voigt Hill
#
# Bulk Modulus (GPa) = 45.25167 64.30736 54.77951
# Shear Modulus (GPa) = 24.09351 37.79253 30.94302
#
# Velocity S-wave (km/s) = 3.22878 4.04381 3.65906
# Velocity P-wave (km/s) = 5.78618 7.04474 6.44625
#
# Compressibility (1/GPa) = 0.02209863
#
# Stress axis : x y z
#
# Youngs Moduli (GPa) = 100.49857 84.01032 58.00064
#
# Poissons Ratio (x) = 0.35603 0.40561
# Poissons Ratio (y) = 0.42590 -0.15851
# Poissons Ratio (z) = 0.70281 -0.22960
#
# Static dielectric constant tensor:
#      x y z
#    x 1.925160 0.000000 -0.068270 
#    y 0.000000 1.959380 0.000000 
#    z -0.068270 0.000000 1.847810 
# 
# From -- ./inp_files/35089.got.cif
#   From: 2010.05.17/outbox.cif.g08.bks.cpg/sg13_18_cif.got.tgz:35089.got - 2010.06.03 16:44:36.
