data_PCOD9237439
_publ_section_title
;
Structure prediction by ZEFSAII (Michael W. Deem and Ramdas Pophale) SiO2 
 PCOD9237439
Probable space group: P 2/C
;
_chemical_formula_sum "Si O2"
_cell_formula_units_Z 32
_cell_length_a 8.712505
_cell_length_b 14.392684
_cell_length_c 12.105513
_cell_angle_alpha 90.000000
_cell_angle_beta 89.273187
_cell_angle_gamma 90.000000
_cell_volume 1517.864786
_symmetry_space_group_name_H-M "P 2/C"
_symmetry_group_IT_number 13
_symmetry_cell_setting 'monoclinic'
loop_
_space_group_symop_operation_xyz
x,y,z
-x,y,1/2-z
-x,-y,-z
x,-y,1/2+z
loop_
_atom_site_type_symbol
_atom_site_label
_atom_site_fract_x
_atom_site_fract_y
_atom_site_fract_z
Si Si1 0.337335 0.741248 0.152949
Si Si2 0.576625 0.034275 0.124455
Si Si3 0.873707 0.237194 0.433111
Si Si4 0.793516 0.209633 0.072615
Si Si5 0.045105 0.414624 0.923471
Si Si6 0.681201 0.658980 0.751161
Si Si7 0.249021 0.556765 0.225111
Si Si8 0.671927 0.166584 0.628133
O O1 0.365920 0.631675 0.172966
O O2 0.263936 0.778427 0.267172
O O3 0.497771 0.793337 0.126109
O O4 0.226558 0.768338 0.055546
O O5 0.500000 0.051670 0.250000
O O6 0.676543 0.126102 0.101275
O O7 0.670562 0.941842 0.151174
O O8 0.500000 0.000000 0.000000
O O9 0.932291 0.325947 0.501146
O O10 0.771810 0.275241 0.334713
O O11 0.762943 0.182523 0.515738
O O12 0.030762 0.185938 0.399122
O O13 0.746852 0.305447 0.134273
O O14 0.201596 0.428806 0.852928
O O15 0.903100 0.414635 0.840877
O O16 0.000000 0.500000 0.000000
O O17 0.500000 0.674665 0.750000
O O18 0.710996 0.551769 0.783635
#
# Coordination Sequence:
#
# PCOD9237439 Si02
#       8
#     4   4   4   4   4   4   4   4
#     4  11  22  45  68 109 140 192 247 305 370 444
#     4  12  25  49  82 113 148 201 253 313 396 464
#     4  12  25  45  69 103 148 188 249 308 375 443
#     4  12  26  45  74 104 146 195 248 312 370 455
#     4  11  21  40  64  97 140 194 240 303 370 430
#     4  12  28  45  66 104 147 197 243 308 372 441
#     4  11  24  38  69 100 144 192 249 298 363 454
#     4  11  24  44  74 102 145 188 242 311 376 456
#
# _framework density 21.082248
#
# number of rings (size 3 to 8) (size 9 to 14) (size 15 to 20)
#    0.000    0.500    6.250    2.250    5.250    1.000 
#    0.000    1.875    2.750    0.000    0.000    0.000 
#    0.000    0.000    0.000    0.000    0.000    0.000 
#
# Total GULP energy -178406.208292 kJ/mol
# GULP energy per Si atom -5575.194009 kJ/mol
# Density = 2.103426 g / cm^3
# Si number density = 21.082248 Si / 1000 Ang^3
#
#
#
# Elastic Constant Matrix: (Units=GPa)
#
#
# Indices 1 2 3 4 5 6 
#
# 1 65.4291 9.3417 13.7979 0.0000 13.7913 0.0000
# 2 9.3417 105.5394 10.7598 0.0000 -3.7544 0.0000
# 3 13.7979 10.7598 82.5464 0.0000 15.4072 0.0000
# 4 0.0000 0.0000 0.0000 33.5136 0.0000 -7.3209
# 5 13.7913 -3.7544 15.4072 0.0000 31.2032 0.0000
# 6 0.0000 0.0000 0.0000 -7.3209 0.0000 17.1003
#
#
#
# Elastic Compliance Matrix: (Units=1/GPa)
#
#
# Indices 1 2 3 4 5 6 
#
# 1 0.017318 -0.001652 -0.001337 0.000000 -0.007193 0.000000
# 2 -0.001652 0.009870 -0.001507 0.000000 0.002662 0.000000
# 3 -0.001337 -0.001507 0.013723 0.000000 -0.006366 0.000000
# 4 0.000000 0.000000 0.000000 0.032917 0.000000 0.014092
# 5 -0.007193 0.002662 -0.006366 0.000000 0.038691 0.000000
# 6 0.000000 0.000000 0.000000 0.014092 0.000000 0.064512
#
#
# Mechanical properties :
#
#
# Convention : Reuss Voigt Hill
#
# Bulk Modulus (GPa) = 31.33106 35.70152 33.51629
# Shear Modulus (GPa) = 25.42441 31.00445 28.21443
#
# Velocity S-wave (km/s) = 3.47647 3.83906 3.66225
# Velocity P-wave (km/s) = 5.56848 6.05164 5.81508
#
# Compressibility (1/GPa) = 0.03191721
#
# Stress axis : x y z
#
# Youngs Moduli (GPa) = 57.74449 101.31958 72.87266
#
# Poissons Ratio (x) = 0.16742 0.09741
# Poissons Ratio (y) = 0.09542 0.10983
# Poissons Ratio (z) = 0.07719 0.15271
#
# Static dielectric constant tensor:
#      x y z
#    x 1.772890 0.000000 -0.046790 
#    y 0.000000 1.755110 0.000000 
#    z -0.046790 0.000000 1.841530 
# 
# From -- ./inp_files/30434.got.cif
#   From: 2010.05.17/outbox.cif.g08.bks.cpg/sg13_16_cif.got.tgz:30434.got - 2010.06.03 16:44:36.
