data_PCOD9237250
_publ_section_title
;
Structure prediction by ZEFSAII (Michael W. Deem and Ramdas Pophale) SiO2 
 PCOD9237250
Probable space group: P 2/C
;
_chemical_formula_sum "Si O2"
_cell_formula_units_Z 26
_cell_length_a 11.716098
_cell_length_b 9.212484
_cell_length_c 14.382462
_cell_angle_alpha 90.000000
_cell_angle_beta 122.790691
_cell_angle_gamma 90.000000
_cell_volume 1305.000187
_symmetry_space_group_name_H-M "P 2/C"
_symmetry_group_IT_number 13
_symmetry_cell_setting 'monoclinic'
loop_
_space_group_symop_operation_xyz
x,y,z
-x,y,1/2-z
-x,-y,-z
x,-y,1/2+z
loop_
_atom_site_type_symbol
_atom_site_label
_atom_site_fract_x
_atom_site_fract_y
_atom_site_fract_z
Si Si1 0.000000 0.651145 0.750000
Si Si2 0.602162 0.298456 0.864298
Si Si3 0.235233 0.786311 0.750825
Si Si4 0.871221 0.487116 0.013350
Si Si5 0.534326 0.431475 0.114557
Si Si6 0.707752 0.221435 0.436708
Si Si7 0.647986 0.953036 0.533037
O O1 0.915982 0.747843 0.786005
O O2 0.909692 0.562450 0.635338
O O3 0.500000 0.209434 0.750000
O O4 0.495858 0.427301 0.839338
O O5 0.748507 0.383838 0.917593
O O6 0.634167 0.189496 0.962878
O O7 0.319231 0.638818 0.811044
O O8 0.271471 0.822671 0.661268
O O9 0.277536 0.910861 0.839955
O O10 0.813318 0.649050 0.998192
O O11 0.000000 0.500000 0.000000
O O12 0.434712 0.301899 0.103138
O O13 0.500000 0.500000 0.000000
O O14 0.716837 0.082353 0.506162
O O15 0.500000 0.000000 0.500000
#
# Coordination Sequence:
#
# PCOD9237250 Si02
#       7
#     2   4   4   4   4   4   4
#     4  12  24  44  74 100 136 190 230 296 350 414
#     4  11  24  40  66 101 137 175 235 292 345 406
#     4  12  23  43  69  96 142 187 234 290 355 417
#     4  11  23  48  71 104 139 181 240 291 349 426
#     4  11  19  39  64  97 131 172 230 294 341 405
#     4  11  24  42  70  99 136 186 231 286 358 415
#     4  12  25  42  64 103 143 180 233 288 355 424
#
# _framework density 19.923369000000001
#
# number of rings (size 3 to 8) (size 9 to 14) (size 15 to 20)
#    0.000    0.615    6.154    3.231    2.154    0.000 
#    0.000    3.846    0.000    0.000    0.000    0.000 
#    0.000    0.000    0.000    0.000    0.000    0.000 
#
# Total GULP energy -144877.125138 kJ/mol
# GULP energy per Si atom -5572.197121 kJ/mol
# Density = 1.987802 g / cm^3
# Si number density = 19.923369 Si / 1000 Ang^3
#
#
#
# Elastic Constant Matrix: (Units=GPa)
#
#
# Indices 1 2 3 4 5 6 
#
# 1 115.6353 45.6401 37.7408 0.0000 -14.7932 0.0000
# 2 45.6401 103.8623 30.7466 0.0000 -9.8439 0.0000
# 3 37.7408 30.7466 118.1830 0.0000 -24.8357 0.0000
# 4 0.0000 0.0000 0.0000 16.5872 0.0000 -20.7112
# 5 -14.7932 -9.8439 -24.8357 0.0000 38.2206 0.0000
# 6 0.0000 0.0000 0.0000 -20.7112 0.0000 19.1620
#
#
#
# Elastic Compliance Matrix: (Units=1/GPa)
#
#
# Indices 1 2 3 4 5 6 
#
# 1 0.011205 -0.004120 -0.002106 0.000000 0.001908 0.000000
# 2 -0.004120 0.011984 -0.001724 0.000000 0.000372 0.000000
# 3 -0.002106 -0.001724 0.010791 0.000000 0.005753 0.000000
# 4 0.000000 0.000000 0.000000 -0.172463 0.000000 -0.186405
# 5 0.001908 0.000372 0.005753 0.000000 0.030736 0.000000
# 6 0.000000 0.000000 0.000000 -0.186405 0.000000 -0.149289
#
#
# Mechanical properties :
#
#
# Convention : Reuss Voigt Hill
#
# Bulk Modulus (GPa) = 55.30413 62.88175 59.09294
# Shear Modulus (GPa) = -21.26679 29.69752 4.21536
#
# Velocity S-wave (km/s) = -3.27070 3.86500 1.45615
# Velocity P-wave (km/s) = 3.68176 7.17969 5.70541
#
# Compressibility (1/GPa) = 0.01808183
#
# Stress axis : x y z
#
# Youngs Moduli (GPa) = 89.24457 83.44403 92.66628
#
# Poissons Ratio (x) = 0.34377 0.19512
# Poissons Ratio (y) = 0.36766 0.15976
# Poissons Ratio (z) = 0.18791 0.14386
#
# Static dielectric constant tensor:
#      x y z
#    x 1.797390 0.000000 -0.061050 
#    y 0.000000 1.803490 0.000000 
#    z -0.061050 0.000000 1.941640 
# 
# From -- ./inp_files/50154.got.cif
#   From: 2010.05.17/outbox.cif.g08.bks.cpg/sg13_26_cif.got.tgz:50154.got - 2010.06.03 16:44:36.
