data_PCOD9237499
_publ_section_title
;
Structure prediction by ZEFSAII (Michael W. Deem and Ramdas Pophale) SiO2 
 PCOD9237499
Probable space group: P 2/C
;
_chemical_formula_sum "Si O2"
_cell_formula_units_Z 16
_cell_length_a 15.955580
_cell_length_b 9.229582
_cell_length_c 20.303823
_cell_angle_alpha 90.000000
_cell_angle_beta 18.546738
_cell_angle_gamma 90.000000
_cell_volume 951.056362
_symmetry_space_group_name_H-M "P 2/C"
_symmetry_group_IT_number 13
_symmetry_cell_setting 'monoclinic'
loop_
_space_group_symop_operation_xyz
x,y,z
-x,y,1/2-z
-x,-y,-z
x,-y,1/2+z
loop_
_atom_site_type_symbol
_atom_site_label
_atom_site_fract_x
_atom_site_fract_y
_atom_site_fract_z
Si Si1 0.939193 0.155008 0.923139
Si Si2 0.457191 0.668827 0.021413
Si Si3 0.489914 0.844992 0.647768
Si Si4 0.221041 0.098249 0.139483
O O1 0.160309 0.278508 0.758320
O O2 0.774172 0.145639 0.112922
O O3 0.730312 0.181280 0.019694
O O4 0.085257 0.005236 0.795271
O O5 0.500000 0.500000 0.000000
O O6 0.514152 0.721485 0.904463
O O7 0.647293 0.763370 0.926345
O O8 0.563184 0.994751 0.556291
O O9 0.000000 0.134327 0.250000
#
# Coordination Sequence:
#
# PCOD9237499 Si02
#       4
#     4   4   4   4
#     4   9  18  35  57  76  96 128 172 216 252 290
#     4  11  22  32  49  77 109 139 163 197 250 310
#     4   9  18  35  57  76  96 128 172 216 252 290
#     4   9  19  34  52  75  99 129 172 215 250 288
#
# _framework density 16.823399999999999
#
# number of rings (size 3 to 8) (size 9 to 14) (size 15 to 20)
#    0.000    2.500    0.000    5.250    0.000    7.000 
#    0.000    0.000    0.000    6.000    0.000    0.000 
#    0.000    0.000    0.000    0.000    0.000    0.000 
#
# Total GULP energy -89287.176895 kJ/mol
# GULP energy per Si atom -5580.448556 kJ/mol
# Density = 1.678511 g / cm^3
# Si number density = 16.823400 Si / 1000 Ang^3
#
#
#
# Elastic Constant Matrix: (Units=GPa)
#
#
# Indices 1 2 3 4 5 6 
#
# 1 96.7921 78.9932 67.8177 0.0000 9.4550 0.0000
# 2 78.9932 166.7726 80.6913 0.0000 0.7756 0.0000
# 3 67.8177 80.6913 156.0284 0.0000 18.1370 0.0000
# 4 0.0000 0.0000 0.0000 1.7353 0.0000 -1.4489
# 5 9.4550 0.7756 18.1370 0.0000 28.6888 0.0000
# 6 0.0000 0.0000 0.0000 -1.4489 0.0000 4.8460
#
#
#
# Elastic Compliance Matrix: (Units=1/GPa)
#
#
# Indices 1 2 3 4 5 6 
#
# 1 0.019579 -0.007115 -0.004428 0.000000 -0.003461 0.000000
# 2 -0.007115 0.010765 -0.002929 0.000000 0.003905 0.000000
# 3 -0.004428 -0.002929 0.010436 0.000000 -0.005059 0.000000
# 4 0.000000 0.000000 0.000000 0.768019 0.000000 0.229633
# 5 -0.003461 0.003905 -0.005059 0.000000 0.039090 0.000000
# 6 0.000000 0.000000 0.000000 0.229633 0.000000 0.275015
#
#
# Mechanical properties :
#
#
# Convention : Reuss Voigt Hill
#
# Bulk Modulus (GPa) = 84.48238 97.17749 90.82994
# Shear Modulus (GPa) = 4.32603 19.86007 12.09305
#
# Velocity S-wave (km/s) = 1.60531 3.43957 2.68400
# Velocity P-wave (km/s) = 7.33227 8.58271 7.98201
#
# Compressibility (1/GPa) = 0.01183679
#
# Stress axis : x y z
#
# Youngs Moduli (GPa) = 51.07611 92.89229 95.81851
#
# Poissons Ratio (x) = 0.66093 0.42428
# Poissons Ratio (y) = 0.36341 0.28062
# Poissons Ratio (z) = 0.22616 0.27205
#
# Static dielectric constant tensor:
#      x y z
#    x 1.590610 0.000000 -0.008700 
#    y 0.000000 1.518660 0.000000 
#    z -0.008700 0.000000 1.571770 
# 
# From -- ./inp_files/67879.got.cif
#   From: 2010.05.17/outbox.cif.g08.bks.cpg/sg13_34_cif.got.tgz:67879.got - 2010.06.03 16:44:36.
