data_PCOD9237048
_publ_section_title
;
Structure prediction by ZEFSAII (Michael W. Deem and Ramdas Pophale) SiO2 
 PCOD9237048
Probable space group: P 2/C
;
_chemical_formula_sum "Si O2"
_cell_formula_units_Z 18
_cell_length_a 18.914837
_cell_length_b 4.710049
_cell_length_c 23.769308
_cell_angle_alpha 90.000000
_cell_angle_beta 158.136706
_cell_angle_gamma 90.000000
_cell_volume 788.581204
_symmetry_space_group_name_H-M "P 2/C"
_symmetry_group_IT_number 13
_symmetry_cell_setting 'monoclinic'
loop_
_space_group_symop_operation_xyz
x,y,z
-x,y,1/2-z
-x,-y,-z
x,-y,1/2+z
loop_
_atom_site_type_symbol
_atom_site_label
_atom_site_fract_x
_atom_site_fract_y
_atom_site_fract_z
Si Si1 0.976740 0.590929 0.656157
Si Si2 0.543719 0.399000 0.343939
Si Si3 0.000000 0.135936 0.750000
Si Si4 0.025727 0.312743 0.575034
Si Si5 0.316247 0.061620 0.716530
O O1 0.970418 0.906299 0.677308
O O2 0.029438 0.517683 0.631131
O O3 0.761090 0.481684 0.503657
O O4 0.104633 0.380083 0.788953
O O5 0.500000 0.276342 0.250000
O O6 0.485926 0.162767 0.346148
O O7 0.406386 0.665823 0.253114
O O8 0.218342 0.144461 0.702925
O O9 0.000000 0.500000 0.500000
O O10 0.849259 0.092323 0.442511
#
# Coordination Sequence:
#
# PCOD9237048 Si02
#       5
#     4   4   2   4   4
#     4  11  24  44  70  90 135 166 237 259 315 392
#     4  12  22  37  63 100 133 164 200 286 336 378
#     4  10  26  44  64  94 118 198 222 264 290 386
#     4  11  23  40  65 101 135 171 201 273 338 402
#     4  11  23  35  58 103 133 159 200 247 369 377
#
# _framework density 22.825806
#
# number of rings (size 3 to 8) (size 9 to 14) (size 15 to 20)
#    0.000    0.889    4.444    2.000    9.333    0.000 
#    0.000    0.000    0.000   26.667    0.000    0.000 
#    0.000    0.000    0.000    0.000    0.000    0.000 
#
# Total GULP energy -100303.868004 kJ/mol
# GULP energy per Si atom -5572.437111 kJ/mol
# Density = 2.277385 g / cm^3
# Si number density = 22.825806 Si / 1000 Ang^3
#
#
#
# Elastic Constant Matrix: (Units=GPa)
#
#
# Indices 1 2 3 4 5 6 
#
# 1 141.0604 40.7280 28.5821 0.0000 -6.6551 0.0000
# 2 40.7280 122.4888 -3.4649 0.0000 4.6043 0.0000
# 3 28.5821 -3.4649 29.2941 0.0000 5.1221 0.0000
# 4 0.0000 0.0000 0.0000 31.8296 0.0000 1.1856
# 5 -6.6551 4.6043 5.1221 0.0000 47.9117 0.0000
# 6 0.0000 0.0000 0.0000 1.1856 0.0000 38.9028
#
#
#
# Elastic Compliance Matrix: (Units=1/GPa)
#
#
# Indices 1 2 3 4 5 6 
#
# 1 0.010716 -0.004004 -0.011471 0.000000 0.003100 0.000000
# 2 -0.004004 0.009726 0.005419 0.000000 -0.002070 0.000000
# 3 -0.011471 0.005419 0.047222 0.000000 -0.007163 0.000000
# 4 0.000000 0.000000 0.000000 0.031453 0.000000 -0.000959
# 5 0.003100 -0.002070 -0.007163 0.000000 0.022267 0.000000
# 6 0.000000 0.000000 0.000000 -0.000959 0.000000 0.025734
#
#
# Mechanical properties :
#
#
# Convention : Reuss Voigt Hill
#
# Bulk Modulus (GPa) = 21.02931 47.17042 34.09986
# Shear Modulus (GPa) = 27.31034 38.86201 33.08618
#
# Velocity S-wave (km/s) = 3.46275 4.13067 3.81137
# Velocity P-wave (km/s) = 5.02200 6.59243 5.86006
#
# Compressibility (1/GPa) = 0.04755269
#
# Stress axis : x y z
#
# Youngs Moduli (GPa) = 93.32076 102.81218 21.17659
#
# Poissons Ratio (x) = 0.41166 0.24291
# Poissons Ratio (y) = 0.37366 -0.11476
# Poissons Ratio (z) = 1.07047 -0.55715
#
# Static dielectric constant tensor:
#      x y z
#    x 1.920590 0.000000 -0.025100 
#    y 0.000000 1.929080 0.000000 
#    z -0.025100 0.000000 2.073750 
# 
# From -- ./inp_files/87604.got.cif
#   From: 2010.05.17/outbox.cif.g08.bks.cpg/sg13_44_cif.got.tgz:87604.got - 2010.06.03 16:44:36.
