data_PCOD9237538
_publ_section_title
;
Structure prediction by ZEFSAII (Michael W. Deem and Ramdas Pophale) SiO2 
 PCOD9237538
Probable space group: P 2/C
;
_chemical_formula_sum "Si O2"
_cell_formula_units_Z 24
_cell_length_a 8.843869
_cell_length_b 18.395481
_cell_length_c 8.641964
_cell_angle_alpha 90.000000
_cell_angle_beta 129.196578
_cell_angle_gamma 90.000000
_cell_volume 1089.576303
_symmetry_space_group_name_H-M "P 2/C"
_symmetry_group_IT_number 13
_symmetry_cell_setting 'monoclinic'
loop_
_space_group_symop_operation_xyz
x,y,z
-x,y,1/2-z
-x,-y,-z
x,-y,1/2+z
loop_
_atom_site_type_symbol
_atom_site_label
_atom_site_fract_x
_atom_site_fract_y
_atom_site_fract_z
Si Si1 0.911037 0.571183 0.363175
Si Si2 0.226520 0.227595 0.945251
Si Si3 0.460999 0.346747 0.899187
Si Si4 0.674472 0.073542 0.453781
Si Si5 0.135794 0.307112 0.197831
Si Si6 0.876104 0.046971 0.299558
O O1 0.676485 0.581625 0.202218
O O2 0.000000 0.575973 0.250000
O O3 0.000000 0.500000 0.500000
O O4 0.993498 0.637968 0.516200
O O5 0.330428 0.290429 0.913468
O O6 0.000000 0.216480 0.750000
O O7 0.341228 0.152196 0.980748
O O8 0.219050 0.253823 0.118811
O O9 0.500000 0.320207 0.750000
O O10 0.674772 0.349973 0.114167
O O11 0.500000 0.034489 0.250000
O O12 0.759002 0.014064 0.625399
O O13 0.781579 0.098009 0.363746
O O14 0.000000 0.276686 0.250000
O O15 0.000000 0.086643 0.250000
O O16 0.000000 0.000000 0.500000
#
# Coordination Sequence:
#
# PCOD9237538 Si02
#       6
#     4   4   4   4   4   4
#     4  12  26  47  69 103 137 174 226 272 336 404
#     4  12  23  44  68  98 133 178 227 281 338 403
#     4  12  24  45  70  97 134 179 225 279 336 400
#     4  11  22  38  63  95 130 171 220 276 336 397
#     4  12  23  44  69  98 138 177 223 282 337 400
#     4   9  19  38  59  87 126 173 216 266 327 397
#
# _framework density 22.026910999999998
#
# number of rings (size 3 to 8) (size 9 to 14) (size 15 to 20)
#    0.000    0.667    5.000    4.000    0.000    1.333 
#    0.000    9.167    0.000    0.000    0.000    0.000 
#    0.000    0.000    0.000    0.000    0.000    0.000 
#
# Total GULP energy -133641.619258 kJ/mol
# GULP energy per Si atom -5568.400802 kJ/mol
# Density = 2.197678 g / cm^3
# Si number density = 22.026911 Si / 1000 Ang^3
#
#
#
# Elastic Constant Matrix: (Units=GPa)
#
#
# Indices 1 2 3 4 5 6 
#
# 1 90.4381 8.7213 28.9152 0.0000 -16.5822 0.0000
# 2 8.7213 75.4097 14.7843 0.0000 -6.5747 0.0000
# 3 28.9152 14.7843 160.4609 0.0000 10.0515 0.0000
# 4 0.0000 0.0000 0.0000 30.6747 0.0000 0.8171
# 5 -16.5822 -6.5747 10.0515 0.0000 47.4963 0.0000
# 6 0.0000 0.0000 0.0000 0.8171 0.0000 13.2323
#
#
#
# Elastic Compliance Matrix: (Units=1/GPa)
#
#
# Indices 1 2 3 4 5 6 
#
# 1 0.012841 -0.000549 -0.002574 0.000000 0.004952 0.000000
# 2 -0.000549 0.013751 -0.001292 0.000000 0.001985 0.000000
# 3 -0.002574 -0.001292 0.006975 0.000000 -0.002553 0.000000
# 4 0.000000 0.000000 0.000000 0.032654 0.000000 -0.002016
# 5 0.004952 0.001985 -0.002553 0.000000 0.023598 0.000000
# 6 0.000000 0.000000 0.000000 -0.002016 0.000000 0.075697
#
#
# Mechanical properties :
#
#
# Convention : Reuss Voigt Hill
#
# Bulk Modulus (GPa) = 40.42520 47.90559 44.16540
# Shear Modulus (GPa) = 27.38361 36.53987 31.96174
#
# Velocity S-wave (km/s) = 3.52971 4.07735 3.81337
# Velocity P-wave (km/s) = 5.91644 6.63040 6.28357
#
# Compressibility (1/GPa) = 0.02473704
#
# Stress axis : x y z
#
# Youngs Moduli (GPa) = 77.87578 72.72285 143.37246
#
# Poissons Ratio (x) = 0.03991 0.36898
# Poissons Ratio (y) = 0.04274 0.18530
# Poissons Ratio (z) = 0.20042 0.09399
#
# Static dielectric constant tensor:
#      x y z
#    x 2.092440 0.000000 0.129440 
#    y 0.000000 1.738480 0.000000 
#    z 0.129440 0.000000 1.863980 
# 
# From -- ./inp_files/13518.got.cif
#   From: 2010.05.17/outbox.cif.g08.bks.cpg/sg13_7_cif.got.tgz:13518.got - 2010.06.03 16:44:36.
