data_PCOD9237919
_publ_section_title
;
Structure prediction by ZEFSAII (Michael W. Deem and Ramdas Pophale) SiO2 
 PCOD9237919
Probable space group: P 2/C
;
_chemical_formula_sum "Si O2"
_cell_formula_units_Z 22
_cell_length_a 9.820841
_cell_length_b 6.419658
_cell_length_c 17.189379
_cell_angle_alpha 90.000000
_cell_angle_beta 66.393343
_cell_angle_gamma 90.000000
_cell_volume 993.038595
_symmetry_space_group_name_H-M "P 2/C"
_symmetry_group_IT_number 13
_symmetry_cell_setting 'monoclinic'
loop_
_space_group_symop_operation_xyz
x,y,z
-x,y,1/2-z
-x,-y,-z
x,-y,1/2+z
loop_
_atom_site_type_symbol
_atom_site_label
_atom_site_fract_x
_atom_site_fract_y
_atom_site_fract_z
Si Si1 0.409472 0.191535 0.985901
Si Si2 0.000000 0.967508 0.750000
Si Si3 0.194134 0.674757 0.800673
Si Si4 0.069698 0.337849 0.626207
Si Si5 0.641150 0.492169 0.860475
Si Si6 0.835161 0.906645 0.534701
O O1 0.512251 0.325161 0.904387
O O2 0.269322 0.087613 0.975528
O O3 0.376299 0.336214 0.067785
O O4 0.500000 0.000000 0.000000
O O5 0.865797 0.818697 0.756467
O O6 0.982331 0.116126 0.828239
O O7 0.341188 0.572886 0.731110
O O8 0.216502 0.815836 0.871187
O O9 0.062678 0.505665 0.848920
O O10 0.195984 0.399577 0.658562
O O11 0.152719 0.289721 0.526744
O O12 0.000000 0.000000 0.500000
#
# Coordination Sequence:
#
# PCOD9237919 Si02
#       6
#     4   2   4   4   4   4
#     4  11  25  47  76  98 138 199 235 289 361 438
#     4  12  20  38  70 104 136 186 236 284 366 420
#     4  12  24  40  70 110 143 183 239 309 357 425
#     4  12  22  42  73 105 139 184 237 299 355 432
#     4  11  23  44  76  99 141 191 247 283 360 444
#     4  12  25  44  74 107 145 183 240 299 363 421
#
# _framework density 22.154223000000002
#
# number of rings (size 3 to 8) (size 9 to 14) (size 15 to 20)
#    0.000    0.364    7.273    2.727    0.000    0.000 
#    0.000    0.909    8.000    0.000    0.000    0.000 
#    0.000    0.000    0.000    0.000    0.000    0.000 
#
# Total GULP energy -123011.810996 kJ/mol
# GULP energy per Si atom -5591.445954 kJ/mol
# Density = 2.210380 g / cm^3
# Si number density = 22.154223 Si / 1000 Ang^3
#
#
#
# Elastic Constant Matrix: (Units=GPa)
#
#
# Indices 1 2 3 4 5 6 
#
# 1 108.7109 55.1602 37.5142 0.0000 -6.1596 0.0000
# 2 55.1602 112.2652 39.4243 0.0000 -13.2429 0.0000
# 3 37.5142 39.4243 119.0643 0.0000 -10.6356 0.0000
# 4 0.0000 0.0000 0.0000 44.3011 0.0000 -3.6666
# 5 -6.1596 -13.2429 -10.6356 0.0000 29.6187 0.0000
# 6 0.0000 0.0000 0.0000 -3.6666 0.0000 27.4395
#
#
#
# Elastic Compliance Matrix: (Units=1/GPa)
#
#
# Indices 1 2 3 4 5 6 
#
# 1 0.012753 -0.005556 -0.002235 0.000000 -0.000635 0.000000
# 2 -0.005556 0.012846 -0.002163 0.000000 0.003812 0.000000
# 3 -0.002235 -0.002163 0.010012 0.000000 0.002164 0.000000
# 4 0.000000 0.000000 0.000000 0.022825 0.000000 0.003050
# 5 -0.000635 0.003812 0.002164 0.000000 0.036112 0.000000
# 6 0.000000 0.000000 0.000000 0.003050 0.000000 0.036851
#
#
# Mechanical properties :
#
#
# Convention : Reuss Voigt Hill
#
# Bulk Modulus (GPa) = 63.67662 67.13754 65.40708
# Shear Modulus (GPa) = 31.94008 34.13463 33.03736
#
# Velocity S-wave (km/s) = 3.80111 3.92953 3.86585
# Velocity P-wave (km/s) = 6.93321 7.13853 7.03662
#
# Compressibility (1/GPa) = 0.01570435
#
# Stress axis : x y z
#
# Youngs Moduli (GPa) = 78.41132 77.84228 99.87591
#
# Poissons Ratio (x) = 0.43250 0.22324
# Poissons Ratio (y) = 0.43566 0.21599
# Poissons Ratio (z) = 0.17527 0.16834
#
# Static dielectric constant tensor:
#      x y z
#    x 1.836450 0.000000 -0.017350 
#    y 0.000000 1.332620 0.000000 
#    z -0.017350 0.000000 1.962380 
# 
# From -- ./inp_files/65093.got.cif
#   From: 2010.05.17/outbox.cif.g08.bks.cpg/sg13_33_cif.got.tgz:65093.got - 2010.06.03 16:44:36.
