data_PCOD9237435
_publ_section_title
;
Structure prediction by ZEFSAII (Michael W. Deem and Ramdas Pophale) SiO2 
 PCOD9237435
Probable space group: P 2/C
;
_chemical_formula_sum "Si O2"
_cell_formula_units_Z 28
_cell_length_a 30.246582
_cell_length_b 8.397933
_cell_length_c 30.580580
_cell_angle_alpha 90.000000
_cell_angle_beta 9.592048
_cell_angle_gamma 90.000000
_cell_volume 1294.352523
_symmetry_space_group_name_H-M "P 2/C"
_symmetry_group_IT_number 13
_symmetry_cell_setting 'monoclinic'
loop_
_space_group_symop_operation_xyz
x,y,z
-x,y,1/2-z
-x,-y,-z
x,-y,1/2+z
loop_
_atom_site_type_symbol
_atom_site_label
_atom_site_fract_x
_atom_site_fract_y
_atom_site_fract_z
Si Si1 0.784385 0.517127 0.993239
Si Si2 0.743918 0.610683 0.751364
Si Si3 0.362676 0.286044 0.776425
Si Si4 0.772389 0.054434 0.255678
Si Si5 0.357515 0.624589 0.746152
Si Si6 0.088410 0.266598 0.753963
Si Si7 0.142421 0.069937 0.229298
O O1 0.500000 0.469853 0.250000
O O2 0.698716 0.631154 0.116940
O O3 0.953035 0.367349 0.847334
O O4 0.000000 0.595414 0.750000
O O5 0.781104 0.753784 0.748565
O O6 0.671310 0.682633 0.774978
O O7 0.000000 0.500000 0.500000
O O8 0.500000 0.500000 0.000000
O O9 0.335374 0.432486 0.769227
O O10 0.643774 0.199179 0.495820
O O11 0.137950 0.154336 0.990040
O O12 0.782795 0.000135 0.295835
O O13 0.500000 0.000000 0.500000
O O14 0.000000 0.000000 0.000000
O O15 0.628375 0.664789 0.507222
O O16 0.116552 0.701400 0.007111
O O17 0.120359 0.077903 0.717605
#
# Coordination Sequence:
#
# PCOD9237435 Si02
#       7
#     4   4   4   4   4   4   4
#     4  11  23  44  70  95 121 157 203 253 316 398
#     4  12  23  37  58  88 123 166 219 273 312 350
#     4  11  23  40  66  92 124 164 204 259 323 377
#     4  12  24  40  60  89 130 177 216 264 317 360
#     4  11  21  40  60  88 122 170 219 254 305 381
#     4  11  23  40  66  90 121 163 203 250 308 379
#     4  12  23  41  62  96 131 165 214 263 311 375
#
# _framework density 21.632438
#
# number of rings (size 3 to 8) (size 9 to 14) (size 15 to 20)
#    0.000    0.571    0.000   11.143    0.000    0.000 
#    0.000    2.857    0.000    1.714    0.000    0.000 
#    0.000    0.000    0.000    0.000    0.000    0.000 
#
# Total GULP energy -156633.731571 kJ/mol
# GULP energy per Si atom -5594.061842 kJ/mol
# Density = 2.158320 g / cm^3
# Si number density = 21.632438 Si / 1000 Ang^3
#
#
#
# Elastic Constant Matrix: (Units=GPa)
#
#
# Indices 1 2 3 4 5 6 
#
# 1 107.2941 -13.3850 34.5887 0.0000 -14.1120 0.0000
# 2 -13.3850 82.3438 8.3648 0.0000 -7.2621 0.0000
# 3 34.5887 8.3648 161.0351 0.0000 -15.9124 0.0000
# 4 0.0000 0.0000 0.0000 44.6737 0.0000 -2.0060
# 5 -14.1120 -7.2621 -15.9124 0.0000 48.8179 0.0000
# 6 0.0000 0.0000 0.0000 -2.0060 0.0000 17.4926
#
#
#
# Elastic Compliance Matrix: (Units=1/GPa)
#
#
# Indices 1 2 3 4 5 6 
#
# 1 0.010635 0.002184 -0.002130 0.000000 0.002705 0.000000
# 2 0.002184 0.012789 -0.000912 0.000000 0.002236 0.000000
# 3 -0.002130 -0.000912 0.006862 0.000000 0.001485 0.000000
# 4 0.000000 0.000000 0.000000 0.022500 0.000000 0.002580
# 5 0.002705 0.002236 0.001485 0.000000 0.022083 0.000000
# 6 0.000000 0.000000 0.000000 0.002580 0.000000 0.057463
#
#
# Mechanical properties :
#
#
# Convention : Reuss Voigt Hill
#
# Bulk Modulus (GPa) = 35.00483 45.53443 40.26963
# Shear Modulus (GPa) = 34.82556 43.60381 39.21468
#
# Velocity S-wave (km/s) = 4.01668 4.49449 4.26229
# Velocity P-wave (km/s) = 6.14234 6.93028 6.54817
#
# Compressibility (1/GPa) = 0.02856749
#
# Stress axis : x y z
#
# Youngs Moduli (GPa) = 94.02781 78.19174 145.73950
#
# Poissons Ratio (x) = -0.17075 0.31050
# Poissons Ratio (y) = -0.20533 0.13297
# Poissons Ratio (z) = 0.20032 0.07134
#
# Static dielectric constant tensor:
#      x y z
#    x 1.803620 0.000000 0.028960 
#    y 0.000000 1.749720 0.000000 
#    z 0.028960 0.000000 1.707680 
# 
# From -- ./inp_files/97979.got.cif
#   From: 2010.05.17/outbox.cif.g08.bks.cpg/sg13_49_cif.got.tgz:97979.got - 2010.06.03 16:44:36.
