data_PCOD9237193
_publ_section_title
;
Structure prediction by ZEFSAII (Michael W. Deem and Ramdas Pophale) SiO2 
 PCOD9237193
Probable space group: P 2/C
;
_chemical_formula_sum "Si O2"
_cell_formula_units_Z 14
_cell_length_a 18.188232
_cell_length_b 4.815493
_cell_length_c 8.779774
_cell_angle_alpha 90.000000
_cell_angle_beta 139.228556
_cell_angle_gamma 90.000000
_cell_volume 502.176651
_symmetry_space_group_name_H-M "P 2/C"
_symmetry_group_IT_number 13
_symmetry_cell_setting 'monoclinic'
loop_
_space_group_symop_operation_xyz
x,y,z
-x,y,1/2-z
-x,-y,-z
x,-y,1/2+z
loop_
_atom_site_type_symbol
_atom_site_label
_atom_site_fract_x
_atom_site_fract_y
_atom_site_fract_z
Si Si1 0.500000 0.457966 0.750000
Si Si2 0.500000 0.000000 0.000000
Si Si3 0.303177 0.211808 0.004777
Si Si4 0.854742 0.727292 0.753005
Si Si5 0.000000 0.924681 0.250000
O O1 0.598957 0.672271 0.954469
O O2 0.534771 0.249934 0.673610
O O3 0.620792 0.159199 0.229092
O O4 0.205027 0.436944 0.871316
O O5 0.243491 0.938643 0.853393
O O6 0.911981 0.872749 0.697103
O O7 0.943312 0.737311 0.030159
#
# Coordination Sequence:
#
# PCOD9237193 Si02
#       5
#     2   2   4   4   2
#     4  12  28  50  78 124 166 210 268 330 398 526
#     4  12  28  52  78 122 168 212 266 334 392 528
#     4  12  28  46  82 118 160 214 260 328 415 482
#     4  11  28  48  82 111 159 213 271 343 410 465
#     4  10  28  54  74 118 154 206 292 344 392 482
#
# _framework density 27.878636
#
# number of rings (size 3 to 8) (size 9 to 14) (size 15 to 20)
#    0.000    0.571    2.857    1.714    8.000    6.857 
#    0.000    0.000    0.000    0.000    0.000    0.000 
#    0.000    0.000    0.000    0.000    0.000    0.000 
#
# Total GULP energy -78227.274229 kJ/mol
# GULP energy per Si atom -5587.662445 kJ/mol
# Density = 2.781518 g / cm^3
# Si number density = 27.878636 Si / 1000 Ang^3
#
#
#
# Elastic Constant Matrix: (Units=GPa)
#
#
# Indices 1 2 3 4 5 6 
#
# 1 131.3717 9.0182 24.5534 0.0000 -1.7808 0.0000
# 2 9.0182 145.2418 49.0354 0.0000 2.1793 0.0000
# 3 24.5534 49.0354 184.1058 0.0000 13.4313 0.0000
# 4 0.0000 0.0000 0.0000 71.3592 0.0000 17.0940
# 5 -1.7808 2.1793 13.4313 0.0000 41.8922 0.0000
# 6 0.0000 0.0000 0.0000 17.0940 0.0000 35.5160
#
#
#
# Elastic Compliance Matrix: (Units=1/GPa)
#
#
# Indices 1 2 3 4 5 6 
#
# 1 0.007828 -0.000140 -0.001056 0.000000 0.000679 0.000000
# 2 -0.000140 0.007571 -0.002016 0.000000 0.000247 0.000000
# 3 -0.001056 -0.002016 0.006251 0.000000 -0.001944 0.000000
# 4 0.000000 0.000000 0.000000 0.015840 0.000000 -0.007624
# 5 0.000679 0.000247 -0.001944 0.000000 0.024510 0.000000
# 6 0.000000 0.000000 0.000000 -0.007624 0.000000 0.031826
#
#
# Mechanical properties :
#
#
# Convention : Reuss Voigt Hill
#
# Bulk Modulus (GPa) = 65.67430 69.54815 67.61122
# Shear Modulus (GPa) = 47.47225 54.96098 51.21662
#
# Velocity S-wave (km/s) = 4.13100 4.44490 4.29082
# Velocity P-wave (km/s) = 6.80896 7.16546 6.98948
#
# Compressibility (1/GPa) = 0.01522666
#
# Stress axis : x y z
#
# Youngs Moduli (GPa) = 127.74325 132.09029 159.96768
#
# Poissons Ratio (x) = 0.01844 0.16898
# Poissons Ratio (y) = 0.01783 0.32245
# Poissons Ratio (z) = 0.13494 0.26626
#
# Static dielectric constant tensor:
#      x y z
#    x 2.091490 0.000000 0.107640 
#    y 0.000000 1.959380 0.000000 
#    z 0.107640 0.000000 2.098250 
# 
# From -- ./inp_files/14126.got.cif
#   From: 2010.05.17/outbox.cif.g08.bks.cpg/sg13_8_cif.got.tgz:14126.got - 2010.06.03 16:44:36.
