data_PCOD9237105
_publ_section_title
;
Structure prediction by ZEFSAII (Michael W. Deem and Ramdas Pophale) SiO2 
 PCOD9237105
Probable space group: P 2/C
;
_chemical_formula_sum "Si O2"
_cell_formula_units_Z 28
_cell_length_a 14.666344
_cell_length_b 5.335152
_cell_length_c 26.983430
_cell_angle_alpha 90.000000
_cell_angle_beta 139.881352
_cell_angle_gamma 90.000000
_cell_volume 1360.513490
_symmetry_space_group_name_H-M "P 2/C"
_symmetry_group_IT_number 13
_symmetry_cell_setting 'monoclinic'
loop_
_space_group_symop_operation_xyz
x,y,z
-x,y,1/2-z
-x,-y,-z
x,-y,1/2+z
loop_
_atom_site_type_symbol
_atom_site_label
_atom_site_fract_x
_atom_site_fract_y
_atom_site_fract_z
Si Si1 0.167890 0.645113 0.772304
Si Si2 0.100677 0.170270 0.600847
Si Si3 0.500000 0.053721 0.250000
Si Si4 0.287192 0.818402 0.086713
Si Si5 0.000000 0.964216 0.250000
Si Si6 0.779243 0.689968 0.993315
Si Si7 0.147929 0.417870 0.868054
Si Si8 0.751160 0.673418 0.799682
O O1 0.211231 0.548863 0.845026
O O2 0.267402 0.636063 0.766911
O O3 0.015911 0.514077 0.696568
O O4 0.110904 0.920033 0.757720
O O5 0.146546 0.143517 0.562428
O O6 0.196348 0.405303 0.658858
O O7 0.943196 0.262763 0.546931
O O8 0.138379 0.904070 0.642938
O O9 0.387738 0.228554 0.231052
O O10 0.416919 0.881441 0.176587
O O11 0.283514 0.535937 0.065438
O O12 0.288386 0.038419 0.045891
O O13 0.885042 0.857653 0.164083
O O14 0.775834 0.590712 0.048317
#
# Coordination Sequence:
#
# PCOD9237105 Si02
#       8
#     4   4   2   4   2   4   4   4
#     4   9  18  32  54  89 118 164 184 241 296 357
#     4  11  22  38  60  93 123 151 198 250 316 371
#     4  10  26  48  60  84 114 166 224 244 282 360
#     4  11  25  39  61  83 120 165 202 252 297 352
#     4   8  16  30  54  82 126 154 182 230 300 370
#     4  12  22  37  62  93 125 156 186 253 321 362
#     4   9  19  31  54  88 129 147 194 230 307 379
#     4  11  22  38  66  85 123 162 203 252 287 349
#
# _framework density 20.580465
#
# number of rings (size 3 to 8) (size 9 to 14) (size 15 to 20)
#    0.000    2.000    1.429    4.286    6.000    5.143 
#    0.000    0.000    0.000    1.714    0.000    0.000 
#    0.000    0.000    0.000    0.000    0.000    0.000 
#
# Total GULP energy -155887.242426 kJ/mol
# GULP energy per Si atom -5567.401515 kJ/mol
# Density = 2.053362 g / cm^3
# Si number density = 20.580465 Si / 1000 Ang^3
#
#
#
# Elastic Constant Matrix: (Units=GPa)
#
#
# Indices 1 2 3 4 5 6 
#
# 1 68.8468 15.0001 31.0605 0.0000 -25.9280 0.0000
# 2 15.0001 64.9312 12.8416 0.0000 -8.0301 0.0000
# 3 31.0605 12.8416 71.3959 0.0000 -13.6206 0.0000
# 4 0.0000 0.0000 0.0000 33.7165 0.0000 -14.8548
# 5 -25.9280 -8.0301 -13.6206 0.0000 34.1152 0.0000
# 6 0.0000 0.0000 0.0000 -14.8548 0.0000 22.5931
#
#
#
# Elastic Compliance Matrix: (Units=1/GPa)
#
#
# Indices 1 2 3 4 5 6 
#
# 1 0.023764 -0.002264 -0.007131 0.000000 0.014681 0.000000
# 2 -0.002264 0.016441 -0.001691 0.000000 0.001474 0.000000
# 3 -0.007131 -0.001691 0.017647 0.000000 0.001228 0.000000
# 4 0.000000 0.000000 0.000000 0.041754 0.000000 0.027453
# 5 0.014681 0.001474 0.001228 0.000000 0.041308 0.000000
# 6 0.000000 0.000000 0.000000 0.027453 0.000000 0.062311
#
#
# Mechanical properties :
#
#
# Convention : Reuss Voigt Hill
#
# Bulk Modulus (GPa) = 28.02614 35.88649 31.95631
# Shear Modulus (GPa) = 21.07126 27.83642 24.45384
#
# Velocity S-wave (km/s) = 3.20323 3.68171 3.45078
# Velocity P-wave (km/s) = 5.22765 5.96225 5.60699
#
# Compressibility (1/GPa) = 0.03568097
#
# Stress axis : x y z
#
# Youngs Moduli (GPa) = 42.07996 60.82481 56.66693
#
# Poissons Ratio (x) = 0.13771 0.40406
# Poissons Ratio (y) = 0.09527 0.09582
# Poissons Ratio (z) = 0.30005 0.10285
#
# Static dielectric constant tensor:
#      x y z
#    x 1.706970 0.000000 -0.002680 
#    y 0.000000 1.782840 0.000000 
#    z -0.002680 0.000000 1.718370 
# 
# From -- ./inp_files/92666.got.cif
#   From: 2010.05.17/outbox.cif.g08.bks.cpg/sg13_47_cif.got.tgz:92666.got - 2010.06.03 16:44:36.
