data_PCOD9237089
_publ_section_title
;
Structure prediction by ZEFSAII (Michael W. Deem and Ramdas Pophale) SiO2 
 PCOD9237089
Probable space group: P 2/C
;
_chemical_formula_sum "Si O2"
_cell_formula_units_Z 24
_cell_length_a 23.286828
_cell_length_b 6.126741
_cell_length_c 15.785847
_cell_angle_alpha 90.000000
_cell_angle_beta 29.184523
_cell_angle_gamma 90.000000
_cell_volume 1098.228423
_symmetry_space_group_name_H-M "P 2/C"
_symmetry_group_IT_number 13
_symmetry_cell_setting 'monoclinic'
loop_
_space_group_symop_operation_xyz
x,y,z
-x,y,1/2-z
-x,-y,-z
x,-y,1/2+z
loop_
_atom_site_type_symbol
_atom_site_label
_atom_site_fract_x
_atom_site_fract_y
_atom_site_fract_z
Si Si1 0.726556 0.601190 0.901557
Si Si2 0.041294 0.621807 0.359967
Si Si3 0.593112 0.055666 0.260735
Si Si4 0.567611 0.306321 0.459710
Si Si5 0.500000 0.611928 0.750000
Si Si6 0.160150 0.969496 0.645581
Si Si7 0.000000 0.349700 0.250000
O O1 0.819816 0.423632 0.809744
O O2 0.678058 0.603242 0.869510
O O3 0.790122 0.827250 0.840625
O O4 0.612307 0.542583 0.102498
O O5 0.000000 0.500000 0.500000
O O6 0.981390 0.501047 0.356976
O O7 0.054105 0.876394 0.316890
O O8 0.611428 0.141267 0.331849
O O9 0.510615 0.226027 0.316164
O O10 0.521109 0.829839 0.365097
O O11 0.719072 0.056118 0.052103
O O12 0.500000 0.500000 0.500000
O O13 0.105063 0.805829 0.646424
#
# Coordination Sequence:
#
# PCOD9237089 Si02
#       7
#     4   4   4   4   2   4   2
#     4  11  24  40  68  97 139 185 234 296 356 438
#     4  11  26  47  72 104 141 191 250 313 378 445
#     4  11  24  39  68  96 140 187 232 294 362 434
#     4  11  24  40  60 101 143 182 235 291 354 431
#     4  12  20  44  66 100 144 188 244 290 362 454
#     4  11  24  45  70 101 137 190 247 298 372 437
#     4  10  26  46  72 100 138 184 246 310 372 444
#
# _framework density 21.853376000000001
#
# number of rings (size 3 to 8) (size 9 to 14) (size 15 to 20)
#    0.000    1.000    3.333    2.500    0.000    8.000 
#    0.000    0.000    0.000    0.000    0.000    0.000 
#    0.000    0.000    0.000    0.000    0.000    0.000 
#
# Total GULP energy -133765.918105 kJ/mol
# GULP energy per Si atom -5573.579921 kJ/mol
# Density = 2.180364 g / cm^3
# Si number density = 21.853376 Si / 1000 Ang^3
#
#
#
# Elastic Constant Matrix: (Units=GPa)
#
#
# Indices 1 2 3 4 5 6 
#
# 1 143.7687 30.1018 2.2976 0.0000 -1.1238 0.0000
# 2 30.1018 78.2154 4.6404 0.0000 1.5174 0.0000
# 3 2.2976 4.6404 44.5062 0.0000 -0.9960 0.0000
# 4 0.0000 0.0000 0.0000 28.5940 0.0000 8.3000
# 5 -1.1238 1.5174 -0.9960 0.0000 33.2630 0.0000
# 6 0.0000 0.0000 0.0000 8.3000 0.0000 24.2705
#
#
#
# Elastic Compliance Matrix: (Units=1/GPa)
#
#
# Indices 1 2 3 4 5 6 
#
# 1 0.007571 -0.002916 -0.000078 0.000000 0.000386 0.000000
# 2 -0.002916 0.014001 -0.001327 0.000000 -0.000777 0.000000
# 3 -0.000078 -0.001327 0.022628 0.000000 0.000735 0.000000
# 4 0.000000 0.000000 0.000000 0.038826 0.000000 -0.013278
# 5 0.000386 -0.000777 0.000735 0.000000 0.030134 0.000000
# 6 0.000000 0.000000 0.000000 -0.013278 0.000000 0.045743
#
#
# Mechanical properties :
#
#
# Convention : Reuss Voigt Hill
#
# Bulk Modulus (GPa) = 28.12378 37.84111 32.98244
# Shear Modulus (GPa) = 27.87102 32.52219 30.19661
#
# Velocity S-wave (km/s) = 3.57510 3.86190 3.72127
# Velocity P-wave (km/s) = 5.47166 6.10240 5.79561
#
# Compressibility (1/GPa) = 0.03555710
#
# Stress axis : x y z
#
# Youngs Moduli (GPa) = 132.09131 71.42137 44.19382
#
# Poissons Ratio (x) = 0.20830 0.00345
# Poissons Ratio (y) = 0.38524 0.05863
# Poissons Ratio (z) = 0.01031 0.09475
#
# Static dielectric constant tensor:
#      x y z
#    x 1.790050 0.000000 0.059400 
#    y 0.000000 1.908100 0.000000 
#    z 0.059400 0.000000 1.831640 
# 
# From -- ./inp_files/70895.got.cif
#   From: 2010.05.17/outbox.cif.g08.bks.cpg/sg13_36_cif.got.tgz:70895.got - 2010.06.03 16:44:36.
