data_PCOD9237085
_publ_section_title
;
Structure prediction by ZEFSAII (Michael W. Deem and Ramdas Pophale) SiO2 
 PCOD9237085
Probable space group: P 2/C
;
_chemical_formula_sum "Si O2"
_cell_formula_units_Z 20
_cell_length_a 11.945758
_cell_length_b 5.144278
_cell_length_c 25.760911
_cell_angle_alpha 90.000000
_cell_angle_beta 150.588188
_cell_angle_gamma 90.000000
_cell_volume 777.417962
_symmetry_space_group_name_H-M "P 2/C"
_symmetry_group_IT_number 13
_symmetry_cell_setting 'monoclinic'
loop_
_space_group_symop_operation_xyz
x,y,z
-x,y,1/2-z
-x,-y,-z
x,-y,1/2+z
loop_
_atom_site_type_symbol
_atom_site_label
_atom_site_fract_x
_atom_site_fract_y
_atom_site_fract_z
Si Si1 0.592500 0.574372 0.453212
Si Si2 0.062053 0.531039 0.085189
Si Si3 0.784305 0.807234 0.683768
Si Si4 0.500000 0.000000 0.500000
Si Si5 0.500000 0.178330 0.250000
Si Si6 0.677202 0.890303 0.238203
O O1 0.469890 0.319077 0.429321
O O2 0.615509 0.799239 0.503954
O O3 0.417044 0.662972 0.337012
O O4 0.834789 0.526783 0.525521
O O5 0.284633 0.349336 0.178618
O O6 0.153310 0.795414 0.148594
O O7 0.000000 0.500000 0.000000
O O8 0.752785 0.045098 0.631433
O O9 0.000000 0.652932 0.750000
O O10 0.783266 0.901355 0.741799
O O11 0.463310 0.006803 0.183615
#
# Coordination Sequence:
#
# PCOD9237085 Si02
#       6
#     4   4   4   2   2   4
#     4  11  26  48  75 110 152 199 259 317 385 468
#     4  12  26  46  77 110 150 199 254 324 389 473
#     4  11  26  46  74 110 152 202 251 317 375 460
#     4  10  26  46  70 110 146 204 252 304 386 454
#     4  12  26  48  70 106 146 190 250 314 390 454
#     4  11  26  46  72 110 150 195 256 313 386 457
#
# _framework density 25.726186999999999
#
# number of rings (size 3 to 8) (size 9 to 14) (size 15 to 20)
#    0.000    0.800    0.000    6.000    8.400    8.000 
#    0.000    0.000    0.000    0.000    0.000    0.000 
#    0.000    0.000    0.000    0.000    0.000    0.000 
#
# Total GULP energy -111443.382383 kJ/mol
# GULP energy per Si atom -5572.169119 kJ/mol
# Density = 2.566763 g / cm^3
# Si number density = 25.726187 Si / 1000 Ang^3
#
#
#
# Elastic Constant Matrix: (Units=GPa)
#
#
# Indices 1 2 3 4 5 6 
#
# 1 222.1657 59.8407 83.0508 0.0000 13.7727 0.0000
# 2 59.8407 75.3344 32.7570 0.0000 10.6063 0.0000
# 3 83.0508 32.7570 111.7264 0.0000 -1.0043 0.0000
# 4 0.0000 0.0000 0.0000 17.6230 0.0000 -4.1747
# 5 13.7727 10.6063 -1.0043 0.0000 66.7150 0.0000
# 6 0.0000 0.0000 0.0000 -4.1747 0.0000 27.6532
#
#
#
# Elastic Compliance Matrix: (Units=1/GPa)
#
#
# Indices 1 2 3 4 5 6 
#
# 1 0.007137 -0.003696 -0.004230 0.000000 -0.000949 0.000000
# 2 -0.003696 0.017552 -0.002417 0.000000 -0.002064 0.000000
# 3 -0.004230 -0.002417 0.012816 0.000000 0.001450 0.000000
# 4 0.000000 0.000000 0.000000 0.058849 0.000000 0.008884
# 5 -0.000949 -0.002064 0.001450 0.000000 0.015535 0.000000
# 6 0.000000 0.000000 0.000000 0.008884 0.000000 0.037503
#
#
# Mechanical properties :
#
#
# Convention : Reuss Voigt Hill
#
# Bulk Modulus (GPa) = 59.45772 84.50258 71.98015
# Shear Modulus (GPa) = 28.46015 37.97010 33.21513
#
# Velocity S-wave (km/s) = 3.32967 3.84595 3.59709
# Velocity P-wave (km/s) = 6.15989 7.25535 6.72994
#
# Compressibility (1/GPa) = 0.01681867
#
# Stress axis : x y z
#
# Youngs Moduli (GPa) = 140.11875 56.97485 78.02483
#
# Poissons Ratio (x) = 0.21058 0.33004
# Poissons Ratio (y) = 0.51789 0.18859
# Poissons Ratio (z) = 0.59270 0.13771
#
# Static dielectric constant tensor:
#      x y z
#    x 1.747790 0.000000 0.263030 
#    y 0.000000 1.640820 0.000000 
#    z 0.263030 0.000000 2.084280 
# 
# From -- ./inp_files/91967.got.cif
#   From: 2010.05.17/outbox.cif.g08.bks.cpg/sg13_46_cif.got.tgz:91967.got - 2010.06.03 16:44:36.
