data_PCOD9237342
_publ_section_title
;
Structure prediction by ZEFSAII (Michael W. Deem and Ramdas Pophale) SiO2 
 PCOD9237342
Probable space group: P 2/C
;
_chemical_formula_sum "Si O2"
_cell_formula_units_Z 30
_cell_length_a 13.853699
_cell_length_b 7.943984
_cell_length_c 12.580400
_cell_angle_alpha 90.000000
_cell_angle_beta 74.011539
_cell_angle_gamma 90.000000
_cell_volume 1330.960803
_symmetry_space_group_name_H-M "P 2/C"
_symmetry_group_IT_number 13
_symmetry_cell_setting 'monoclinic'
loop_
_space_group_symop_operation_xyz
x,y,z
-x,y,1/2-z
-x,-y,-z
x,-y,1/2+z
loop_
_atom_site_type_symbol
_atom_site_label
_atom_site_fract_x
_atom_site_fract_y
_atom_site_fract_z
Si Si1 0.611028 0.811916 0.000414
Si Si2 0.944650 0.411324 0.379892
Si Si3 0.000000 0.982840 0.750000
Si Si4 0.201028 0.253460 0.193505
Si Si5 0.606498 0.792686 0.464508
Si Si6 0.378917 0.885868 0.279684
Si Si7 0.966308 0.215236 0.959310
Si Si8 0.749966 0.797344 0.601611
O O1 0.694236 0.800983 0.886252
O O2 0.595680 0.014368 0.008791
O O3 0.506794 0.724558 0.001184
O O4 0.640643 0.767074 0.112150
O O5 0.830602 0.395000 0.380302
O O6 0.961285 0.594748 0.418926
O O7 0.000000 0.401495 0.250000
O O8 0.975283 0.257361 0.448464
O O9 0.008327 0.098690 0.853364
O O10 0.891475 0.882353 0.783178
O O11 0.215363 0.315783 0.309367
O O12 0.640067 0.806619 0.330927
O O13 0.681957 0.719714 0.529177
O O14 0.500000 0.924998 0.250000
O O15 0.308718 0.048274 0.323065
O O16 0.855086 0.146645 0.018309
#
# Coordination Sequence:
#
# PCOD9237342 Si02
#       8
#     4   4   2   4   4   4   4   4
#     4   9  18  31  51  83 119 166 188 234 290 357
#     4  11  23  49  62  79 115 169 201 241 298 372
#     4  12  24  38  60  96 120 146 192 260 298 348
#     4  12  23  38  61  90 128 152 196 250 306 349
#     4   9  17  31  51  83 129 153 193 232 296 353
#     4   9  17  31  51  82 129 163 188 233 296 357
#     4  11  25  42  66  82 116 159 205 246 298 358
#     4  11  21  33  56  89 117 156 198 240 290 356
#
# _framework density 22.540108
#
# number of rings (size 3 to 8) (size 9 to 14) (size 15 to 20)
#    0.000    1.600    4.000    2.400    0.000    4.267 
#    0.000    0.000    0.000    0.800    0.000    0.000 
#    0.000    0.000    0.000    0.000    0.000    0.000 
#
# Total GULP energy -167078.775656 kJ/mol
# GULP energy per Si atom -5569.292522 kJ/mol
# Density = 2.248881 g / cm^3
# Si number density = 22.540108 Si / 1000 Ang^3
#
#
#
# Elastic Constant Matrix: (Units=GPa)
#
#
# Indices 1 2 3 4 5 6 
#
# 1 95.1000 13.3874 78.9278 0.0000 27.7734 0.0000
# 2 13.3874 45.5455 25.1872 0.0000 5.6810 0.0000
# 3 78.9278 25.1872 186.7526 0.0000 21.5583 0.0000
# 4 0.0000 0.0000 0.0000 10.6634 0.0000 6.9168
# 5 27.7734 5.6810 21.5583 0.0000 55.1423 0.0000
# 6 0.0000 0.0000 0.0000 6.9168 0.0000 8.9149
#
#
#
# Elastic Compliance Matrix: (Units=1/GPa)
#
#
# Indices 1 2 3 4 5 6 
#
# 1 0.018164 -0.000761 -0.006835 0.000000 -0.006398 0.000000
# 2 -0.000761 0.023840 -0.002780 0.000000 -0.000986 0.000000
# 3 -0.006835 -0.002780 0.008575 0.000000 0.000377 0.000000
# 4 0.000000 0.000000 0.000000 0.188788 0.000000 -0.146473
# 5 -0.006398 -0.000986 0.000377 0.000000 0.021312 0.000000
# 6 0.000000 0.000000 0.000000 -0.146473 0.000000 0.225814
#
#
# Mechanical properties :
#
#
# Convention : Reuss Voigt Hill
#
# Bulk Modulus (GPa) = 33.52737 62.48922 48.00830
# Shear Modulus (GPa) = 9.66769 28.93719 19.30244
#
# Velocity S-wave (km/s) = 2.07326 3.58691 2.92954
# Velocity P-wave (km/s) = 4.54291 6.70361 5.72610
#
# Compressibility (1/GPa) = 0.02982638
#
# Stress axis : x y z
#
# Youngs Moduli (GPa) = 55.05443 41.94631 116.61806
#
# Poissons Ratio (x) = 0.03192 0.79714
# Poissons Ratio (y) = 0.04189 0.32418
# Poissons Ratio (z) = 0.37632 0.11661
#
# Static dielectric constant tensor:
#      x y z
#    x 2.103490 0.000000 0.009180 
#    y 0.000000 1.879340 0.000000 
#    z 0.009180 0.000000 1.896460 
# 
# From -- ./inp_files/36411.got.cif
#   From: 2010.05.17/outbox.cif.g08.bks.cpg/sg13_19_cif.got.tgz:36411.got - 2010.06.03 16:44:36.
