data_PCOD9237778
_publ_section_title
;
Structure prediction by ZEFSAII (Michael W. Deem and Ramdas Pophale) SiO2 
 PCOD9237778
Probable space group: P 2/C
;
_chemical_formula_sum "Si O2"
_cell_formula_units_Z 20
_cell_length_a 8.907467
_cell_length_b 22.274168
_cell_length_c 9.779184
_cell_angle_alpha 90.000000
_cell_angle_beta 149.292144
_cell_angle_gamma 90.000000
_cell_volume 990.811094
_symmetry_space_group_name_H-M "P 2/C"
_symmetry_group_IT_number 13
_symmetry_cell_setting 'monoclinic'
loop_
_space_group_symop_operation_xyz
x,y,z
-x,y,1/2-z
-x,-y,-z
x,-y,1/2+z
loop_
_atom_site_type_symbol
_atom_site_label
_atom_site_fract_x
_atom_site_fract_y
_atom_site_fract_z
Si Si1 0.678794 0.163283 0.533844
Si Si2 0.828379 0.539887 0.974379
Si Si3 0.386695 0.731592 0.316101
Si Si4 0.187047 0.970553 0.265622
Si Si5 0.735625 0.677295 0.817402
O O1 0.545799 0.208950 0.539932
O O2 0.749221 0.100357 0.665319
O O3 0.000000 0.188600 0.750000
O O4 0.500000 0.154570 0.250000
O O5 0.500000 0.517578 0.750000
O O6 0.805913 0.608480 0.905760
O O7 0.000000 0.540152 0.250000
O O8 0.000000 0.500000 0.000000
O O9 0.500000 0.737559 0.250000
O O10 0.569238 0.681844 0.542651
O O11 0.040790 0.714266 0.050951
O O12 0.000000 0.987938 0.250000
O O13 0.500000 0.000000 0.500000
O O14 0.000000 0.000000 0.000000
O O15 0.500000 0.698473 0.750000
#
# Coordination Sequence:
#
# PCOD9237778 Si02
#       5
#     4   4   4   4   4
#     4  11  23  42  65  89 124 170 210 246 308 387
#     4  11  24  42  65  94 126 166 213 259 313 374
#     4  12  25  40  64  98 126 158 209 270 318 357
#     4  11  23  41  64  92 124 162 206 251 305 364
#     4  11  23  43  65  89 126 172 210 248 313 390
#
# _framework density 20.185483999999999
#
# number of rings (size 3 to 8) (size 9 to 14) (size 15 to 20)
#    0.000    0.800    0.000   10.200    0.000    4.000 
#    0.000    0.000    0.000    0.000    0.000    0.000 
#    0.000    0.000    0.000    0.000    0.000    0.000 
#
# Total GULP energy -111718.214950 kJ/mol
# GULP energy per Si atom -5585.910747 kJ/mol
# Density = 2.013954 g / cm^3
# Si number density = 20.185484 Si / 1000 Ang^3
#
#
#
# Elastic Constant Matrix: (Units=GPa)
#
#
# Indices 1 2 3 4 5 6 
#
# 1 175.2503 93.4321 84.5109 0.0000 -10.1644 0.0000
# 2 93.4321 83.6483 58.8152 0.0000 -12.9919 0.0000
# 3 84.5109 58.8152 188.5782 0.0000 -8.7606 0.0000
# 4 0.0000 0.0000 0.0000 39.9868 0.0000 -5.3396
# 5 -10.1644 -12.9919 -8.7606 0.0000 51.2559 0.0000
# 6 0.0000 0.0000 0.0000 -5.3396 0.0000 37.8722
#
#
#
# Elastic Compliance Matrix: (Units=1/GPa)
#
#
# Indices 1 2 3 4 5 6 
#
# 1 0.014682 -0.015281 -0.001873 0.000000 -0.001282 0.000000
# 2 -0.015281 0.031719 -0.002834 0.000000 0.004525 0.000000
# 3 -0.001873 -0.002834 0.007032 0.000000 0.000112 0.000000
# 4 0.000000 0.000000 0.000000 0.025488 0.000000 0.003594
# 5 -0.001282 0.004525 0.000112 0.000000 0.020422 0.000000
# 6 0.000000 0.000000 0.000000 0.003594 0.000000 0.026911
#
#
# Mechanical properties :
#
#
# Convention : Reuss Voigt Hill
#
# Bulk Modulus (GPa) = 74.32162 102.33257 88.32710
# Shear Modulus (GPa) = 29.28816 39.87086 34.57951
#
# Velocity S-wave (km/s) = 3.81327 4.44917 4.14344
# Velocity P-wave (km/s) = 7.50249 8.78633 8.16967
#
# Compressibility (1/GPa) = 0.01345503
#
# Stress axis : x y z
#
# Youngs Moduli (GPa) = 68.10962 31.52646 142.21685
#
# Poissons Ratio (x) = 0.48177 0.26641
# Poissons Ratio (y) = 1.04082 0.40308
# Poissons Ratio (z) = 0.12759 0.08936
#
# Static dielectric constant tensor:
#      x y z
#    x 1.704250 0.000000 0.015080 
#    y 0.000000 1.759040 0.000000 
#    z 0.015080 0.000000 1.711050 
# 
# From -- ./inp_files/13854.got.cif
#   From: 2010.05.17/outbox.cif.g08.bks.cpg/sg13_7_cif.got.tgz:13854.got - 2010.06.03 16:44:36.
