data_PCOD9237080
_publ_section_title
;
Structure prediction by ZEFSAII (Michael W. Deem and Ramdas Pophale) SiO2 
 PCOD9237080
Probable space group: P 2/C
;
_chemical_formula_sum "Si O2"
_cell_formula_units_Z 18
_cell_length_a 29.737604
_cell_length_b 5.450448
_cell_length_c 29.321305
_cell_angle_alpha 90.000000
_cell_angle_beta 9.598410
_cell_angle_gamma 90.000000
_cell_volume 792.437234
_symmetry_space_group_name_H-M "P 2/C"
_symmetry_group_IT_number 13
_symmetry_cell_setting 'monoclinic'
loop_
_space_group_symop_operation_xyz
x,y,z
-x,y,1/2-z
-x,-y,-z
x,-y,1/2+z
loop_
_atom_site_type_symbol
_atom_site_label
_atom_site_fract_x
_atom_site_fract_y
_atom_site_fract_z
Si Si1 0.000004 0.750000 0.969931
Si Si2 0.263383 0.421013 0.560222
Si Si3 0.499997 0.750003 0.096517
Si Si4 0.500000 0.249997 0.750000
Si Si5 0.263383 0.921006 0.913012
O O1 0.252961 0.801741 0.683971
O O2 0.000000 0.500000 0.000000
O O3 0.747049 0.698261 0.189882
O O4 0.000000 0.000000 0.000000
O O5 0.374103 0.541759 0.496254
O O6 0.286225 0.626149 0.498926
O O7 0.499997 0.250000 0.306484
O O8 0.999998 0.250006 0.828791
O O9 0.374100 0.958247 0.255543
O O10 0.286223 0.126143 0.928626
#
# Coordination Sequence:
#
# PCOD9237080 Si02
#       5
#     4   4   4   2   4
#     4  12  28  48  78 113 154 199 252 320 388 464
#     4  11  25  45  75 103 148 195 246 311 375 457
#     4  11  26  47  74 110 148 194 254 305 384 459
#     4  10  26  46  68 116 140 194 254 310 384 454
#     4  11  25  45  75 103 148 195 246 311 375 457
#
# _framework density 22.714732999999999
#
# number of rings (size 3 to 8) (size 9 to 14) (size 15 to 20)
#    0.000    0.889    0.000    4.667    9.333   10.667 
#    0.000    0.000    0.000    0.000    0.000    0.000 
#    0.000    0.000    0.000    0.000    0.000    0.000 
#
# Total GULP energy -100324.502100 kJ/mol
# GULP energy per Si atom -5573.583450 kJ/mol
# Density = 2.266303 g / cm^3
# Si number density = 22.714733 Si / 1000 Ang^3
#
#
#
# Elastic Constant Matrix: (Units=GPa)
#
#
# Indices 1 2 3 4 5 6 
#
# 1 190.2940 80.5372 86.5317 0.0000 5.5189 0.0000
# 2 80.5372 115.0904 64.7476 0.0000 2.1039 0.0000
# 3 86.5317 64.7476 216.1475 0.0000 -8.9660 0.0000
# 4 0.0000 0.0000 0.0000 50.1788 0.0000 -18.8449
# 5 5.5189 2.1039 -8.9660 0.0000 33.1047 0.0000
# 6 0.0000 0.0000 0.0000 -18.8449 0.0000 -91.2241
#
#
#
# Elastic Compliance Matrix: (Units=1/GPa)
#
#
# Indices 1 2 3 4 5 6 
#
# 1 0.008115 -0.004552 -0.001951 0.000000 -0.001592 0.000000
# 2 -0.004552 0.013080 -0.002123 0.000000 -0.000647 0.000000
# 3 -0.001951 -0.002123 0.006131 0.000000 0.002121 0.000000
# 4 0.000000 0.000000 0.000000 0.018494 0.000000 -0.003820
# 5 -0.001592 -0.000647 0.002121 0.000000 0.031088 0.000000
# 6 0.000000 0.000000 0.000000 -0.003820 0.000000 -0.010173
#
#
# Mechanical properties :
#
#
# Convention : Reuss Voigt Hill
#
# Bulk Modulus (GPa) = 99.25663 109.46278 104.35971
# Shear Modulus (GPa) = 57.24383 17.72625 37.48504
#
# Velocity S-wave (km/s) = 5.02552 2.79657 4.06674
# Velocity P-wave (km/s) = 8.80150 7.66306 8.25194
#
# Compressibility (1/GPa) = 0.01007489
#
# Stress axis : x y z
#
# Youngs Moduli (GPa) = 123.23027 76.45202 163.09260
#
# Poissons Ratio (x) = 0.34799 0.31823
# Poissons Ratio (y) = 0.56091 0.34621
# Poissons Ratio (z) = 0.24045 0.16229
#
# Static dielectric constant tensor:
#      x y z
#    x 1.875810 0.000000 0.012720 
#    y 0.000000 1.801630 0.000000 
#    z 0.012720 0.000000 1.780340 
# 
# From -- ./inp_files/97919.got.cif
#   From: 2010.05.17/outbox.cif.g08.bks.cpg/sg13_49_cif.got.tgz:97919.got - 2010.06.03 16:44:36.
