data_PCOD9237075
_publ_section_title
;
Structure prediction by ZEFSAII (Michael W. Deem and Ramdas Pophale) SiO2 
 PCOD9237075
Probable space group: P 2/C
;
_chemical_formula_sum "Si O2"
_cell_formula_units_Z 20
_cell_length_a 10.776578
_cell_length_b 4.938345
_cell_length_c 21.630316
_cell_angle_alpha 90.000000
_cell_angle_beta 42.941318
_cell_angle_gamma 90.000000
_cell_volume 784.207545
_symmetry_space_group_name_H-M "P 2/C"
_symmetry_group_IT_number 13
_symmetry_cell_setting 'monoclinic'
loop_
_space_group_symop_operation_xyz
x,y,z
-x,y,1/2-z
-x,-y,-z
x,-y,1/2+z
loop_
_atom_site_type_symbol
_atom_site_label
_atom_site_fract_x
_atom_site_fract_y
_atom_site_fract_z
Si Si1 0.796899 0.266005 0.808956
Si Si2 0.449469 0.922292 0.921855
Si Si3 0.852683 0.434542 0.160589
Si Si4 0.200637 0.942944 0.397788
Si Si5 0.269601 0.417940 0.040884
O O1 0.798762 0.446313 0.746363
O O2 0.749427 0.454314 0.884767
O O3 0.000000 0.157867 0.750000
O O4 0.653659 0.027206 0.851374
O O5 0.353803 0.993069 0.891963
O O6 0.404763 0.613954 0.954020
O O7 0.341080 0.113403 0.010585
O O8 0.790137 0.639082 0.130022
O O9 0.072168 0.429155 0.081601
O O10 0.783632 0.140529 0.166865
O O11 0.000000 0.000000 0.500000
#
# Coordination Sequence:
#
# PCOD9237075 Si02
#       5
#     4   4   4   4   4
#     4  10  26  46  68 101 145 185 235 289 355 409
#     4  12  24  42  71 102 134 184 234 285 341 417
#     4  11  23  43  68 102 137 183 221 295 352 410
#     4  12  22  41  72 100 138 175 238 282 348 420
#     4  11  22  43  71 100 136 179 235 284 341 420
#
# _framework density 25.503449
#
# number of rings (size 3 to 8) (size 9 to 14) (size 15 to 20)
#    0.000    0.800    4.000    3.000    0.000    4.000 
#    0.000   11.000    0.000    0.000    0.000    0.000 
#    0.000    0.000    0.000    0.000    0.000    0.000 
#
# Total GULP energy -112371.293390 kJ/mol
# GULP energy per Si atom -5618.564669 kJ/mol
# Density = 2.544540 g / cm^3
# Si number density = 25.503449 Si / 1000 Ang^3
#
#
#
# Elastic Constant Matrix: (Units=GPa)
#
#
# Indices 1 2 3 4 5 6 
#
# 1 178.6811 18.8316 58.6348 0.0000 -13.1002 0.0000
# 2 18.8316 85.3853 5.4493 0.0000 -3.6843 0.0000
# 3 58.6348 5.4493 78.0198 0.0000 0.6044 0.0000
# 4 0.0000 0.0000 0.0000 25.1889 0.0000 7.4094
# 5 -13.1002 -3.6843 0.6044 0.0000 36.7454 0.0000
# 6 0.0000 0.0000 0.0000 7.4094 0.0000 47.6577
#
#
#
# Elastic Compliance Matrix: (Units=1/GPa)
#
#
# Indices 1 2 3 4 5 6 
#
# 1 0.007843 -0.001238 -0.005829 0.000000 0.002768 0.000000
# 2 -0.001238 0.012012 0.000086 0.000000 0.000762 0.000000
# 3 -0.005829 0.000086 0.017210 0.000000 -0.002353 0.000000
# 4 0.000000 0.000000 0.000000 0.041603 0.000000 -0.006468
# 5 0.002768 0.000762 -0.002353 0.000000 0.028316 0.000000
# 6 0.000000 0.000000 0.000000 -0.006468 0.000000 0.021989
#
#
# Mechanical properties :
#
#
# Convention : Reuss Voigt Hill
#
# Bulk Modulus (GPa) = 43.28652 56.43527 49.86089
# Shear Modulus (GPa) = 33.19249 39.19645 36.19447
#
# Velocity S-wave (km/s) = 3.61153 3.92459 3.77131
# Velocity P-wave (km/s) = 5.86520 6.53553 6.20941
#
# Compressibility (1/GPa) = 0.02310188
#
# Stress axis : x y z
#
# Youngs Moduli (GPa) = 127.50468 83.24939 58.10466
#
# Poissons Ratio (x) = 0.10309 0.33870
# Poissons Ratio (y) = 0.15789 -0.00498
# Poissons Ratio (z) = 0.74324 -0.00714
#
# Static dielectric constant tensor:
#      x y z
#    x 1.956010 0.000000 0.009780 
#    y 0.000000 1.908670 0.000000 
#    z 0.009780 0.000000 2.042380 
# 
# From -- ./inp_files/85483.got.cif
#   From: 2010.05.17/outbox.cif.g08.bks.cpg/sg13_43_cif.got.tgz:85483.got - 2010.06.03 16:44:36.
