data_PCOD9237552
_publ_section_title
;
Structure prediction by ZEFSAII (Michael W. Deem and Ramdas Pophale) SiO2 
 PCOD9237552
Probable space group: P 2/C
;
_chemical_formula_sum "Si O2"
_cell_formula_units_Z 24
_cell_length_a 15.501548
_cell_length_b 9.453859
_cell_length_c 17.368594
_cell_angle_alpha 90.000000
_cell_angle_beta 150.097996
_cell_angle_gamma 90.000000
_cell_volume 1268.906874
_symmetry_space_group_name_H-M "P 2/C"
_symmetry_group_IT_number 13
_symmetry_cell_setting 'monoclinic'
loop_
_space_group_symop_operation_xyz
x,y,z
-x,y,1/2-z
-x,-y,-z
x,-y,1/2+z
loop_
_atom_site_type_symbol
_atom_site_label
_atom_site_fract_x
_atom_site_fract_y
_atom_site_fract_z
Si Si1 0.481887 0.056457 0.072612
Si Si2 0.138314 0.590596 0.560255
Si Si3 0.141344 0.079354 0.058085
Si Si4 0.817901 0.093714 0.066920
Si Si5 0.691531 0.596006 0.435870
Si Si6 0.520372 0.650055 0.861897
O O1 0.673139 0.062579 0.257078
O O2 0.415959 0.215144 0.041743
O O3 0.500000 0.000000 0.000000
O O4 0.346119 0.957419 0.010929
O O5 0.090432 0.755044 0.509095
O O6 0.183622 0.496933 0.521160
O O7 0.330444 0.608084 0.745133
O O8 0.000000 0.500000 0.500000
O O9 0.165639 0.001489 0.996140
O O10 0.000000 0.000000 0.000000
O O11 0.000000 0.079621 0.250000
O O12 0.780913 0.257221 0.020943
O O13 0.500000 0.624088 0.250000
O O14 0.642494 0.485519 0.464694
O O15 0.500000 0.679250 0.750000
#
# Coordination Sequence:
#
# PCOD9237552 Si02
#       6
#     4   4   4   4   4   4
#     4  11  22  39  61  88 119 154 196 245 294 352
#     4   9  17  31  57  88 115 144 189 240 289 346
#     4  11  22  39  63  90 120 157 194 240 296 354
#     4  12  24  39  58  88 122 157 199 243 288 349
#     4   9  18  36  60  82 108 152 195 238 295 347
#     4   8  17  36  59  82 111 154 194 236 294 350
#
# _framework density 18.913919
#
# number of rings (size 3 to 8) (size 9 to 14) (size 15 to 20)
#    0.000    2.333    0.000    6.500    0.000    2.667 
#    0.000    5.833    0.000    0.000    0.000    0.000 
#    0.000    0.000    0.000    0.000    0.000    0.000 
#
# Total GULP energy -133661.510773 kJ/mol
# GULP energy per Si atom -5569.229616 kJ/mol
# Density = 1.887087 g / cm^3
# Si number density = 18.913919 Si / 1000 Ang^3
#
#
#
# Elastic Constant Matrix: (Units=GPa)
#
#
# Indices 1 2 3 4 5 6 
#
# 1 138.1803 87.1414 43.6266 0.0000 17.6335 0.0000
# 2 87.1414 197.6905 51.8963 0.0000 3.8501 0.0000
# 3 43.6266 51.8963 70.4554 0.0000 3.4297 0.0000
# 4 0.0000 0.0000 0.0000 20.0028 0.0000 15.0830
# 5 17.6335 3.8501 3.4297 0.0000 34.7056 0.0000
# 6 0.0000 0.0000 0.0000 15.0830 0.0000 34.2267
#
#
#
# Elastic Compliance Matrix: (Units=1/GPa)
#
#
# Indices 1 2 3 4 5 6 
#
# 1 0.011678 -0.003986 -0.004047 0.000000 -0.005091 0.000000
# 2 -0.003986 0.007634 -0.003227 0.000000 0.001497 0.000000
# 3 -0.004047 -0.003227 0.019051 0.000000 0.000532 0.000000
# 4 0.000000 0.000000 0.000000 0.074873 0.000000 -0.032995
# 5 -0.005091 0.001497 0.000532 0.000000 0.031182 0.000000
# 6 0.000000 0.000000 0.000000 -0.032995 0.000000 0.043757
#
#
# Mechanical properties :
#
#
# Convention : Reuss Voigt Hill
#
# Bulk Modulus (GPa) = 63.12733 85.73944 74.43339
# Shear Modulus (GPa) = 23.15063 32.69779 27.92421
#
# Velocity S-wave (km/s) = 3.50237 4.16236 3.84654
# Velocity P-wave (km/s) = 7.05720 8.27829 7.69201
#
# Compressibility (1/GPa) = 0.01584100
#
# Stress axis : x y z
#
# Youngs Moduli (GPa) = 85.62912 131.00048 52.49101
#
# Poissons Ratio (x) = 0.52218 0.21245
# Poissons Ratio (y) = 0.34133 0.16941
# Poissons Ratio (z) = 0.34657 0.42279
#
# Static dielectric constant tensor:
#      x y z
#    x 1.663610 0.000000 -0.011250 
#    y 0.000000 1.699550 0.000000 
#    z -0.011250 0.000000 1.652010 
# 
# From -- ./inp_files/68320.got.cif
#   From: 2010.05.17/outbox.cif.g08.bks.cpg/sg13_35_cif.got.tgz:68320.got - 2010.06.03 16:44:36.
