data_PCOD9237738
_publ_section_title
;
Structure prediction by ZEFSAII (Michael W. Deem and Ramdas Pophale) SiO2 
 PCOD9237738
Probable space group: P 2/C
;
_chemical_formula_sum "Si O2"
_cell_formula_units_Z 32
_cell_length_a 11.965542
_cell_length_b 18.753775
_cell_length_c 23.083222
_cell_angle_alpha 90.000000
_cell_angle_beta 19.943789
_cell_angle_gamma 90.000000
_cell_volume 1766.838185
_symmetry_space_group_name_H-M "P 2/C"
_symmetry_group_IT_number 13
_symmetry_cell_setting 'monoclinic'
loop_
_space_group_symop_operation_xyz
x,y,z
-x,y,1/2-z
-x,-y,-z
x,-y,1/2+z
loop_
_atom_site_type_symbol
_atom_site_label
_atom_site_fract_x
_atom_site_fract_y
_atom_site_fract_z
Si Si1 0.428621 0.583580 0.853532
Si Si2 0.607926 0.082045 0.442310
Si Si3 0.544698 0.864273 0.358812
Si Si4 0.681842 0.886423 0.541097
Si Si5 0.613444 0.278190 0.761112
Si Si6 0.716946 0.026251 0.595184
Si Si7 0.347861 0.433785 0.759439
Si Si8 0.603169 0.262803 0.132780
O O1 0.500000 0.586317 0.750000
O O2 0.578943 0.510340 0.804403
O O3 0.536489 0.661765 0.823275
O O4 0.040544 0.574164 0.048027
O O5 0.479724 0.124848 0.560692
O O6 0.453190 0.106657 0.457563
O O7 0.000000 0.086503 0.250000
O O8 0.500000 0.000000 0.500000
O O9 0.487261 0.784880 0.363244
O O10 0.278735 0.917126 0.458696
O O11 0.917749 0.885302 0.157510
O O12 0.535908 0.813205 0.637160
O O13 0.587847 0.954020 0.627116
O O14 0.500000 0.270038 0.750000
O O15 0.523648 0.357856 0.826638
O O16 0.006162 0.271555 0.565366
O O17 0.500000 0.064096 0.750000
O O18 0.000000 0.000000 0.500000
O O19 0.500000 0.437341 0.750000
O O20 0.500000 0.258093 0.250000
#
# Coordination Sequence:
#
# PCOD9237738 Si02
#       8
#     4   4   4   4   4   4   4   4
#     4   9  15  25  43  67 102 138 174 204 248 305
#     4  12  26  42  60  78  99 136 183 228 268 313
#     4  11  23  40  58  77 106 140 179 223 265 313
#     4  11  23  40  58  78 106 139 181 222 266 313
#     4   9  19  32  51  76 107 140 175 213 262 314
#     4  12  24  36  56  82 109 140 172 212 265 321
#     4   9  15  25  42  68 100 139 173 205 247 306
#     4   9  19  33  50  77 107 141 173 215 262 314
#
# _framework density 18.111450000000001
#
# number of rings (size 3 to 8) (size 9 to 14) (size 15 to 20)
#    0.000    1.750    2.500    3.375    3.500    2.000 
#    0.000    0.000    0.000    0.000    0.000    0.875 
#    0.000    0.000    0.000    0.000    0.000    0.000 
#
# Total GULP energy -178220.199156 kJ/mol
# GULP energy per Si atom -5569.381224 kJ/mol
# Density = 1.807023 g / cm^3
# Si number density = 18.111450 Si / 1000 Ang^3
#
#
#
# Elastic Constant Matrix: (Units=GPa)
#
#
# Indices 1 2 3 4 5 6 
#
# 1 96.5765 60.9943 6.9388 0.0000 5.0038 0.0000
# 2 60.9943 199.3284 18.2508 0.0000 12.4373 0.0000
# 3 6.9388 18.2508 28.2376 0.0000 1.9475 0.0000
# 4 0.0000 0.0000 0.0000 18.7772 0.0000 -8.2636
# 5 5.0038 12.4373 1.9475 0.0000 18.9803 0.0000
# 6 0.0000 0.0000 0.0000 -8.2636 0.0000 18.1370
#
#
#
# Elastic Compliance Matrix: (Units=1/GPa)
#
#
# Indices 1 2 3 4 5 6 
#
# 1 0.012858 -0.003826 -0.000630 0.000000 -0.000818 0.000000
# 2 -0.003826 0.006666 -0.003159 0.000000 -0.003035 0.000000
# 3 -0.000630 -0.003159 0.037723 0.000000 -0.001634 0.000000
# 4 0.000000 0.000000 0.000000 0.066613 0.000000 0.030350
# 5 -0.000818 -0.003035 -0.001634 0.000000 0.055059 0.000000
# 6 0.000000 0.000000 0.000000 0.030350 0.000000 0.068964
#
#
# Mechanical properties :
#
#
# Convention : Reuss Voigt Hill
#
# Bulk Modulus (GPa) = 23.79988 55.16781 39.48384
# Shear Modulus (GPa) = 18.04270 27.04280 22.54275
#
# Velocity S-wave (km/s) = 3.15969 3.86830 3.53181
# Velocity P-wave (km/s) = 5.14596 7.10478 6.20318
#
# Compressibility (1/GPa) = 0.04201701
#
# Stress axis : x y z
#
# Youngs Moduli (GPa) = 77.76964 150.01007 26.50884
#
# Poissons Ratio (x) = 0.57392 0.01671
# Poissons Ratio (y) = 0.29754 0.08374
# Poissons Ratio (z) = 0.04903 0.47390
#
# Static dielectric constant tensor:
#      x y z
#    x 1.569480 0.000000 -0.026510 
#    y 0.000000 1.699570 0.000000 
#    z -0.026510 0.000000 1.686700 
# 
# From -- ./inp_files/86665.got.cif
#   From: 2010.05.17/outbox.cif.g08.bks.cpg/sg13_44_cif.got.tgz:86665.got - 2010.06.03 16:44:36.
