data_PCOD9237594
_publ_section_title
;
Structure prediction by ZEFSAII (Michael W. Deem and Ramdas Pophale) SiO2 
 PCOD9237594
Probable space group: P 2/C
;
_chemical_formula_sum "Si O2"
_cell_formula_units_Z 20
_cell_length_a 8.147580
_cell_length_b 9.744553
_cell_length_c 22.967501
_cell_angle_alpha 90.000000
_cell_angle_beta 32.720251
_cell_angle_gamma 90.000000
_cell_volume 985.667193
_symmetry_space_group_name_H-M "P 2/C"
_symmetry_group_IT_number 13
_symmetry_cell_setting 'monoclinic'
loop_
_space_group_symop_operation_xyz
x,y,z
-x,y,1/2-z
-x,-y,-z
x,-y,1/2+z
loop_
_atom_site_type_symbol
_atom_site_label
_atom_site_fract_x
_atom_site_fract_y
_atom_site_fract_z
Si Si1 0.780426 0.695247 0.194918
Si Si2 0.596484 0.842969 0.471276
Si Si3 0.454568 0.658113 0.414229
Si Si4 0.353707 0.619083 0.630503
Si Si5 0.250093 0.592989 0.868977
O O1 0.500000 0.774225 0.250000
O O2 0.653278 0.652708 0.296107
O O3 0.816329 0.556931 0.143549
O O4 0.063143 0.794749 0.115296
O O5 0.533966 0.793609 0.424720
O O6 0.412505 0.747359 0.571398
O O7 0.500000 0.000000 0.500000
O O8 0.573385 0.530686 0.417331
O O9 0.088920 0.649310 0.519163
O O10 0.576243 0.610686 0.620889
O O11 0.000000 0.621407 0.750000
O O12 0.500000 0.656391 0.750000
#
# Coordination Sequence:
#
# PCOD9237594 Si02
#       5
#     4   4   4   4   4
#     4  11  22  42  73 102 138 172 228 291 351 396
#     4  12  28  45  63  97 144 189 228 271 339 418
#     4  12  23  42  72 104 134 173 230 288 346 396
#     4  12  23  41  71 104 132 173 231 291 341 399
#     4  11  22  40  70 110 136 166 222 294 348 395
#
# _framework density 20.290821999999999
#
# number of rings (size 3 to 8) (size 9 to 14) (size 15 to 20)
#    0.000    0.400    6.000    5.400    0.000    1.600 
#    0.000    7.000    0.000    0.000    0.000    0.000 
#    0.000    0.000    0.000    0.000    0.000    0.000 
#
# Total GULP energy -111412.705073 kJ/mol
# GULP energy per Si atom -5570.635254 kJ/mol
# Density = 2.024464 g / cm^3
# Si number density = 20.290822 Si / 1000 Ang^3
#
#
#
# Elastic Constant Matrix: (Units=GPa)
#
#
# Indices 1 2 3 4 5 6 
#
# 1 77.1525 31.8622 29.7196 0.0000 -11.9165 0.0000
# 2 31.8622 103.0646 14.1639 0.0000 -1.0272 0.0000
# 3 29.7196 14.1639 100.0955 0.0000 -27.7061 0.0000
# 4 0.0000 0.0000 0.0000 18.3377 0.0000 -1.7390
# 5 -11.9165 -1.0272 -27.7061 0.0000 59.5417 0.0000
# 6 0.0000 0.0000 0.0000 -1.7390 0.0000 16.0711
#
#
#
# Elastic Compliance Matrix: (Units=1/GPa)
#
#
# Indices 1 2 3 4 5 6 
#
# 1 0.016564 -0.004574 -0.003874 0.000000 0.001433 0.000000
# 2 -0.004574 0.011174 -0.000486 0.000000 -0.000949 0.000000
# 3 -0.003874 -0.000486 0.012618 0.000000 0.005088 0.000000
# 4 0.000000 0.000000 0.000000 0.055098 0.000000 0.005962
# 5 0.001433 -0.000949 0.005088 0.000000 0.019433 0.000000
# 6 0.000000 0.000000 0.000000 0.005962 0.000000 0.062869
#
#
# Mechanical properties :
#
#
# Convention : Reuss Voigt Hill
#
# Bulk Modulus (GPa) = 44.46777 47.97822 46.22299
# Shear Modulus (GPa) = 24.61617 32.42789 28.52203
#
# Velocity S-wave (km/s) = 3.48683 4.00203 3.75328
# Velocity P-wave (km/s) = 6.17847 6.71205 6.45078
#
# Compressibility (1/GPa) = 0.02248820
#
# Stress axis : x y z
#
# Youngs Moduli (GPa) = 60.37183 89.49349 79.25408
#
# Poissons Ratio (x) = 0.40935 0.30703
# Poissons Ratio (y) = 0.27614 0.03849
# Poissons Ratio (z) = 0.23388 0.04346
#
# Static dielectric constant tensor:
#      x y z
#    x 1.814940 0.000000 0.025740 
#    y 0.000000 1.712380 0.000000 
#    z 0.025740 0.000000 1.777560 
# 
# From -- ./inp_files/84933.got.cif
#   From: 2010.05.17/outbox.cif.g08.bks.cpg/sg13_43_cif.got.tgz:84933.got - 2010.06.03 16:44:36.
