data_PCOD9237563
_publ_section_title
;
Structure prediction by ZEFSAII (Michael W. Deem and Ramdas Pophale) SiO2 
 PCOD9237563
Probable space group: P 2/C
;
_chemical_formula_sum "Si O2"
_cell_formula_units_Z 18
_cell_length_a 18.377246
_cell_length_b 5.154285
_cell_length_c 8.560996
_cell_angle_alpha 90.000000
_cell_angle_beta 51.694083
_cell_angle_gamma 90.000000
_cell_volume 636.331827
_symmetry_space_group_name_H-M "P 2/C"
_symmetry_group_IT_number 13
_symmetry_cell_setting 'monoclinic'
loop_
_space_group_symop_operation_xyz
x,y,z
-x,y,1/2-z
-x,-y,-z
x,-y,1/2+z
loop_
_atom_site_type_symbol
_atom_site_label
_atom_site_fract_x
_atom_site_fract_y
_atom_site_fract_z
Si Si1 0.738963 0.212258 0.972027
Si Si2 0.621349 0.830969 0.353512
Si Si3 0.500000 0.187251 0.750000
Si Si4 0.093769 0.127981 0.314802
Si Si5 0.897640 0.505283 0.938014
O O1 0.680133 0.326525 0.904738
O O2 0.803267 0.396708 0.989906
O O3 0.814303 0.033612 0.783329
O O4 0.679900 0.031871 0.168420
O O5 0.558855 0.004160 0.554514
O O6 0.564978 0.673107 0.293760
O O7 0.103184 0.407552 0.384955
O O8 0.097024 0.200067 0.127393
O O9 0.000000 0.000000 0.500000
O O10 0.000000 0.400426 0.750000
#
# Coordination Sequence:
#
# PCOD9237563 Si02
#       5
#     4   4   2   4   4
#     4  11  22  39  64  99 137 177 236 295 344 401
#     4   9  18  34  63  98 137 172 225 298 346 429
#     4   8  16  34  60 102 132 170 230 272 370 434
#     4  12  28  46  66  97 142 190 242 291 342 405
#     4  12  27  43  66  95 137 193 238 283 347 402
#
# _framework density 28.287126000000001
#
# number of rings (size 3 to 8) (size 9 to 14) (size 15 to 20)
#    0.000    1.333    4.444    0.667    6.222    0.000 
#    0.000    0.000    0.000    0.000    0.000  108.889 
#    0.000    0.000    0.000    0.000    0.000    0.444 
#
# Total GULP energy -100608.599088 kJ/mol
# GULP energy per Si atom -5589.366616 kJ/mol
# Density = 2.822274 g / cm^3
# Si number density = 28.287126 Si / 1000 Ang^3
#
#
#
# Elastic Constant Matrix: (Units=GPa)
#
#
# Indices 1 2 3 4 5 6 
#
# 1 239.8648 21.3734 37.6361 0.0000 50.3012 0.0000
# 2 21.3734 41.4767 31.6360 0.0000 8.3808 0.0000
# 3 37.6361 31.6360 226.2334 0.0000 3.1095 0.0000
# 4 0.0000 0.0000 0.0000 53.2347 0.0000 15.2804
# 5 50.3012 8.3808 3.1095 0.0000 48.1711 0.0000
# 6 0.0000 0.0000 0.0000 15.2804 0.0000 6.4357
#
#
#
# Elastic Compliance Matrix: (Units=1/GPa)
#
#
# Indices 1 2 3 4 5 6 
#
# 1 0.005544 -0.001224 -0.000675 0.000000 -0.005533 0.000000
# 2 -0.001224 0.028249 -0.003700 0.000000 -0.003398 0.000000
# 3 -0.000675 -0.003700 0.005036 0.000000 0.001024 0.000000
# 4 0.000000 0.000000 0.000000 0.058982 0.000000 -0.140041
# 5 -0.005533 -0.003398 0.001024 0.000000 0.027062 0.000000
# 6 0.000000 0.000000 0.000000 -0.140041 0.000000 0.487883
#
#
# Mechanical properties :
#
#
# Convention : Reuss Voigt Hill
#
# Bulk Modulus (GPa) = 36.19113 76.54067 56.36590
# Shear Modulus (GPa) = 7.89684 49.36360 28.63022
#
# Velocity S-wave (km/s) = 1.67264 4.18196 3.18485
# Velocity P-wave (km/s) = 4.06845 7.10180 5.78740
#
# Compressibility (1/GPa) = 0.02763108
#
# Stress axis : x y z
#
# Youngs Moduli (GPa) = 180.36501 35.39901 198.57593
#
# Poissons Ratio (x) = 0.04333 0.13406
# Poissons Ratio (y) = 0.22079 0.73473
# Poissons Ratio (z) = 0.12177 0.13098
#
# Static dielectric constant tensor:
#      x y z
#    x 2.306660 0.000000 -0.052700 
#    y 0.000000 2.221260 0.000000 
#    z -0.052700 0.000000 2.127520 
# 
# From -- ./inp_files/20441.got.cif
#   From: 2010.05.17/outbox.cif.g08.bks.cpg/sg13_11_cif.got.tgz:20441.got - 2010.06.03 16:44:36.
