data_PCOD9237981
_publ_section_title
;
Structure prediction by ZEFSAII (Michael W. Deem and Ramdas Pophale) SiO2 
 PCOD9237981
Probable space group: P 2/C
;
_chemical_formula_sum "Si O2"
_cell_formula_units_Z 18
_cell_length_a 11.887377
_cell_length_b 10.109282
_cell_length_c 16.994100
_cell_angle_alpha 90.000000
_cell_angle_beta 157.446707
_cell_angle_gamma 90.000000
_cell_volume 783.281967
_symmetry_space_group_name_H-M "P 2/C"
_symmetry_group_IT_number 13
_symmetry_cell_setting 'monoclinic'
loop_
_space_group_symop_operation_xyz
x,y,z
-x,y,1/2-z
-x,-y,-z
x,-y,1/2+z
loop_
_atom_site_type_symbol
_atom_site_label
_atom_site_fract_x
_atom_site_fract_y
_atom_site_fract_z
Si Si1 0.653411 0.021088 0.516475
Si Si2 0.450605 0.525512 0.311438
Si Si3 0.708521 0.197315 0.812834
Si Si4 0.000000 0.353343 0.250000
Si Si5 0.734724 0.748984 0.738694
O O1 0.475886 0.917856 0.347370
O O2 0.000000 0.005218 0.750000
O O3 0.500000 0.000000 0.500000
O O4 0.565204 0.171977 0.440436
O O5 0.500000 0.501986 0.250000
O O6 0.272589 0.660872 0.217801
O O7 0.760743 0.556672 0.552537
O O8 0.297561 0.398709 0.249930
O O9 0.500000 0.234875 0.750000
O O10 0.022002 0.169972 0.053956
O O11 0.154646 0.267020 0.280388
#
# Coordination Sequence:
#
# PCOD9237981 Si02
#       5
#     4   4   4   2   4
#     4  12  29  48  76 112 155 198 261 318 379 455
#     4  11  25  44  77 108 152 196 257 310 391 454
#     4  11  23  47  77 104 149 204 246 311 395 453
#     4  12  24  46  76 110 154 208 242 318 394 452
#     4  12  26  47  78 111 151 202 261 314 378 464
#
# _framework density 22.980232000000001
#
# number of rings (size 3 to 8) (size 9 to 14) (size 15 to 20)
#    0.000    0.444    4.444    4.667    4.667    2.667 
#    0.000    0.000    0.000    0.000    0.000    0.000 
#    0.000    0.000    0.000    0.000    0.000    0.000 
#
# Total GULP energy -100556.806852 kJ/mol
# GULP energy per Si atom -5586.489270 kJ/mol
# Density = 2.292793 g / cm^3
# Si number density = 22.980232 Si / 1000 Ang^3
#
#
#
# Elastic Constant Matrix: (Units=GPa)
#
#
# Indices 1 2 3 4 5 6 
#
# 1 93.1638 49.8358 52.9505 0.0000 -3.8994 0.0000
# 2 49.8358 122.7323 50.8999 0.0000 3.5798 0.0000
# 3 52.9505 50.8999 191.9628 0.0000 -4.9458 0.0000
# 4 0.0000 0.0000 0.0000 37.9213 0.0000 7.3897
# 5 -3.8994 3.5798 -4.9458 0.0000 33.4214 0.0000
# 6 0.0000 0.0000 0.0000 7.3897 0.0000 92.0596
#
#
#
# Elastic Compliance Matrix: (Units=1/GPa)
#
#
# Indices 1 2 3 4 5 6 
#
# 1 0.015081 -0.005026 -0.002778 0.000000 0.001887 0.000000
# 2 -0.005026 0.010890 -0.001552 0.000000 -0.001983 0.000000
# 3 -0.002778 -0.001552 0.006408 0.000000 0.000790 0.000000
# 4 0.000000 0.000000 0.000000 0.026789 0.000000 -0.002150
# 5 0.001887 -0.001983 0.000790 0.000000 0.030470 0.000000
# 6 0.000000 0.000000 0.000000 -0.002150 0.000000 0.011035
#
#
# Mechanical properties :
#
#
# Convention : Reuss Voigt Hill
#
# Bulk Modulus (GPa) = 73.18148 79.47015 76.32581
# Shear Modulus (GPa) = 40.34130 49.62529 44.98330
#
# Velocity S-wave (km/s) = 4.19439 4.65206 4.42914
# Velocity P-wave (km/s) = 7.44122 7.96948 7.70987
#
# Compressibility (1/GPa) = 0.01366466
#
# Stress axis : x y z
#
# Youngs Moduli (GPa) = 66.31041 91.82451 156.06232
#
# Poissons Ratio (x) = 0.46153 0.43361
# Poissons Ratio (y) = 0.33329 0.24225
# Poissons Ratio (z) = 0.18424 0.14254
#
# Static dielectric constant tensor:
#      x y z
#    x 1.811830 0.000000 -0.021090 
#    y 0.000000 2.272610 0.000000 
#    z -0.021090 0.000000 1.909850 
# 
# From -- ./inp_files/79888.got.cif
#   From: 2010.05.17/outbox.cif.g08.bks.cpg/sg13_40_cif.got.tgz:79888.got - 2010.06.03 16:44:36.
