data_PCOD9237174
_publ_section_title
;
Structure prediction by ZEFSAII (Michael W. Deem and Ramdas Pophale) SiO2 
 PCOD9237174
Probable space group: P 2/C
;
_chemical_formula_sum "Si O2"
_cell_formula_units_Z 20
_cell_length_a 11.074616
_cell_length_b 12.198824
_cell_length_c 8.120377
_cell_angle_alpha 90.000000
_cell_angle_beta 124.524975
_cell_angle_gamma 90.000000
_cell_volume 903.829228
_symmetry_space_group_name_H-M "P 2/C"
_symmetry_group_IT_number 13
_symmetry_cell_setting 'monoclinic'
loop_
_space_group_symop_operation_xyz
x,y,z
-x,y,1/2-z
-x,-y,-z
x,-y,1/2+z
loop_
_atom_site_type_symbol
_atom_site_label
_atom_site_fract_x
_atom_site_fract_y
_atom_site_fract_z
Si Si1 0.274373 0.496153 0.339774
Si Si2 0.000000 0.959402 0.750000
Si Si3 0.471885 0.683193 0.410310
Si Si4 0.811387 0.123728 0.384273
Si Si5 0.874820 0.374906 0.515277
Si Si6 0.500000 0.163612 0.250000
O O1 0.330915 0.604413 0.288014
O O2 0.395930 0.400965 0.444101
O O3 0.252206 0.552724 0.499307
O O4 0.126355 0.436962 0.160962
O O5 0.121165 0.889329 0.745545
O O6 0.908456 0.040141 0.563294
O O7 0.500000 0.732840 0.250000
O O8 0.458084 0.764091 0.555372
O O9 0.835318 0.249219 0.455083
O O10 0.641983 0.099144 0.293506
O O11 0.000000 0.375282 0.750000
#
# Coordination Sequence:
#
# PCOD9237174 Si02
#       6
#     4   2   4   4   4   2
#     4  11  21  38  60  98 144 188 232 276 351 423
#     4  10  26  54  76  96 138 190 232 324 394 418
#     4  11  21  38  65  96 149 193 223 284 353 424
#     4  11  24  49  78 101 138 185 248 306 375 435
#     4  12  23  41  63  99 145 195 237 290 344 441
#     4  12  24  46  76 112 140 190 248 302 352 442
#
# _framework density 22.128073000000001
#
# number of rings (size 3 to 8) (size 9 to 14) (size 15 to 20)
#    0.000    0.800    7.000    0.600    2.800    0.800 
#   16.200    0.000    0.000    0.000    0.000    0.000 
#    0.000    0.000    0.000    0.000    0.000    0.000 
#
# Total GULP energy -111468.639696 kJ/mol
# GULP energy per Si atom -5573.431985 kJ/mol
# Density = 2.207771 g / cm^3
# Si number density = 22.128073 Si / 1000 Ang^3
#
#
#
# Elastic Constant Matrix: (Units=GPa)
#
#
# Indices 1 2 3 4 5 6 
#
# 1 123.3259 37.8916 25.2200 0.0000 -12.5024 0.0000
# 2 37.8916 57.3526 25.1009 0.0000 0.7307 0.0000
# 3 25.2200 25.1009 71.6839 0.0000 -6.4683 0.0000
# 4 0.0000 0.0000 0.0000 41.7412 0.0000 -12.8357
# 5 -12.5024 0.7307 -6.4683 0.0000 38.0362 0.0000
# 6 0.0000 0.0000 0.0000 -12.8357 0.0000 47.1224
#
#
#
# Elastic Compliance Matrix: (Units=1/GPa)
#
#
# Indices 1 2 3 4 5 6 
#
# 1 0.010731 -0.006635 -0.001140 0.000000 0.003461 0.000000
# 2 -0.006635 0.024796 -0.006691 0.000000 -0.003795 0.000000
# 3 -0.001140 -0.006691 0.016932 0.000000 0.002633 0.000000
# 4 0.000000 0.000000 0.000000 0.026147 0.000000 0.007122
# 5 0.003461 -0.003795 0.002633 0.000000 0.027949 0.000000
# 6 0.000000 0.000000 0.000000 0.007122 0.000000 0.023161
#
#
# Mechanical properties :
#
#
# Convention : Reuss Voigt Hill
#
# Bulk Modulus (GPa) = 42.50311 47.64306 45.07309
# Shear Modulus (GPa) = 30.03169 36.32327 33.17748
#
# Velocity S-wave (km/s) = 3.68798 4.05594 3.87633
# Velocity P-wave (km/s) = 6.11428 6.59633 6.35987
#
# Compressibility (1/GPa) = 0.02352769
#
# Stress axis : x y z
#
# Youngs Moduli (GPa) = 93.18647 40.32856 59.06112
#
# Poissons Ratio (x) = 0.26758 0.06732
# Poissons Ratio (y) = 0.61830 0.39517
# Poissons Ratio (z) = 0.10622 0.26983
#
# Static dielectric constant tensor:
#      x y z
#    x 1.954680 0.000000 -0.016640 
#    y 0.000000 1.761620 0.000000 
#    z -0.016640 0.000000 1.919840 
# 
# From -- ./inp_files/11908.got.cif
#   From: 2010.05.17/outbox.cif.g08.bks.cpg/sg13_6_cif.got.tgz:11908.got - 2010.06.03 16:44:36.
