data_PCOD9237062
_publ_section_title
;
Structure prediction by ZEFSAII (Michael W. Deem and Ramdas Pophale) SiO2 
 PCOD9237062
Probable space group: P 2/C
;
_chemical_formula_sum "Si O2"
_cell_formula_units_Z 28
_cell_length_a 14.277438
_cell_length_b 5.485795
_cell_length_c 19.590483
_cell_angle_alpha 90.000000
_cell_angle_beta 48.031058
_cell_angle_gamma 90.000000
_cell_volume 1140.828370
_symmetry_space_group_name_H-M "P 2/C"
_symmetry_group_IT_number 13
_symmetry_cell_setting 'monoclinic'
loop_
_space_group_symop_operation_xyz
x,y,z
-x,y,1/2-z
-x,-y,-z
x,-y,1/2+z
loop_
_atom_site_type_symbol
_atom_site_label
_atom_site_fract_x
_atom_site_fract_y
_atom_site_fract_z
Si Si1 0.717728 0.530242 0.645925
Si Si2 0.639067 0.119332 0.292491
Si Si3 0.753079 0.857939 0.943826
Si Si4 0.500000 0.000000 0.500000
Si Si5 0.500000 0.777172 0.250000
Si Si6 0.149604 0.365223 0.671104
Si Si7 0.897005 0.925671 0.492073
Si Si8 0.857880 0.228670 0.681250
O O1 0.609072 0.383361 0.661449
O O2 0.791632 0.741523 0.571388
O O3 0.819533 0.353413 0.629642
O O4 0.642739 0.634103 0.748192
O O5 0.582019 0.115940 0.395378
O O6 0.567205 0.937728 0.275216
O O7 0.784301 0.025954 0.223087
O O8 0.805817 0.102033 0.878864
O O9 0.819319 0.878803 0.985960
O O10 0.794726 0.596590 0.894713
O O11 0.604565 0.892270 0.004559
O O12 0.192157 0.375351 0.729432
O O13 0.000000 0.383127 0.750000
O O14 0.992782 0.797739 0.392277
O O15 0.000000 0.000000 0.500000
#
# Coordination Sequence:
#
# PCOD9237062 Si02
#       8
#     4   4   4   2   2   4   4   4
#     4  11  25  46  75 107 153 205 254 331 403 482
#     4  11  24  48  73 109 152 207 265 332 394 480
#     4  12  30  49  78 117 157 213 264 336 398 483
#     4  12  28  50  78 110 164 208 278 326 402 486
#     4  10  26  44  74 108 156 204 268 318 406 484
#     4  12  26  50  79 112 158 205 263 333 408 473
#     4  12  27  47  77 117 154 199 268 330 404 481
#     4  11  24  46  76 110 148 202 259 329 409 472
#
# _framework density 24.543569000000002
#
# number of rings (size 3 to 8) (size 9 to 14) (size 15 to 20)
#    0.000    0.571    4.286    2.143    6.000    2.857 
#    2.571    0.000    0.000    0.000    0.000    0.000 
#    0.000    0.000    0.000    0.000    0.000    0.000 
#
# Total GULP energy -156052.338025 kJ/mol
# GULP energy per Si atom -5573.297787 kJ/mol
# Density = 2.448771 g / cm^3
# Si number density = 24.543569 Si / 1000 Ang^3
#
#
#
# Elastic Constant Matrix: (Units=GPa)
#
#
# Indices 1 2 3 4 5 6 
#
# 1 120.5845 22.3404 20.0139 0.0000 13.2157 0.0000
# 2 22.3404 69.6017 12.1571 0.0000 -6.4039 0.0000
# 3 20.0139 12.1571 98.3551 0.0000 4.9656 0.0000
# 4 0.0000 0.0000 0.0000 28.6117 0.0000 10.3241
# 5 13.2157 -6.4039 4.9656 0.0000 38.0566 0.0000
# 6 0.0000 0.0000 0.0000 10.3241 0.0000 27.5516
#
#
#
# Elastic Compliance Matrix: (Units=1/GPa)
#
#
# Indices 1 2 3 4 5 6 
#
# 1 0.009502 -0.003148 -0.001360 0.000000 -0.003652 0.000000
# 2 -0.003148 0.016014 -0.001540 0.000000 0.003989 0.000000
# 3 -0.001360 -0.001540 0.010694 0.000000 -0.001182 0.000000
# 4 0.000000 0.000000 0.000000 0.040415 0.000000 -0.015144
# 5 -0.003652 0.003989 -0.001182 0.000000 0.028370 0.000000
# 6 0.000000 0.000000 0.000000 -0.015144 0.000000 0.041970
#
#
# Mechanical properties :
#
#
# Convention : Reuss Voigt Hill
#
# Bulk Modulus (GPa) = 41.47117 44.17377 42.82247
# Shear Modulus (GPa) = 29.92195 34.44597 32.18396
#
# Velocity S-wave (km/s) = 3.49540 3.75035 3.62512
# Velocity P-wave (km/s) = 5.76403 6.06553 5.91670
#
# Compressibility (1/GPa) = 0.02411314
#
# Stress axis : x y z
#
# Youngs Moduli (GPa) = 105.23842 62.44507 93.51008
#
# Poissons Ratio (x) = 0.19661 0.12718
# Poissons Ratio (y) = 0.33134 0.14402
# Poissons Ratio (z) = 0.14313 0.09617
#
# Static dielectric constant tensor:
#      x y z
#    x 1.972500 0.000000 0.053370 
#    y 0.000000 1.993210 0.000000 
#    z 0.053370 0.000000 1.975910 
# 
# From -- ./inp_files/79290.got.cif
#   From: 2010.05.17/outbox.cif.g08.bks.cpg/sg13_40_cif.got.tgz:79290.got - 2010.06.03 16:44:36.
