data_PCOD9237211
_publ_section_title
;
Structure prediction by ZEFSAII (Michael W. Deem and Ramdas Pophale) SiO2 
 PCOD9237211
Probable space group: P 2/C
;
_chemical_formula_sum "Si O2"
_cell_formula_units_Z 32
_cell_length_a 18.969711
_cell_length_b 14.013784
_cell_length_c 12.376945
_cell_angle_alpha 90.000000
_cell_angle_beta 29.003081
_cell_angle_gamma 90.000000
_cell_volume 1595.302156
_symmetry_space_group_name_H-M "P 2/C"
_symmetry_group_IT_number 13
_symmetry_cell_setting 'monoclinic'
loop_
_space_group_symop_operation_xyz
x,y,z
-x,y,1/2-z
-x,-y,-z
x,-y,1/2+z
loop_
_atom_site_type_symbol
_atom_site_label
_atom_site_fract_x
_atom_site_fract_y
_atom_site_fract_z
Si Si1 0.621573 0.831675 0.995213
Si Si2 0.096051 0.866369 0.216716
Si Si3 0.440676 0.774091 0.029685
Si Si4 0.083982 0.731217 0.892554
Si Si5 0.348385 0.046312 0.518383
Si Si6 0.137937 0.559275 0.987543
Si Si7 0.707588 0.687556 0.561350
Si Si8 0.808544 0.354302 0.679737
O O1 0.756211 0.766580 0.851377
O O2 0.500000 0.833268 0.250000
O O3 0.544751 0.794533 0.990390
O O4 0.670997 0.940796 0.908824
O O5 0.000000 0.910563 0.250000
O O6 0.990638 0.820446 0.446968
O O7 0.216639 0.929885 0.113831
O O8 0.183176 0.774260 0.053488
O O9 0.311225 0.701359 0.228976
O O10 0.366775 0.869836 0.081422
O O11 0.548042 0.728044 0.796748
O O12 0.099317 0.642624 0.954735
O O13 0.967238 0.694711 0.961853
O O14 0.500000 0.047624 0.250000
O O15 0.262670 0.600165 0.898529
O O16 0.179254 0.463623 0.869886
O O17 0.000000 0.542309 0.250000
O O18 0.752142 0.660229 0.379488
#
# Coordination Sequence:
#
# PCOD9237211 Si02
#       8
#     4   4   4   4   4   4   4   4
#     4  11  27  45  62  92 135 178 221 273 344 393
#     4  11  18  36  68 101 125 165 220 274 321 378
#     4  12  21  45  68  94 134 177 221 273 327 401
#     4  11  21  43  63  89 134 171 216 272 324 389
#     4  11  22  40  69 101 130 173 219 270 332 400
#     4  12  22  40  67  98 130 177 220 263 333 395
#     4  11  20  40  68  97 134 167 222 270 323 390
#     4  11  25  38  68 106 127 168 227 273 326 388
#
# _framework density 20.058895
#
# number of rings (size 3 to 8) (size 9 to 14) (size 15 to 20)
#    0.000    0.750    8.750    1.125    0.000    2.000 
#    0.000    0.000    0.000    0.000    0.000    0.000 
#    0.000    0.000    0.000    0.000    0.000    0.000 
#
# Total GULP energy -178791.958828 kJ/mol
# GULP energy per Si atom -5587.248713 kJ/mol
# Density = 2.001324 g / cm^3
# Si number density = 20.058895 Si / 1000 Ang^3
#
#
#
# Elastic Constant Matrix: (Units=GPa)
#
#
# Indices 1 2 3 4 5 6 
#
# 1 89.3291 46.6672 38.1812 0.0000 -30.3598 0.0000
# 2 46.6672 101.6406 53.4102 0.0000 -16.7588 0.0000
# 3 38.1812 53.4102 84.6018 0.0000 -23.7446 0.0000
# 4 0.0000 0.0000 0.0000 -1.3868 0.0000 -18.9446
# 5 -30.3598 -16.7588 -23.7446 0.0000 29.2564 0.0000
# 6 0.0000 0.0000 0.0000 -18.9446 0.0000 17.8342
#
#
#
# Elastic Compliance Matrix: (Units=1/GPa)
#
#
# Indices 1 2 3 4 5 6 
#
# 1 0.020620 -0.006396 -0.000377 0.000000 0.017429 0.000000
# 2 -0.006396 0.016737 -0.008873 0.000000 -0.004251 0.000000
# 3 -0.000377 -0.008873 0.020791 0.000000 0.011401 0.000000
# 4 0.000000 0.000000 0.000000 -0.046488 0.000000 -0.049382
# 5 0.017429 -0.004251 0.011401 0.000000 0.059084 0.000000
# 6 0.000000 0.000000 0.000000 -0.049382 0.000000 0.003615
#
#
# Mechanical properties :
#
#
# Convention : Reuss Voigt Hill
#
# Bulk Modulus (GPa) = 37.23325 61.34319 49.28822
# Shear Modulus (GPa) = 43.62893 18.29496 30.96194
#
# Velocity S-wave (km/s) = 4.66879 3.02331 3.93307
# Velocity P-wave (km/s) = 6.90404 6.54486 6.72685
#
# Compressibility (1/GPa) = 0.02685772
#
# Stress axis : x y z
#
# Youngs Moduli (GPa) = 48.49600 59.74871 48.09693
#
# Poissons Ratio (x) = 0.38215 0.01811
# Poissons Ratio (y) = 0.31018 0.42675
# Poissons Ratio (z) = 0.01826 0.53013
#
# Static dielectric constant tensor:
#      x y z
#    x 1.742490 0.000000 -0.005190 
#    y 0.000000 1.683600 0.000000 
#    z -0.005190 0.000000 1.717090 
# 
# From -- ./inp_files/39441.got.cif
#   From: 2010.05.17/outbox.cif.g08.bks.cpg/sg13_20_cif.got.tgz:39441.got - 2010.06.03 16:44:36.
