data_PCOD9237732
_publ_section_title
;
Structure prediction by ZEFSAII (Michael W. Deem and Ramdas Pophale) SiO2 
 PCOD9237732
Probable space group: P 2/C
;
_chemical_formula_sum "Si O2"
_cell_formula_units_Z 28
_cell_length_a 24.772835
_cell_length_b 11.473155
_cell_length_c 25.135539
_cell_angle_alpha 90.000000
_cell_angle_beta 11.517897
_cell_angle_gamma 90.000000
_cell_volume 1426.488666
_symmetry_space_group_name_H-M "P 2/C"
_symmetry_group_IT_number 13
_symmetry_cell_setting 'monoclinic'
loop_
_space_group_symop_operation_xyz
x,y,z
-x,y,1/2-z
-x,-y,-z
x,-y,1/2+z
loop_
_atom_site_type_symbol
_atom_site_label
_atom_site_fract_x
_atom_site_fract_y
_atom_site_fract_z
Si Si1 0.378478 0.491698 0.241872
Si Si2 0.914442 0.522571 0.774726
Si Si3 0.965659 0.319279 0.998613
Si Si4 0.478084 0.320982 0.986332
Si Si5 0.272019 0.217571 0.014833
Si Si6 0.939109 0.048510 0.000043
Si Si7 0.411493 0.915482 0.487123
O O1 0.199720 0.399817 0.381783
O O2 0.469128 0.592515 0.113374
O O3 0.174567 0.531637 0.485416
O O4 0.664176 0.451730 0.991081
O O5 0.000000 0.476769 0.750000
O O6 0.801983 0.653325 0.892820
O O7 0.806859 0.332665 0.208289
O O8 0.958554 0.187027 0.985177
O O9 0.279348 0.346955 0.706582
O O10 0.486652 0.189802 0.955155
O O11 0.500000 0.226669 0.750000
O O12 0.369999 0.141506 0.969747
O O13 0.000000 0.169886 0.250000
O O14 0.646477 0.009180 0.263936
O O15 0.145813 0.981946 0.762475
O O16 0.000000 0.000000 0.000000
#
# Coordination Sequence:
#
# PCOD9237732 Si02
#       7
#     4   4   4   4   4   4   4
#     4  12  24  40  61  92 127 165 202 256 317 372
#     4  11  23  39  64  91 121 157 204 260 319 375
#     4  12  25  40  60  87 133 168 212 242 294 383
#     4  12  22  38  61  92 127 164 200 251 317 363
#     4  11  23  40  64  95 123 155 200 259 321 370
#     4  12  23  40  60  91 122 170 206 248 298 368
#     4  12  23  38  66  89 127 158 200 262 308 361
#
# _framework density 19.628616999999998
#
# number of rings (size 3 to 8) (size 9 to 14) (size 15 to 20)
#    0.000    0.286    4.286    6.857    2.000    0.000 
#    0.000    0.000    0.000    8.571    0.000    0.000 
#    0.000    0.000    0.000    0.000    0.000    0.000 
#
# Total GULP energy -156663.662620 kJ/mol
# GULP energy per Si atom -5595.130808 kJ/mol
# Density = 1.958394 g / cm^3
# Si number density = 19.628617 Si / 1000 Ang^3
#
#
#
# Elastic Constant Matrix: (Units=GPa)
#
#
# Indices 1 2 3 4 5 6 
#
# 1 90.0463 19.7138 28.6736 0.0000 -9.1609 0.0000
# 2 19.7138 61.7678 23.3099 0.0000 1.7266 0.0000
# 3 28.6736 23.3099 128.2142 0.0000 -17.6467 0.0000
# 4 0.0000 0.0000 0.0000 30.0619 0.0000 -6.7767
# 5 -9.1609 1.7266 -17.6467 0.0000 54.1334 0.0000
# 6 0.0000 0.0000 0.0000 -6.7767 0.0000 27.9720
#
#
#
# Elastic Compliance Matrix: (Units=1/GPa)
#
#
# Indices 1 2 3 4 5 6 
#
# 1 0.012632 -0.003320 -0.002002 0.000000 0.001591 0.000000
# 2 -0.003320 0.018399 -0.002890 0.000000 -0.002091 0.000000
# 3 -0.002002 -0.002890 0.009149 0.000000 0.002736 0.000000
# 4 0.000000 0.000000 0.000000 0.035186 0.000000 0.008524
# 5 0.001591 -0.002091 0.002736 0.000000 0.019701 0.000000
# 6 0.000000 0.000000 0.000000 0.008524 0.000000 0.037815
#
#
# Mechanical properties :
#
#
# Convention : Reuss Voigt Hill
#
# Bulk Modulus (GPa) = 42.09849 47.04698 44.57274
# Shear Modulus (GPa) = 31.80147 36.32218 34.06183
#
# Velocity S-wave (km/s) = 4.02949 4.30638 4.17023
# Velocity P-wave (km/s) = 6.56834 6.98191 6.77828
#
# Compressibility (1/GPa) = 0.02375382
#
# Stress axis : x y z
#
# Youngs Moduli (GPa) = 79.16541 54.35219 109.29873
#
# Poissons Ratio (x) = 0.18047 0.21885
# Poissons Ratio (y) = 0.26286 0.31589
# Poissons Ratio (z) = 0.15852 0.15709
#
# Static dielectric constant tensor:
#      x y z
#    x 1.573350 0.000000 -0.109730 
#    y 0.000000 1.692310 0.000000 
#    z -0.109730 0.000000 1.608740 
# 
# From -- ./inp_files/94148.got.cif
#   From: 2010.05.17/outbox.cif.g08.bks.cpg/sg13_48_cif.got.tgz:94148.got - 2010.06.03 16:44:36.
