data_PCOD9237374
_publ_section_title
;
Structure prediction by ZEFSAII (Michael W. Deem and Ramdas Pophale) SiO2 
 PCOD9237374
Probable space group: P 2/C
;
_chemical_formula_sum "Si O2"
_cell_formula_units_Z 28
_cell_length_a 26.151703
_cell_length_b 10.852599
_cell_length_c 25.867228
_cell_angle_alpha 90.000000
_cell_angle_beta 10.930280
_cell_angle_gamma 90.000000
_cell_volume 1392.050097
_symmetry_space_group_name_H-M "P 2/C"
_symmetry_group_IT_number 13
_symmetry_cell_setting 'monoclinic'
loop_
_space_group_symop_operation_xyz
x,y,z
-x,y,1/2-z
-x,-y,-z
x,-y,1/2+z
loop_
_atom_site_type_symbol
_atom_site_label
_atom_site_fract_x
_atom_site_fract_y
_atom_site_fract_z
Si Si1 0.070991 0.095903 0.883975
Si Si2 0.418042 0.265048 0.118047
Si Si3 0.375401 0.495049 0.726695
Si Si4 0.131371 0.343591 0.296741
Si Si5 0.656130 0.151491 0.646984
Si Si6 0.248464 0.556841 0.465659
Si Si7 0.848090 0.903319 0.784100
O O1 0.308309 0.190087 0.664161
O O2 0.159718 0.018968 0.745958
O O3 0.800952 0.171844 0.141151
O O4 0.000000 0.000000 0.000000
O O5 0.455079 0.379364 0.119471
O O6 0.281713 0.315813 0.201031
O O7 0.645549 0.412726 0.459659
O O8 0.256947 0.508217 0.901816
O O9 0.137118 0.425314 0.931906
O O10 0.058532 0.214674 0.342284
O O11 0.500000 0.112978 0.750000
O O12 0.725883 0.296351 0.571408
O O13 0.933250 0.084985 0.387207
O O14 0.442847 0.128654 0.904262
O O15 0.500000 0.517922 0.250000
O O16 0.000000 0.537379 0.750000
#
# Coordination Sequence:
#
# PCOD9237374 Si02
#       7
#     4   4   4   4   4   4   4
#     4  12  26  43  66  91 126 174 222 260 305 375
#     4  12  26  43  63  92 133 175 218 254 307 393
#     4  12  24  41  63  95 133 166 206 264 327 388
#     4  12  22  39  64  97 129 170 200 261 332 377
#     4  11  22  38  61  96 128 160 203 264 330 381
#     4  11  21  36  61  92 123 159 201 256 322 382
#     4  12  22  39  65  92 131 161 208 264 319 368
#
# _framework density 20.114217
#
# number of rings (size 3 to 8) (size 9 to 14) (size 15 to 20)
#    0.000    0.286    4.286    6.857    2.000    0.000 
#    0.000    0.000    0.000    8.571    0.000    0.000 
#    0.000    0.000    0.000    0.000    0.000    0.000 
#
# Total GULP energy -156670.676631 kJ/mol
# GULP energy per Si atom -5595.381308 kJ/mol
# Density = 2.006844 g / cm^3
# Si number density = 20.114217 Si / 1000 Ang^3
#
#
#
# Elastic Constant Matrix: (Units=GPa)
#
#
# Indices 1 2 3 4 5 6 
#
# 1 92.7405 17.8847 4.1242 0.0000 -1.8825 0.0000
# 2 17.8847 49.7453 15.4224 0.0000 5.6001 0.0000
# 3 4.1242 15.4224 113.2842 0.0000 -1.6951 0.0000
# 4 0.0000 0.0000 0.0000 31.4855 0.0000 5.7195
# 5 -1.8825 5.6001 -1.6951 0.0000 34.4430 0.0000
# 6 0.0000 0.0000 0.0000 5.7195 0.0000 13.6395
#
#
#
# Elastic Compliance Matrix: (Units=1/GPa)
#
#
# Indices 1 2 3 4 5 6 
#
# 1 0.011651 -0.004403 0.000196 0.000000 0.001362 0.000000
# 2 -0.004403 0.023096 -0.003046 0.000000 -0.004146 0.000000
# 3 0.000196 -0.003046 0.009249 0.000000 0.000961 0.000000
# 4 0.000000 0.000000 0.000000 0.034379 0.000000 -0.014416
# 5 0.001362 -0.004146 0.000961 0.000000 0.029829 0.000000
# 6 0.000000 0.000000 0.000000 -0.014416 0.000000 0.079362
#
#
# Mechanical properties :
#
#
# Convention : Reuss Voigt Hill
#
# Bulk Modulus (GPa) = 33.90974 36.73696 35.32335
# Shear Modulus (GPa) = 23.59566 30.46952 27.03259
#
# Velocity S-wave (km/s) = 3.42875 3.89630 3.66998
# Velocity P-wave (km/s) = 5.70704 6.20849 5.96304
#
# Compressibility (1/GPa) = 0.02949005
#
# Stress axis : x y z
#
# Youngs Moduli (GPa) = 85.83108 43.29683 108.11620
#
# Poissons Ratio (x) = 0.19063 -0.02115
# Poissons Ratio (y) = 0.37789 0.32933
# Poissons Ratio (z) = -0.01679 0.13189
#
# Static dielectric constant tensor:
#      x y z
#    x 1.729200 0.000000 -0.001920 
#    y 0.000000 1.699330 0.000000 
#    z -0.001920 0.000000 1.708740 
# 
# From -- ./inp_files/94133.got.cif
#   From: 2010.05.17/outbox.cif.g08.bks.cpg/sg13_48_cif.got.tgz:94133.got - 2010.06.03 16:44:36.
