data_PCOD9237918
_publ_section_title
;
Structure prediction by ZEFSAII (Michael W. Deem and Ramdas Pophale) SiO2 
 PCOD9237918
Probable space group: P 2/C
;
_chemical_formula_sum "Si O2"
_cell_formula_units_Z 18
_cell_length_a 19.435646
_cell_length_b 6.921994
_cell_length_c 9.270900
_cell_angle_alpha 90.000000
_cell_angle_beta 31.351926
_cell_angle_gamma 90.000000
_cell_volume 648.933672
_symmetry_space_group_name_H-M "P 2/C"
_symmetry_group_IT_number 13
_symmetry_cell_setting 'monoclinic'
loop_
_space_group_symop_operation_xyz
x,y,z
-x,y,1/2-z
-x,-y,-z
x,-y,1/2+z
loop_
_atom_site_type_symbol
_atom_site_label
_atom_site_fract_x
_atom_site_fract_y
_atom_site_fract_z
Si Si1 0.308016 0.120611 0.866772
Si Si2 0.500000 0.815448 0.250000
Si Si3 0.872310 0.044286 0.056659
Si Si4 0.119250 0.384870 0.857432
Si Si5 0.700173 0.537439 0.723193
O O1 0.425037 0.056126 0.764563
O O2 0.242088 0.998545 0.857116
O O3 0.353662 0.325532 0.720913
O O4 0.189789 0.150672 0.195064
O O5 0.401096 0.670376 0.510156
O O6 0.915225 0.833589 0.038070
O O7 0.000000 0.131595 0.750000
O O8 0.174809 0.490105 0.899159
O O9 0.242163 0.373940 0.526432
O O10 0.000000 0.500000 0.000000
#
# Coordination Sequence:
#
# PCOD9237918 Si02
#       5
#     4   2   4   4   4
#     4  11  26  48  74 110 145 205 240 310 374 446
#     4  12  26  48  76 106 156 194 270 298 372 448
#     4  11  26  48  73 109 154 191 247 312 388 448
#     4  11  23  44  76 114 144 189 253 310 382 444
#     4  11  24  46  75 108 146 199 250 313 365 440
#
# _framework density 27.737811000000001
#
# number of rings (size 3 to 8) (size 9 to 14) (size 15 to 20)
#    0.000    0.889    2.222    4.667    3.111    0.889 
#    0.000    0.000    0.000    0.000    0.000    0.000 
#    0.000    0.000    0.000    0.000    0.000    0.000 
#
# Total GULP energy -101109.406245 kJ/mol
# GULP energy per Si atom -5617.189236 kJ/mol
# Density = 2.767468 g / cm^3
# Si number density = 27.737811 Si / 1000 Ang^3
#
#
#
# Elastic Constant Matrix: (Units=GPa)
#
#
# Indices 1 2 3 4 5 6 
#
# 1 206.7110 22.3998 10.5116 0.0000 -14.9290 0.0000
# 2 22.3998 83.5184 35.0763 0.0000 1.3462 0.0000
# 3 10.5116 35.0763 137.7090 0.0000 33.2196 0.0000
# 4 0.0000 0.0000 0.0000 49.3315 0.0000 12.9372
# 5 -14.9290 1.3462 33.2196 0.0000 55.2701 0.0000
# 6 0.0000 0.0000 0.0000 12.9372 0.0000 25.8866
#
#
#
# Elastic Compliance Matrix: (Units=1/GPa)
#
#
# Indices 1 2 3 4 5 6 
#
# 1 0.005116 -0.001189 -0.000500 0.000000 0.001712 0.000000
# 2 -0.001189 0.013880 -0.003843 0.000000 0.001650 0.000000
# 3 -0.000500 -0.003843 0.009694 0.000000 -0.005868 0.000000
# 4 0.000000 0.000000 0.000000 0.023329 0.000000 -0.011659
# 5 0.001712 0.001650 -0.005868 0.000000 0.022042 0.000000
# 6 0.000000 0.000000 0.000000 -0.011659 0.000000 0.044457
#
#
# Mechanical properties :
#
#
# Convention : Reuss Voigt Hill
#
# Bulk Modulus (GPa) = 56.73888 62.65709 59.69799
# Shear Modulus (GPa) = 36.91216 50.09434 43.50325
#
# Velocity S-wave (km/s) = 3.65191 4.25431 3.96457
# Velocity P-wave (km/s) = 6.18722 6.83888 6.52120
#
# Compressibility (1/GPa) = 0.01762460
#
# Stress axis : x y z
#
# Youngs Moduli (GPa) = 195.47983 72.04785 103.15392
#
# Poissons Ratio (x) = 0.08570 0.05162
# Poissons Ratio (y) = 0.23251 0.39638
# Poissons Ratio (z) = 0.09781 0.27685
#
# Static dielectric constant tensor:
#      x y z
#    x 2.153150 0.000000 -0.046460 
#    y 0.000000 2.128340 0.000000 
#    z -0.046460 0.000000 2.142630 
# 
# From -- ./inp_files/22635.got.cif
#   From: 2010.05.17/outbox.cif.g08.bks.cpg/sg13_12_cif.got.tgz:22635.got - 2010.06.03 16:44:36.
