data_PCOD9237498
_publ_section_title
;
Structure prediction by ZEFSAII (Michael W. Deem and Ramdas Pophale) SiO2 
 PCOD9237498
Probable space group: P 2/C
;
_chemical_formula_sum "Si O2"
_cell_formula_units_Z 22
_cell_length_a 12.213749
_cell_length_b 11.205671
_cell_length_c 15.419300
_cell_angle_alpha 90.000000
_cell_angle_beta 151.338959
_cell_angle_gamma 90.000000
_cell_volume 1012.173827
_symmetry_space_group_name_H-M "P 2/C"
_symmetry_group_IT_number 13
_symmetry_cell_setting 'monoclinic'
loop_
_space_group_symop_operation_xyz
x,y,z
-x,y,1/2-z
-x,-y,-z
x,-y,1/2+z
loop_
_atom_site_type_symbol
_atom_site_label
_atom_site_fract_x
_atom_site_fract_y
_atom_site_fract_z
Si Si1 0.968546 0.299392 0.399816
Si Si2 0.000000 0.927091 0.250000
Si Si3 0.684909 0.122103 0.952391
Si Si4 0.554497 0.332241 0.990893
Si Si5 0.276833 0.508335 0.536747
Si Si6 0.043771 0.286705 0.654543
O O1 0.717269 0.312468 0.185820
O O2 0.104570 0.193285 0.445893
O O3 0.109417 0.418763 0.473068
O O4 0.973603 0.278235 0.505201
O O5 0.058366 0.840460 0.210805
O O6 0.209858 0.010448 0.424459
O O7 0.500000 0.092286 0.750000
O O8 0.574725 0.216150 0.942658
O O9 0.652846 0.439773 0.001421
O O10 0.291173 0.347604 0.828799
O O11 0.500000 0.525687 0.750000
O O12 0.145987 0.631094 0.432549
#
# Coordination Sequence:
#
# PCOD9237498 Si02
#       6
#     4   2   4   4   4   4
#     4  11  22  45  77 105 133 192 241 278 356 436
#     4  12  30  46  66 104 150 182 244 302 344 402
#     4  11  21  47  77 100 139 187 240 295 346 415
#     4  11  23  46  79 103 138 191 235 286 358 427
#     4  11  23  45  75 106 148 181 228 299 354 424
#     4  12  28  46  67 113 144 183 241 290 354 424
#
# _framework density 21.735395
#
# number of rings (size 3 to 8) (size 9 to 14) (size 15 to 20)
#    0.000    0.727    5.455    3.273    2.545    5.818 
#    0.000    0.000    0.000    0.000    0.000    0.000 
#    0.000    0.000    0.000    0.000    0.000    0.000 
#
# Total GULP energy -123319.804398 kJ/mol
# GULP energy per Si atom -5605.445654 kJ/mol
# Density = 2.168592 g / cm^3
# Si number density = 21.735395 Si / 1000 Ang^3
#
#
#
# Elastic Constant Matrix: (Units=GPa)
#
#
# Indices 1 2 3 4 5 6 
#
# 1 79.0160 33.5996 52.8655 0.0000 -14.2508 0.0000
# 2 33.5996 127.3704 53.4467 0.0000 -10.7296 0.0000
# 3 52.8655 53.4467 210.0307 0.0000 -26.3530 0.0000
# 4 0.0000 0.0000 0.0000 22.9272 0.0000 6.1317
# 5 -14.2508 -10.7296 -26.3530 0.0000 27.9934 0.0000
# 6 0.0000 0.0000 0.0000 6.1317 0.0000 -12.6445
#
#
#
# Elastic Compliance Matrix: (Units=1/GPa)
#
#
# Indices 1 2 3 4 5 6 
#
# 1 0.016612 -0.002776 -0.002888 0.000000 0.004673 0.000000
# 2 -0.002776 0.009305 -0.001586 0.000000 0.000660 0.000000
# 3 -0.002888 -0.001586 0.006385 0.000000 0.003933 0.000000
# 4 0.000000 0.000000 0.000000 0.038609 0.000000 0.018723
# 5 0.004673 0.000660 0.003933 0.000000 0.042057 0.000000
# 6 0.000000 0.000000 0.000000 0.018723 0.000000 -0.070007
#
#
# Mechanical properties :
#
#
# Convention : Reuss Voigt Hill
#
# Bulk Modulus (GPa) = 56.18036 77.36010 66.77023
# Shear Modulus (GPa) = 78.86928 26.08889 52.47909
#
# Velocity S-wave (km/s) = 6.03033 3.46829 4.91904
# Velocity P-wave (km/s) = 8.62497 7.19081 7.94033
#
# Compressibility (1/GPa) = 0.01779981
#
# Stress axis : x y z
#
# Youngs Moduli (GPa) = 60.19915 107.47292 156.60989
#
# Poissons Ratio (x) = 0.29839 0.45234
# Poissons Ratio (y) = 0.16714 0.24841
# Poissons Ratio (z) = 0.17387 0.17047
#
# Static dielectric constant tensor:
#      x y z
#    x 1.798330 0.000000 -0.011050 
#    y 0.000000 1.773770 0.000000 
#    z -0.011050 0.000000 1.758240 
# 
# From -- ./inp_files/51245.got.cif
#   From: 2010.05.17/outbox.cif.g08.bks.cpg/sg13_26_cif.got.tgz:51245.got - 2010.06.03 16:44:36.
