data_PCOD9237460
_publ_section_title
;
Structure prediction by ZEFSAII (Michael W. Deem and Ramdas Pophale) SiO2 
 PCOD9237460
Probable space group: P 2/C
;
_chemical_formula_sum "Si O2"
_cell_formula_units_Z 28
_cell_length_a 9.069780
_cell_length_b 15.282587
_cell_length_c 9.740003
_cell_angle_alpha 90.000000
_cell_angle_beta 120.115411
_cell_angle_gamma 90.000000
_cell_volume 1167.823231
_symmetry_space_group_name_H-M "P 2/C"
_symmetry_group_IT_number 13
_symmetry_cell_setting 'monoclinic'
loop_
_space_group_symop_operation_xyz
x,y,z
-x,y,1/2-z
-x,-y,-z
x,-y,1/2+z
loop_
_atom_site_type_symbol
_atom_site_label
_atom_site_fract_x
_atom_site_fract_y
_atom_site_fract_z
Si Si1 0.995370 0.371214 0.907737
Si Si2 0.511985 0.751944 0.995050
Si Si3 0.819470 0.032232 0.968974
Si Si4 0.133308 0.183636 0.705343
Si Si5 0.646265 0.428655 0.426253
Si Si6 0.661906 0.385988 0.926269
Si Si7 0.631087 0.937965 0.646391
O O1 0.979000 0.266444 0.893550
O O2 0.828211 0.396504 0.911202
O O3 0.000000 0.400231 0.750000
O O4 0.169898 0.405805 0.051467
O O5 0.685546 0.787515 0.146433
O O6 0.355283 0.705932 0.003536
O O7 0.588561 0.662185 0.966960
O O8 0.434036 0.837478 0.884490
O O9 0.807917 0.126311 0.893348
O O10 0.684520 0.971041 0.822433
O O11 0.789761 0.046440 0.115857
O O12 0.000000 0.000000 0.000000
O O13 0.000000 0.138424 0.750000
O O14 0.500000 0.445356 0.250000
O O15 0.660258 0.522546 0.510254
O O16 0.500000 0.380142 0.750000
O O17 0.500000 0.000000 0.500000
#
# Coordination Sequence:
#
# PCOD9237460 Si02
#       7
#     4   4   4   4   4   4   4
#     4  11  21  41  69  99 134 185 243 289 352 439
#     4  12  24  44  71 102 145 184 242 302 366 442
#     4  12  27  48  73 106 147 189 243 303 368 446
#     4  11  21  41  73 103 135 190 243 291 365 443
#     4  11  25  43  64 104 146 187 237 301 371 432
#     4  11  22  40  71 105 138 191 242 302 366 442
#     4  12  27  45  73 109 145 189 242 304 368 437
#
# _framework density 23.976230999999999
#
# number of rings (size 3 to 8) (size 9 to 14) (size 15 to 20)
#    0.000    0.571    5.714    3.429    0.000    3.429 
#    0.000    2.143    0.000    0.000    0.000    0.000 
#    0.000    0.000    0.000    0.000    0.000    0.000 
#
# Total GULP energy -156212.429314 kJ/mol
# GULP energy per Si atom -5579.015333 kJ/mol
# Density = 2.392166 g / cm^3
# Si number density = 23.976231 Si / 1000 Ang^3
#
#
#
# Elastic Constant Matrix: (Units=GPa)
#
#
# Indices 1 2 3 4 5 6 
#
# 1 151.0019 32.1504 21.1750 0.0000 10.2022 0.0000
# 2 32.1504 132.3517 21.2150 0.0000 0.4651 0.0000
# 3 21.1750 21.2150 51.2673 0.0000 13.2583 0.0000
# 4 0.0000 0.0000 0.0000 33.0606 0.0000 7.4179
# 5 10.2022 0.4651 13.2583 0.0000 43.5724 0.0000
# 6 0.0000 0.0000 0.0000 7.4179 0.0000 46.0178
#
#
#
# Elastic Compliance Matrix: (Units=1/GPa)
#
#
# Indices 1 2 3 4 5 6 
#
# 1 0.007298 -0.001423 -0.002157 0.000000 -0.001037 0.000000
# 2 -0.001423 0.008411 -0.003208 0.000000 0.001220 0.000000
# 3 -0.002157 -0.003208 0.023428 0.000000 -0.006590 0.000000
# 4 0.000000 0.000000 0.000000 0.031383 0.000000 -0.005059
# 5 -0.001037 0.001220 -0.006590 0.000000 0.025185 0.000000
# 6 0.000000 0.000000 0.000000 -0.005059 0.000000 0.022546
#
#
# Mechanical properties :
#
#
# Convention : Reuss Voigt Hill
#
# Bulk Modulus (GPa) = 39.12321 53.74463 46.43392
# Shear Modulus (GPa) = 35.62544 41.86886 38.74715
#
# Velocity S-wave (km/s) = 3.85887 4.18337 4.02439
# Velocity P-wave (km/s) = 6.01726 6.76746 6.40336
#
# Compressibility (1/GPa) = 0.02556027
#
# Stress axis : x y z
#
# Youngs Moduli (GPa) = 137.02267 118.88675 42.68347
#
# Poissons Ratio (x) = 0.16922 0.09207
# Poissons Ratio (y) = 0.19504 0.13694
# Poissons Ratio (z) = 0.29557 0.38142
#
# Static dielectric constant tensor:
#      x y z
#    x 2.069150 0.000000 -0.050970 
#    y 0.000000 2.212250 0.000000 
#    z -0.050970 0.000000 1.905560 
# 
# From -- ./inp_files/30475.got.cif
#   From: 2010.05.17/outbox.cif.g08.bks.cpg/sg13_16_cif.got.tgz:30475.got - 2010.06.03 16:44:36.
