data_PCOD9237746
_publ_section_title
;
Structure prediction by ZEFSAII (Michael W. Deem and Ramdas Pophale) SiO2 
 PCOD9237746
Probable space group: P 2/C
;
_chemical_formula_sum "Si O2"
_cell_formula_units_Z 24
_cell_length_a 8.616553
_cell_length_b 15.250449
_cell_length_c 8.593063
_cell_angle_alpha 90.000000
_cell_angle_beta 91.319454
_cell_angle_gamma 90.000000
_cell_volume 1128.883228
_symmetry_space_group_name_H-M "P 2/C"
_symmetry_group_IT_number 13
_symmetry_cell_setting 'monoclinic'
loop_
_space_group_symop_operation_xyz
x,y,z
-x,y,1/2-z
-x,-y,-z
x,-y,1/2+z
loop_
_atom_site_type_symbol
_atom_site_label
_atom_site_fract_x
_atom_site_fract_y
_atom_site_fract_z
Si Si1 0.657975 0.489383 0.211239
Si Si2 0.500000 0.205561 0.750000
Si Si3 0.259009 0.753223 0.507047
Si Si4 0.872895 0.577099 0.990420
Si Si5 0.500000 0.671517 0.750000
Si Si6 0.174354 0.076435 0.188773
Si Si7 0.353783 0.933946 0.012801
O O1 0.500000 0.537213 0.250000
O O2 0.764476 0.449012 0.345352
O O3 0.587790 0.398996 0.136632
O O4 0.765623 0.556613 0.131959
O O5 0.640044 0.248377 0.650159
O O6 0.586071 0.146659 0.883065
O O7 0.116210 0.682313 0.509644
O O8 0.380253 0.725351 0.645885
O O9 0.199239 0.848087 0.559488
O O10 0.000000 0.500000 0.000000
O O11 0.287944 0.089450 0.340866
O O12 0.000000 0.076479 0.250000
O O13 0.223094 0.986052 0.106988
O O14 0.500000 0.000000 0.000000
#
# Coordination Sequence:
#
# PCOD9237746 Si02
#       7
#     4   2   4   4   2   4   4
#     4   9  20  38  63  89 113 169 229 272 333 414
#     4  12  24  38  72 106 138 178 240 294 338 410
#     4  11  24  40  62 103 137 179 229 293 350 399
#     4  11  23  40  64  92 134 173 225 281 358 408
#     4   8  20  36  64  88 126 166 236 288 344 388
#     4  12  25  43  69 102 144 181 229 281 346 422
#     4  12  22  44  74 101 138 186 234 272 347 432
#
# _framework density 21.259948000000001
#
# number of rings (size 3 to 8) (size 9 to 14) (size 15 to 20)
#    0.500    0.667    3.333    2.500    1.167    2.667 
#    0.000    3.333    0.000    0.000    0.000    0.000 
#    0.000    0.000    0.000    0.000    0.000    0.000 
#
# Total GULP energy -133602.819611 kJ/mol
# GULP energy per Si atom -5566.784150 kJ/mol
# Density = 2.121156 g / cm^3
# Si number density = 21.259948 Si / 1000 Ang^3
#
#
#
# Elastic Constant Matrix: (Units=GPa)
#
#
# Indices 1 2 3 4 5 6 
#
# 1 108.2267 30.7940 5.2943 0.0000 -10.4932 0.0000
# 2 30.7940 80.9878 15.0922 0.0000 -5.5406 0.0000
# 3 5.2943 15.0922 64.4537 0.0000 -6.4616 0.0000
# 4 0.0000 0.0000 0.0000 26.6316 0.0000 -4.0612
# 5 -10.4932 -5.5406 -6.4616 0.0000 27.3173 0.0000
# 6 0.0000 0.0000 0.0000 -4.0612 0.0000 39.4978
#
#
#
# Elastic Compliance Matrix: (Units=1/GPa)
#
#
# Indices 1 2 3 4 5 6 
#
# 1 0.010657 -0.003890 0.000376 0.000000 0.003394 0.000000
# 2 -0.003890 0.014433 -0.002987 0.000000 0.000726 0.000000
# 3 0.000376 -0.002987 0.016529 0.000000 0.003448 0.000000
# 4 0.000000 0.000000 0.000000 0.038147 0.000000 0.003922
# 5 0.003394 0.000726 0.003448 0.000000 0.038873 0.000000
# 6 0.000000 0.000000 0.000000 0.003922 0.000000 0.025721
#
#
# Mechanical properties :
#
#
# Convention : Reuss Voigt Hill
#
# Bulk Modulus (GPa) = 34.94487 39.55880 37.25184
# Shear Modulus (GPa) = 29.95738 32.18854 31.07296
#
# Velocity S-wave (km/s) = 3.75787 3.89530 3.82720
# Velocity P-wave (km/s) = 5.94150 6.23528 6.09016
#
# Compressibility (1/GPa) = 0.02861650
#
# Stress axis : x y z
#
# Youngs Moduli (GPa) = 93.83172 69.28540 60.49855
#
# Poissons Ratio (x) = 0.26953 -0.02273
# Poissons Ratio (y) = 0.36502 0.18072
# Poissons Ratio (z) = -0.03525 0.20697
#
# Static dielectric constant tensor:
#      x y z
#    x 1.812770 0.000000 -0.046550 
#    y 0.000000 1.841670 0.000000 
#    z -0.046550 0.000000 1.777520 
# 
# From -- ./inp_files/12580.got.cif
#   From: 2010.05.17/outbox.cif.g08.bks.cpg/sg13_7_cif.got.tgz:12580.got - 2010.06.03 16:44:36.
