data_PCOD9237196
_publ_section_title
;
Structure prediction by ZEFSAII (Michael W. Deem and Ramdas Pophale) SiO2 
 PCOD9237196
Probable space group: P 2/C
;
_chemical_formula_sum "Si O2"
_cell_formula_units_Z 28
_cell_length_a 25.144920
_cell_length_b 7.191277
_cell_length_c 23.863347
_cell_angle_alpha 90.000000
_cell_angle_beta 16.989377
_cell_angle_gamma 90.000000
_cell_volume 1260.838648
_symmetry_space_group_name_H-M "P 2/C"
_symmetry_group_IT_number 13
_symmetry_cell_setting 'monoclinic'
loop_
_space_group_symop_operation_xyz
x,y,z
-x,y,1/2-z
-x,-y,-z
x,-y,1/2+z
loop_
_atom_site_type_symbol
_atom_site_label
_atom_site_fract_x
_atom_site_fract_y
_atom_site_fract_z
Si Si1 0.872329 0.864255 0.133716
Si Si2 0.135197 0.386541 0.354370
Si Si3 0.748590 0.751917 0.879915
Si Si4 0.271667 0.310477 0.336069
Si Si5 0.433894 0.052985 0.629820
Si Si6 0.132177 0.849656 0.234137
Si Si7 0.574420 0.574241 0.613099
O O1 0.914959 0.623554 0.093332
O O2 0.756350 0.853079 0.194292
O O3 0.799448 0.863412 0.270302
O O4 0.097704 0.878782 0.898872
O O5 0.163510 0.367719 0.259349
O O6 0.262673 0.385184 0.280858
O O7 0.864714 0.929905 0.783549
O O8 0.569665 0.822377 0.027424
O O9 0.685078 0.616601 0.992867
O O10 0.397231 0.429440 0.250717
O O11 0.066739 0.251159 0.562538
O O12 0.384348 0.121893 0.216700
O O13 0.500000 0.000000 0.500000
O O14 0.279492 0.733623 0.051071
O O15 0.500000 0.602233 0.750000
#
# Coordination Sequence:
#
# PCOD9237196 Si02
#       7
#     4   4   4   4   4   4   4
#     4  11  17  34  59  98 143 168 203 268 336 435
#     4  11  22  35  60 104 144 177 219 271 356 443
#     4  12  23  41  70 103 141 182 226 286 351 435
#     4  11  22  44  70 102 138 184 221 288 358 416
#     4  12  18  34  64 102 144 176 214 269 351 431
#     4  11  22  46  74  97 139 185 231 279 358 418
#     4  12  30  50  67  96 139 185 252 306 339 400
#
# _framework density 22.207442
#
# number of rings (size 3 to 8) (size 9 to 14) (size 15 to 20)
#    0.000    0.571    8.571    1.714    2.000    1.714 
#    2.571    0.000    0.000    0.000    0.000    0.000 
#    0.000    0.000    0.000    0.000    0.000    0.000 
#
# Total GULP energy -156025.168879 kJ/mol
# GULP energy per Si atom -5572.327460 kJ/mol
# Density = 2.215690 g / cm^3
# Si number density = 22.207442 Si / 1000 Ang^3
#
#
#
# Elastic Constant Matrix: (Units=GPa)
#
#
# Indices 1 2 3 4 5 6 
#
# 1 27.1730 3.1089 18.6950 0.0000 10.2661 0.0000
# 2 3.1089 122.7408 41.3937 0.0000 10.7854 0.0000
# 3 18.6950 41.3937 116.8101 0.0000 22.0855 0.0000
# 4 0.0000 0.0000 0.0000 45.5303 0.0000 -0.2992
# 5 10.2661 10.7854 22.0855 0.0000 42.0910 0.0000
# 6 0.0000 0.0000 0.0000 -0.2992 0.0000 17.0279
#
#
#
# Elastic Compliance Matrix: (Units=1/GPa)
#
#
# Indices 1 2 3 4 5 6 
#
# 1 0.043794 0.001641 -0.006096 0.000000 -0.007903 0.000000
# 2 0.001641 0.009334 -0.003378 0.000000 -0.001020 0.000000
# 3 -0.006096 -0.003378 0.011422 0.000000 -0.003641 0.000000
# 4 0.000000 0.000000 0.000000 0.021966 0.000000 0.000386
# 5 -0.007903 -0.001020 -0.003641 0.000000 0.027857 0.000000
# 6 0.000000 0.000000 0.000000 0.000386 0.000000 0.058734
#
#
# Mechanical properties :
#
#
# Convention : Reuss Voigt Hill
#
# Bulk Modulus (GPa) = 20.45647 43.67990 32.06818
# Shear Modulus (GPa) = 24.38223 34.49827 29.44025
#
# Velocity S-wave (km/s) = 3.31710 3.94567 3.64496
# Velocity P-wave (km/s) = 4.88901 6.36156 5.67326
#
# Compressibility (1/GPa) = 0.04888430
#
# Stress axis : x y z
#
# Youngs Moduli (GPa) = 22.83440 107.13076 87.55125
#
# Poissons Ratio (x) = -0.17582 0.53374
# Poissons Ratio (y) = -0.03748 0.29572
# Poissons Ratio (z) = 0.13921 0.36185
#
# Static dielectric constant tensor:
#      x y z
#    x 1.723240 0.000000 -0.080670 
#    y 0.000000 3.225840 0.000000 
#    z -0.080670 0.000000 1.942950 
# 
# From -- ./inp_files/82130.got.cif
#   From: 2010.05.17/outbox.cif.g08.bks.cpg/sg13_42_cif.got.tgz:82130.got - 2010.06.03 16:44:36.
