data_PCOD9237551
_publ_section_title
;
Structure prediction by ZEFSAII (Michael W. Deem and Ramdas Pophale) SiO2 
 PCOD9237551
Probable space group: P 2/C
;
_chemical_formula_sum "Si O2"
_cell_formula_units_Z 32
_cell_length_a 12.893680
_cell_length_b 9.773438
_cell_length_c 24.556055
_cell_angle_alpha 90.000000
_cell_angle_beta 29.738412
_cell_angle_gamma 90.000000
_cell_volume 1534.971567
_symmetry_space_group_name_H-M "P 2/C"
_symmetry_group_IT_number 13
_symmetry_cell_setting 'monoclinic'
loop_
_space_group_symop_operation_xyz
x,y,z
-x,y,1/2-z
-x,-y,-z
x,-y,1/2+z
loop_
_atom_site_type_symbol
_atom_site_label
_atom_site_fract_x
_atom_site_fract_y
_atom_site_fract_z
Si Si1 0.755844 0.008194 0.546469
Si Si2 0.449348 0.254642 0.899103
Si Si3 0.068418 0.210756 0.466048
Si Si4 0.437600 0.840938 0.031455
Si Si5 0.826878 0.804919 0.784035
Si Si6 0.970864 0.092206 0.839527
Si Si7 0.022717 0.633189 0.885347
Si Si8 0.152769 0.669240 0.328420
O O1 0.561229 0.108791 0.628164
O O2 0.939362 0.099382 0.489672
O O3 0.748972 0.871600 0.585817
O O4 0.826024 0.970576 0.453641
O O5 0.514098 0.224406 0.931956
O O6 0.602792 0.349827 0.794673
O O7 0.217636 0.317312 0.005442
O O8 0.122900 0.326848 0.397935
O O9 0.916960 0.272595 0.581401
O O10 0.194029 0.841315 0.127165
O O11 0.598183 0.781038 0.913520
O O12 0.500000 0.000000 0.000000
O O13 0.861861 0.718159 0.714111
O O14 0.000000 0.763324 0.750000
O O15 0.885678 0.964937 0.745139
O O16 0.095632 0.212777 0.811349
O O17 0.036946 0.472075 0.870361
#
# Coordination Sequence:
#
# PCOD9237551 Si02
#       8
#     4   4   4   4   4   4   4   4
#     4   9  17  36  63  96 126 158 210 273 312 375
#     4  11  22  41  64  94 131 170 219 267 327 388
#     4   9  19  40  66  91 129 169 209 267 326 375
#     4  12  21  37  64  96 129 166 214 269 326 382
#     4  12  21  39  67  89 126 177 208 260 333 378
#     4  11  22  39  61 100 131 164 218 272 317 387
#     4  11  23  45  64  93 132 175 219 261 325 401
#     4  11  26  40  66  95 131 175 217 269 328 384
#
# _framework density 20.847291999999999
#
# number of rings (size 3 to 8) (size 9 to 14) (size 15 to 20)
#    0.000    1.250    6.250    1.125    0.000    3.000 
#    2.250    2.500    0.000    8.250    0.000    0.000 
#    0.000    0.000    0.000    0.000    0.000    0.000 
#
# Total GULP energy -178651.316580 kJ/mol
# GULP energy per Si atom -5582.853643 kJ/mol
# Density = 2.079984 g / cm^3
# Si number density = 20.847292 Si / 1000 Ang^3
#
#
#
# Elastic Constant Matrix: (Units=GPa)
#
#
# Indices 1 2 3 4 5 6 
#
# 1 72.2792 14.0408 29.9002 0.0000 12.0515 0.0000
# 2 14.0408 57.5505 19.2756 0.0000 3.1963 0.0000
# 3 29.9002 19.2756 91.0683 0.0000 4.1321 0.0000
# 4 0.0000 0.0000 0.0000 0.7820 0.0000 -13.8571
# 5 12.0515 3.1963 4.1321 0.0000 23.1383 0.0000
# 6 0.0000 0.0000 0.0000 -13.8571 0.0000 10.5714
#
#
#
# Elastic Compliance Matrix: (Units=1/GPa)
#
#
# Indices 1 2 3 4 5 6 
#
# 1 0.017651 -0.002198 -0.004967 0.000000 -0.008003 0.000000
# 2 -0.002198 0.019058 -0.003271 0.000000 -0.000904 0.000000
# 3 -0.004967 -0.003271 0.013274 0.000000 0.000668 0.000000
# 4 0.000000 0.000000 0.000000 -0.057531 0.000000 -0.075412
# 5 -0.008003 -0.000904 0.000668 0.000000 0.047392 0.000000
# 6 0.000000 0.000000 0.000000 -0.075412 0.000000 -0.004256
#
#
# Mechanical properties :
#
#
# Convention : Reuss Voigt Hill
#
# Bulk Modulus (GPa) = 34.35217 38.59235 36.47226
# Shear Modulus (GPa) = 75.56945 17.41045 46.48995
#
# Velocity S-wave (km/s) = 6.02725 2.89302 4.72744
# Velocity P-wave (km/s) = 8.05920 5.45083 6.87976
#
# Compressibility (1/GPa) = 0.02911024
#
# Stress axis : x y z
#
# Youngs Moduli (GPa) = 56.65275 52.47093 75.33743
#
# Poissons Ratio (x) = 0.11535 0.37420
# Poissons Ratio (y) = 0.12454 0.24644
# Poissons Ratio (z) = 0.28139 0.17164
#
# Static dielectric constant tensor:
#      x y z
#    x 1.795160 0.000000 -0.023450 
#    y 0.000000 1.742500 0.000000 
#    z -0.023450 0.000000 1.796270 
# 
# From -- ./inp_files/87385.got.cif
#   From: 2010.05.17/outbox.cif.g08.bks.cpg/sg13_44_cif.got.tgz:87385.got - 2010.06.03 16:44:36.
