data_PCOD9237745
_publ_section_title
;
Structure prediction by ZEFSAII (Michael W. Deem and Ramdas Pophale) SiO2 
 PCOD9237745
Probable space group: P 2/C
;
_chemical_formula_sum "Si O2"
_cell_formula_units_Z 20
_cell_length_a 12.782626
_cell_length_b 7.015018
_cell_length_c 18.960207
_cell_angle_alpha 90.000000
_cell_angle_beta 144.070511
_cell_angle_gamma 90.000000
_cell_volume 997.640456
_symmetry_space_group_name_H-M "P 2/C"
_symmetry_group_IT_number 13
_symmetry_cell_setting 'monoclinic'
loop_
_space_group_symop_operation_xyz
x,y,z
-x,y,1/2-z
-x,-y,-z
x,-y,1/2+z
loop_
_atom_site_type_symbol
_atom_site_label
_atom_site_fract_x
_atom_site_fract_y
_atom_site_fract_z
Si Si1 0.555501 0.033553 0.928189
Si Si2 0.952522 0.519010 0.806445
Si Si3 0.583898 0.306041 0.074860
Si Si4 0.847514 0.146781 0.829963
Si Si5 0.859232 0.182222 0.999260
O O1 0.351627 0.090666 0.801407
O O2 0.682545 0.081881 0.932839
O O3 0.548395 0.812424 0.946934
O O4 0.619663 0.160685 0.029718
O O5 0.233576 0.633751 0.788404
O O6 0.000000 0.517239 0.750000
O O7 0.921357 0.308423 0.818686
O O8 0.097818 0.630933 0.931731
O O9 0.500000 0.500000 0.000000
O O10 0.843215 0.223355 0.907774
O O11 0.978956 0.966462 0.901491
#
# Coordination Sequence:
#
# PCOD9237745 Si02
#       5
#     4   4   4   4   4
#     4  11  23  41  69  93 131 176 215 273 336 388
#     4  12  24  41  69  97 132 172 222 279 334 388
#     4  11  23  40  63  99 130 162 219 276 324 389
#     4  11  25  44  66  93 136 175 221 275 332 397
#     4  11  25  44  65  97 132 177 222 270 331 406
#
# _framework density 20.047304
#
# number of rings (size 3 to 8) (size 9 to 14) (size 15 to 20)
#    0.000    0.800    6.000    1.200    2.800    0.800 
#    0.000    0.000    0.000    0.000    0.000    0.000 
#    0.000    0.000    0.000    0.000    0.000    0.000 
#
# Total GULP energy -111853.680421 kJ/mol
# GULP energy per Si atom -5592.684021 kJ/mol
# Density = 2.000168 g / cm^3
# Si number density = 20.047304 Si / 1000 Ang^3
#
#
#
# Elastic Constant Matrix: (Units=GPa)
#
#
# Indices 1 2 3 4 5 6 
#
# 1 64.3251 12.9245 -9.8236 0.0000 -2.7891 0.0000
# 2 12.9245 81.1326 22.8609 0.0000 -11.2826 0.0000
# 3 -9.8236 22.8609 51.3628 0.0000 -0.9540 0.0000
# 4 0.0000 0.0000 0.0000 19.6480 0.0000 0.5697
# 5 -2.7891 -11.2826 -0.9540 0.0000 32.8455 0.0000
# 6 0.0000 0.0000 0.0000 0.5697 0.0000 28.7887
#
#
#
# Elastic Compliance Matrix: (Units=1/GPa)
#
#
# Indices 1 2 3 4 5 6 
#
# 1 0.017174 -0.004159 0.005139 0.000000 0.000179 0.000000
# 2 -0.004159 0.015851 -0.007760 0.000000 0.004866 0.000000
# 3 0.005139 -0.007760 0.023878 0.000000 -0.001536 0.000000
# 4 0.000000 0.000000 0.000000 0.050925 0.000000 -0.001008
# 5 0.000179 0.004866 -0.001536 0.000000 0.032088 0.000000
# 6 0.000000 0.000000 0.000000 -0.001008 0.000000 0.034756
#
#
# Mechanical properties :
#
#
# Convention : Reuss Voigt Hill
#
# Bulk Modulus (GPa) = 23.07170 27.63822 25.35496
# Shear Modulus (GPa) = 24.66941 27.64704 26.15822
#
# Velocity S-wave (km/s) = 3.51174 3.71764 3.61615
# Velocity P-wave (km/s) = 5.28930 5.67840 5.48730
#
# Compressibility (1/GPa) = 0.04334315
#
# Stress axis : x y z
#
# Youngs Moduli (GPa) = 58.22648 63.08577 41.87991
#
# Poissons Ratio (x) = 0.26238 -0.21523
# Poissons Ratio (y) = 0.24217 0.32500
# Poissons Ratio (z) = -0.29924 0.48957
#
# Static dielectric constant tensor:
#      x y z
#    x 1.691720 0.000000 0.003250 
#    y 0.000000 1.693430 0.000000 
#    z 0.003250 0.000000 1.705180 
# 
# From -- ./inp_files/77358.got.cif
#   From: 2010.05.17/outbox.cif.g08.bks.cpg/sg13_39_cif.got.tgz:77358.got - 2010.06.03 16:44:36.
