data_PCOD9237729
_publ_section_title
;
Structure prediction by ZEFSAII (Michael W. Deem and Ramdas Pophale) SiO2 
 PCOD9237729
Probable space group: P 2/C
;
_chemical_formula_sum "Si O2"
_cell_formula_units_Z 20
_cell_length_a 8.572596
_cell_length_b 8.939020
_cell_length_c 23.950951
_cell_angle_alpha 90.000000
_cell_angle_beta 148.361104
_cell_angle_gamma 90.000000
_cell_volume 962.772116
_symmetry_space_group_name_H-M "P 2/C"
_symmetry_group_IT_number 13
_symmetry_cell_setting 'monoclinic'
loop_
_space_group_symop_operation_xyz
x,y,z
-x,y,1/2-z
-x,-y,-z
x,-y,1/2+z
loop_
_atom_site_type_symbol
_atom_site_label
_atom_site_fract_x
_atom_site_fract_y
_atom_site_fract_z
Si Si1 0.836120 0.127714 0.370099
Si Si2 0.838328 0.654135 0.607604
Si Si3 0.831795 0.207298 0.912891
Si Si4 0.670215 0.588317 0.971392
Si Si5 0.587840 0.538605 0.214087
O O1 0.500000 0.170117 0.250000
O O2 0.026829 0.195184 0.377020
O O3 0.991454 0.189399 0.474451
O O4 0.824660 0.951149 0.379864
O O5 0.605051 0.678027 0.586004
O O6 0.679781 0.565642 0.508677
O O7 0.091399 0.532504 0.701448
O O8 0.511456 0.287654 0.823148
O O9 0.027663 0.318674 0.934264
O O10 0.622215 0.546317 0.893154
O O11 0.500000 0.497648 0.250000
#
# Coordination Sequence:
#
# PCOD9237729 Si02
#       5
#     4   4   4   4   4
#     4  11  24  41  64  95 125 175 215 272 326 385
#     4  11  23  39  64  91 132 164 213 267 322 387
#     4  11  23  41  65  93 132 164 225 265 322 396
#     4  11  23  39  62  97 125 169 211 265 326 380
#     4  12  21  38  68  95 126 170 216 272 316 386
#
# _framework density 20.773350000000001
#
# number of rings (size 3 to 8) (size 9 to 14) (size 15 to 20)
#    0.000    0.800    4.000    4.800    0.000    0.800 
#    0.000    0.000    0.000    0.000    0.000    0.000 
#    0.000    0.000    0.000    0.000    0.000    0.000 
#
# Total GULP energy -111546.309401 kJ/mol
# GULP energy per Si atom -5577.315470 kJ/mol
# Density = 2.072607 g / cm^3
# Si number density = 20.773350 Si / 1000 Ang^3
#
#
#
# Elastic Constant Matrix: (Units=GPa)
#
#
# Indices 1 2 3 4 5 6 
#
# 1 76.2676 39.2464 31.1386 0.0000 5.7972 0.0000
# 2 39.2464 101.3326 26.6258 0.0000 -3.8222 0.0000
# 3 31.1386 26.6258 92.7316 0.0000 -4.9000 0.0000
# 4 0.0000 0.0000 0.0000 33.4597 0.0000 -6.3909
# 5 5.7972 -3.8222 -4.9000 0.0000 34.3736 0.0000
# 6 0.0000 0.0000 0.0000 -6.3909 0.0000 14.7893
#
#
#
# Elastic Compliance Matrix: (Units=1/GPa)
#
#
# Indices 1 2 3 4 5 6 
#
# 1 0.018511 -0.006103 -0.004700 0.000000 -0.004471 0.000000
# 2 -0.006103 0.012705 -0.001481 0.000000 0.002231 0.000000
# 3 -0.004700 -0.001481 0.012918 0.000000 0.002469 0.000000
# 4 0.000000 0.000000 0.000000 0.032575 0.000000 0.014077
# 5 -0.004471 0.002231 0.002469 0.000000 0.030446 0.000000
# 6 0.000000 0.000000 0.000000 0.014077 0.000000 0.073699
#
#
# Mechanical properties :
#
#
# Convention : Reuss Voigt Hill
#
# Bulk Modulus (GPa) = 51.10702 51.59482 51.35092
# Shear Modulus (GPa) = 23.59109 28.07926 25.83517
#
# Velocity S-wave (km/s) = 3.37358 3.68053 3.53040
# Velocity P-wave (km/s) = 6.31113 6.55383 6.43362
#
# Compressibility (1/GPa) = 0.01956678
#
# Stress axis : x y z
#
# Youngs Moduli (GPa) = 54.02221 78.70611 77.41375
#
# Poissons Ratio (x) = 0.48035 0.36382
# Poissons Ratio (y) = 0.32970 0.11464
# Poissons Ratio (z) = 0.25389 0.11655
#
# Static dielectric constant tensor:
#      x y z
#    x 1.737120 0.000000 0.007500 
#    y 0.000000 1.765840 0.000000 
#    z 0.007500 0.000000 1.855110 
# 
# From -- ./inp_files/75849.got.cif
#   From: 2010.05.17/outbox.cif.g08.bks.cpg/sg13_38_cif.got.tgz:75849.got - 2010.06.03 16:44:36.
