data_PCOD9237621
_publ_section_title
;
Structure prediction by ZEFSAII (Michael W. Deem and Ramdas Pophale) SiO2 
 PCOD9237621
Probable space group: P 2/C
;
_chemical_formula_sum "Si O2"
_cell_formula_units_Z 16
_cell_length_a 5.071665
_cell_length_b 5.125625
_cell_length_c 26.497632
_cell_angle_alpha 90.000000
_cell_angle_beta 109.489442
_cell_angle_gamma 90.000000
_cell_volume 649.350734
_symmetry_space_group_name_H-M "P 2/C"
_symmetry_group_IT_number 13
_symmetry_cell_setting 'monoclinic'
loop_
_space_group_symop_operation_xyz
x,y,z
-x,y,1/2-z
-x,-y,-z
x,-y,1/2+z
loop_
_atom_site_type_symbol
_atom_site_label
_atom_site_fract_x
_atom_site_fract_y
_atom_site_fract_z
Si Si1 0.665142 0.434561 0.083748
Si Si2 0.901611 0.042745 0.550276
Si Si3 0.599667 0.787216 0.360933
Si Si4 0.014542 0.380328 0.808816
O O1 0.400438 0.555892 0.096316
O O2 0.780153 0.672592 0.056663
O O3 0.874010 0.404176 0.144970
O O4 0.675027 0.171679 0.053165
O O5 0.184907 0.010831 0.601744
O O6 0.000000 0.000000 0.500000
O O7 0.269591 0.829752 0.331878
O O8 0.728143 0.711346 0.315374
O O9 0.000000 0.455997 0.750000
#
# Coordination Sequence:
#
# PCOD9237621 Si02
#       4
#     4   4   4   4
#     4   9  23  38  64  96 131 171 229 275 331 411
#     4  11  22  42  65  95 135 181 221 281 341 398
#     4   9  21  39  63 100 131 169 231 272 334 416
#     4   9  18  40  68  93 131 172 217 283 345 398
#
# _framework density 24.639994999999999
#
# number of rings (size 3 to 8) (size 9 to 14) (size 15 to 20)
#    1.500    1.000    0.000    1.500    0.000    6.000 
#    0.000    5.000    0.000    0.000    0.000    0.000 
#    0.000    0.000    0.000    0.000    0.000    0.000 
#
# Total GULP energy -89200.383737 kJ/mol
# GULP energy per Si atom -5575.023984 kJ/mol
# Density = 2.458391 g / cm^3
# Si number density = 24.639995 Si / 1000 Ang^3
#
#
#
# Elastic Constant Matrix: (Units=GPa)
#
#
# Indices 1 2 3 4 5 6 
#
# 1 141.3362 34.0949 22.9951 0.0000 -35.9363 0.0000
# 2 34.0949 122.3382 30.5239 0.0000 -20.1230 0.0000
# 3 22.9951 30.5239 145.0509 0.0000 -40.9655 0.0000
# 4 0.0000 0.0000 0.0000 18.1469 0.0000 -9.0292
# 5 -35.9363 -20.1230 -40.9655 0.0000 55.2613 0.0000
# 6 0.0000 0.0000 0.0000 -9.0292 0.0000 23.9183
#
#
#
# Elastic Compliance Matrix: (Units=1/GPa)
#
#
# Indices 1 2 3 4 5 6 
#
# 1 0.008791 -0.001675 0.000507 0.000000 0.005483 0.000000
# 2 -0.001675 0.009177 -0.001302 0.000000 0.001288 0.000000
# 3 0.000507 -0.001302 0.008913 0.000000 0.006463 0.000000
# 4 0.000000 0.000000 0.000000 0.067850 0.000000 0.025614
# 5 0.005483 0.001288 0.006463 0.000000 0.026921 0.000000
# 6 0.000000 0.000000 0.000000 0.025614 0.000000 0.051478
#
#
# Mechanical properties :
#
#
# Convention : Reuss Voigt Hill
#
# Bulk Modulus (GPa) = 45.57409 64.88368 55.22889
# Shear Modulus (GPa) = 26.97098 40.87273 33.92185
#
# Velocity S-wave (km/s) = 3.31207 4.07725 3.71441
# Velocity P-wave (km/s) = 5.75869 6.96815 6.39209
#
# Compressibility (1/GPa) = 0.02194229
#
# Stress axis : x y z
#
# Youngs Moduli (GPa) = 113.75439 108.96263 112.19560
#
# Poissons Ratio (x) = 0.18248 -0.05691
# Poissons Ratio (y) = 0.19050 0.14609
# Poissons Ratio (z) = -0.05770 0.14188
#
# Static dielectric constant tensor:
#      x y z
#    x 2.001440 0.000000 0.042950 
#    y 0.000000 1.992220 0.000000 
#    z 0.042950 0.000000 1.947290 
# 
# From -- ./inp_files/82900.got.cif
#   From: 2010.05.17/outbox.cif.g08.bks.cpg/sg13_42_cif.got.tgz:82900.got - 2010.06.03 16:44:36.
