data_PCOD9237314
_publ_section_title
;
Structure prediction by ZEFSAII (Michael W. Deem and Ramdas Pophale) SiO2 
 PCOD9237314
Probable space group: P 2/C
;
_chemical_formula_sum "Si O2"
_cell_formula_units_Z 28
_cell_length_a 8.962222
_cell_length_b 19.120013
_cell_length_c 16.309574
_cell_angle_alpha 90.000000
_cell_angle_beta 150.375499
_cell_angle_gamma 90.000000
_cell_volume 1381.494278
_symmetry_space_group_name_H-M "P 2/C"
_symmetry_group_IT_number 13
_symmetry_cell_setting 'monoclinic'
loop_
_space_group_symop_operation_xyz
x,y,z
-x,y,1/2-z
-x,-y,-z
x,-y,1/2+z
loop_
_atom_site_type_symbol
_atom_site_label
_atom_site_fract_x
_atom_site_fract_y
_atom_site_fract_z
Si Si1 0.635661 0.077398 0.571885
Si Si2 0.867779 0.421007 0.777600
Si Si3 0.564394 0.472300 0.375798
Si Si4 0.212238 0.818850 0.769992
Si Si5 0.749793 0.277611 0.690786
Si Si6 0.307351 0.338232 0.346950
Si Si7 0.620144 0.842463 0.398945
O O1 0.484688 0.129496 0.429977
O O2 0.515675 0.102291 0.602707
O O3 0.000000 0.077071 0.750000
O O4 0.500000 0.000000 0.500000
O O5 0.547265 0.457317 0.633428
O O6 0.890394 0.339261 0.811962
O O7 0.000000 0.430805 0.750000
O O8 0.084081 0.463048 0.940731
O O9 0.500000 0.475653 0.250000
O O10 0.401418 0.404573 0.338480
O O11 0.298207 0.737610 0.796901
O O12 0.000000 0.817671 0.750000
O O13 0.982389 0.841570 0.587700
O O14 0.551598 0.322869 0.533696
O O15 0.535032 0.228143 0.639608
O O16 0.000000 0.242652 0.750000
O O17 0.000000 0.350138 0.250000
O O18 0.500000 0.853004 0.250000
#
# Coordination Sequence:
#
# PCOD9237314 Si02
#       7
#     4   4   4   4   4   4   4
#     4  11  22  42  72  97 128 178 214 250 299 374
#     4  11  24  41  61  84 113 165 212 254 309 397
#     4  12  26  40  57  86 121 154 205 271 324 365
#     4   9  19  38  62  92 125 166 212 245 302 383
#     4  11  21  40  65  91 121 158 218 255 305 385
#     4  11  20  39  65  86 117 165 209 252 308 387
#     4  11  23  40  65 100 134 164 206 265 316 362
#
# _framework density 20.267907999999998
#
# number of rings (size 3 to 8) (size 9 to 14) (size 15 to 20)
#    0.000    1.143    7.143    3.000    2.000    1.714 
#    0.000    3.571    0.000    0.000    0.000    0.000 
#    0.000    0.000    0.000    0.000    0.000    0.000 
#
# Total GULP energy -156166.562442 kJ/mol
# GULP energy per Si atom -5577.377230 kJ/mol
# Density = 2.022178 g / cm^3
# Si number density = 20.267908 Si / 1000 Ang^3
#
#
#
# Elastic Constant Matrix: (Units=GPa)
#
#
# Indices 1 2 3 4 5 6 
#
# 1 55.9097 38.3688 31.9834 0.0000 -7.2121 0.0000
# 2 38.3688 116.3335 25.1839 0.0000 -1.7504 0.0000
# 3 31.9834 25.1839 109.9566 0.0000 -2.4907 0.0000
# 4 0.0000 0.0000 0.0000 31.2210 0.0000 9.1421
# 5 -7.2121 -1.7504 -2.4907 0.0000 40.8399 0.0000
# 6 0.0000 0.0000 0.0000 9.1421 0.0000 33.8910
#
#
#
# Elastic Compliance Matrix: (Units=1/GPa)
#
#
# Indices 1 2 3 4 5 6 
#
# 1 0.027056 -0.007553 -0.006047 0.000000 0.004085 0.000000
# 2 -0.007553 0.011156 -0.000378 0.000000 -0.000879 0.000000
# 3 -0.006047 -0.000378 0.010931 0.000000 -0.000417 0.000000
# 4 0.000000 0.000000 0.000000 0.034777 0.000000 -0.009381
# 5 0.004085 -0.000879 -0.000417 0.000000 0.025144 0.000000
# 6 0.000000 0.000000 0.000000 -0.009381 0.000000 0.032037
#
#
# Mechanical properties :
#
#
# Convention : Reuss Voigt Hill
#
# Bulk Modulus (GPa) = 47.20209 52.58578 49.89393
# Shear Modulus (GPa) = 28.39010 33.63464 31.01237
#
# Velocity S-wave (km/s) = 3.74671 4.07812 3.91592
# Velocity P-wave (km/s) = 6.48512 6.94092 6.71689
#
# Compressibility (1/GPa) = 0.02118550
#
# Stress axis : x y z
#
# Youngs Moduli (GPa) = 36.96096 89.64077 91.48605
#
# Poissons Ratio (x) = 0.67704 0.55325
# Poissons Ratio (y) = 0.27916 0.03458
# Poissons Ratio (z) = 0.22352 0.03389
#
# Static dielectric constant tensor:
#      x y z
#    x 1.689120 0.000000 0.030290 
#    y 0.000000 1.807820 0.000000 
#    z 0.030290 0.000000 1.794790 
# 
# From -- ./inp_files/48248.got.cif
#   From: 2010.05.17/outbox.cif.g08.bks.cpg/sg13_25_cif.got.tgz:48248.got - 2010.06.03 16:44:36.
