data_PCOD9237135
_publ_section_title
;
Structure prediction by ZEFSAII (Michael W. Deem and Ramdas Pophale) SiO2 
 PCOD9237135
Probable space group: P 2/C
;
_chemical_formula_sum "Si O2"
_cell_formula_units_Z 10
_cell_length_a 5.148440
_cell_length_b 9.339519
_cell_length_c 8.887136
_cell_angle_alpha 90.000000
_cell_angle_beta 121.023757
_cell_angle_gamma 90.000000
_cell_volume 366.200840
_symmetry_space_group_name_H-M "P 2/C"
_symmetry_group_IT_number 13
_symmetry_cell_setting 'monoclinic'
loop_
_space_group_symop_operation_xyz
x,y,z
-x,y,1/2-z
-x,-y,-z
x,-y,1/2+z
loop_
_atom_site_type_symbol
_atom_site_label
_atom_site_fract_x
_atom_site_fract_y
_atom_site_fract_z
Si Si1 0.000000 0.572558 0.250000
Si Si2 0.293619 0.905127 0.046299
Si Si3 0.190103 0.315801 0.110802
O O1 0.811316 0.466405 0.301260
O O2 0.180998 0.664092 0.427249
O O3 0.500000 0.867322 0.250000
O O4 0.122043 0.762932 0.939597
O O5 0.500000 0.000000 0.000000
O O6 0.000000 0.000000 0.000000
O O7 0.500000 0.238259 0.250000
#
# Coordination Sequence:
#
# PCOD9237135 Si02
#       3
#     2   4   4
#     4  10  26  48  80 126 162 214 270 334 420 486
#     4  12  30  52  80 116 161 217 274 337 404 482
#     4  11  26  49  83 119 168 209 277 333 418 487
#
# _framework density 27.307417999999998
#
# number of rings (size 3 to 8) (size 9 to 14) (size 15 to 20)
#    0.000    0.800    0.000    3.600   16.800    6.400 
#    0.000    0.000    0.000    0.000    0.000    0.000 
#    0.000    0.000    0.000    0.000    0.000    0.000 
#
# Total GULP energy -56122.547183 kJ/mol
# GULP energy per Si atom -5612.254718 kJ/mol
# Density = 2.724527 g / cm^3
# Si number density = 27.307418 Si / 1000 Ang^3
#
#
#
# Elastic Constant Matrix: (Units=GPa)
#
#
# Indices 1 2 3 4 5 6 
#
# 1 210.5195 56.5802 103.9139 0.0000 27.6182 0.0000
# 2 56.5802 97.8484 68.2077 0.0000 9.5854 0.0000
# 3 103.9139 68.2077 283.5979 0.0000 15.5184 0.0000
# 4 0.0000 0.0000 0.0000 43.2904 0.0000 -9.9893
# 5 27.6182 9.5854 15.5184 0.0000 59.6750 0.0000
# 6 0.0000 0.0000 0.0000 -9.9893 0.0000 32.7606
#
#
#
# Elastic Compliance Matrix: (Units=1/GPa)
#
#
# Indices 1 2 3 4 5 6 
#
# 1 0.006512 -0.002368 -0.001696 0.000000 -0.002192 0.000000
# 2 -0.002368 0.013228 -0.002290 0.000000 -0.000433 0.000000
# 3 -0.001696 -0.002290 0.004702 0.000000 -0.000070 0.000000
# 4 0.000000 0.000000 0.000000 0.024848 0.000000 0.007577
# 5 -0.002192 -0.000433 -0.000070 0.000000 0.017860 0.000000
# 6 0.000000 0.000000 0.000000 0.007577 0.000000 0.032835
#
#
# Mechanical properties :
#
#
# Convention : Reuss Voigt Hill
#
# Bulk Modulus (GPa) = 85.23075 116.59660 100.91367
# Shear Modulus (GPa) = 42.88008 51.36281 47.12144
#
# Velocity S-wave (km/s) = 3.96696 4.34165 4.15853
# Velocity P-wave (km/s) = 7.22923 8.24158 7.75195
#
# Compressibility (1/GPa) = 0.01173285
#
# Stress axis : x y z
#
# Youngs Moduli (GPa) = 153.57368 75.59748 212.66086
#
# Poissons Ratio (x) = 0.17901 0.36077
# Poissons Ratio (y) = 0.36366 0.48701
# Poissons Ratio (z) = 0.26053 0.17312
#
# Static dielectric constant tensor:
#      x y z
#    x 2.238790 0.000000 -0.097530 
#    y 0.000000 2.328050 0.000000 
#    z -0.097530 0.000000 2.125130 
# 
# From -- ./inp_files/8473.got.cif
#   From: 2010.05.17/outbox.cif.g08.bks.cpg/sg13_5_cif.got.tgz:8473.got - 2010.06.03 16:44:36.
