data_PCOD9237587
_publ_section_title
;
Structure prediction by ZEFSAII (Michael W. Deem and Ramdas Pophale) SiO2 
 PCOD9237587
Probable space group: P 2/C
;
_chemical_formula_sum "Si O2"
_cell_formula_units_Z 28
_cell_length_a 26.119875
_cell_length_b 9.188519
_cell_length_c 8.540909
_cell_angle_alpha 90.000000
_cell_angle_beta 39.935894
_cell_angle_gamma 90.000000
_cell_volume 1315.856269
_symmetry_space_group_name_H-M "P 2/C"
_symmetry_group_IT_number 13
_symmetry_cell_setting 'monoclinic'
loop_
_space_group_symop_operation_xyz
x,y,z
-x,y,1/2-z
-x,-y,-z
x,-y,1/2+z
loop_
_atom_site_type_symbol
_atom_site_label
_atom_site_fract_x
_atom_site_fract_y
_atom_site_fract_z
Si Si1 0.737616 0.052118 0.858665
Si Si2 0.178714 0.194653 0.139170
Si Si3 0.442407 0.905790 0.741101
Si Si4 0.452251 0.378418 0.015961
Si Si5 0.797828 0.453855 0.190047
Si Si6 0.951371 0.621079 0.716011
Si Si7 0.717643 0.663365 0.584153
O O1 0.778526 0.133053 0.616302
O O2 0.795515 0.925723 0.789826
O O3 0.644410 0.019582 0.030147
O O4 0.724488 0.166430 0.031420
O O5 0.208852 0.343508 0.148954
O O6 0.090368 0.251083 0.290363
O O7 0.500000 0.876884 0.750000
O O8 0.432517 0.752496 0.678877
O O9 0.500000 0.000000 0.500000
O O10 0.363514 0.411790 0.166171
O O11 0.500000 0.332246 0.750000
O O12 0.500000 0.500000 0.000000
O O13 0.738294 0.582564 0.374582
O O14 0.780013 0.370453 0.073091
O O15 0.882140 0.529599 0.965396
O O16 0.000000 0.684009 0.750000
O O17 0.000000 0.500000 0.500000
#
# Coordination Sequence:
#
# PCOD9237587 Si02
#       7
#     4   4   4   4   4   4   4
#     4  11  25  44  66 105 146 190 241 293 357 427
#     4  12  25  45  74 103 146 186 233 297 351 446
#     4  11  24  42  67  94 137 194 246 294 348 407
#     4  11  24  39  59  95 141 183 235 300 349 399
#     4  12  22  42  73 103 132 187 238 287 354 424
#     4  12  24  46  78 108 138 173 231 293 364 440
#     4  11  22  40  66  98 140 185 244 289 352 420
#
# _framework density 21.278918999999998
#
# number of rings (size 3 to 8) (size 9 to 14) (size 15 to 20)
#    0.000    0.571    4.286    3.429    0.000    9.143 
#    0.000    0.714    0.000    0.000    0.000    0.000 
#    0.000    0.000    0.000    0.000    0.000    0.000 
#
# Total GULP energy -156022.425266 kJ/mol
# GULP energy per Si atom -5572.229474 kJ/mol
# Density = 2.123049 g / cm^3
# Si number density = 21.278919 Si / 1000 Ang^3
#
#
#
# Elastic Constant Matrix: (Units=GPa)
#
#
# Indices 1 2 3 4 5 6 
#
# 1 107.5592 33.7301 2.8617 0.0000 -0.7530 0.0000
# 2 33.7301 83.9518 18.7429 0.0000 -6.9941 0.0000
# 3 2.8617 18.7429 104.9005 0.0000 -6.5831 0.0000
# 4 0.0000 0.0000 0.0000 37.4995 0.0000 8.0059
# 5 -0.7530 -6.9941 -6.5831 0.0000 33.0387 0.0000
# 6 0.0000 0.0000 0.0000 8.0059 0.0000 41.9639
#
#
#
# Elastic Compliance Matrix: (Units=1/GPa)
#
#
# Indices 1 2 3 4 5 6 
#
# 1 0.010674 -0.004443 0.000465 0.000000 -0.000605 0.000000
# 2 -0.004443 0.014417 -0.002298 0.000000 0.002493 0.000000
# 3 0.000465 -0.002298 0.010026 0.000000 0.001522 0.000000
# 4 0.000000 0.000000 0.000000 0.027799 0.000000 -0.005304
# 5 -0.000605 0.002493 0.001522 0.000000 0.031085 0.000000
# 6 0.000000 0.000000 0.000000 -0.005304 0.000000 0.024842
#
#
# Mechanical properties :
#
#
# Convention : Reuss Voigt Hill
#
# Bulk Modulus (GPa) = 44.31677 45.23122 44.77399
# Shear Modulus (GPa) = 35.99255 38.57219 37.28237
#
# Velocity S-wave (km/s) = 4.11720 4.26219 4.19033
# Velocity P-wave (km/s) = 6.59345 6.74717 6.67075
#
# Compressibility (1/GPa) = 0.02256482
#
# Stress axis : x y z
#
# Youngs Moduli (GPa) = 93.68738 69.36078 99.73740
#
# Poissons Ratio (x) = 0.30814 -0.04634
# Poissons Ratio (y) = 0.41622 0.22923
# Poissons Ratio (z) = -0.04353 0.15942
#
# Static dielectric constant tensor:
#      x y z
#    x 1.792850 0.000000 -0.023140 
#    y 0.000000 1.743970 0.000000 
#    z -0.023140 0.000000 1.804490 
# 
# From -- ./inp_files/24553.got.cif
#   From: 2010.05.17/outbox.cif.g08.bks.cpg/sg13_13_cif.got.tgz:24553.got - 2010.06.03 16:44:36.
