data_PCOD9237645
_publ_section_title
;
Structure prediction by ZEFSAII (Michael W. Deem and Ramdas Pophale) SiO2 
 PCOD9237645
Probable space group: P 2/C
;
_chemical_formula_sum "Si O2"
_cell_formula_units_Z 16
_cell_length_a 9.841165
_cell_length_b 11.970954
_cell_length_c 14.558573
_cell_angle_alpha 90.000000
_cell_angle_beta 26.415089
_cell_angle_gamma 90.000000
_cell_volume 763.006488
_symmetry_space_group_name_H-M "P 2/C"
_symmetry_group_IT_number 13
_symmetry_cell_setting 'monoclinic'
loop_
_space_group_symop_operation_xyz
x,y,z
-x,y,1/2-z
-x,-y,-z
x,-y,1/2+z
loop_
_atom_site_type_symbol
_atom_site_label
_atom_site_fract_x
_atom_site_fract_y
_atom_site_fract_z
Si Si1 0.807874 0.950144 0.531334
Si Si2 0.330850 0.479087 0.258155
Si Si3 0.656639 0.653976 0.931197
Si Si4 0.461121 0.100454 0.593787
O O1 0.500000 0.886901 0.750000
O O2 0.343446 0.050470 0.937758
O O3 0.000000 0.000000 0.500000
O O4 0.090784 0.881604 0.318377
O O5 0.500000 0.455302 0.250000
O O6 0.378447 0.383433 0.152940
O O7 0.000000 0.500000 0.500000
O O8 0.443061 0.587604 0.132369
O O9 0.000000 0.621425 0.750000
O O10 0.608723 0.784863 0.973203
O O11 0.500000 0.000000 0.500000
#
# Coordination Sequence:
#
# PCOD9237645 Si02
#       4
#     4   4   4   4
#     4   9  20  40  63  91 136 179 229 274 325 410
#     4  11  24  49  73 103 135 175 239 296 352 417
#     4  11  24  44  75 101 137 187 229 287 361 415
#     4  11  22  43  65  97 142 181 221 277 345 412
#
# _framework density 20.969677000000001
#
# number of rings (size 3 to 8) (size 9 to 14) (size 15 to 20)
#    0.000    1.500    2.500    2.250    0.000    3.000 
#   22.500    0.000    0.000    0.000    0.000    0.000 
#    0.000    0.000    0.000    0.000    0.000    0.000 
#
# Total GULP energy -89088.679470 kJ/mol
# GULP energy per Si atom -5568.042467 kJ/mol
# Density = 2.092195 g / cm^3
# Si number density = 20.969677 Si / 1000 Ang^3
#
#
#
# Elastic Constant Matrix: (Units=GPa)
#
#
# Indices 1 2 3 4 5 6 
#
# 1 195.6020 47.6846 67.1441 0.0000 11.7019 0.0000
# 2 47.6846 85.4497 26.9733 0.0000 21.3459 0.0000
# 3 67.1441 26.9733 163.9051 0.0000 -13.1249 0.0000
# 4 0.0000 0.0000 0.0000 19.8376 0.0000 -7.2995
# 5 11.7019 21.3459 -13.1249 0.0000 51.3556 0.0000
# 6 0.0000 0.0000 0.0000 -7.2995 0.0000 15.8308
#
#
#
# Elastic Compliance Matrix: (Units=1/GPa)
#
#
# Indices 1 2 3 4 5 6 
#
# 1 0.006641 -0.002718 -0.002352 0.000000 -0.000985 0.000000
# 2 -0.002718 0.015392 -0.001922 0.000000 -0.006270 0.000000
# 3 -0.002352 -0.001922 0.007644 0.000000 0.003288 0.000000
# 4 0.000000 0.000000 0.000000 0.060709 0.000000 0.027993
# 5 -0.000985 -0.006270 0.003288 0.000000 0.023143 0.000000
# 6 0.000000 0.000000 0.000000 0.027993 0.000000 0.076075
#
#
# Mechanical properties :
#
#
# Convention : Reuss Voigt Hill
#
# Bulk Modulus (GPa) = 63.71685 80.95119 72.33402
# Shear Modulus (GPa) = 23.94406 37.61514 30.77960
#
# Velocity S-wave (km/s) = 3.38278 4.23991 3.83536
# Velocity P-wave (km/s) = 6.76083 7.91561 7.36090
#
# Compressibility (1/GPa) = 0.01569443
#
# Stress axis : x y z
#
# Youngs Moduli (GPa) = 150.57278 64.96808 130.81637
#
# Poissons Ratio (x) = 0.17656 0.30772
# Poissons Ratio (y) = 0.40919 0.25141
# Poissons Ratio (z) = 0.35419 0.12486
#
# Static dielectric constant tensor:
#      x y z
#    x 1.624480 0.000000 0.037780 
#    y 0.000000 1.759690 0.000000 
#    z 0.037780 0.000000 1.901500 
# 
# From -- ./inp_files/51036.got.cif
#   From: 2010.05.17/outbox.cif.g08.bks.cpg/sg13_26_cif.got.tgz:51036.got - 2010.06.03 16:44:36.
