data_PCOD9237607
_publ_section_title
;
Structure prediction by ZEFSAII (Michael W. Deem and Ramdas Pophale) SiO2 
 PCOD9237607
Probable space group: P 2/C
;
_chemical_formula_sum "Si O2"
_cell_formula_units_Z 22
_cell_length_a 4.745209
_cell_length_b 11.525399
_cell_length_c 15.371550
_cell_angle_alpha 90.000000
_cell_angle_beta 102.987746
_cell_angle_gamma 90.000000
_cell_volume 819.170573
_symmetry_space_group_name_H-M "P 2/C"
_symmetry_group_IT_number 13
_symmetry_cell_setting 'monoclinic'
loop_
_space_group_symop_operation_xyz
x,y,z
-x,y,1/2-z
-x,-y,-z
x,-y,1/2+z
loop_
_atom_site_type_symbol
_atom_site_label
_atom_site_fract_x
_atom_site_fract_y
_atom_site_fract_z
Si Si1 0.000000 0.455792 0.750000
Si Si2 0.278065 0.183208 0.603624
Si Si3 0.733372 0.025116 0.594342
Si Si4 0.000000 0.157047 0.250000
Si Si5 0.651851 0.624705 0.527806
Si Si6 0.500000 0.339606 0.750000
Si Si7 0.760553 0.648340 0.857264
O O1 0.288078 0.395854 0.807292
O O2 0.830953 0.534023 0.807647
O O3 0.997725 0.102206 0.574318
O O4 0.400594 0.260347 0.532746
O O5 0.251645 0.273748 0.679515
O O6 0.545392 0.102189 0.646710
O O7 0.847758 0.922314 0.664540
O O8 0.500000 0.000000 0.500000
O O9 0.185824 0.242387 0.200657
O O10 0.500000 0.500000 0.500000
O O11 0.000363 0.631470 0.550607
O O12 0.546509 0.653001 0.618145
#
# Coordination Sequence:
#
# PCOD9237607 Si02
#       7
#     2   4   4   2   4   2   4
#     4  11  22  41  68 102 146 195 248 309 380 470
#     4  12  26  46  74 108 146 194 255 315 395 481
#     4  12  27  50  77 109 151 202 261 334 403 471
#     4  11  28  51  78 110 154 207 272 337 394 474
#     4  12  25  45  73 111 155 198 250 324 404 488
#     4  12  24  44  70 106 148 194 246 312 384 472
#     4  11  25  44  71 107 147 201 259 315 394 475
#
# _framework density 26.856432999999999
#
# number of rings (size 3 to 8) (size 9 to 14) (size 15 to 20)
#    0.000    0.364    0.000    8.727    0.000    6.545 
#    0.000    0.000    0.000    0.000    0.000    0.000 
#    0.000    0.000    0.000    0.000    0.000    0.000 
#
# Total GULP energy -122849.404816 kJ/mol
# GULP energy per Si atom -5584.063855 kJ/mol
# Density = 2.679531 g / cm^3
# Si number density = 26.856433 Si / 1000 Ang^3
#
#
#
# Elastic Constant Matrix: (Units=GPa)
#
#
# Indices 1 2 3 4 5 6 
#
# 1 158.0531 93.1166 31.6639 0.0000 -11.8625 0.0000
# 2 93.1166 113.7155 54.9413 0.0000 15.3026 0.0000
# 3 31.6639 54.9413 105.1163 0.0000 -1.1489 0.0000
# 4 0.0000 0.0000 0.0000 38.8219 0.0000 0.9082
# 5 -11.8625 15.3026 -1.1489 0.0000 47.2027 0.0000
# 6 0.0000 0.0000 0.0000 0.9082 0.0000 35.5461
#
#
#
# Elastic Compliance Matrix: (Units=1/GPa)
#
#
# Indices 1 2 3 4 5 6 
#
# 1 0.015518 -0.015676 0.003618 0.000000 0.009070 0.000000
# 2 -0.015676 0.028391 -0.010264 0.000000 -0.013393 0.000000
# 3 0.003618 -0.010264 0.013838 0.000000 0.004573 0.000000
# 4 0.000000 0.000000 0.000000 0.025774 0.000000 -0.000659
# 5 0.009070 -0.013393 0.004573 0.000000 0.027918 0.000000
# 6 0.000000 0.000000 0.000000 -0.000659 0.000000 0.028149
#
#
# Mechanical properties :
#
#
# Convention : Reuss Voigt Hill
#
# Bulk Modulus (GPa) = 76.31045 81.81426 79.06236
# Shear Modulus (GPa) = 26.51123 37.45837 31.98480
#
# Velocity S-wave (km/s) = 3.14530 3.73870 3.45477
# Velocity P-wave (km/s) = 6.45495 7.01191 6.73919
#
# Compressibility (1/GPa) = 0.01310436
#
# Stress axis : x y z
#
# Youngs Moduli (GPa) = 64.44074 35.22234 72.26472
#
# Poissons Ratio (x) = 0.55213 -0.26144
# Poissons Ratio (y) = 1.01014 0.74170
# Poissons Ratio (z) = -0.23313 0.36151
#
# Static dielectric constant tensor:
#      x y z
#    x 2.199110 0.000000 0.129250 
#    y 0.000000 2.418370 0.000000 
#    z 0.129250 0.000000 2.242710 
# 
# From -- ./inp_files/43715.got.cif
#   From: 2010.05.17/outbox.cif.g08.bks.cpg/sg13_22_cif.got.tgz:43715.got - 2010.06.03 16:44:36.
