data_PCOD9237782
_publ_section_title
;
Structure prediction by ZEFSAII (Michael W. Deem and Ramdas Pophale) SiO2 
 PCOD9237782
Probable space group: P 2/C
;
_chemical_formula_sum "Si O2"
_cell_formula_units_Z 22
_cell_length_a 15.936380
_cell_length_b 12.028329
_cell_length_c 19.137547
_cell_angle_alpha 90.000000
_cell_angle_beta 161.314883
_cell_angle_gamma 90.000000
_cell_volume 1175.246406
_symmetry_space_group_name_H-M "P 2/C"
_symmetry_group_IT_number 13
_symmetry_cell_setting 'monoclinic'
loop_
_space_group_symop_operation_xyz
x,y,z
-x,y,1/2-z
-x,-y,-z
x,-y,1/2+z
loop_
_atom_site_type_symbol
_atom_site_label
_atom_site_fract_x
_atom_site_fract_y
_atom_site_fract_z
Si Si1 0.292075 0.080479 0.798498
Si Si2 0.072731 0.754992 0.886123
Si Si3 0.728519 0.973224 0.380251
Si Si4 0.500000 0.569454 0.250000
Si Si5 0.314631 0.511274 0.748411
Si Si6 0.520889 0.315925 0.011164
O O1 0.343790 0.062186 0.756228
O O2 0.344435 0.206071 0.865485
O O3 0.993909 0.045352 0.581281
O O4 0.500000 0.000000 0.000000
O O5 0.000000 0.784008 0.750000
O O6 0.808844 0.722850 0.716902
O O7 0.197435 0.859626 0.022302
O O8 0.266867 0.650797 0.042016
O O9 0.500000 0.023542 0.250000
O O10 0.590361 0.498421 0.255646
O O11 0.419675 0.406359 0.875715
O O12 0.000000 0.500000 0.500000
O O13 0.435575 0.619581 0.881616
#
# Coordination Sequence:
#
# PCOD9237782 Si02
#       6
#     4   4   4   2   4   4
#     4  11  24  42  70  94 134 175 217 267 332 397
#     4  12  21  36  69  99 127 155 221 285 327 373
#     4  11  24  39  66 101 132 172 218 275 331 387
#     4  12  22  38  62 100 128 166 218 274 322 386
#     4  11  24  40  68  90 132 171 213 268 327 382
#     4  11  23  41  64  97 127 173 213 266 329 387
#
# _framework density 18.719477999999999
#
# number of rings (size 3 to 8) (size 9 to 14) (size 15 to 20)
#    0.000    0.727    6.364    2.182    0.000    0.000 
#    0.000    0.000   12.000    0.000    0.000    0.000 
#    0.000    0.000    0.000    0.000    0.000    0.000 
#
# Total GULP energy -122900.946213 kJ/mol
# GULP energy per Si atom -5586.406646 kJ/mol
# Density = 1.867687 g / cm^3
# Si number density = 18.719478 Si / 1000 Ang^3
#
#
#
# Elastic Constant Matrix: (Units=GPa)
#
#
# Indices 1 2 3 4 5 6 
#
# 1 181.8057 64.7515 69.5588 0.0000 -14.2460 0.0000
# 2 64.7515 107.6520 45.0039 0.0000 -9.6947 0.0000
# 3 69.5588 45.0039 104.1275 0.0000 -5.1532 0.0000
# 4 0.0000 0.0000 0.0000 -4.5454 0.0000 13.8032
# 5 -14.2460 -9.6947 -5.1532 0.0000 44.4347 0.0000
# 6 0.0000 0.0000 0.0000 13.8032 0.0000 29.9762
#
#
#
# Elastic Compliance Matrix: (Units=1/GPa)
#
#
# Indices 1 2 3 4 5 6 
#
# 1 0.008314 -0.003143 -0.004121 0.000000 0.001502 0.000000
# 2 -0.003143 0.012690 -0.003317 0.000000 0.001376 0.000000
# 3 -0.004121 -0.003317 0.013768 0.000000 -0.000448 0.000000
# 4 0.000000 0.000000 0.000000 -0.091731 0.000000 0.042240
# 5 0.001502 0.001376 -0.000448 0.000000 0.023235 0.000000
# 6 0.000000 0.000000 0.000000 0.042240 0.000000 0.013910
#
#
# Mechanical properties :
#
#
# Convention : Reuss Voigt Hill
#
# Bulk Modulus (GPa) = 73.47508 83.57927 78.52717
# Shear Modulus (GPa) = 849.59590 28.25783 438.92686
#
# Velocity S-wave (km/s) = 21.32702 3.88950 15.32922
# Velocity P-wave (km/s) = 25.41243 8.05705 18.85083
#
# Compressibility (1/GPa) = 0.01361006
#
# Stress axis : x y z
#
# Youngs Moduli (GPa) = 120.27590 78.80093 72.63062
#
# Poissons Ratio (x) = 0.24765 0.29934
# Poissons Ratio (y) = 0.37799 0.24093
# Poissons Ratio (z) = 0.49571 0.26140
#
# Static dielectric constant tensor:
#      x y z
#    x 1.648830 0.000000 0.001340 
#    y 0.000000 1.568730 0.000000 
#    z 0.001340 0.000000 1.658040 
# 
# From -- ./inp_files/43608.got.cif
#   From: 2010.05.17/outbox.cif.g08.bks.cpg/sg13_22_cif.got.tgz:43608.got - 2010.06.03 16:44:36.
