data_PCOD9237980
_publ_section_title
;
Structure prediction by ZEFSAII (Michael W. Deem and Ramdas Pophale) SiO2 
 PCOD9237980
Probable space group: P 2/C
;
_chemical_formula_sum "Si O2"
_cell_formula_units_Z 18
_cell_length_a 7.476857
_cell_length_b 6.837880
_cell_length_c 17.460762
_cell_angle_alpha 90.000000
_cell_angle_beta 62.960617
_cell_angle_gamma 90.000000
_cell_volume 795.119482
_symmetry_space_group_name_H-M "P 2/C"
_symmetry_group_IT_number 13
_symmetry_cell_setting 'monoclinic'
loop_
_space_group_symop_operation_xyz
x,y,z
-x,y,1/2-z
-x,-y,-z
x,-y,1/2+z
loop_
_atom_site_type_symbol
_atom_site_label
_atom_site_fract_x
_atom_site_fract_y
_atom_site_fract_z
Si Si1 0.705884 0.242043 0.420168
Si Si2 0.677715 0.552630 0.557863
Si Si3 0.923908 0.108842 0.939571
Si Si4 0.000000 0.440873 0.250000
Si Si5 0.727755 0.684337 0.200605
O O1 0.661116 0.361421 0.507127
O O2 0.517184 0.306506 0.405402
O O3 0.905859 0.316991 0.337694
O O4 0.751454 0.018013 0.432182
O O5 0.844419 0.683382 0.483974
O O6 0.725077 0.474851 0.632521
O O7 0.115184 0.146525 0.849418
O O8 0.000000 0.000000 0.000000
O O9 0.182276 0.576738 0.243286
O O10 0.500000 0.755289 0.250000
#
# Coordination Sequence:
#
# PCOD9237980 Si02
#       5
#     4   4   4   2   4
#     4  11  24  44  73 105 137 190 242 296 362 436
#     4  11  23  47  75  98 143 190 241 291 367 443
#     4  12  24  44  72 104 141 189 246 297 358 435
#     4  12  24  46  72 100 144 188 238 304 366 434
#     4  12  25  47  74 104 148 195 238 304 373 432
#
# _framework density 22.638109
#
# number of rings (size 3 to 8) (size 9 to 14) (size 15 to 20)
#    0.000    0.444    6.667    2.667    0.000    0.889 
#    8.000    0.000    0.000    0.000    0.000    0.000 
#    0.000    0.000    0.000    0.000    0.000    0.000 
#
# Total GULP energy -100686.787161 kJ/mol
# GULP energy per Si atom -5593.710398 kJ/mol
# Density = 2.258658 g / cm^3
# Si number density = 22.638109 Si / 1000 Ang^3
#
#
#
# Elastic Constant Matrix: (Units=GPa)
#
#
# Indices 1 2 3 4 5 6 
#
# 1 100.8915 24.1736 11.6873 0.0000 -14.4714 0.0000
# 2 24.1736 78.6507 14.1935 0.0000 -1.5000 0.0000
# 3 11.6873 14.1935 52.4150 0.0000 -13.8895 0.0000
# 4 0.0000 0.0000 0.0000 28.7043 0.0000 -11.2196
# 5 -14.4714 -1.5000 -13.8895 0.0000 49.2724 0.0000
# 6 0.0000 0.0000 0.0000 -11.2196 0.0000 35.1693
#
#
#
# Elastic Compliance Matrix: (Units=1/GPa)
#
#
# Indices 1 2 3 4 5 6 
#
# 1 0.011209 -0.003237 -0.000839 0.000000 0.002957 0.000000
# 2 -0.003237 0.014323 -0.003559 0.000000 -0.001518 0.000000
# 3 -0.000839 -0.003559 0.021761 0.000000 0.005779 0.000000
# 4 0.000000 0.000000 0.000000 0.039801 0.000000 0.012697
# 5 0.002957 -0.001518 0.005779 0.000000 0.022747 0.000000
# 6 0.000000 0.000000 0.000000 0.012697 0.000000 0.032485
#
#
# Mechanical properties :
#
#
# Convention : Reuss Voigt Hill
#
# Bulk Modulus (GPa) = 31.22876 36.89623 34.06250
# Shear Modulus (GPa) = 29.71438 34.75604 32.23521
#
# Velocity S-wave (km/s) = 3.62689 3.92253 3.77760
# Velocity P-wave (km/s) = 5.60034 6.07031 5.84005
#
# Compressibility (1/GPa) = 0.03202176
#
# Stress axis : x y z
#
# Youngs Moduli (GPa) = 89.21722 69.81921 45.95411
#
# Poissons Ratio (x) = 0.22602 0.03856
# Poissons Ratio (y) = 0.28881 0.16355
# Poissons Ratio (z) = 0.07486 0.24848
#
# Static dielectric constant tensor:
#      x y z
#    x 1.852460 0.000000 -0.024110 
#    y 0.000000 1.926920 0.000000 
#    z -0.024110 0.000000 1.840710 
# 
# From -- ./inp_files/62259.got.cif
#   From: 2010.05.17/outbox.cif.g08.bks.cpg/sg13_32_cif.got.tgz:62259.got - 2010.06.03 16:44:36.
