data_PCOD9237962
_publ_section_title
;
Structure prediction by ZEFSAII (Michael W. Deem and Ramdas Pophale) SiO2 
 PCOD9237962
Probable space group: P 2/C
;
_chemical_formula_sum "Si O2"
_cell_formula_units_Z 20
_cell_length_a 13.917731
_cell_length_b 6.645293
_cell_length_c 18.447742
_cell_angle_alpha 90.000000
_cell_angle_beta 32.417978
_cell_angle_gamma 90.000000
_cell_volume 914.670917
_symmetry_space_group_name_H-M "P 2/C"
_symmetry_group_IT_number 13
_symmetry_cell_setting 'monoclinic'
loop_
_space_group_symop_operation_xyz
x,y,z
-x,y,1/2-z
-x,-y,-z
x,-y,1/2+z
loop_
_atom_site_type_symbol
_atom_site_label
_atom_site_fract_x
_atom_site_fract_y
_atom_site_fract_z
Si Si1 0.137649 0.191882 0.918958
Si Si2 0.959150 0.495630 0.142841
Si Si3 0.383457 0.699460 0.572959
Si Si4 0.500000 0.013619 0.750000
Si Si5 0.632998 0.042352 0.014211
Si Si6 0.000000 0.241725 0.750000
O O1 0.122857 0.331237 0.857104
O O2 0.339043 0.124021 0.809407
O O3 0.077536 0.343432 0.021045
O O4 0.000000 0.000000 0.000000
O O5 0.808906 0.360794 0.275963
O O6 0.045769 0.617958 0.152875
O O7 0.500000 0.500000 0.500000
O O8 0.379078 0.806662 0.497850
O O9 0.473994 0.849365 0.572593
O O10 0.391911 0.909414 0.885127
O O11 0.820199 0.111136 0.858704
#
# Coordination Sequence:
#
# PCOD9237962 Si02
#       6
#     4   4   4   2   4   2
#     4  11  26  49  71 107 151 194 244 313 383 443
#     4  11  26  44  73 104 146 194 247 310 367 450
#     4  11  23  46  72  99 141 194 246 303 364 439
#     4  12  26  44  78 104 140 204 236 302 376 454
#     4  11  27  44  70 106 146 186 246 307 368 436
#     4  12  26  44  72 114 142 194 250 306 374 442
#
# _framework density 21.865787000000001
#
# number of rings (size 3 to 8) (size 9 to 14) (size 15 to 20)
#    0.000    0.800    2.000    3.600   11.200    3.200 
#    0.000    5.000    0.000    0.000    0.000    0.000 
#    0.000    0.000    0.000    0.000    0.000    0.000 
#
# Total GULP energy -111728.085304 kJ/mol
# GULP energy per Si atom -5586.404265 kJ/mol
# Density = 2.181602 g / cm^3
# Si number density = 21.865787 Si / 1000 Ang^3
#
#
#
# Elastic Constant Matrix: (Units=GPa)
#
#
# Indices 1 2 3 4 5 6 
#
# 1 65.4277 28.2317 14.7437 0.0000 11.6205 0.0000
# 2 28.2317 96.4916 22.3111 0.0000 0.3289 0.0000
# 3 14.7437 22.3111 71.9969 0.0000 0.1835 0.0000
# 4 0.0000 0.0000 0.0000 25.9152 0.0000 12.5840
# 5 11.6205 0.3289 0.1835 0.0000 51.2188 0.0000
# 6 0.0000 0.0000 0.0000 12.5840 0.0000 3.8723
#
#
#
# Elastic Compliance Matrix: (Units=1/GPa)
#
#
# Indices 1 2 3 4 5 6 
#
# 1 0.018667 -0.004918 -0.002288 0.000000 -0.004195 0.000000
# 2 -0.004918 0.012460 -0.002857 0.000000 0.001046 0.000000
# 3 -0.002288 -0.002857 0.015242 0.000000 0.000483 0.000000
# 4 0.000000 0.000000 0.000000 -0.066757 0.000000 0.216944
# 5 -0.004195 0.001046 0.000483 0.000000 0.020467 0.000000
# 6 0.000000 0.000000 0.000000 0.216944 0.000000 -0.446769
#
#
# Mechanical properties :
#
#
# Convention : Reuss Voigt Hill
#
# Bulk Modulus (GPa) = 38.10532 40.49880 39.30206
# Shear Modulus (GPa) = -11.96698 27.44323 7.73812
#
# Velocity S-wave (km/s) = -2.34197 3.54655 1.88324
# Velocity P-wave (km/s) = 3.18617 5.94411 4.76886
#
# Compressibility (1/GPa) = 0.02624306
#
# Stress axis : x y z
#
# Youngs Moduli (GPa) = 53.57060 80.25980 65.60825
#
# Poissons Ratio (x) = 0.39474 0.15010
# Poissons Ratio (y) = 0.26348 0.18741
# Poissons Ratio (z) = 0.12256 0.22927
#
# Static dielectric constant tensor:
#      x y z
#    x 1.846070 0.000000 0.021150 
#    y 0.000000 1.822480 0.000000 
#    z 0.021150 0.000000 2.439720 
# 
# From -- ./inp_files/71659.got.cif
#   From: 2010.05.17/outbox.cif.g08.bks.cpg/sg13_36_cif.got.tgz:71659.got - 2010.06.03 16:44:36.
