data_PCOD9237171
_publ_section_title
;
Structure prediction by ZEFSAII (Michael W. Deem and Ramdas Pophale) SiO2 
 PCOD9237171
Probable space group: P 2/C
;
_chemical_formula_sum "Si O2"
_cell_formula_units_Z 12
_cell_length_a 8.206097
_cell_length_b 5.165920
_cell_length_c 14.158779
_cell_angle_alpha 90.000000
_cell_angle_beta 134.247408
_cell_angle_gamma 90.000000
_cell_volume 429.957366
_symmetry_space_group_name_H-M "P 2/C"
_symmetry_group_IT_number 13
_symmetry_cell_setting 'monoclinic'
loop_
_space_group_symop_operation_xyz
x,y,z
-x,y,1/2-z
-x,-y,-z
x,-y,1/2+z
loop_
_atom_site_type_symbol
_atom_site_label
_atom_site_fract_x
_atom_site_fract_y
_atom_site_fract_z
Si Si1 0.742248 0.309352 0.158841
Si Si2 0.339350 0.049759 0.555148
Si Si3 0.088143 0.304558 0.616995
O O1 0.788704 0.550320 0.247192
O O2 0.000000 0.212809 0.250000
O O3 0.567888 0.113291 0.136872
O O4 0.655925 0.295830 0.014952
O O5 0.262627 0.133737 0.627397
O O6 0.132203 0.857666 0.441348
O O7 0.000000 0.500000 0.500000
#
# Coordination Sequence:
#
# PCOD9237171 Si02
#       3
#     4   4   4
#     4  11  24  52  83 118 164 215 264 343 404 488
#     4  10  26  53  79 122 164 212 274 334 405 484
#     4  11  24  53  79 120 158 219 273 334 407 476
#
# _framework density 27.909745999999998
#
# number of rings (size 3 to 8) (size 9 to 14) (size 15 to 20)
#    0.000    1.333    3.333    0.000    0.000    4.000 
#   12.000    0.000    0.000    2.000    0.000    0.000 
#    0.000    0.000    0.000    0.000    0.000    0.000 
#
# Total GULP energy -67255.887636 kJ/mol
# GULP energy per Si atom -5604.657303 kJ/mol
# Density = 2.784622 g / cm^3
# Si number density = 27.909746 Si / 1000 Ang^3
#
#
#
# Elastic Constant Matrix: (Units=GPa)
#
#
# Indices 1 2 3 4 5 6 
#
# 1 231.3087 90.0490 101.3732 0.0000 20.2956 0.0000
# 2 90.0490 136.6875 90.3096 0.0000 -15.9981 0.0000
# 3 101.3732 90.3096 204.7515 0.0000 4.5549 0.0000
# 4 0.0000 0.0000 0.0000 73.6082 0.0000 -31.0313
# 5 20.2956 -15.9981 4.5549 0.0000 65.2236 0.0000
# 6 0.0000 0.0000 0.0000 -31.0313 0.0000 82.2611
#
#
#
# Elastic Compliance Matrix: (Units=1/GPa)
#
#
# Indices 1 2 3 4 5 6 
#
# 1 0.006731 -0.003687 -0.001642 0.000000 -0.002884 0.000000
# 2 -0.003687 0.012904 -0.003968 0.000000 0.004590 0.000000
# 3 -0.001642 -0.003968 0.007469 0.000000 -0.000984 0.000000
# 4 0.000000 0.000000 0.000000 0.016154 0.000000 0.006094
# 5 -0.002884 0.004590 -0.000984 0.000000 0.017424 0.000000
# 6 0.000000 0.000000 0.000000 0.006094 0.000000 0.014455
#
#
# Mechanical properties :
#
#
# Convention : Reuss Voigt Hill
#
# Bulk Modulus (GPa) = 117.51671 126.24571 121.88121
# Shear Modulus (GPa) = 51.77599 63.61965 57.69782
#
# Velocity S-wave (km/s) = 4.31179 4.77957 4.55169
# Velocity P-wave (km/s) = 8.18450 8.70579 8.44917
#
# Compressibility (1/GPa) = 0.00850943
#
# Stress axis : x y z
#
# Youngs Moduli (GPa) = 148.55548 77.49566 133.88346
#
# Poissons Ratio (x) = 0.28574 0.21988
# Poissons Ratio (y) = 0.54775 0.53126
# Poissons Ratio (z) = 0.24398 0.30751
#
# Static dielectric constant tensor:
#      x y z
#    x 2.069790 0.000000 -0.003610 
#    y 0.000000 2.205530 0.000000 
#    z -0.003610 0.000000 2.201800 
# 
# From -- ./inp_files/61917.got.cif
#   From: 2010.05.17/outbox.cif.g08.bks.cpg/sg13_31_cif.got.tgz:61917.got - 2010.06.03 16:44:36.
