data_PCOD9237558
_publ_section_title
;
Structure prediction by ZEFSAII (Michael W. Deem and Ramdas Pophale) SiO2 
 PCOD9237558
Probable space group: P 2/C
;
_chemical_formula_sum "Si O2"
_cell_formula_units_Z 16
_cell_length_a 7.331969
_cell_length_b 8.435030
_cell_length_c 9.437027
_cell_angle_alpha 90.000000
_cell_angle_beta 93.900763
_cell_angle_gamma 90.000000
_cell_volume 582.284438
_symmetry_space_group_name_H-M "P 2/C"
_symmetry_group_IT_number 13
_symmetry_cell_setting 'monoclinic'
loop_
_space_group_symop_operation_xyz
x,y,z
-x,y,1/2-z
-x,-y,-z
x,-y,1/2+z
loop_
_atom_site_type_symbol
_atom_site_label
_atom_site_fract_x
_atom_site_fract_y
_atom_site_fract_z
Si Si1 0.221876 0.003851 0.504421
Si Si2 0.803052 0.302553 0.180934
Si Si3 0.686650 0.489605 0.924751
Si Si4 0.778105 0.194553 0.738794
O O1 0.274845 0.156591 0.412540
O O2 0.277664 0.045827 0.665206
O O3 0.281134 0.848337 0.422706
O O4 0.000000 0.000000 0.500000
O O5 0.708420 0.364813 0.318078
O O6 0.000000 0.253654 0.250000
O O7 0.822617 0.442572 0.062626
O O8 0.700437 0.345262 0.813936
O O9 0.500000 0.500000 0.000000
O O10 0.000000 0.209662 0.750000
#
# Coordination Sequence:
#
# PCOD9237558 Si02
#       4
#     4   4   4   4
#     4   9  18  34  59  92 121 149 197 256 299 348
#     4  11  22  39  64  90 120 161 206 250 298 358
#     4  11  24  40  58  88 128 165 200 247 301 358
#     4   9  18  35  60  90 119 155 200 247 299 360
#
# _framework density 27.477976999999999
#
# number of rings (size 3 to 8) (size 9 to 14) (size 15 to 20)
#    0.000    2.000    0.000    4.500    0.000    6.000 
#    0.000    1.250    0.000    9.000    0.000    0.000 
#    0.000    0.000    0.000    0.000    0.000    0.000 
#
# Total GULP energy -89566.698261 kJ/mol
# GULP energy per Si atom -5597.918641 kJ/mol
# Density = 2.741544 g / cm^3
# Si number density = 27.477977 Si / 1000 Ang^3
#
#
#
# Elastic Constant Matrix: (Units=GPa)
#
#
# Indices 1 2 3 4 5 6 
#
# 1 66.1769 28.3031 40.3099 0.0000 -26.6655 0.0000
# 2 28.3031 82.2784 87.3864 0.0000 -37.5384 0.0000
# 3 40.3099 87.3864 217.3172 0.0000 -38.7654 0.0000
# 4 0.0000 0.0000 0.0000 65.5283 0.0000 -60.9179
# 5 -26.6655 -37.5384 -38.7654 0.0000 57.4862 0.0000
# 6 0.0000 0.0000 0.0000 -60.9179 0.0000 -31.8286
#
#
#
# Elastic Compliance Matrix: (Units=1/GPa)
#
#
# Indices 1 2 3 4 5 6 
#
# 1 0.019667 -0.001904 -0.001679 0.000000 0.006747 0.000000
# 2 -0.001904 0.026772 -0.008470 0.000000 0.010887 0.000000
# 3 -0.001679 -0.008470 0.008177 0.000000 -0.000796 0.000000
# 4 0.000000 0.000000 0.000000 0.005491 0.000000 -0.010509
# 5 0.006747 0.010887 -0.000796 0.000000 0.027098 0.000000
# 6 0.000000 0.000000 0.000000 -0.010509 0.000000 -0.011304
#
#
# Mechanical properties :
#
#
# Convention : Reuss Voigt Hill
#
# Bulk Modulus (GPa) = 32.77620 75.30792 54.04206
# Shear Modulus (GPa) = 45.38228 32.22205 38.80217
#
# Velocity S-wave (km/s) = 4.06838 3.42811 3.76189
# Velocity P-wave (km/s) = 5.83293 6.56776 6.21122
#
# Compressibility (1/GPa) = 0.03050994
#
# Stress axis : x y z
#
# Youngs Moduli (GPa) = 50.84763 37.35277 122.29413
#
# Poissons Ratio (x) = 0.07111 0.20531
# Poissons Ratio (y) = 0.09680 1.03585
# Poissons Ratio (z) = 0.08536 0.31638
#
# Static dielectric constant tensor:
#      x y z
#    x 2.164940 0.000000 0.032230 
#    y 0.000000 2.260160 0.000000 
#    z 0.032230 0.000000 2.040320 
# 
# From -- ./inp_files/10861.got.cif
#   From: 2010.05.17/outbox.cif.g08.bks.cpg/sg13_6_cif.got.tgz:10861.got - 2010.06.03 16:44:36.
