data_PCOD9237176
_publ_section_title
;
Structure prediction by ZEFSAII (Michael W. Deem and Ramdas Pophale) SiO2 
 PCOD9237176
Probable space group: P 2/C
;
_chemical_formula_sum "Si O2"
_cell_formula_units_Z 10
_cell_length_a 9.489473
_cell_length_b 4.822116
_cell_length_c 7.731499
_cell_angle_alpha 90.000000
_cell_angle_beta 108.991690
_cell_angle_gamma 90.000000
_cell_volume 334.530101
_symmetry_space_group_name_H-M "P 2/C"
_symmetry_group_IT_number 13
_symmetry_cell_setting 'monoclinic'
loop_
_space_group_symop_operation_xyz
x,y,z
-x,y,1/2-z
-x,-y,-z
x,-y,1/2+z
loop_
_atom_site_type_symbol
_atom_site_label
_atom_site_fract_x
_atom_site_fract_y
_atom_site_fract_z
Si Si1 0.111950 0.750469 0.572534
Si Si2 0.315227 0.157236 0.465428
Si Si3 0.500000 0.567478 0.750000
O O1 0.000000 0.500000 0.500000
O O2 0.818473 0.733941 0.709216
O O3 0.249823 0.864015 0.506610
O O4 0.000000 0.000000 0.500000
O O5 0.365800 0.351355 0.646319
O O6 0.450649 0.230126 0.386782
#
# Coordination Sequence:
#
# PCOD9237176 Si02
#       3
#     4   4   2
#     4  12  29  52  82 122 172 227 281 349 425 508
#     4  11  27  51  86 126 173 223 285 351 427 510
#     4  10  26  54  88 130 172 226 282 352 430 510
#
# _framework density 29.892679000000001
#
# number of rings (size 3 to 8) (size 9 to 14) (size 15 to 20)
#    0.000    0.800    0.000    3.600    0.000   27.200 
#    0.000    0.000    0.000    0.000    0.000    0.000 
#    0.000    0.000    0.000    0.000    0.000    0.000 
#
# Total GULP energy -55965.223727 kJ/mol
# GULP energy per Si atom -5596.522373 kJ/mol
# Density = 2.982464 g / cm^3
# Si number density = 29.892679 Si / 1000 Ang^3
#
#
#
# Elastic Constant Matrix: (Units=GPa)
#
#
# Indices 1 2 3 4 5 6 
#
# 1 250.4288 100.0902 77.4918 0.0000 8.6936 0.0000
# 2 100.0902 297.3981 92.4917 0.0000 13.5769 0.0000
# 3 77.4918 92.4917 210.2094 0.0000 33.1733 0.0000
# 4 0.0000 0.0000 0.0000 56.8324 0.0000 -5.3719
# 5 8.6936 13.5769 33.1733 0.0000 89.3616 0.0000
# 6 0.0000 0.0000 0.0000 -5.3719 0.0000 66.6851
#
#
#
# Elastic Compliance Matrix: (Units=1/GPa)
#
#
# Indices 1 2 3 4 5 6 
#
# 1 0.004884 -0.001255 -0.001278 0.000000 0.000190 0.000000
# 2 -0.001255 0.004218 -0.001393 0.000000 -0.000002 0.000000
# 3 -0.001278 -0.001393 0.006149 0.000000 -0.001946 0.000000
# 4 0.000000 0.000000 0.000000 0.017731 0.000000 0.001428
# 5 0.000190 -0.000002 -0.001946 0.000000 0.011895 0.000000
# 6 0.000000 0.000000 0.000000 0.001428 0.000000 0.015111
#
#
# Mechanical properties :
#
#
# Convention : Reuss Voigt Hill
#
# Bulk Modulus (GPa) = 135.17107 144.24264 139.70685
# Shear Modulus (GPa) = 71.11894 75.10665 73.11279
#
# Velocity S-wave (km/s) = 4.88294 5.01797 4.95091
# Velocity P-wave (km/s) = 8.78110 9.05161 8.91738
#
# Compressibility (1/GPa) = 0.00739803
#
# Stress axis : x y z
#
# Youngs Moduli (GPa) = 204.76883 237.07167 162.64075
#
# Poissons Ratio (x) = 0.29746 0.20789
# Poissons Ratio (y) = 0.25693 0.22659
# Poissons Ratio (z) = 0.26173 0.33028
#
# Static dielectric constant tensor:
#      x y z
#    x 2.592580 0.000000 -0.036160 
#    y 0.000000 2.386840 0.000000 
#    z -0.036160 0.000000 2.297370 
# 
# From -- ./inp_files/10472.got.cif
#   From: 2010.05.17/outbox.cif.g08.bks.cpg/sg13_6_cif.got.tgz:10472.got - 2010.06.03 16:44:36.
