data_PCOD9237881
_publ_section_title
;
Structure prediction by ZEFSAII (Michael W. Deem and Ramdas Pophale) SiO2 
 PCOD9237881
Probable space group: P 2/C
;
_chemical_formula_sum "Si O2"
_cell_formula_units_Z 20
_cell_length_a 9.750048
_cell_length_b 5.096000
_cell_length_c 17.152846
_cell_angle_alpha 90.000000
_cell_angle_beta 86.502731
_cell_angle_gamma 90.000000
_cell_volume 850.673343
_symmetry_space_group_name_H-M "P 2/C"
_symmetry_group_IT_number 13
_symmetry_cell_setting 'monoclinic'
loop_
_space_group_symop_operation_xyz
x,y,z
-x,y,1/2-z
-x,-y,-z
x,-y,1/2+z
loop_
_atom_site_type_symbol
_atom_site_label
_atom_site_fract_x
_atom_site_fract_y
_atom_site_fract_z
Si Si1 0.781567 0.771480 0.672269
Si Si2 0.422097 0.201758 0.448109
Si Si3 0.334239 0.748192 0.242812
Si Si4 0.969356 0.751653 0.946493
Si Si5 0.316133 0.552811 0.589670
O O1 0.697147 0.895729 0.602481
O O2 0.721086 0.489119 0.699779
O O3 0.933687 0.745844 0.633078
O O4 0.748091 0.984013 0.738703
O O5 0.355852 0.419654 0.506079
O O6 0.544269 0.304573 0.389462
O O7 0.500000 0.000000 0.500000
O O8 0.500000 0.779204 0.250000
O O9 0.295343 0.659617 0.156954
O O10 0.813170 0.733252 0.922817
O O11 0.000000 0.500000 0.000000
O O12 0.000000 0.000000 0.000000
#
# Coordination Sequence:
#
# PCOD9237881 Si02
#       5
#     4   4   4   4   4
#     4  12  26  46  74 106 148 193 249 307 375 458
#     4  11  23  43  75 110 138 193 260 305 364 448
#     4  12  26  47  73 110 152 195 246 314 385 445
#     4  12  26  48  74 108 148 197 252 315 377 443
#     4  11  26  44  74 109 147 197 246 313 374 451
#
# _framework density 23.510788999999999
#
# number of rings (size 3 to 8) (size 9 to 14) (size 15 to 20)
#    0.000    0.400    4.000    4.200    5.600    0.800 
#    0.000    2.000    0.000    0.000    0.000    0.000 
#    0.000    0.000    0.000    0.000    0.000    0.000 
#
# Total GULP energy -111986.300218 kJ/mol
# GULP energy per Si atom -5599.315011 kJ/mol
# Density = 2.345728 g / cm^3
# Si number density = 23.510789 Si / 1000 Ang^3
#
#
#
# Elastic Constant Matrix: (Units=GPa)
#
#
# Indices 1 2 3 4 5 6 
#
# 1 149.6463 36.1450 42.3307 0.0000 -27.9397 0.0000
# 2 36.1450 110.7189 9.9418 0.0000 -22.0252 0.0000
# 3 42.3307 9.9418 66.3072 0.0000 -13.3763 0.0000
# 4 0.0000 0.0000 0.0000 58.1541 0.0000 -1.1992
# 5 -27.9397 -22.0252 -13.3763 0.0000 47.7529 0.0000
# 6 0.0000 0.0000 0.0000 -1.1992 0.0000 26.6421
#
#
#
# Elastic Compliance Matrix: (Units=1/GPa)
#
#
# Indices 1 2 3 4 5 6 
#
# 1 0.009108 -0.001922 -0.004907 0.000000 0.003067 0.000000
# 2 -0.001922 0.010373 0.000435 0.000000 0.003781 0.000000
# 3 -0.004907 0.000435 0.018665 0.000000 0.002558 0.000000
# 4 0.000000 0.000000 0.000000 0.017212 0.000000 0.000775
# 5 0.003067 0.003781 0.002558 0.000000 0.025196 0.000000
# 6 0.000000 0.000000 0.000000 0.000775 0.000000 0.037569
#
#
# Mechanical properties :
#
#
# Convention : Reuss Voigt Hill
#
# Bulk Modulus (GPa) = 39.43925 55.94525 47.69225
# Shear Modulus (GPa) = 35.87728 42.39349 39.13538
#
# Velocity S-wave (km/s) = 3.91063 4.25096 4.08434
# Velocity P-wave (km/s) = 6.09935 6.92397 6.52470
#
# Compressibility (1/GPa) = 0.02535545
#
# Stress axis : x y z
#
# Youngs Moduli (GPa) = 109.79858 96.40777 53.57651
#
# Poissons Ratio (x) = 0.18533 0.26291
# Poissons Ratio (y) = 0.21107 -0.02330
# Poissons Ratio (z) = 0.53881 -0.04192
#
# Static dielectric constant tensor:
#      x y z
#    x 1.880900 0.000000 -0.035630 
#    y 0.000000 1.961970 0.000000 
#    z -0.035630 0.000000 1.938340 
# 
# From -- ./inp_files/62386.got.cif
#   From: 2010.05.17/outbox.cif.g08.bks.cpg/sg13_32_cif.got.tgz:62386.got - 2010.06.03 16:44:36.
