data_PCOD9237506
_publ_section_title
;
Structure prediction by ZEFSAII (Michael W. Deem and Ramdas Pophale) SiO2 
 PCOD9237506
Probable space group: P 2/C
;
_chemical_formula_sum "Si O2"
_cell_formula_units_Z 22
_cell_length_a 12.153397
_cell_length_b 8.874201
_cell_length_c 8.159209
_cell_angle_alpha 90.000000
_cell_angle_beta 78.338447
_cell_angle_gamma 90.000000
_cell_volume 861.820409
_symmetry_space_group_name_H-M "P 2/C"
_symmetry_group_IT_number 13
_symmetry_cell_setting 'monoclinic'
loop_
_space_group_symop_operation_xyz
x,y,z
-x,y,1/2-z
-x,-y,-z
x,-y,1/2+z
loop_
_atom_site_type_symbol
_atom_site_label
_atom_site_fract_x
_atom_site_fract_y
_atom_site_fract_z
Si Si1 0.000000 0.354476 0.250000
Si Si2 0.050452 0.847729 0.414075
Si Si3 0.572027 0.650627 0.083221
Si Si4 0.251821 0.546138 0.715856
Si Si5 0.706194 0.186316 0.762497
Si Si6 0.599603 0.779497 0.614217
O O1 0.970413 0.266689 0.429052
O O2 0.882138 0.435712 0.246826
O O3 0.180270 0.881573 0.337122
O O4 0.000000 0.804126 0.250000
O O5 0.000000 0.000000 0.500000
O O6 0.500000 0.574808 0.250000
O O7 0.612247 0.808520 0.150643
O O8 0.519163 0.327232 0.029140
O O9 0.683713 0.581513 0.972815
O O10 0.271334 0.367274 0.728236
O O11 0.310732 0.677326 0.811399
O O12 0.666350 0.131343 0.952220
O O13 0.500000 0.857165 0.750000
#
# Coordination Sequence:
#
# PCOD9237506 Si02
#       6
#     2   4   4   4   4   4
#     4  12  26  46  70 102 148 186 236 296 364 438
#     4  12  27  49  72  95 130 190 252 302 349 411
#     4   9  19  35  58  94 148 193 226 271 340 438
#     4  11  22  36  60 102 147 189 218 283 359 431
#     4  11  22  37  62 102 139 184 234 282 359 421
#     4   9  20  35  59  99 148 190 226 271 351 436
#
# _framework density 25.527360999999999
#
# number of rings (size 3 to 8) (size 9 to 14) (size 15 to 20)
#    0.000    1.455    2.727    2.182    1.273   15.273 
#    0.000    0.000    0.000    0.000    0.000   80.182 
#    0.000    0.000    0.000    0.000    0.000    0.000 
#
# Total GULP energy -122804.653177 kJ/mol
# GULP energy per Si atom -5582.029690 kJ/mol
# Density = 2.546926 g / cm^3
# Si number density = 25.527361 Si / 1000 Ang^3
#
#
#
# Elastic Constant Matrix: (Units=GPa)
#
#
# Indices 1 2 3 4 5 6 
#
# 1 169.8008 26.8226 46.0783 0.0000 -37.0159 0.0000
# 2 26.8226 50.7970 34.9625 0.0000 -9.3689 0.0000
# 3 46.0783 34.9625 183.4587 0.0000 -29.4402 0.0000
# 4 0.0000 0.0000 0.0000 15.5223 0.0000 -13.2608
# 5 -37.0159 -9.3689 -29.4402 0.0000 69.3572 0.0000
# 6 0.0000 0.0000 0.0000 -13.2608 0.0000 21.0853
#
#
#
# Elastic Compliance Matrix: (Units=1/GPa)
#
#
# Indices 1 2 3 4 5 6 
#
# 1 0.007216 -0.002681 -0.000796 0.000000 0.003151 0.000000
# 2 -0.002681 0.023767 -0.003831 0.000000 0.000153 0.000000
# 3 -0.000796 -0.003831 0.006685 0.000000 0.001895 0.000000
# 4 0.000000 0.000000 0.000000 0.139230 0.000000 0.087564
# 5 0.003151 0.000153 0.001895 0.000000 0.016925 0.000000
# 6 0.000000 0.000000 0.000000 0.087564 0.000000 0.102497
#
#
# Mechanical properties :
#
#
# Convention : Reuss Voigt Hill
#
# Bulk Modulus (GPa) = 43.38161 68.86481 56.12321
# Shear Modulus (GPa) = 15.69264 40.93915 28.31589
#
# Velocity S-wave (km/s) = 2.48208 4.00901 3.33413
# Velocity P-wave (km/s) = 5.02448 6.96168 6.07085
#
# Compressibility (1/GPa) = 0.02305124
#
# Stress axis : x y z
#
# Youngs Moduli (GPa) = 138.58780 42.07449 149.58886
#
# Poissons Ratio (x) = 0.11281 0.11902
# Poissons Ratio (y) = 0.37159 0.57314
# Poissons Ratio (z) = 0.11027 0.16120
#
# Static dielectric constant tensor:
#      x y z
#    x 2.135340 0.000000 0.091470 
#    y 0.000000 2.050870 0.000000 
#    z 0.091470 0.000000 2.102040 
# 
# From -- ./inp_files/15621.got.cif
#   From: 2010.05.17/outbox.cif.g08.bks.cpg/sg13_8_cif.got.tgz:15621.got - 2010.06.03 16:44:36.
