data_PCOD9237452
_publ_section_title
;
Structure prediction by ZEFSAII (Michael W. Deem and Ramdas Pophale) SiO2 
 PCOD9237452
Probable space group: P 2/C
;
_chemical_formula_sum "Si O2"
_cell_formula_units_Z 16
_cell_length_a 6.718498
_cell_length_b 7.532657
_cell_length_c 13.599441
_cell_angle_alpha 90.000000
_cell_angle_beta 78.573240
_cell_angle_gamma 90.000000
_cell_volume 674.600604
_symmetry_space_group_name_H-M "P 2/C"
_symmetry_group_IT_number 13
_symmetry_cell_setting 'monoclinic'
loop_
_space_group_symop_operation_xyz
x,y,z
-x,y,1/2-z
-x,-y,-z
x,-y,1/2+z
loop_
_atom_site_type_symbol
_atom_site_label
_atom_site_fract_x
_atom_site_fract_y
_atom_site_fract_z
Si Si1 0.893207 0.121752 0.364289
Si Si2 0.083321 0.771985 0.038588
Si Si3 0.674821 0.671586 0.172818
Si Si4 0.310217 0.518288 0.632555
O O1 0.724726 0.274235 0.372950
O O2 0.000000 0.089549 0.250000
O O3 0.059667 0.196778 0.425715
O O4 0.812468 0.938812 0.418318
O O5 0.182160 0.591946 0.066248
O O6 0.852503 0.772861 0.102923
O O7 0.500000 0.780405 0.250000
O O8 0.761057 0.545944 0.251158
O O9 0.541088 0.551792 0.112392
#
# Coordination Sequence:
#
# PCOD9237452 Si02
#       4
#     4   4   4   4
#     4  11  23  36  63  93 119 164 212 255 310 370
#     4  11  21  41  63  85 128 166 203 256 314 367
#     4   8  20  37  66  91 120 170 202 243 314 371
#     4   9  20  39  63  90 125 161 203 254 306 370
#
# _framework density 23.717735000000001
#
# number of rings (size 3 to 8) (size 9 to 14) (size 15 to 20)
#    1.500    0.500    0.000    4.500    0.000    1.000 
#    0.000   17.500    0.000    0.000    0.000    0.000 
#    0.000    0.000    0.000    0.000    0.000    0.000 
#
# Total GULP energy -89390.986021 kJ/mol
# GULP energy per Si atom -5586.936626 kJ/mol
# Density = 2.366375 g / cm^3
# Si number density = 23.717735 Si / 1000 Ang^3
#
#
#
# Elastic Constant Matrix: (Units=GPa)
#
#
# Indices 1 2 3 4 5 6 
#
# 1 57.0147 -4.7110 24.8129 0.0000 4.4265 0.0000
# 2 -4.7110 62.2849 10.5947 0.0000 -6.3812 0.0000
# 3 24.8129 10.5947 122.6605 0.0000 12.4981 0.0000
# 4 0.0000 0.0000 0.0000 26.5906 0.0000 0.0720
# 5 4.4265 -6.3812 12.4981 0.0000 20.7118 0.0000
# 6 0.0000 0.0000 0.0000 0.0720 0.0000 16.2202
#
#
#
# Elastic Compliance Matrix: (Units=1/GPa)
#
#
# Indices 1 2 3 4 5 6 
#
# 1 0.019543 0.002046 -0.004016 0.000000 -0.001123 0.000000
# 2 0.002046 0.017306 -0.002565 0.000000 0.006443 0.000000
# 3 -0.004016 -0.002565 0.009781 0.000000 -0.005834 0.000000
# 4 0.000000 0.000000 0.000000 0.037608 0.000000 -0.000167
# 5 -0.001123 0.006443 -0.005834 0.000000 0.054027 0.000000
# 6 0.000000 0.000000 0.000000 -0.000167 0.000000 0.061652
#
#
# Mechanical properties :
#
#
# Convention : Reuss Voigt Hill
#
# Bulk Modulus (GPa) = 26.62321 33.70591 30.16456
# Shear Modulus (GPa) = 22.57260 26.78876 24.68068
#
# Velocity S-wave (km/s) = 3.08834 3.36442 3.22933
# Velocity P-wave (km/s) = 4.89556 5.41614 5.16242
#
# Compressibility (1/GPa) = 0.03756122
#
# Stress axis : x y z
#
# Youngs Moduli (GPa) = 51.16853 57.78200 102.23977
#
# Poissons Ratio (x) = -0.11823 0.41056
# Poissons Ratio (y) = -0.10470 0.26226
# Poissons Ratio (z) = 0.20548 0.14822
#
# Static dielectric constant tensor:
#      x y z
#    x 1.899110 0.000000 0.007840 
#    y 0.000000 1.860800 0.000000 
#    z 0.007840 0.000000 1.942690 
# 
# From -- ./inp_files/27532.got.cif
#   From: 2010.05.17/outbox.cif.g08.bks.cpg/sg13_14_cif.got.tgz:27532.got - 2010.06.03 16:44:36.
