data_PCOD9237294
_publ_section_title
;
Structure prediction by ZEFSAII (Michael W. Deem and Ramdas Pophale) SiO2 
 PCOD9237294
Probable space group: P 2/C
;
_chemical_formula_sum "Si O2"
_cell_formula_units_Z 32
_cell_length_a 24.299480
_cell_length_b 8.343313
_cell_length_c 13.363862
_cell_angle_alpha 90.000000
_cell_angle_beta 32.037359
_cell_angle_gamma 90.000000
_cell_volume 1437.242513
_symmetry_space_group_name_H-M "P 2/C"
_symmetry_group_IT_number 13
_symmetry_cell_setting 'monoclinic'
loop_
_space_group_symop_operation_xyz
x,y,z
-x,y,1/2-z
-x,-y,-z
x,-y,1/2+z
loop_
_atom_site_type_symbol
_atom_site_label
_atom_site_fract_x
_atom_site_fract_y
_atom_site_fract_z
Si Si1 0.837642 0.590260 0.896867
Si Si2 0.080783 0.749726 0.910481
Si Si3 0.866755 0.891962 0.218928
Si Si4 0.705598 0.072243 0.122322
Si Si5 0.618877 0.245481 0.683350
Si Si6 0.889382 0.881566 0.948087
Si Si7 0.758192 0.347982 0.167203
Si Si8 0.571043 0.588875 0.060690
O O1 0.902261 0.607510 0.695388
O O2 0.888284 0.709303 0.898401
O O3 0.723504 0.661502 0.049446
O O4 0.820336 0.426579 0.980831
O O5 0.158100 0.718823 0.883085
O O6 0.115326 0.915116 0.800942
O O7 0.962159 0.791783 0.117909
O O8 0.758804 0.859676 0.439515
O O9 0.871579 0.863789 0.093090
O O10 0.683249 0.214702 0.233102
O O11 0.625812 0.934653 0.212868
O O12 0.798227 0.982096 0.038653
O O13 0.609990 0.267365 0.576061
O O14 0.517183 0.340969 0.875681
O O15 0.000000 0.958150 0.750000
O O16 0.676320 0.468534 0.347437
O O17 0.500000 0.487520 0.250000
#
# Coordination Sequence:
#
# PCOD9237294 Si02
#       8
#     4   4   4   4   4   4   4   4
#     4  11  22  39  58  88 130 161 198 259 314 376
#     4  11  20  40  62  85 121 169 208 262 303 358
#     4  11  20  37  66  86 119 161 219 264 289 365
#     4  11  22  35  60  97 118 155 214 262 302 368
#     4   8  18  40  64  83 118 152 210 256 312 361
#     4  11  20  37  62  87 110 167 215 243 305 357
#     4  12  24  36  61  92 128 161 203 254 320 387
#     4   8  18  39  68  87 111 170 201 254 326 377
#
# _framework density 22.264858
#
# number of rings (size 3 to 8) (size 9 to 14) (size 15 to 20)
#    0.750    0.750    6.250    0.750    0.000    2.000 
#    2.250    1.250    0.000    3.000    0.000    0.000 
#    0.000    0.000    0.000    0.000    0.000    0.000 
#
# Total GULP energy -178343.296680 kJ/mol
# GULP energy per Si atom -5573.228021 kJ/mol
# Density = 2.221418 g / cm^3
# Si number density = 22.264858 Si / 1000 Ang^3
#
#
#
# Elastic Constant Matrix: (Units=GPa)
#
#
# Indices 1 2 3 4 5 6 
#
# 1 77.6367 5.1101 34.5115 0.0000 1.9838 0.0000
# 2 5.1101 31.3188 12.3316 0.0000 6.3063 0.0000
# 3 34.5115 12.3316 73.9466 0.0000 -1.1556 0.0000
# 4 0.0000 0.0000 0.0000 16.2253 0.0000 11.8571
# 5 1.9838 6.3063 -1.1556 0.0000 28.6931 0.0000
# 6 0.0000 0.0000 0.0000 11.8571 0.0000 10.8236
#
#
#
# Elastic Compliance Matrix: (Units=1/GPa)
#
#
# Indices 1 2 3 4 5 6 
#
# 1 0.016325 0.000715 -0.007763 0.000000 -0.001599 0.000000
# 2 0.000715 0.036016 -0.006468 0.000000 -0.008226 0.000000
# 3 -0.007763 -0.006468 0.018267 0.000000 0.002694 0.000000
# 4 0.000000 0.000000 0.000000 0.309030 0.000000 -0.338540
# 5 -0.001599 -0.008226 0.002694 0.000000 0.036879 0.000000
# 6 0.000000 0.000000 0.000000 -0.338540 0.000000 0.463259
#
#
# Mechanical properties :
#
#
# Convention : Reuss Voigt Hill
#
# Bulk Modulus (GPa) = 22.94883 31.86762 27.40823
# Shear Modulus (GPa) = 5.42691 19.87832 12.65262
#
# Velocity S-wave (km/s) = 1.56292 2.99124 2.38644
# Velocity P-wave (km/s) = 3.68599 5.12582 4.46434
#
# Compressibility (1/GPa) = 0.04357520
#
# Stress axis : x y z
#
# Youngs Moduli (GPa) = 61.25452 27.76522 54.74260
#
# Poissons Ratio (x) = -0.01985 0.42499
# Poissons Ratio (y) = -0.04380 0.35410
# Poissons Ratio (z) = 0.47554 0.17960
#
# Static dielectric constant tensor:
#      x y z
#    x 1.821910 0.000000 0.011700 
#    y 0.000000 1.868040 0.000000 
#    z 0.011700 0.000000 1.868990 
# 
# From -- ./inp_files/59495.got.cif
#   From: 2010.05.17/outbox.cif.g08.bks.cpg/sg13_30_cif.got.tgz:59495.got - 2010.06.03 16:44:36.
