data_PCOD9237768
_publ_section_title
;
Structure prediction by ZEFSAII (Michael W. Deem and Ramdas Pophale) SiO2 
 PCOD9237768
Probable space group: P 2/C
;
_chemical_formula_sum "Si O2"
_cell_formula_units_Z 16
_cell_length_a 7.842071
_cell_length_b 17.653680
_cell_length_c 5.577345
_cell_angle_alpha 90.000000
_cell_angle_beta 114.112648
_cell_angle_gamma 90.000000
_cell_volume 704.762073
_symmetry_space_group_name_H-M "P 2/C"
_symmetry_group_IT_number 13
_symmetry_cell_setting 'monoclinic'
loop_
_space_group_symop_operation_xyz
x,y,z
-x,y,1/2-z
-x,-y,-z
x,-y,1/2+z
loop_
_atom_site_type_symbol
_atom_site_label
_atom_site_fract_x
_atom_site_fract_y
_atom_site_fract_z
Si Si1 0.000000 0.545675 0.250000
Si Si2 0.296229 0.796122 0.251810
Si Si3 0.708288 0.343375 0.421344
Si Si4 0.716449 0.972308 0.323483
Si Si5 0.000000 0.716078 0.750000
O O1 0.000000 0.500000 0.500000
O O2 0.181402 0.600355 0.342591
O O3 0.500000 0.782355 0.250000
O O4 0.297674 0.742614 0.483678
O O5 0.278423 0.885971 0.265689
O O6 0.117985 0.767735 0.999259
O O7 0.500000 0.368964 0.250000
O O8 0.842144 0.336832 0.271876
O O9 0.500000 0.994756 0.250000
O O10 0.793434 0.980325 0.640486
#
# Coordination Sequence:
#
# PCOD9237768 Si02
#       5
#     2   4   4   4   2
#     4  12  29  52  78 113 154 190 232 294 369 446
#     4  11  23  40  74 104 140 196 250 306 363 429
#     4  12  26  46  78 108 146 192 246 298 359 433
#     4   9  20  37  61  97 144 191 241 301 368 429
#     4  12  23  44  70 107 144 184 244 312 359 416
#
# _framework density 22.702698999999999
#
# number of rings (size 3 to 8) (size 9 to 14) (size 15 to 20)
#    0.000    1.000    5.000    0.750    3.500    2.000 
#    0.000    1.250    0.000    0.000    0.000    0.000 
#    0.000    0.000    0.000    0.000    0.000    0.000 
#
# Total GULP energy -89350.086088 kJ/mol
# GULP energy per Si atom -5584.380380 kJ/mol
# Density = 2.265103 g / cm^3
# Si number density = 22.702699 Si / 1000 Ang^3
#
#
#
# Elastic Constant Matrix: (Units=GPa)
#
#
# Indices 1 2 3 4 5 6 
#
# 1 138.9571 45.0236 56.7865 0.0000 26.0220 0.0000
# 2 45.0236 100.3170 40.8090 0.0000 -13.8339 0.0000
# 3 56.7865 40.8090 103.8615 0.0000 2.1877 0.0000
# 4 0.0000 0.0000 0.0000 30.6439 0.0000 -17.5837
# 5 26.0220 -13.8339 2.1877 0.0000 55.7038 0.0000
# 6 0.0000 0.0000 0.0000 -17.5837 0.0000 6.2611
#
#
#
# Elastic Compliance Matrix: (Units=1/GPa)
#
#
# Indices 1 2 3 4 5 6 
#
# 1 0.011603 -0.004223 -0.004552 0.000000 -0.006290 0.000000
# 2 -0.004223 0.013974 -0.003299 0.000000 0.005573 0.000000
# 3 -0.004552 -0.003299 0.013397 0.000000 0.000781 0.000000
# 4 0.000000 0.000000 0.000000 -0.053366 0.000000 -0.149874
# 5 -0.006290 0.005573 0.000781 0.000000 0.022244 0.000000
# 6 0.000000 0.000000 0.000000 -0.149874 0.000000 -0.261193
#
#
# Mechanical properties :
#
#
# Convention : Reuss Voigt Hill
#
# Bulk Modulus (GPa) = 67.45153 69.81931 68.63542
# Shear Modulus (GPa) = -22.29658 31.88953 4.79648
#
# Velocity S-wave (km/s) = -3.13727 3.75194 1.45510
# Velocity P-wave (km/s) = 4.08069 7.04201 5.75508
#
# Compressibility (1/GPa) = 0.01482546
#
# Stress axis : x y z
#
# Youngs Moduli (GPa) = 86.18356 71.55907 74.64399
#
# Poissons Ratio (x) = 0.30222 0.33979
# Poissons Ratio (y) = 0.36398 0.24626
# Poissons Ratio (z) = 0.39232 0.23608
#
# Static dielectric constant tensor:
#      x y z
#    x 1.841680 0.000000 -0.056500 
#    y 0.000000 1.862110 0.000000 
#    z -0.056500 0.000000 1.968250 
# 
# From -- ./inp_files/1400.got.cif
#   From: 2010.05.17/outbox.cif.g08.bks.cpg/sg13_1_cif.got.tgz:1400.got - 2010.06.03 16:44:36.
