data_PCOD9237971
_publ_section_title
;
Structure prediction by ZEFSAII (Michael W. Deem and Ramdas Pophale) SiO2 
 PCOD9237971
Probable space group: P 2/C
;
_chemical_formula_sum "Si O2"
_cell_formula_units_Z 20
_cell_length_a 7.567089
_cell_length_b 8.254733
_cell_length_c 16.457329
_cell_angle_alpha 90.000000
_cell_angle_beta 124.067317
_cell_angle_gamma 90.000000
_cell_volume 851.570935
_symmetry_space_group_name_H-M "P 2/C"
_symmetry_group_IT_number 13
_symmetry_cell_setting 'monoclinic'
loop_
_space_group_symop_operation_xyz
x,y,z
-x,y,1/2-z
-x,-y,-z
x,-y,1/2+z
loop_
_atom_site_type_symbol
_atom_site_label
_atom_site_fract_x
_atom_site_fract_y
_atom_site_fract_z
Si Si1 0.408497 0.070449 0.892284
Si Si2 0.235898 0.625284 0.284121
Si Si3 0.000000 0.150683 0.250000
Si Si4 0.922883 0.793195 0.899563
Si Si5 0.500000 0.376216 0.250000
Si Si6 0.811313 0.153521 0.887109
O O1 0.325189 0.255265 0.877107
O O2 0.597475 0.089060 0.875244
O O3 0.214837 0.958774 0.809707
O O4 0.500000 0.000000 0.000000
O O5 0.390997 0.484929 0.292264
O O6 0.221091 0.740654 0.200423
O O7 0.000000 0.578703 0.250000
O O8 0.009504 0.255051 0.334181
O O9 0.682708 0.730978 0.838633
O O10 0.938387 0.989243 0.899923
O O11 0.059318 0.745055 0.012203
#
# Coordination Sequence:
#
# PCOD9237971 Si02
#       6
#     4   4   2   4   2   4
#     4  12  22  41  73 111 139 187 249 310 358 420
#     4  12  26  49  72 105 150 203 241 303 370 451
#     4  12  22  42  74 110 146 184 258 306 362 426
#     4  11  25  43  72 108 139 194 242 316 357 441
#     4  12  28  48  72 104 160 192 242 294 394 448
#     4  11  23  46  76 103 147 186 259 306 362 420
#
# _framework density 23.486006
#
# number of rings (size 3 to 8) (size 9 to 14) (size 15 to 20)
#    0.000    0.400    7.000    1.200    4.200    0.800 
#    0.000    1.000    0.000    0.000    0.000    0.000 
#    0.000    0.000    0.000    0.000    0.000    0.000 
#
# Total GULP energy -111906.560538 kJ/mol
# GULP energy per Si atom -5595.328027 kJ/mol
# Density = 2.343255 g / cm^3
# Si number density = 23.486006 Si / 1000 Ang^3
#
#
#
# Elastic Constant Matrix: (Units=GPa)
#
#
# Indices 1 2 3 4 5 6 
#
# 1 137.1319 24.7146 44.8745 0.0000 0.2981 0.0000
# 2 24.7146 76.4788 39.6274 0.0000 -1.8588 0.0000
# 3 44.8745 39.6274 170.0035 0.0000 -0.8432 0.0000
# 4 0.0000 0.0000 0.0000 21.2823 0.0000 -1.3766
# 5 0.2981 -1.8588 -0.8432 0.0000 34.4972 0.0000
# 6 0.0000 0.0000 0.0000 -1.3766 0.0000 21.6452
#
#
#
# Elastic Compliance Matrix: (Units=1/GPa)
#
#
# Indices 1 2 3 4 5 6 
#
# 1 0.008180 -0.001739 -0.001755 0.000000 -0.000207 0.000000
# 2 -0.001739 0.015259 -0.003094 0.000000 0.000762 0.000000
# 3 -0.001755 -0.003094 0.007067 0.000000 0.000021 0.000000
# 4 0.000000 0.000000 0.000000 0.047182 0.000000 0.003001
# 5 -0.000207 0.000762 0.000021 0.000000 0.029031 0.000000
# 6 0.000000 0.000000 0.000000 0.003001 0.000000 0.046390
#
#
# Mechanical properties :
#
#
# Convention : Reuss Voigt Hill
#
# Bulk Modulus (GPa) = 57.70335 66.89414 62.29874
# Shear Modulus (GPa) = 29.05917 33.77812 31.41865
#
# Velocity S-wave (km/s) = 3.52134 3.79651 3.66151
# Velocity P-wave (km/s) = 6.41527 6.91103 6.66776
#
# Compressibility (1/GPa) = 0.01733002
#
# Stress axis : x y z
#
# Youngs Moduli (GPa) = 122.24284 65.53402 141.50715
#
# Poissons Ratio (x) = 0.11398 0.24834
# Poissons Ratio (y) = 0.21261 0.43783
# Poissons Ratio (z) = 0.21453 0.20276
#
# Static dielectric constant tensor:
#      x y z
#    x 1.947900 0.000000 -0.001480 
#    y 0.000000 1.940780 0.000000 
#    z -0.001480 0.000000 1.903420 
# 
# From -- ./inp_files/63582.got.cif
#   From: 2010.05.17/outbox.cif.g08.bks.cpg/sg13_32_cif.got.tgz:63582.got - 2010.06.03 16:44:36.
