data_PCOD9237088
_publ_section_title
;
Structure prediction by ZEFSAII (Michael W. Deem and Ramdas Pophale) SiO2 
 PCOD9237088
Probable space group: P 2/C
;
_chemical_formula_sum "Si O2"
_cell_formula_units_Z 20
_cell_length_a 8.396287
_cell_length_b 8.430400
_cell_length_c 17.151121
_cell_angle_alpha 90.000000
_cell_angle_beta 42.307233
_cell_angle_gamma 90.000000
_cell_volume 817.167999
_symmetry_space_group_name_H-M "P 2/C"
_symmetry_group_IT_number 13
_symmetry_cell_setting 'monoclinic'
loop_
_space_group_symop_operation_xyz
x,y,z
-x,y,1/2-z
-x,-y,-z
x,-y,1/2+z
loop_
_atom_site_type_symbol
_atom_site_label
_atom_site_fract_x
_atom_site_fract_y
_atom_site_fract_z
Si Si1 0.402359 0.286456 0.931570
Si Si2 0.861920 0.818993 0.663040
Si Si3 0.248855 0.400249 0.418694
Si Si4 0.500000 0.927829 0.250000
Si Si5 0.337573 0.845229 0.027098
Si Si6 0.000000 0.027151 0.250000
O O1 0.406055 0.460985 0.895498
O O2 0.500921 0.173160 0.828196
O O3 0.557328 0.283901 0.952707
O O4 0.138848 0.216886 0.046805
O O5 0.733494 0.667410 0.674739
O O6 0.734057 0.963926 0.665903
O O7 0.823255 0.855470 0.768214
O O8 0.278023 0.247615 0.467490
O O9 0.000000 0.500000 0.500000
O O10 0.092310 0.914603 0.148722
O O11 0.500000 0.000000 0.000000
#
# Coordination Sequence:
#
# PCOD9237088 Si02
#       6
#     4   4   4   2   4   2
#     4  11  24  46  70 105 147 186 239 307 369 433
#     4  11  25  44  69 105 145 187 248 294 362 441
#     4  10  26  46  71 103 150 193 232 314 377 431
#     4  12  24  42  74 110 136 198 246 302 364 450
#     4  12  24  46  76 106 143 194 251 301 365 445
#     4  12  26  42  74 106 136 190 248 298 350 438
#
# _framework density 24.474772999999999
#
# number of rings (size 3 to 8) (size 9 to 14) (size 15 to 20)
#    0.000    0.800    4.000    2.400    5.600    0.800 
#    0.000    6.000    0.000    0.000    0.000    0.000 
#    0.000    0.000    0.000    0.000    0.000    0.000 
#
# Total GULP energy -111392.164179 kJ/mol
# GULP energy per Si atom -5569.608209 kJ/mol
# Density = 2.441907 g / cm^3
# Si number density = 24.474773 Si / 1000 Ang^3
#
#
#
# Elastic Constant Matrix: (Units=GPa)
#
#
# Indices 1 2 3 4 5 6 
#
# 1 155.0772 61.1049 32.9589 0.0000 22.9464 0.0000
# 2 61.1049 145.2228 42.2415 0.0000 25.0980 0.0000
# 3 32.9589 42.2415 61.6218 0.0000 8.5170 0.0000
# 4 0.0000 0.0000 0.0000 42.7301 0.0000 17.3995
# 5 22.9464 25.0980 8.5170 0.0000 42.3149 0.0000
# 6 0.0000 0.0000 0.0000 17.3995 0.0000 55.8785
#
#
#
# Elastic Compliance Matrix: (Units=1/GPa)
#
#
# Indices 1 2 3 4 5 6 
#
# 1 0.008272 -0.002306 -0.002482 0.000000 -0.002618 0.000000
# 2 -0.002306 0.009967 -0.005096 0.000000 -0.003635 0.000000
# 3 -0.002482 -0.005096 0.021030 0.000000 0.000136 0.000000
# 4 0.000000 0.000000 0.000000 0.026801 0.000000 -0.008345
# 5 -0.002618 -0.003635 0.000136 0.000000 0.027181 0.000000
# 6 0.000000 0.000000 0.000000 -0.008345 0.000000 0.020495
#
#
# Mechanical properties :
#
#
# Convention : Reuss Voigt Hill
#
# Bulk Modulus (GPa) = 51.28003 70.50362 60.89182
# Shear Modulus (GPa) = 35.71065 43.22579 39.46822
#
# Velocity S-wave (km/s) = 3.82393 4.20710 4.02009
# Velocity P-wave (km/s) = 6.36351 7.24353 6.81774
#
# Compressibility (1/GPa) = 0.01950077
#
# Stress axis : x y z
#
# Youngs Moduli (GPa) = 120.89038 100.33070 47.55086
#
# Poissons Ratio (x) = 0.23139 0.11800
# Poissons Ratio (y) = 0.27880 0.24234
# Poissons Ratio (z) = 0.29999 0.51133
#
# Static dielectric constant tensor:
#      x y z
#    x 2.161240 0.000000 -0.159310 
#    y 0.000000 1.981930 0.000000 
#    z -0.159310 0.000000 2.174040 
# 
# From -- ./inp_files/63180.got.cif
#   From: 2010.05.17/outbox.cif.g08.bks.cpg/sg13_32_cif.got.tgz:63180.got - 2010.06.03 16:44:36.
