data_PCOD9237164
_publ_section_title
;
Structure prediction by ZEFSAII (Michael W. Deem and Ramdas Pophale) SiO2 
 PCOD9237164
Probable space group: P 2/C
;
_chemical_formula_sum "Si O2"
_cell_formula_units_Z 28
_cell_length_a 14.087720
_cell_length_b 10.730145
_cell_length_c 9.496526
_cell_angle_alpha 90.000000
_cell_angle_beta 53.843192
_cell_angle_gamma 90.000000
_cell_volume 1159.051312
_symmetry_space_group_name_H-M "P 2/C"
_symmetry_group_IT_number 13
_symmetry_cell_setting 'monoclinic'
loop_
_space_group_symop_operation_xyz
x,y,z
-x,y,1/2-z
-x,-y,-z
x,-y,1/2+z
loop_
_atom_site_type_symbol
_atom_site_label
_atom_site_fract_x
_atom_site_fract_y
_atom_site_fract_z
Si Si1 0.862705 0.721980 0.185871
Si Si2 0.237606 0.555451 0.430151
Si Si3 0.682399 0.870889 0.514416
Si Si4 0.000000 0.522400 0.250000
Si Si5 0.315260 0.896147 0.665731
Si Si6 0.359413 0.612405 0.617794
Si Si7 0.041352 0.886235 0.869876
Si Si8 0.500000 0.655383 0.750000
O O1 0.804879 0.822653 0.341741
O O2 0.920652 0.610360 0.221449
O O3 0.755186 0.672629 0.182063
O O4 0.969161 0.775681 0.003157
O O5 0.101354 0.557705 0.590887
O O6 0.319607 0.563778 0.497515
O O7 0.256114 0.433672 0.315526
O O8 0.690949 0.924477 0.663486
O O9 0.601754 0.748992 0.606557
O O10 0.636691 0.983758 0.457943
O O11 0.374866 0.761719 0.589450
O O12 0.180399 0.871474 0.742297
O O13 0.462748 0.579445 0.642092
O O14 0.000000 0.907073 0.750000
O O15 0.000000 0.000000 0.000000
#
# Coordination Sequence:
#
# PCOD9237164 Si02
#       8
#     4   4   4   2   4   4   4   2
#     4  12  25  41  70 103 150 187 238 285 357 432
#     4  12  26  45  69 105 144 190 243 287 351 435
#     4  11  25  46  73 104 142 181 240 303 365 429
#     4  12  24  42  66 104 144 198 220 292 350 434
#     4  11  24  43  70 103 145 182 231 293 358 437
#     4  11  26  47  72  99 141 186 243 306 353 419
#     4  12  24  37  63 101 141 185 223 274 351 432
#     4  10  26  52  78 104 138 186 244 318 374 416
#
# _framework density 24.157686000000002
#
# number of rings (size 3 to 8) (size 9 to 14) (size 15 to 20)
#    0.000    0.571    2.857    5.571    6.000    2.857 
#    0.000    0.000    0.000    0.000    0.000    0.000 
#    0.000    0.000    0.000    0.000    0.000    0.000 
#
# Total GULP energy -156452.893774 kJ/mol
# GULP energy per Si atom -5587.603349 kJ/mol
# Density = 2.410270 g / cm^3
# Si number density = 24.157686 Si / 1000 Ang^3
#
#
#
# Elastic Constant Matrix: (Units=GPa)
#
#
# Indices 1 2 3 4 5 6 
#
# 1 97.4752 -4.4990 17.4293 0.0000 33.2499 0.0000
# 2 -4.4990 69.6862 18.6774 0.0000 22.1238 0.0000
# 3 17.4293 18.6774 79.7125 0.0000 44.0430 0.0000
# 4 0.0000 0.0000 0.0000 -165.6690 0.0000 58.0272
# 5 33.2499 22.1238 44.0430 0.0000 45.2795 0.0000
# 6 0.0000 0.0000 0.0000 58.0272 0.0000 23.5029
#
#
#
# Elastic Compliance Matrix: (Units=1/GPa)
#
#
# Indices 1 2 3 4 5 6 
#
# 1 0.016991 0.006342 0.007361 0.000000 -0.022735 0.000000
# 2 0.006342 0.019415 0.004062 0.000000 -0.018094 0.000000
# 3 0.007361 0.004062 0.030411 0.000000 -0.036970 0.000000
# 4 0.000000 0.000000 0.000000 -0.003237 0.000000 0.007992
# 5 -0.022735 -0.018094 -0.036970 0.000000 0.083581 0.000000
# 6 0.000000 0.000000 0.000000 0.007992 0.000000 0.022817
#
#
# Mechanical properties :
#
#
# Convention : Reuss Voigt Hill
#
# Bulk Modulus (GPa) = 9.77086 34.45437 22.11261
# Shear Modulus (GPa) = 29.66226 -5.02625 12.31800
#
# Velocity S-wave (km/s) = 3.50788 -1.44399 2.26055
# Velocity P-wave (km/s) = 4.52332 3.39309 3.99834
#
# Compressibility (1/GPa) = 0.10234519
#
# Stress axis : x y z
#
# Youngs Moduli (GPa) = 58.85532 51.50547 32.88327
#
# Poissons Ratio (x) = -0.32665 -0.24204
# Poissons Ratio (y) = -0.37326 -0.13356
# Poissons Ratio (z) = -0.43321 -0.20919
#
# Static dielectric constant tensor:
#      x y z
#    x 1.989830 0.000000 -0.019450 
#    y 0.000000 1.929130 0.000000 
#    z -0.019450 0.000000 1.950290 
# 
# From -- ./inp_files/18715.got.cif
#   From: 2010.05.17/outbox.cif.g08.bks.cpg/sg13_10_cif.got.tgz:18715.got - 2010.06.03 16:44:36.
