data_PCOD9237625
_publ_section_title
;
Structure prediction by ZEFSAII (Michael W. Deem and Ramdas Pophale) SiO2 
 PCOD9237625
Probable space group: P 2/C
;
_chemical_formula_sum "Si O2"
_cell_formula_units_Z 26
_cell_length_a 10.898077
_cell_length_b 14.243069
_cell_length_c 8.291409
_cell_angle_alpha 90.000000
_cell_angle_beta 74.368448
_cell_angle_gamma 90.000000
_cell_volume 1239.408695
_symmetry_space_group_name_H-M "P 2/C"
_symmetry_group_IT_number 13
_symmetry_cell_setting 'monoclinic'
loop_
_space_group_symop_operation_xyz
x,y,z
-x,y,1/2-z
-x,-y,-z
x,-y,1/2+z
loop_
_atom_site_type_symbol
_atom_site_label
_atom_site_fract_x
_atom_site_fract_y
_atom_site_fract_z
Si Si1 0.082623 0.927019 0.868096
Si Si2 0.364621 0.862714 0.246375
Si Si3 0.303660 0.361441 0.433890
Si Si4 0.862988 0.777796 0.383049
Si Si5 0.500000 0.794766 0.750000
Si Si6 0.657819 0.948035 0.897335
Si Si7 0.401004 0.529296 0.172879
O O1 0.204329 0.965760 0.731270
O O2 0.000000 0.884188 0.750000
O O3 0.132736 0.859730 0.988471
O O4 0.000000 0.000000 0.000000
O O5 0.500000 0.815276 0.250000
O O6 0.251195 0.802499 0.204684
O O7 0.322467 0.912539 0.428093
O O8 0.402161 0.948420 0.110907
O O9 0.169305 0.310450 0.489710
O O10 0.407886 0.277894 0.378196
O O11 0.338982 0.441101 0.289050
O O12 0.304981 0.408616 0.609595
O O13 0.000000 0.770414 0.250000
O O14 0.587633 0.864206 0.824773
O O15 0.500000 0.584071 0.250000
O O16 0.500000 0.500000 0.000000
#
# Coordination Sequence:
#
# PCOD9237625 Si02
#       7
#     4   4   4   4   2   4   4
#     4  12  24  42  65  91 130 190 242 282 331 398
#     4  12  25  42  64  97 142 191 241 286 343 393
#     4  11  22  42  68 102 133 173 224 289 352 420
#     4  12  26  46  66 100 144 189 240 284 330 417
#     4  12  22  38  66 100 138 172 232 292 340 408
#     4  12  24  39  62  94 138 187 231 290 344 387
#     4   9  18  38  67  98 133 164 211 281 362 418
#
# _framework density 20.977744999999999
#
# number of rings (size 3 to 8) (size 9 to 14) (size 15 to 20)
#    0.000    0.615    4.615    6.462    0.000    1.846 
#    0.000    0.769    0.000    0.000    0.000    0.000 
#    0.000    0.000    0.000    0.000    0.000    0.000 
#
# Total GULP energy -144940.305653 kJ/mol
# GULP energy per Si atom -5574.627140 kJ/mol
# Density = 2.093000 g / cm^3
# Si number density = 20.977745 Si / 1000 Ang^3
#
#
#
# Elastic Constant Matrix: (Units=GPa)
#
#
# Indices 1 2 3 4 5 6 
#
# 1 104.9911 32.2060 44.4327 0.0000 8.1780 0.0000
# 2 32.2060 97.6331 33.8524 0.0000 3.7040 0.0000
# 3 44.4327 33.8524 130.2810 0.0000 -1.2255 0.0000
# 4 0.0000 0.0000 0.0000 27.8058 0.0000 -15.8847
# 5 8.1780 3.7040 -1.2255 0.0000 33.1112 0.0000
# 6 0.0000 0.0000 0.0000 -15.8847 0.0000 20.7130
#
#
#
# Elastic Compliance Matrix: (Units=1/GPa)
#
#
# Indices 1 2 3 4 5 6 
#
# 1 0.012012 -0.002667 -0.003430 0.000000 -0.002795 0.000000
# 2 -0.002667 0.011911 -0.002192 0.000000 -0.000755 0.000000
# 3 -0.003430 -0.002192 0.009429 0.000000 0.001441 0.000000
# 4 0.000000 0.000000 0.000000 0.064005 0.000000 0.049085
# 5 -0.002795 -0.000755 0.001441 0.000000 0.031029 0.000000
# 6 0.000000 0.000000 0.000000 0.049085 0.000000 0.085922
#
#
# Mechanical properties :
#
#
# Convention : Reuss Voigt Hill
#
# Bulk Modulus (GPa) = 59.62038 61.54304 60.58171
# Shear Modulus (GPa) = 21.14362 31.15361 26.14862
#
# Velocity S-wave (km/s) = 3.17820 3.85785 3.53440
# Velocity P-wave (km/s) = 6.47691 7.01748 6.75261
#
# Compressibility (1/GPa) = 0.01677279
#
# Stress axis : x y z
#
# Youngs Moduli (GPa) = 83.24951 83.95571 106.05803
#
# Poissons Ratio (x) = 0.22391 0.36378
# Poissons Ratio (y) = 0.22203 0.23253
# Poissons Ratio (z) = 0.28555 0.18407
#
# Static dielectric constant tensor:
#      x y z
#    x 1.763390 0.000000 -0.076080 
#    y 0.000000 1.819690 0.000000 
#    z -0.076080 0.000000 1.690790 
# 
# From -- ./inp_files/16401.got.cif
#   From: 2010.05.17/outbox.cif.g08.bks.cpg/sg13_9_cif.got.tgz:16401.got - 2010.06.03 16:44:36.
