data_PCOD9237353
_publ_section_title
;
Structure prediction by ZEFSAII (Michael W. Deem and Ramdas Pophale) SiO2 
 PCOD9237353
Probable space group: P 2/C
;
_chemical_formula_sum "Si O2"
_cell_formula_units_Z 18
_cell_length_a 6.256268
_cell_length_b 16.321843
_cell_length_c 14.122780
_cell_angle_alpha 90.000000
_cell_angle_beta 139.477468
_cell_angle_gamma 90.000000
_cell_volume 937.020386
_symmetry_space_group_name_H-M "P 2/C"
_symmetry_group_IT_number 13
_symmetry_cell_setting 'monoclinic'
loop_
_space_group_symop_operation_xyz
x,y,z
-x,y,1/2-z
-x,-y,-z
x,-y,1/2+z
loop_
_atom_site_type_symbol
_atom_site_label
_atom_site_fract_x
_atom_site_fract_y
_atom_site_fract_z
Si Si1 0.384583 0.921025 0.406142
Si Si2 0.139529 0.379277 0.594727
Si Si3 0.122953 0.763171 0.394468
Si Si4 0.858708 0.537675 0.601166
Si Si5 0.500000 0.866709 0.250000
O O1 0.397332 0.832710 0.464915
O O2 0.568672 0.916212 0.368309
O O3 0.000000 0.930267 0.250000
O O4 0.500000 0.000000 0.500000
O O5 0.500000 0.350201 0.750000
O O6 0.148557 0.395880 0.485556
O O7 0.855552 0.315716 0.531456
O O8 0.074951 0.463738 0.629481
O O9 0.000000 0.732457 0.250000
O O10 0.820002 0.813571 0.336219
O O11 0.500000 0.500000 0.500000
O O12 0.000000 0.565086 0.750000
#
# Coordination Sequence:
#
# PCOD9237353 Si02
#       5
#     4   4   4   4   2
#     4   9  19  33  55  86 111 145 188 235 286 349
#     4  11  21  34  61  87 110 155 203 248 288 344
#     4   9  18  31  55  86 107 141 195 241 281 337
#     4  11  23  38  57  85 118 156 198 240 297 352
#     4   8  16  32  56  80 106 138 188 234 270 340
#
# _framework density 19.209827000000001
#
# number of rings (size 3 to 8) (size 9 to 14) (size 15 to 20)
#    0.000    2.667    3.333    0.667    0.000    3.556 
#    0.000    0.000    0.000   13.333    0.000    0.000 
#    0.000    0.000    0.000    0.000    0.000    0.000 
#
# Total GULP energy -100242.410656 kJ/mol
# GULP energy per Si atom -5569.022814 kJ/mol
# Density = 1.916610 g / cm^3
# Si number density = 19.209827 Si / 1000 Ang^3
#
#
#
# Elastic Constant Matrix: (Units=GPa)
#
#
# Indices 1 2 3 4 5 6 
#
# 1 101.9585 27.2300 40.6024 0.0000 -39.9514 0.0000
# 2 27.2300 92.4165 43.0587 0.0000 -32.3142 0.0000
# 3 40.6024 43.0587 84.0336 0.0000 -35.8010 0.0000
# 4 0.0000 0.0000 0.0000 21.1415 0.0000 -10.2897
# 5 -39.9514 -32.3142 -35.8010 0.0000 42.6753 0.0000
# 6 0.0000 0.0000 0.0000 -10.2897 0.0000 18.2318
#
#
#
# Elastic Compliance Matrix: (Units=1/GPa)
#
#
# Indices 1 2 3 4 5 6 
#
# 1 0.015819 0.001280 -0.002454 0.000000 0.013720 0.000000
# 2 0.001280 0.015917 -0.004869 0.000000 0.009165 0.000000
# 3 -0.002454 -0.004869 0.020279 0.000000 0.011028 0.000000
# 4 0.000000 0.000000 0.000000 0.065214 0.000000 0.036805
# 5 0.013720 0.009165 0.011028 0.000000 0.052468 0.000000
# 6 0.000000 0.000000 0.000000 0.036805 0.000000 0.075621
#
#
# Mechanical properties :
#
#
# Convention : Reuss Voigt Hill
#
# Bulk Modulus (GPa) = 25.04518 55.57676 40.31097
# Shear Modulus (GPa) = 18.46955 27.57757 23.02356
#
# Velocity S-wave (km/s) = 3.10411 3.79304 3.46574
# Velocity P-wave (km/s) = 5.09051 6.94097 6.08648
#
# Compressibility (1/GPa) = 0.03992785
#
# Stress axis : x y z
#
# Youngs Moduli (GPa) = 63.21349 62.82563 49.31217
#
# Poissons Ratio (x) = -0.08039 0.12101
# Poissons Ratio (y) = -0.08088 0.24012
# Poissons Ratio (z) = 0.15512 0.30592
#
# Static dielectric constant tensor:
#      x y z
#    x 1.740010 0.000000 -0.029050 
#    y 0.000000 1.757150 0.000000 
#    z -0.029050 0.000000 1.700440 
# 
# From -- ./inp_files/9564.got.cif
#   From: 2010.05.17/outbox.cif.g08.bks.cpg/sg13_5_cif.got.tgz:9564.got - 2010.06.03 16:44:36.
