data_PCOD9237923
_publ_section_title
;
Structure prediction by ZEFSAII (Michael W. Deem and Ramdas Pophale) SiO2 
 PCOD9237923
Probable space group: P 2/C
;
_chemical_formula_sum "Si O2"
_cell_formula_units_Z 30
_cell_length_a 27.824335
_cell_length_b 6.847579
_cell_length_c 9.833275
_cell_angle_alpha 90.000000
_cell_angle_beta 54.716574
_cell_angle_gamma 90.000000
_cell_volume 1529.369180
_symmetry_space_group_name_H-M "P 2/C"
_symmetry_group_IT_number 13
_symmetry_cell_setting 'monoclinic'
loop_
_space_group_symop_operation_xyz
x,y,z
-x,y,1/2-z
-x,-y,-z
x,-y,1/2+z
loop_
_atom_site_type_symbol
_atom_site_label
_atom_site_fract_x
_atom_site_fract_y
_atom_site_fract_z
Si Si1 0.352054 0.294744 0.828835
Si Si2 0.500000 0.674290 0.750000
Si Si3 0.840761 0.942754 0.085601
Si Si4 0.435839 0.073825 0.150663
Si Si5 0.125578 0.444579 0.802320
Si Si6 0.215745 0.786006 0.600014
Si Si7 0.930864 0.283302 0.883013
Si Si8 0.597095 0.565651 0.974282
O O1 0.360591 0.431838 0.684553
O O2 0.391346 0.102254 0.744131
O O3 0.284652 0.244609 0.966485
O O4 0.378858 0.406552 0.914236
O O5 0.549874 0.807986 0.735397
O O6 0.533469 0.538401 0.588028
O O7 0.857509 0.748780 0.141465
O O8 0.798260 0.074330 0.249241
O O9 0.811713 0.882359 0.990600
O O10 0.897278 0.079263 0.963910
O O11 0.410907 0.225570 0.082476
O O12 0.500000 0.000000 0.000000
O O13 0.182130 0.581235 0.680510
O O14 0.096510 0.381503 0.707615
O O15 0.083130 0.576436 0.966077
O O16 0.000000 0.255467 0.750000
#
# Coordination Sequence:
#
# PCOD9237923 Si02
#       8
#     4   2   4   4   4   4   4   4
#     4  12  29  44  70 103 131 178 227 279 334 403
#     4  12  22  46  68  96 136 176 206 278 342 414
#     4  11  24  46  70  99 139 181 226 278 339 393
#     4  12  24  44  69  96 136 171 219 271 345 404
#     4  11  23  45  67 100 137 185 226 278 339 394
#     4  11  27  45  71  97 136 180 230 279 333 402
#     4  11  24  42  70 105 138 180 231 281 336 401
#     4  12  26  46  66 102 133 169 223 275 338 403
#
# _framework density 19.615929000000001
#
# number of rings (size 3 to 8) (size 9 to 14) (size 15 to 20)
#    0.000    0.533    5.333    2.400    3.733    2.133 
#    0.000    0.000    0.000    0.000    0.000    0.000 
#    0.000    0.000    0.000    0.000    0.000    0.000 
#
# Total GULP energy -167876.711491 kJ/mol
# GULP energy per Si atom -5595.890383 kJ/mol
# Density = 1.957128 g / cm^3
# Si number density = 19.615929 Si / 1000 Ang^3
#
#
#
# Elastic Constant Matrix: (Units=GPa)
#
#
# Indices 1 2 3 4 5 6 
#
# 1 58.6998 53.7981 46.7356 0.0000 -32.4972 0.0000
# 2 53.7981 146.1446 72.3189 0.0000 -18.7343 0.0000
# 3 46.7356 72.3189 121.9578 0.0000 -26.4531 0.0000
# 4 0.0000 0.0000 0.0000 -2.1605 0.0000 0.2494
# 5 -32.4972 -18.7343 -26.4531 0.0000 51.6540 0.0000
# 6 0.0000 0.0000 0.0000 0.2494 0.0000 13.3645
#
#
#
# Elastic Compliance Matrix: (Units=1/GPa)
#
#
# Indices 1 2 3 4 5 6 
#
# 1 0.041616 -0.009934 -0.005804 0.000000 0.019606 0.000000
# 2 -0.009934 0.012074 -0.004229 0.000000 -0.004036 0.000000
# 3 -0.005804 -0.004229 0.013282 0.000000 0.001617 0.000000
# 4 0.000000 0.000000 0.000000 -0.461867 0.000000 0.008618
# 5 0.019606 -0.004036 0.001617 0.000000 0.031059 0.000000
# 6 0.000000 0.000000 0.000000 0.008618 0.000000 0.074664
#
#
# Mechanical properties :
#
#
# Convention : Reuss Voigt Hill
#
# Bulk Modulus (GPa) = 36.98398 74.72305 55.85352
# Shear Modulus (GPa) = -20.81387 22.83492 1.01053
#
# Velocity S-wave (km/s) = -3.26094 3.41559 0.71852
# Velocity P-wave (km/s) = 2.17179 7.33013 5.40590
#
# Compressibility (1/GPa) = 0.02703873
#
# Stress axis : x y z
#
# Youngs Moduli (GPa) = 24.02923 82.81927 75.28982
#
# Poissons Ratio (x) = 0.82272 0.43701
# Poissons Ratio (y) = 0.23870 0.31837
# Poissons Ratio (z) = 0.13947 0.35021
#
# Static dielectric constant tensor:
#      x y z
#    x 1.651120 0.000000 0.023510 
#    y 0.000000 1.684310 0.000000 
#    z 0.023510 0.000000 1.696800 
# 
# From -- ./inp_files/24779.got.cif
#   From: 2010.05.17/outbox.cif.g08.bks.cpg/sg13_13_cif.got.tgz:24779.got - 2010.06.03 16:44:36.
