data_PCOD9237716
_publ_section_title
;
Structure prediction by ZEFSAII (Michael W. Deem and Ramdas Pophale) SiO2 
 PCOD9237716
Probable space group: P 2/C
;
_chemical_formula_sum "Si O2"
_cell_formula_units_Z 32
_cell_length_a 9.371373
_cell_length_b 21.332164
_cell_length_c 12.630851
_cell_angle_alpha 90.000000
_cell_angle_beta 137.897202
_cell_angle_gamma 90.000000
_cell_volume 1692.955217
_symmetry_space_group_name_H-M "P 2/C"
_symmetry_group_IT_number 13
_symmetry_cell_setting 'monoclinic'
loop_
_space_group_symop_operation_xyz
x,y,z
-x,y,1/2-z
-x,-y,-z
x,-y,1/2+z
loop_
_atom_site_type_symbol
_atom_site_label
_atom_site_fract_x
_atom_site_fract_y
_atom_site_fract_z
Si Si1 0.100785 0.319492 0.189599
Si Si2 0.398552 0.561668 0.810446
Si Si3 0.102631 0.801036 0.190759
Si Si4 0.222340 0.438332 0.810446
Si Si5 0.719961 0.940552 0.809208
Si Si6 0.721586 0.680508 0.310400
Si Si7 0.101544 0.059448 0.690792
Si Si8 0.278886 0.801036 0.690759
O O1 0.254955 0.377197 0.248337
O O2 0.229571 0.254689 0.244363
O O3 0.000000 0.324884 0.250000
O O4 0.909564 0.319955 1.000000
O O5 0.500000 0.559405 0.750000
O O6 0.259827 0.500000 0.759827
O O7 0.590136 0.563340 1.000000
O O8 0.259156 0.745311 0.244363
O O9 0.201429 0.870896 0.240615
O O10 0.000000 0.791492 0.250000
O O11 0.908108 0.799898 1.000000
O O12 0.241719 0.377197 0.748337
O O13 0.000000 0.440595 0.750000
O O14 0.500000 0.946684 0.750000
O O15 0.720199 0.870896 0.759385
O O16 0.751296 1.000000 0.751296
O O17 0.912157 0.941587 1.000000
O O18 0.500000 0.675116 0.250000
O O19 0.000000 0.053316 0.750000
O O20 0.500000 0.791492 0.750000
#
# Coordination Sequence:
#
# PCOD9237716 Si02
#       8
#     4   4   4   4   4   4   4   4
#     4  11  23  38  57  82 113 146 183 227 274 325
#     4  11  24  41  62  87 115 147 183 224 270 321
#     4   9  19  35  54  77 105 140 180 222 269 321
#     4  11  24  41  62  87 115 147 183 224 270 321
#     4   9  18  33  52  75 105 139 177 221 268 320
#     4  11  23  38  57  82 113 146 183 227 274 325
#     4   9  18  33  52  75 105 139 177 221 268 320
#     4   9  19  35  54  77 105 140 180 222 269 321
#
# _framework density 18.901857
#
# number of rings (size 3 to 8) (size 9 to 14) (size 15 to 20)
#    0.000    2.000    0.000    3.000    0.000    9.500 
#    0.000    0.000    0.000    0.000    0.000    0.000 
#    0.000    0.000    0.000    0.000    0.000    0.000 
#
# Total GULP energy -178696.375733 kJ/mol
# GULP energy per Si atom -5584.261742 kJ/mol
# Density = 1.885884 g / cm^3
# Si number density = 18.901857 Si / 1000 Ang^3
#
#
#
# Elastic Constant Matrix: (Units=GPa)
#
#
# Indices 1 2 3 4 5 6 
#
# 1 152.4014 125.2406 26.7929 0.0000 -4.0713 0.0000
# 2 125.2406 218.8939 38.5511 0.0000 -6.4730 0.0000
# 3 26.7929 38.5511 24.7444 0.0000 -5.4607 0.0000
# 4 0.0000 0.0000 0.0000 -54.2634 0.0000 -7.2856
# 5 -4.0713 -6.4730 -5.4607 0.0000 35.4381 0.0000
# 6 0.0000 0.0000 0.0000 -7.2856 0.0000 43.3074
#
#
#
# Elastic Compliance Matrix: (Units=1/GPa)
#
#
# Indices 1 2 3 4 5 6 
#
# 1 0.012582 -0.006611 -0.003387 0.000000 -0.000284 0.000000
# 2 -0.006611 0.009774 -0.008119 0.000000 -0.000225 0.000000
# 3 -0.003387 -0.008119 0.058300 0.000000 0.007111 0.000000
# 4 0.000000 0.000000 0.000000 -0.018022 0.000000 -0.003032
# 5 -0.000284 -0.000225 0.007111 0.000000 0.029240 0.000000
# 6 0.000000 0.000000 0.000000 -0.003032 0.000000 0.022581
#
#
# Mechanical properties :
#
#
# Convention : Reuss Voigt Hill
#
# Bulk Modulus (GPa) = 22.51158 86.35655 54.43406
# Shear Modulus (GPa) = 30.21204 18.59344 24.40274
#
# Velocity S-wave (km/s) = 4.00229 3.13977 3.59698
# Velocity P-wave (km/s) = 5.77004 7.67660 6.79057
#
# Compressibility (1/GPa) = 0.04442159
#
# Stress axis : x y z
#
# Youngs Moduli (GPa) = 79.47826 102.31125 17.15271
#
# Poissons Ratio (x) = 0.67635 0.05810
# Poissons Ratio (y) = 0.52541 0.13927
# Poissons Ratio (z) = 0.26919 0.83072
#
# Static dielectric constant tensor:
#      x y z
#    x 1.604510 0.000000 0.003000 
#    y 0.000000 1.678340 0.000000 
#    z 0.003000 0.000000 1.644670 
# 
# From -- ./inp_files/30818.got.cif
#   From: 2010.05.17/outbox.cif.g08.bks.cpg/sg13_16_cif.got.tgz:30818.got - 2010.06.03 16:44:36.
