data_PCOD9237138
_publ_section_title
;
Structure prediction by ZEFSAII (Michael W. Deem and Ramdas Pophale) SiO2 
 PCOD9237138
Probable space group: P 2/C
;
_chemical_formula_sum "Si O2"
_cell_formula_units_Z 16
_cell_length_a 11.792422
_cell_length_b 5.162620
_cell_length_c 9.921306
_cell_angle_alpha 90.000000
_cell_angle_beta 94.485128
_cell_angle_gamma 90.000000
_cell_volume 602.157390
_symmetry_space_group_name_H-M "P 2/C"
_symmetry_group_IT_number 13
_symmetry_cell_setting 'monoclinic'
loop_
_space_group_symop_operation_xyz
x,y,z
-x,y,1/2-z
-x,-y,-z
x,-y,1/2+z
loop_
_atom_site_type_symbol
_atom_site_label
_atom_site_fract_x
_atom_site_fract_y
_atom_site_fract_z
Si Si1 0.429628 0.344885 0.605636
Si Si2 0.243067 0.511324 0.269432
Si Si3 0.735115 0.999744 0.047570
Si Si4 0.000000 0.612548 0.750000
Si Si5 0.000000 0.000000 0.000000
O O1 0.500000 0.321116 0.750000
O O2 0.500000 0.500000 0.500000
O O3 0.314980 0.496524 0.640688
O O4 0.375280 0.075384 0.550298
O O5 0.255688 0.244589 0.349679
O O6 0.109277 0.563898 0.235183
O O7 0.282933 0.749207 0.363420
O O8 0.855959 0.969678 0.982940
O O9 0.987359 0.788759 0.618584
#
# Coordination Sequence:
#
# PCOD9237138 Si02
#       5
#     4   4   4   2   2
#     4  12  28  57  86 126 174 234 296 367 437 532
#     4  11  28  52  84 126 171 226 291 358 444 518
#     4  11  28  51  83 125 172 224 290 358 439 526
#     4  10  26  50  90 128 184 224 292 368 452 530
#     4  10  26  48  86 130 174 224 282 362 444 528
#
# _framework density 26.571128000000002
#
# number of rings (size 3 to 8) (size 9 to 14) (size 15 to 20)
#    0.000    1.000    2.500    0.000   14.000    4.000 
#    4.500    0.000    0.000    0.000    0.000    0.000 
#    0.000    0.000    0.000    0.000    0.000    0.000 
#
# Total GULP energy -89329.775933 kJ/mol
# GULP energy per Si atom -5583.110996 kJ/mol
# Density = 2.651065 g / cm^3
# Si number density = 26.571128 Si / 1000 Ang^3
#
#
#
# Elastic Constant Matrix: (Units=GPa)
#
#
# Indices 1 2 3 4 5 6 
#
# 1 238.0262 48.8516 98.7695 0.0000 -36.4960 0.0000
# 2 48.8516 132.7344 68.3811 0.0000 -25.6289 0.0000
# 3 98.7695 68.3811 149.9631 0.0000 -25.9671 0.0000
# 4 0.0000 0.0000 0.0000 27.3717 0.0000 -3.6329
# 5 -36.4960 -25.6289 -25.9671 0.0000 55.1191 0.0000
# 6 0.0000 0.0000 0.0000 -3.6329 0.0000 41.2287
#
#
#
# Elastic Compliance Matrix: (Units=1/GPa)
#
#
# Indices 1 2 3 4 5 6 
#
# 1 0.006041 0.000091 -0.003615 0.000000 0.002339 0.000000
# 2 0.000091 0.010227 -0.004235 0.000000 0.002820 0.000000
# 3 -0.003615 -0.004235 0.011133 0.000000 0.000882 0.000000
# 4 0.000000 0.000000 0.000000 0.036966 0.000000 0.003257
# 5 0.002339 0.002820 0.000882 0.000000 0.021418 0.000000
# 6 0.000000 0.000000 0.000000 0.003257 0.000000 0.024542
#
#
# Mechanical properties :
#
#
# Convention : Reuss Voigt Hill
#
# Bulk Modulus (GPa) = 84.15639 105.85868 95.00753
# Shear Modulus (GPa) = 38.51871 45.05867 41.78869
#
# Velocity S-wave (km/s) = 3.81155 4.12245 3.97004
# Velocity P-wave (km/s) = 7.14923 7.91111 7.53980
#
# Compressibility (1/GPa) = 0.01188264
#
# Stress axis : x y z
#
# Youngs Moduli (GPa) = 165.52260 97.78505 89.82205
#
# Poissons Ratio (x) = -0.00887 0.32474
# Poissons Ratio (y) = -0.01501 0.38036
# Poissons Ratio (z) = 0.59843 0.41408
#
# Static dielectric constant tensor:
#      x y z
#    x 2.249360 0.000000 0.088360 
#    y 0.000000 2.050690 0.000000 
#    z 0.088360 0.000000 2.103450 
# 
# From -- ./inp_files/14166.got.cif
#   From: 2010.05.17/outbox.cif.g08.bks.cpg/sg13_8_cif.got.tgz:14166.got - 2010.06.03 16:44:36.
