data_PCOD9237285
_publ_section_title
;
Structure prediction by ZEFSAII (Michael W. Deem and Ramdas Pophale) SiO2 
 PCOD9237285
Probable space group: P 2/C
;
_chemical_formula_sum "Si O2"
_cell_formula_units_Z 24
_cell_length_a 6.890974
_cell_length_b 13.002228
_cell_length_c 15.625011
_cell_angle_alpha 90.000000
_cell_angle_beta 67.365528
_cell_angle_gamma 90.000000
_cell_volume 1292.142659
_symmetry_space_group_name_H-M "P 2/C"
_symmetry_group_IT_number 13
_symmetry_cell_setting 'monoclinic'
loop_
_space_group_symop_operation_xyz
x,y,z
-x,y,1/2-z
-x,-y,-z
x,-y,1/2+z
loop_
_atom_site_type_symbol
_atom_site_label
_atom_site_fract_x
_atom_site_fract_y
_atom_site_fract_z
Si Si1 0.500000 0.422714 0.250000
Si Si2 0.871699 0.259714 0.526222
Si Si3 0.159581 0.261135 0.644521
Si Si4 0.500000 0.920364 0.750000
Si Si5 0.504742 0.880086 0.150795
Si Si6 0.144255 0.749882 0.808836
Si Si7 0.479713 0.567467 0.418313
O O1 0.703153 0.349008 0.217388
O O2 0.488629 0.493791 0.335192
O O3 0.706980 0.166926 0.570184
O O4 0.730579 0.363111 0.547627
O O5 0.031469 0.260689 0.578515
O O6 0.000171 0.249417 0.417247
O O7 0.297839 0.158838 0.637645
O O8 0.326740 0.353244 0.617157
O O9 0.000000 0.272469 0.750000
O O10 0.296958 0.848573 0.781820
O O11 0.490486 0.998460 0.832241
O O12 0.500000 0.835608 0.250000
O O13 0.000000 0.748733 0.750000
O O14 0.500000 0.500000 0.500000
#
# Coordination Sequence:
#
# PCOD9237285 Si02
#       7
#     2   4   4   2   4   4   4
#     4  11  24  41  58  84 126 159 204 253 296 354
#     4  11  23  39  64  94 121 160 208 246 305 364
#     4  11  20  36  64  90 121 155 192 255 307 355
#     4   9  22  43  64  88 124 155 202 253 306 370
#     4   9  20  40  62  92 123 148 194 254 305 363
#     4  11  25  43  61  84 123 167 205 248 300 362
#     4  11  24  38  58  89 123 160 206 251 295 358
#
# _framework density 18.573801
#
# number of rings (size 3 to 8) (size 9 to 14) (size 15 to 20)
#    0.500    1.000    1.667    3.000    2.333   12.667 
#    0.000    1.667    0.000    0.000    0.000    0.000 
#    0.000    0.000    0.000    0.000    0.000    0.000 
#
# Total GULP energy -134071.482848 kJ/mol
# GULP energy per Si atom -5586.311785 kJ/mol
# Density = 1.853153 g / cm^3
# Si number density = 18.573801 Si / 1000 Ang^3
#
#
#
# Elastic Constant Matrix: (Units=GPa)
#
#
# Indices 1 2 3 4 5 6 
#
# 1 154.9405 50.8620 92.0652 0.0000 1.8620 0.0000
# 2 50.8620 97.5324 60.5724 0.0000 -9.3716 0.0000
# 3 92.0652 60.5724 181.5122 0.0000 -0.1436 0.0000
# 4 0.0000 0.0000 0.0000 148.9843 0.0000 53.2092
# 5 1.8620 -9.3716 -0.1436 0.0000 38.1979 0.0000
# 6 0.0000 0.0000 0.0000 53.2092 0.0000 28.5821
#
#
#
# Elastic Compliance Matrix: (Units=1/GPa)
#
#
# Indices 1 2 3 4 5 6 
#
# 1 0.009758 -0.002680 -0.004056 0.000000 -0.001148 0.000000
# 2 -0.002680 0.014062 -0.003330 0.000000 0.003568 0.000000
# 3 -0.004056 -0.003330 0.008677 0.000000 -0.000587 0.000000
# 4 0.000000 0.000000 0.000000 0.020029 0.000000 -0.037286
# 5 -0.001148 0.003568 -0.000587 0.000000 0.027109 0.000000
# 6 0.000000 0.000000 0.000000 -0.037286 0.000000 0.104399
#
#
# Mechanical properties :
#
#
# Convention : Reuss Voigt Hill
#
# Bulk Modulus (GPa) = 80.87737 93.44270 87.16003
# Shear Modulus (GPa) = 24.00542 58.51857 41.26200
#
# Velocity S-wave (km/s) = 3.59894 5.61911 4.71841
# Velocity P-wave (km/s) = 7.80437 9.61859 8.75858
#
# Compressibility (1/GPa) = 0.01236440
#
# Stress axis : x y z
#
# Youngs Moduli (GPa) = 102.48487 71.11477 115.24330
#
# Poissons Ratio (x) = 0.19059 0.46739
# Poissons Ratio (y) = 0.27466 0.38381
# Poissons Ratio (z) = 0.41565 0.23684
#
# Static dielectric constant tensor:
#      x y z
#    x 1.616450 0.000000 0.002360 
#    y 0.000000 1.646170 0.000000 
#    z 0.002360 0.000000 1.614720 
# 
# From -- ./inp_files/43824.got.cif
#   From: 2010.05.17/outbox.cif.g08.bks.cpg/sg13_22_cif.got.tgz:43824.got - 2010.06.03 16:44:36.
