data_PCOD9237421
_publ_section_title
;
Structure prediction by ZEFSAII (Michael W. Deem and Ramdas Pophale) SiO2 
 PCOD9237421
Probable space group: P 2/C
;
_chemical_formula_sum "Si O2"
_cell_formula_units_Z 28
_cell_length_a 26.188145
_cell_length_b 10.223878
_cell_length_c 26.091220
_cell_angle_alpha 90.000000
_cell_angle_beta 10.886639
_cell_angle_gamma 90.000000
_cell_volume 1319.379108
_symmetry_space_group_name_H-M "P 2/C"
_symmetry_group_IT_number 13
_symmetry_cell_setting 'monoclinic'
loop_
_space_group_symop_operation_xyz
x,y,z
-x,y,1/2-z
-x,-y,-z
x,-y,1/2+z
loop_
_atom_site_type_symbol
_atom_site_label
_atom_site_fract_x
_atom_site_fract_y
_atom_site_fract_z
Si Si1 0.500000 0.749718 0.750000
Si Si2 0.021135 0.279332 0.415016
Si Si3 0.429637 0.927847 0.668545
Si Si4 0.053845 0.932693 0.805279
Si Si5 0.780552 0.562810 0.305250
Si Si6 0.674558 0.355315 0.182298
Si Si7 0.443384 0.221465 0.552484
Si Si8 0.000000 0.057281 0.750000
O O1 0.385663 0.658123 0.817852
O O2 0.744526 0.846659 0.493543
O O3 0.041975 0.214051 0.338425
O O4 0.075270 0.433342 0.357507
O O5 0.748068 0.226227 0.709669
O O6 0.256067 0.235299 0.222357
O O7 0.422306 0.784104 0.700210
O O8 0.539929 0.900344 0.502836
O O9 0.640689 0.019041 0.489263
O O10 0.133101 0.984650 0.970929
O O11 0.962034 0.969794 0.838477
O O12 0.517867 0.539657 0.599808
O O13 0.671166 0.655461 0.367626
O O14 0.014162 0.630543 0.108886
#
# Coordination Sequence:
#
# PCOD9237421 Si02
#       8
#     2   4   4   4   4   4   4   2
#     4  12  22  38  70  96 118 152 212 264 332 368
#     4  12  25  41  61  92 127 178 209 243 309 385
#     4  11  22  40  61  95 124 161 204 268 313 355
#     4  12  24  40  63  90 131 163 206 254 315 380
#     4  11  23  41  64  88 130 165 212 258 306 371
#     4  11  21  39  64  96 119 154 208 273 316 355
#     4  11  23  40  65  91 125 168 217 260 307 361
#     4  12  22  42  64  94 122 162 206 248 314 394
#
# _framework density 21.222103000000001
#
# number of rings (size 3 to 8) (size 9 to 14) (size 15 to 20)
#    0.000    0.571    2.857    7.714    0.000    3.429 
#    0.000    1.429    0.000    0.000    0.000    0.000 
#    0.000    0.000    0.000    0.000    0.000    0.000 
#
# Total GULP energy -156447.789171 kJ/mol
# GULP energy per Si atom -5587.421042 kJ/mol
# Density = 2.117380 g / cm^3
# Si number density = 21.222103 Si / 1000 Ang^3
#
#
#
# Elastic Constant Matrix: (Units=GPa)
#
#
# Indices 1 2 3 4 5 6 
#
# 1 52.6800 41.3730 -42.8922 0.0000 4.5508 0.0000
# 2 41.3730 3.6447 5.9579 0.0000 6.8388 0.0000
# 3 -42.8922 5.9579 44.8565 0.0000 2.5967 0.0000
# 4 0.0000 0.0000 0.0000 -6.3030 0.0000 1.1376
# 5 4.5508 6.8388 2.5967 0.0000 24.5867 0.0000
# 6 0.0000 0.0000 0.0000 1.1376 0.0000 19.4070
#
#
#
# Elastic Compliance Matrix: (Units=1/GPa)
#
#
# Indices 1 2 3 4 5 6 
#
# 1 -0.000555 0.022242 -0.003152 0.000000 -0.005751 0.000000
# 2 0.022242 -0.004744 0.022196 0.000000 -0.005141 0.000000
# 3 -0.003152 0.022196 0.016757 0.000000 -0.007360 0.000000
# 4 0.000000 0.000000 0.000000 -0.156993 0.000000 0.009203
# 5 -0.005751 -0.005141 -0.007360 0.000000 0.043944 0.000000
# 6 0.000000 0.000000 0.000000 0.009203 0.000000 0.050988
#
#
# Mechanical properties :
#
#
# Convention : Reuss Voigt Hill
#
# Bulk Modulus (GPa) = 10.63494 12.22873 11.43184
# Shear Modulus (GPa) = -49.10119 13.98766 -17.55677
#
# Velocity S-wave (km/s) = -4.81529 2.57010 -2.87938
# Velocity P-wave (km/s) = 5.08861 3.81863 2.37823
#
# Compressibility (1/GPa) = 0.09402968
#
# Stress axis : x y z
#
# Youngs Moduli (GPa) = -1802.22951 -210.78131 59.67481
#
# Poissons Ratio (x) = 4.68817 0.18809
# Poissons Ratio (y) = 40.08494 -1.32452
# Poissons Ratio (z) = -5.68035 4.67843
#
# Static dielectric constant tensor:
#      x y z
#    x 1.822220 0.000000 0.044460 
#    y 0.000000 1.782980 0.000000 
#    z 0.044460 0.000000 1.755210 
# 
# From -- ./inp_files/94170.got.cif
#   From: 2010.05.17/outbox.cif.g08.bks.cpg/sg13_48_cif.got.tgz:94170.got - 2010.06.03 16:44:36.
