data_PCOD9237944
_publ_section_title
;
Structure prediction by ZEFSAII (Michael W. Deem and Ramdas Pophale) SiO2 
 PCOD9237944
Probable space group: P 2/C
;
_chemical_formula_sum "Si O2"
_cell_formula_units_Z 18
_cell_length_a 6.437508
_cell_length_b 5.098088
_cell_length_c 25.901105
_cell_angle_alpha 90.000000
_cell_angle_beta 56.433435
_cell_angle_gamma 90.000000
_cell_volume 708.297344
_symmetry_space_group_name_H-M "P 2/C"
_symmetry_group_IT_number 13
_symmetry_cell_setting 'monoclinic'
loop_
_space_group_symop_operation_xyz
x,y,z
-x,y,1/2-z
-x,-y,-z
x,-y,1/2+z
loop_
_atom_site_type_symbol
_atom_site_label
_atom_site_fract_x
_atom_site_fract_y
_atom_site_fract_z
Si Si1 0.807533 0.190311 0.172428
Si Si2 0.000000 0.461280 0.250000
Si Si3 0.463291 0.292954 0.838497
Si Si4 0.661549 0.819514 0.941017
Si Si5 0.287068 0.543266 0.464801
O O1 0.691521 0.455029 0.162538
O O2 0.892174 0.283602 0.217981
O O3 0.072379 0.086201 0.113698
O O4 0.616894 0.956988 0.184638
O O5 0.241866 0.638817 0.202290
O O6 0.375652 0.247968 0.909973
O O7 0.476064 0.692050 0.925690
O O8 0.718268 0.587883 0.973171
O O9 0.500000 0.000000 0.000000
O O10 0.000000 0.500000 0.500000
#
# Coordination Sequence:
#
# PCOD9237944 Si02
#       5
#     4   2   4   4   4
#     4  12  29  52  81 118 159 214 278 332 413 489
#     4  12  30  58  80 114 170 218 276 350 406 484
#     4  12  29  51  84 118 156 216 275 334 407 494
#     4  11  25  43  76 119 160 209 256 331 414 482
#     4  11  23  45  75 115 159 202 259 329 402 480
#
# _framework density 25.413059000000001
#
# number of rings (size 3 to 8) (size 9 to 14) (size 15 to 20)
#    0.000    0.444    4.444    2.000    6.222    8.889 
#    0.000    0.000    0.000    0.000    0.000    0.000 
#    0.000    0.000    0.000    0.000    0.000    0.000 
#
# Total GULP energy -100464.041132 kJ/mol
# GULP energy per Si atom -5581.335618 kJ/mol
# Density = 2.535522 g / cm^3
# Si number density = 25.413059 Si / 1000 Ang^3
#
#
#
# Elastic Constant Matrix: (Units=GPa)
#
#
# Indices 1 2 3 4 5 6 
#
# 1 139.0491 48.9080 46.8146 0.0000 -30.0734 0.0000
# 2 48.9080 125.1227 8.8679 0.0000 -0.5457 0.0000
# 3 46.8146 8.8679 130.4706 0.0000 -25.9341 0.0000
# 4 0.0000 0.0000 0.0000 24.7677 0.0000 -2.8097
# 5 -30.0734 -0.5457 -25.9341 0.0000 64.5602 0.0000
# 6 0.0000 0.0000 0.0000 -2.8097 0.0000 40.8420
#
#
#
# Elastic Compliance Matrix: (Units=1/GPa)
#
#
# Indices 1 2 3 4 5 6 
#
# 1 0.010216 -0.003787 -0.002683 0.000000 0.003649 0.000000
# 2 -0.003787 0.009436 0.000416 0.000000 -0.001517 0.000000
# 3 -0.002683 0.000416 0.009076 0.000000 0.002400 0.000000
# 4 0.000000 0.000000 0.000000 0.040693 0.000000 0.002799
# 5 0.003649 -0.001517 0.002400 0.000000 0.018140 0.000000
# 6 0.000000 0.000000 0.000000 0.002799 0.000000 0.024677
#
#
# Mechanical properties :
#
#
# Convention : Reuss Voigt Hill
#
# Bulk Modulus (GPa) = 60.16821 67.09148 63.62985
# Shear Modulus (GPa) = 38.49479 45.37079 41.93279
#
# Velocity S-wave (km/s) = 3.89622 4.22990 4.06649
# Velocity P-wave (km/s) = 6.63085 7.09322 6.86593
#
# Compressibility (1/GPa) = 0.01662007
#
# Stress axis : x y z
#
# Youngs Moduli (GPa) = 97.88218 105.97221 110.18123
#
# Poissons Ratio (x) = 0.40135 0.29561
# Poissons Ratio (y) = 0.37071 -0.04583
# Poissons Ratio (z) = 0.26262 -0.04408
#
# Static dielectric constant tensor:
#      x y z
#    x 18.895200 0.000000 -5.142370 
#    y 0.000000 2.359040 0.000000 
#    z -5.142370 0.000000 3.802810 
# 
# From -- ./inp_files/82975.got.cif
#   From: 2010.05.17/outbox.cif.g08.bks.cpg/sg13_42_cif.got.tgz:82975.got - 2010.06.03 16:44:36.
