data_PCOD9237013
_publ_section_title
;
Structure prediction by ZEFSAII (Michael W. Deem and Ramdas Pophale) SiO2 
 PCOD9237013
Probable space group: P 2/C
;
_chemical_formula_sum "Si O2"
_cell_formula_units_Z 20
_cell_length_a 23.984273
_cell_length_b 5.028102
_cell_length_c 9.853023
_cell_angle_alpha 90.000000
_cell_angle_beta 143.317734
_cell_angle_gamma 90.000000
_cell_volume 709.820601
_symmetry_space_group_name_H-M "P 2/C"
_symmetry_group_IT_number 13
_symmetry_cell_setting 'monoclinic'
loop_
_space_group_symop_operation_xyz
x,y,z
-x,y,1/2-z
-x,-y,-z
x,-y,1/2+z
loop_
_atom_site_type_symbol
_atom_site_label
_atom_site_fract_x
_atom_site_fract_y
_atom_site_fract_z
Si Si1 0.106584 0.923345 0.909588
Si Si2 0.250315 0.269292 0.354550
Si Si3 0.104868 0.424679 0.744765
Si Si4 0.609057 0.039263 0.177248
Si Si5 0.395099 0.648447 0.575081
O O1 0.111821 0.114373 0.788322
O O2 0.000000 0.959371 0.750000
O O3 0.120857 0.615946 0.904806
O O4 0.186009 0.049442 0.157398
O O5 0.179741 0.474980 0.285653
O O6 0.318653 0.429968 0.386182
O O7 0.315360 0.139369 0.596067
O O8 0.000000 0.500000 0.500000
O O9 0.620497 0.305624 0.293790
O O10 0.500000 0.000000 0.000000
O O11 0.614258 0.916701 0.033877
O O12 0.500000 0.547008 0.750000
#
# Coordination Sequence:
#
# PCOD9237013 Si02
#       5
#     4   4   4   4   4
#     4  12  28  49  80 114 164 214 278 339 427 505
#     4  12  28  45  80 113 164 217 280 350 430 507
#     4  12  28  50  77 118 163 215 278 348 417 508
#     4  10  25  48  77 112 160 213 277 348 418 504
#     4  10  25  49  78 118 162 222 285 353 424 504
#
# _framework density 28.176131999999999
#
# number of rings (size 3 to 8) (size 9 to 14) (size 15 to 20)
#    0.000    0.800    2.000    2.400    8.400    7.200 
#    0.000    0.000    0.000    0.000    0.000    0.000 
#    0.000    0.000    0.000    0.000    0.000    0.000 
#
# Total GULP energy -112084.526062 kJ/mol
# GULP energy per Si atom -5604.226303 kJ/mol
# Density = 2.811200 g / cm^3
# Si number density = 28.176132 Si / 1000 Ang^3
#
#
#
# Elastic Constant Matrix: (Units=GPa)
#
#
# Indices 1 2 3 4 5 6 
#
# 1 124.9725 15.6951 65.0652 0.0000 30.2827 0.0000
# 2 15.6951 73.6936 26.8268 0.0000 28.9104 0.0000
# 3 65.0652 26.8268 194.2327 0.0000 25.8981 0.0000
# 4 0.0000 0.0000 0.0000 45.6471 0.0000 4.4757
# 5 30.2827 28.9104 25.8981 0.0000 49.0074 0.0000
# 6 0.0000 0.0000 0.0000 4.4757 0.0000 48.6524
#
#
#
# Elastic Compliance Matrix: (Units=1/GPa)
#
#
# Indices 1 2 3 4 5 6 
#
# 1 0.010820 0.001027 -0.003006 0.000000 -0.005703 0.000000
# 2 0.001027 0.017987 -0.001430 0.000000 -0.010490 0.000000
# 3 -0.003006 -0.001430 0.006447 0.000000 -0.000706 0.000000
# 4 0.000000 0.000000 0.000000 0.022107 0.000000 -0.002034
# 5 -0.005703 -0.010490 -0.000706 0.000000 0.030491 0.000000
# 6 0.000000 0.000000 0.000000 -0.002034 0.000000 0.020741
#
#
# Mechanical properties :
#
#
# Convention : Reuss Voigt Hill
#
# Bulk Modulus (GPa) = 35.16574 67.56366 51.36470
# Shear Modulus (GPa) = 40.03615 47.68215 43.85915
#
# Velocity S-wave (km/s) = 3.77360 4.11821 3.94967
# Velocity P-wave (km/s) = 5.61200 6.82964 6.25054
#
# Compressibility (1/GPa) = 0.02843677
#
# Stress axis : x y z
#
# Youngs Moduli (GPa) = 92.42388 55.59694 155.11061
#
# Poissons Ratio (x) = -0.05712 0.46625
# Poissons Ratio (y) = -0.09495 0.22176
# Poissons Ratio (z) = 0.27782 0.07949
#
# Static dielectric constant tensor:
#      x y z
#    x 2.397910 0.000000 -0.122120 
#    y 0.000000 2.141780 0.000000 
#    z -0.122120 0.000000 2.155680 
# 
# From -- ./inp_files/42061.got.cif
#   From: 2010.05.17/outbox.cif.g08.bks.cpg/sg13_22_cif.got.tgz:42061.got - 2010.06.03 16:44:36.
