data_PCOD9237773
_publ_section_title
;
Structure prediction by ZEFSAII (Michael W. Deem and Ramdas Pophale) SiO2 
 PCOD9237773
Probable space group: P 2/C
;
_chemical_formula_sum "Si O2"
_cell_formula_units_Z 26
_cell_length_a 9.162569
_cell_length_b 18.979621
_cell_length_c 8.741317
_cell_angle_alpha 90.000000
_cell_angle_beta 54.050922
_cell_angle_gamma 90.000000
_cell_volume 1230.607277
_symmetry_space_group_name_H-M "P 2/C"
_symmetry_group_IT_number 13
_symmetry_cell_setting 'monoclinic'
loop_
_space_group_symop_operation_xyz
x,y,z
-x,y,1/2-z
-x,-y,-z
x,-y,1/2+z
loop_
_atom_site_type_symbol
_atom_site_label
_atom_site_fract_x
_atom_site_fract_y
_atom_site_fract_z
Si Si1 0.318559 0.667540 0.286754
Si Si2 0.362288 0.997888 0.448436
Si Si3 0.322069 0.394550 0.453317
Si Si4 0.870015 0.535321 0.954829
Si Si5 0.057943 0.714601 0.041242
Si Si6 0.120825 0.872221 0.016941
Si Si7 0.000000 0.916195 0.750000
O O1 0.500000 0.696524 0.250000
O O2 0.264679 0.592684 0.394765
O O3 0.136701 0.714120 0.420875
O O4 0.355082 0.651051 0.085633
O O5 0.500000 0.959144 0.250000
O O6 0.286956 0.073192 0.432411
O O7 0.500000 0.000000 0.500000
O O8 0.181533 0.959626 0.609749
O O9 0.500000 0.409333 0.250000
O O10 0.233305 0.468566 0.553098
O O11 0.189734 0.349521 0.424066
O O12 0.000000 0.569340 0.750000
O O13 0.000000 0.500000 0.000000
O O14 0.158833 0.788873 0.985320
O O15 0.000000 0.697347 0.250000
O O16 0.000000 0.881622 0.250000
O O17 0.030503 0.884359 0.903981
#
# Coordination Sequence:
#
# PCOD9237773 Si02
#       7
#     4   4   4   4   4   4   2
#     4  11  24  41  64  94 126 165 224 277 329 396
#     4  12  23  41  72 106 139 180 231 283 343 405
#     4  11  23  41  62  89 128 171 215 268 339 405
#     4  12  22  39  65  90 121 166 215 278 339 388
#     4   9  21  45  65  87 132 180 214 266 332 399
#     4  11  23  44  71  97 140 186 224 280 348 403
#     4  12  24  46  68 106 146 178 228 292 336 416
#
# _framework density 21.127782
#
# number of rings (size 3 to 8) (size 9 to 14) (size 15 to 20)
#    0.000    0.923    5.385    2.308    2.154    1.846 
#    4.154    3.846    0.000    0.000    0.000    0.000 
#    0.000    0.000    0.000    0.000    0.000    0.000 
#
# Total GULP energy -144789.020466 kJ/mol
# GULP energy per Si atom -5568.808479 kJ/mol
# Density = 2.107969 g / cm^3
# Si number density = 21.127782 Si / 1000 Ang^3
#
#
#
# Elastic Constant Matrix: (Units=GPa)
#
#
# Indices 1 2 3 4 5 6 
#
# 1 103.8279 4.7832 24.1868 0.0000 -3.0927 0.0000
# 2 4.7832 51.2001 11.4181 0.0000 -13.8491 0.0000
# 3 24.1868 11.4181 104.1233 0.0000 -4.3915 0.0000
# 4 0.0000 0.0000 0.0000 36.5496 0.0000 -47.9703
# 5 -3.0927 -13.8491 -4.3915 0.0000 40.6284 0.0000
# 6 0.0000 0.0000 0.0000 -47.9703 0.0000 123.6999
#
#
#
# Elastic Compliance Matrix: (Units=1/GPa)
#
#
# Indices 1 2 3 4 5 6 
#
# 1 0.010198 -0.000324 -0.002316 0.000000 0.000416 0.000000
# 2 -0.000324 0.021974 -0.002029 0.000000 0.007246 0.000000
# 3 -0.002316 -0.002029 0.010375 0.000000 0.000254 0.000000
# 4 0.000000 0.000000 0.000000 0.055720 0.000000 0.021608
# 5 0.000416 0.007246 0.000254 0.000000 0.027143 0.000000
# 6 0.000000 0.000000 0.000000 0.021608 0.000000 0.016464
#
#
# Mechanical properties :
#
#
# Convention : Reuss Voigt Hill
#
# Bulk Modulus (GPa) = 30.11127 37.76972 33.94049
# Shear Modulus (GPa) = 30.81087 54.75978 42.78533
#
# Velocity S-wave (km/s) = 3.82293 5.09653 4.50496
# Velocity P-wave (km/s) = 5.81113 7.24903 6.56954
#
# Compressibility (1/GPa) = 0.03321015
#
# Stress axis : x y z
#
# Youngs Moduli (GPa) = 98.05737 45.50839 96.38435
#
# Poissons Ratio (x) = 0.01474 0.22321
# Poissons Ratio (y) = 0.03176 0.19554
# Poissons Ratio (z) = 0.22709 0.09233
#
# Static dielectric constant tensor:
#      x y z
#    x 1.800080 0.000000 -0.005610 
#    y 0.000000 1.788710 0.000000 
#    z -0.005610 0.000000 1.741850 
# 
# From -- ./inp_files/13472.got.cif
#   From: 2010.05.17/outbox.cif.g08.bks.cpg/sg13_7_cif.got.tgz:13472.got - 2010.06.03 16:44:36.
