data_PCOD9237383
_publ_section_title
;
Structure prediction by ZEFSAII (Michael W. Deem and Ramdas Pophale) SiO2 
 PCOD9237383
Probable space group: P 2/C
;
_chemical_formula_sum "Si O2"
_cell_formula_units_Z 26
_cell_length_a 8.326215
_cell_length_b 9.164811
_cell_length_c 19.498895
_cell_angle_alpha 90.000000
_cell_angle_beta 72.709691
_cell_angle_gamma 90.000000
_cell_volume 1420.687590
_symmetry_space_group_name_H-M "P 2/C"
_symmetry_group_IT_number 13
_symmetry_cell_setting 'monoclinic'
loop_
_space_group_symop_operation_xyz
x,y,z
-x,y,1/2-z
-x,-y,-z
x,-y,1/2+z
loop_
_atom_site_type_symbol
_atom_site_label
_atom_site_fract_x
_atom_site_fract_y
_atom_site_fract_z
Si Si1 0.806181 0.917899 0.298861
Si Si2 0.311404 0.560153 0.524360
Si Si3 0.500000 0.796235 0.250000
Si Si4 0.715513 0.959780 0.534668
Si Si5 0.647825 0.847543 0.907009
Si Si6 0.881301 0.266329 0.920624
Si Si7 0.744264 0.256917 0.606857
O O1 0.660103 0.880587 0.262748
O O2 0.793987 0.806120 0.365194
O O3 0.000000 0.913998 0.250000
O O4 0.757088 0.075252 0.335323
O O5 0.500000 0.500000 0.500000
O O6 0.301933 0.682898 0.584240
O O7 0.195059 0.421661 0.551266
O O8 0.271332 0.645050 0.459005
O O9 0.412436 0.712660 0.323831
O O10 0.551660 0.869100 0.578781
O O11 0.852095 0.844299 0.489041
O O12 0.677026 0.058658 0.472718
O O13 0.748660 0.083977 0.586781
O O14 0.077346 0.285412 0.881249
#
# Coordination Sequence:
#
# PCOD9237383 Si02
#       7
#     4   4   2   4   4   4   4
#     4  11  22  40  63  88 116 158 205 249 303 366
#     4  11  21  37  60  86 121 159 199 250 311 364
#     4  12  22  38  62  88 120 152 204 246 302 372
#     4   9  17  33  58  87 113 145 196 254 297 339
#     4   9  18  34  58  85 113 152 195 245 302 349
#     4  11  21  37  62  91 119 156 203 253 306 363
#     4  11  22  36  59  91 119 158 203 253 302 367
#
# _framework density 18.300996999999999
#
# number of rings (size 3 to 8) (size 9 to 14) (size 15 to 20)
#    0.000    1.538    4.615    1.846    0.000    0.000 
#    0.000    0.769    0.000    1.846    0.000    0.000 
#    0.000    0.000    0.000    0.000    0.000    0.000 
#
# Total GULP energy -144927.150379 kJ/mol
# GULP energy per Si atom -5574.121168 kJ/mol
# Density = 1.825934 g / cm^3
# Si number density = 18.300997 Si / 1000 Ang^3
#
#
#
# Elastic Constant Matrix: (Units=GPa)
#
#
# Indices 1 2 3 4 5 6 
#
# 1 91.4393 19.0727 27.1577 0.0000 -8.9206 0.0000
# 2 19.0727 101.3588 35.7493 0.0000 -5.7404 0.0000
# 3 27.1577 35.7493 82.0202 0.0000 -14.4315 0.0000
# 4 0.0000 0.0000 0.0000 23.7441 0.0000 -8.7651
# 5 -8.9206 -5.7404 -14.4315 0.0000 34.5375 0.0000
# 6 0.0000 0.0000 0.0000 -8.7651 0.0000 15.6643
#
#
#
# Elastic Compliance Matrix: (Units=1/GPa)
#
#
# Indices 1 2 3 4 5 6 
#
# 1 0.012302 -0.001048 -0.003333 0.000000 0.001610 0.000000
# 2 -0.001048 0.011749 -0.004833 0.000000 -0.000338 0.000000
# 3 -0.003333 -0.004833 0.016309 0.000000 0.005150 0.000000
# 4 0.000000 0.000000 0.000000 0.053080 0.000000 0.029701
# 5 0.001610 -0.000338 0.005150 0.000000 0.031466 0.000000
# 6 0.000000 0.000000 0.000000 0.029701 0.000000 0.080459
#
#
# Mechanical properties :
#
#
# Convention : Reuss Voigt Hill
#
# Bulk Modulus (GPa) = 45.59862 48.75306 47.17584
# Shear Modulus (GPa) = 21.63543 27.64508 24.64025
#
# Velocity S-wave (km/s) = 3.44204 3.89083 3.67330
# Velocity P-wave (km/s) = 6.38490 6.84705 6.62001
#
# Compressibility (1/GPa) = 0.02193049
#
# Stress axis : x y z
#
# Youngs Moduli (GPa) = 81.28842 85.11583 61.31759
#
# Poissons Ratio (x) = 0.08921 0.20438
# Poissons Ratio (y) = 0.08519 0.29636
# Poissons Ratio (z) = 0.27094 0.41138
#
# Static dielectric constant tensor:
#      x y z
#    x 1.658480 0.000000 0.011190 
#    y 0.000000 1.611230 0.000000 
#    z 0.011190 0.000000 1.671060 
# 
# From -- ./inp_files/75219.got.cif
#   From: 2010.05.17/outbox.cif.g08.bks.cpg/sg13_38_cif.got.tgz:75219.got - 2010.06.03 16:44:36.
