data_PCOD9237187
_publ_section_title
;
Structure prediction by ZEFSAII (Michael W. Deem and Ramdas Pophale) SiO2 
 PCOD9237187
Probable space group: P 2/C
;
_chemical_formula_sum "Si O2"
_cell_formula_units_Z 22
_cell_length_a 8.163058
_cell_length_b 12.855992
_cell_length_c 10.924915
_cell_angle_alpha 90.000000
_cell_angle_beta 52.334583
_cell_angle_gamma 90.000000
_cell_volume 907.565989
_symmetry_space_group_name_H-M "P 2/C"
_symmetry_group_IT_number 13
_symmetry_cell_setting 'monoclinic'
loop_
_space_group_symop_operation_xyz
x,y,z
-x,y,1/2-z
-x,-y,-z
x,-y,1/2+z
loop_
_atom_site_type_symbol
_atom_site_label
_atom_site_fract_x
_atom_site_fract_y
_atom_site_fract_z
Si Si1 0.163549 0.914598 0.465071
Si Si2 0.500000 0.062392 0.250000
Si Si3 0.421223 0.750144 0.624893
Si Si4 0.000000 0.418157 0.750000
Si Si5 0.383508 0.539362 0.929263
Si Si6 0.328427 0.261715 0.726181
Si Si7 0.000000 0.235065 0.250000
O O1 0.204235 0.834906 0.336610
O O2 0.092822 0.841474 0.606374
O O3 0.364085 0.986004 0.393892
O O4 0.000000 0.000000 0.500000
O O5 0.617019 0.145662 0.281423
O O6 0.581847 0.663875 0.598314
O O7 0.529172 0.777144 0.448957
O O8 0.195016 0.700345 0.709697
O O9 0.143183 0.475777 0.580936
O O10 0.165732 0.347421 0.750988
O O11 0.500000 0.502698 0.750000
O O12 0.500000 0.500000 0.000000
O O13 0.500000 0.292604 0.750000
#
# Coordination Sequence:
#
# PCOD9237187 Si02
#       7
#     4   2   4   2   4   4   2
#     4  12  26  37  62 100 142 194 250 296 352 421
#     4  12  24  44  64  94 144 194 244 304 350 438
#     4  11  25  44  71  97 141 186 243 305 370 445
#     4  10  28  48  84 112 150 202 240 315 383 456
#     4  11  27  51  80 116 147 190 250 319 398 474
#     4  11  24  46  66 104 149 194 245 297 358 435
#     4  12  24  40  64 106 138 198 242 299 363 434
#
# _framework density 24.240663999999999
#
# number of rings (size 3 to 8) (size 9 to 14) (size 15 to 20)
#    0.000    0.727    5.455    0.000   10.182    5.818 
#    0.000    0.000    0.000    0.000    0.000    0.000 
#    0.000    0.000    0.000    0.000    0.000    0.000 
#
# Total GULP energy -122726.958446 kJ/mol
# GULP energy per Si atom -5578.498111 kJ/mol
# Density = 2.418549 g / cm^3
# Si number density = 24.240664 Si / 1000 Ang^3
#
#
#
# Elastic Constant Matrix: (Units=GPa)
#
#
# Indices 1 2 3 4 5 6 
#
# 1 85.1409 -6.5535 32.6967 0.0000 -12.0169 0.0000
# 2 -6.5535 72.7701 28.0988 0.0000 1.8023 0.0000
# 3 32.6967 28.0988 184.8700 0.0000 -3.6593 0.0000
# 4 0.0000 0.0000 0.0000 26.7080 0.0000 -7.9637
# 5 -12.0169 1.8023 -3.6593 0.0000 47.2455 0.0000
# 6 0.0000 0.0000 0.0000 -7.9637 0.0000 27.8333
#
#
#
# Elastic Compliance Matrix: (Units=1/GPa)
#
#
# Indices 1 2 3 4 5 6 
#
# 1 0.013358 0.002140 -0.002626 0.000000 0.003113 0.000000
# 2 0.002140 0.014967 -0.002658 0.000000 -0.000233 0.000000
# 3 -0.002626 -0.002658 0.006276 0.000000 -0.000080 0.000000
# 4 0.000000 0.000000 0.000000 0.040934 0.000000 0.011712
# 5 0.003113 -0.000233 -0.000080 0.000000 0.021960 0.000000
# 6 0.000000 0.000000 0.000000 0.011712 0.000000 0.039279
#
#
# Mechanical properties :
#
#
# Convention : Reuss Voigt Hill
#
# Bulk Modulus (GPa) = 35.32034 50.14056 42.73045
# Shear Modulus (GPa) = 32.78690 39.59330 36.19010
#
# Velocity S-wave (km/s) = 3.68170 4.04585 3.86806
# Velocity P-wave (km/s) = 5.71626 6.52339 6.13311
#
# Compressibility (1/GPa) = 0.02831230
#
# Stress axis : x y z
#
# Youngs Moduli (GPa) = 74.86275 66.81504 159.33554
#
# Poissons Ratio (x) = -0.14298 0.41844
# Poissons Ratio (y) = -0.16020 0.42350
# Poissons Ratio (z) = 0.19660 0.17759
#
# Static dielectric constant tensor:
#      x y z
#    x 2.068940 0.000000 0.059960 
#    y 0.000000 1.896520 0.000000 
#    z 0.059960 0.000000 2.015080 
# 
# From -- ./inp_files/29828.got.cif
#   From: 2010.05.17/outbox.cif.g08.bks.cpg/sg13_15_cif.got.tgz:29828.got - 2010.06.03 16:44:36.
