data_PCOD9237330
_publ_section_title
;
Structure prediction by ZEFSAII (Michael W. Deem and Ramdas Pophale) SiO2 
 PCOD9237330
Probable space group: P 2/C
;
_chemical_formula_sum "Si O2"
_cell_formula_units_Z 32
_cell_length_a 10.874417
_cell_length_b 11.330360
_cell_length_c 20.002243
_cell_angle_alpha 90.000000
_cell_angle_beta 149.706720
_cell_angle_gamma 90.000000
_cell_volume 1243.157519
_symmetry_space_group_name_H-M "P 2/C"
_symmetry_group_IT_number 13
_symmetry_cell_setting 'monoclinic'
loop_
_space_group_symop_operation_xyz
x,y,z
-x,y,1/2-z
-x,-y,-z
x,-y,1/2+z
loop_
_atom_site_type_symbol
_atom_site_label
_atom_site_fract_x
_atom_site_fract_y
_atom_site_fract_z
Si Si1 0.387962 0.326095 0.770912
Si Si2 0.333752 0.018112 0.231609
Si Si3 0.933163 0.225530 0.609465
Si Si4 0.232422 0.281995 0.437485
Si Si5 0.193738 0.013080 0.458197
Si Si6 0.453557 0.381988 0.021160
Si Si7 0.250897 0.270567 0.126046
Si Si8 0.165471 0.428395 0.193012
O O1 0.500000 0.310159 0.750000
O O2 0.601059 0.330038 0.924275
O O3 0.206429 0.438116 0.689744
O O4 0.216726 0.226494 0.723976
O O5 0.500000 0.961700 0.250000
O O6 0.531138 0.001509 0.383696
O O7 0.303323 0.155354 0.195519
O O8 0.044675 0.991875 0.104864
O O9 0.846610 0.104927 0.604050
O O10 0.819758 0.334420 0.597576
O O11 0.817038 0.236953 0.480147
O O12 0.393713 0.284251 0.446962
O O13 0.019158 0.379593 0.337455
O O14 0.158552 0.145941 0.415694
O O15 0.576872 0.398257 0.150846
O O16 0.500000 0.500000 0.000000
O O17 0.500000 0.343533 0.250000
O O18 0.077238 0.353148 0.087284
#
# Coordination Sequence:
#
# PCOD9237330 Si02
#       8
#     4   4   4   4   4   4   4   4
#     4  12  29  47  74 115 156 191 248 319 386 446
#     4  11  22  39  71 107 150 200 241 301 379 458
#     4  12  27  46  76 112 151 203 246 310 385 445
#     4  12  28  48  74 113 147 201 258 310 376 454
#     4  12  25  45  72 109 156 198 255 312 374 468
#     4  12  26  51  80 104 143 199 263 313 374 451
#     4  11  20  41  72 110 141 187 249 298 370 455
#     4  12  24  47  77 105 147 192 249 316 376 446
#
# _framework density 25.740905999999999
#
# number of rings (size 3 to 8) (size 9 to 14) (size 15 to 20)
#    0.000    0.250    6.250    3.375    0.000    3.000 
#    0.000    0.000    2.750    0.000    0.000    0.000 
#    0.000    0.000    0.000    0.000    0.000    0.000 
#
# Total GULP energy -178475.042428 kJ/mol
# GULP energy per Si atom -5577.345076 kJ/mol
# Density = 2.568232 g / cm^3
# Si number density = 25.740906 Si / 1000 Ang^3
#
#
#
# Elastic Constant Matrix: (Units=GPa)
#
#
# Indices 1 2 3 4 5 6 
#
# 1 98.3980 50.0261 19.6497 0.0000 15.4678 0.0000
# 2 50.0261 157.0426 17.7256 0.0000 11.3313 0.0000
# 3 19.6497 17.7256 104.7575 0.0000 12.8363 0.0000
# 4 0.0000 0.0000 0.0000 15.1637 0.0000 -2.0914
# 5 15.4678 11.3313 12.8363 0.0000 45.1687 0.0000
# 6 0.0000 0.0000 0.0000 -2.0914 0.0000 14.9745
#
#
#
# Elastic Compliance Matrix: (Units=1/GPa)
#
#
# Indices 1 2 3 4 5 6 
#
# 1 0.012804 -0.003700 -0.001401 0.000000 -0.003058 0.000000
# 2 -0.003700 0.007643 -0.000538 0.000000 -0.000497 0.000000
# 3 -0.001401 -0.000538 0.010179 0.000000 -0.002278 0.000000
# 4 0.000000 0.000000 0.000000 0.067242 0.000000 0.009391
# 5 -0.003058 -0.000497 -0.002278 0.000000 0.023959 0.000000
# 6 0.000000 0.000000 0.000000 0.009391 0.000000 0.068092
#
#
# Mechanical properties :
#
#
# Convention : Reuss Voigt Hill
#
# Bulk Modulus (GPa) = 51.68557 59.44455 55.56506
# Shear Modulus (GPa) = 24.07936 33.24783 28.66359
#
# Velocity S-wave (km/s) = 3.06183 3.59783 3.34060
# Velocity P-wave (km/s) = 5.71161 6.35631 6.04257
#
# Compressibility (1/GPa) = 0.01934776
#
# Stress axis : x y z
#
# Youngs Moduli (GPa) = 78.09759 130.83865 98.24310
#
# Poissons Ratio (x) = 0.48411 0.13763
# Poissons Ratio (y) = 0.28897 0.05288
# Poissons Ratio (z) = 0.10941 0.07043
#
# Static dielectric constant tensor:
#      x y z
#    x 2.171640 0.000000 0.057360 
#    y 0.000000 2.168470 0.000000 
#    z 0.057360 0.000000 2.051900 
# 
# From -- ./inp_files/86610.got.cif
#   From: 2010.05.17/outbox.cif.g08.bks.cpg/sg13_44_cif.got.tgz:86610.got - 2010.06.03 16:44:36.
