data_PCOD9237584
_publ_section_title
;
Structure prediction by ZEFSAII (Michael W. Deem and Ramdas Pophale) SiO2 
 PCOD9237584
Probable space group: P 2/C
;
_chemical_formula_sum "Si O2"
_cell_formula_units_Z 28
_cell_length_a 8.732988
_cell_length_b 19.907672
_cell_length_c 14.975245
_cell_angle_alpha 90.000000
_cell_angle_beta 28.773668
_cell_angle_gamma 90.000000
_cell_volume 1253.196161
_symmetry_space_group_name_H-M "P 2/C"
_symmetry_group_IT_number 13
_symmetry_cell_setting 'monoclinic'
loop_
_space_group_symop_operation_xyz
x,y,z
-x,y,1/2-z
-x,-y,-z
x,-y,1/2+z
loop_
_atom_site_type_symbol
_atom_site_label
_atom_site_fract_x
_atom_site_fract_y
_atom_site_fract_z
Si Si1 0.729329 0.465637 0.454249
Si Si2 0.366778 0.705846 0.593053
Si Si3 0.620456 0.660626 0.282223
Si Si4 0.648661 0.949023 0.771323
Si Si5 0.385508 0.904874 0.404320
Si Si6 0.303884 0.396249 0.440026
Si Si7 0.624176 0.157921 0.957387
O O1 0.500000 0.500000 0.500000
O O2 0.573072 0.408378 0.594648
O O3 0.821462 0.530523 0.465001
O O4 0.000000 0.438770 0.250000
O O5 0.564847 0.702317 0.399815
O O6 0.484338 0.644436 0.595626
O O7 0.468798 0.776636 0.582977
O O8 0.000000 0.705562 0.750000
O O9 0.500000 0.688334 0.250000
O O10 0.990087 0.646246 0.083870
O O11 0.500000 0.935564 0.750000
O O12 0.018406 0.928262 0.586757
O O13 0.597103 0.028241 0.813556
O O14 0.453754 0.906349 0.942547
O O15 0.500000 0.877748 0.250000
O O16 0.447735 0.854844 0.453463
O O17 0.500000 0.405136 0.250000
O O18 0.000000 0.165644 0.750000
#
# Coordination Sequence:
#
# PCOD9237584 Si02
#       7
#     4   4   4   4   4   4   4
#     4  12  23  41  70  97 133 168 210 265 325 380
#     4  12  26  47  68  92 127 168 215 271 321 379
#     4  12  26  43  68  97 130 169 215 262 322 384
#     4  11  22  40  65  98 134 171 215 265 321 377
#     4  11  22  40  65  98 134 171 215 265 321 378
#     4  12  26  44  67  97 129 170 215 263 321 384
#     4  12  25  43  67  94 129 171 217 264 322 382
#
# _framework density 22.342870000000001
#
# number of rings (size 3 to 8) (size 9 to 14) (size 15 to 20)
#    0.000    0.286    2.857    8.143    2.000    2.286 
#    0.000    5.714    0.000    0.000    0.000    0.000 
#    0.000    0.000    0.000    0.000    0.000    0.000 
#
# Total GULP energy -156704.194734 kJ/mol
# GULP energy per Si atom -5596.578383 kJ/mol
# Density = 2.229202 g / cm^3
# Si number density = 22.342870 Si / 1000 Ang^3
#
#
#
# Elastic Constant Matrix: (Units=GPa)
#
#
# Indices 1 2 3 4 5 6 
#
# 1 73.5246 19.9267 20.5975 0.0000 -2.0529 0.0000
# 2 19.9267 63.1577 -0.8763 0.0000 8.8387 0.0000
# 3 20.5975 -0.8763 112.7665 0.0000 -12.7902 0.0000
# 4 0.0000 0.0000 0.0000 12.1329 0.0000 -20.5063
# 5 -2.0529 8.8387 -12.7902 0.0000 54.7051 0.0000
# 6 0.0000 0.0000 0.0000 -20.5063 0.0000 -0.1369
#
#
#
# Elastic Compliance Matrix: (Units=1/GPa)
#
#
# Indices 1 2 3 4 5 6 
#
# 1 0.015809 -0.005134 -0.002842 0.000000 0.000758 0.000000
# 2 -0.005134 0.017870 0.000747 0.000000 -0.002905 0.000000
# 3 -0.002842 0.000747 0.009622 0.000000 0.002022 0.000000
# 4 0.000000 0.000000 0.000000 0.000324 0.000000 -0.048574
# 5 0.000758 -0.002905 0.002022 0.000000 0.019251 0.000000
# 6 0.000000 0.000000 0.000000 -0.048574 0.000000 -0.028740
#
#
# Mechanical properties :
#
#
# Convention : Reuss Voigt Hill
#
# Bulk Modulus (GPa) = 34.66767 36.52720 35.59744
# Shear Modulus (GPa) = 85.89903 27.32696 56.61299
#
# Velocity S-wave (km/s) = 6.20720 3.50104 5.03918
# Velocity P-wave (km/s) = 8.18060 5.72075 7.05866
#
# Compressibility (1/GPa) = 0.02884532
#
# Stress axis : x y z
#
# Youngs Moduli (GPa) = 63.25342 55.95971 103.92748
#
# Poissons Ratio (x) = 0.28727 0.29532
# Poissons Ratio (y) = 0.32471 -0.07764
# Poissons Ratio (z) = 0.17974 -0.04180
#
# Static dielectric constant tensor:
#      x y z
#    x 0.460760 0.000000 0.538360 
#    y 0.000000 1.874690 0.000000 
#    z 0.538360 0.000000 1.611170 
# 
# From -- ./inp_files/48203.got.cif
#   From: 2010.05.17/outbox.cif.g08.bks.cpg/sg13_25_cif.got.tgz:48203.got - 2010.06.03 16:44:36.
