data_PCOD9237120
_publ_section_title
;
Structure prediction by ZEFSAII (Michael W. Deem and Ramdas Pophale) SiO2 
 PCOD9237120
Probable space group: P 2/C
;
_chemical_formula_sum "Si O2"
_cell_formula_units_Z 18
_cell_length_a 15.659189
_cell_length_b 5.037447
_cell_length_c 21.415387
_cell_angle_alpha 90.000000
_cell_angle_beta 152.671925
_cell_angle_gamma 90.000000
_cell_volume 775.530197
_symmetry_space_group_name_H-M "P 2/C"
_symmetry_group_IT_number 13
_symmetry_cell_setting 'monoclinic'
loop_
_space_group_symop_operation_xyz
x,y,z
-x,y,1/2-z
-x,-y,-z
x,-y,1/2+z
loop_
_atom_site_type_symbol
_atom_site_label
_atom_site_fract_x
_atom_site_fract_y
_atom_site_fract_z
Si Si1 0.294613 0.698613 0.019753
Si Si2 0.228578 0.971751 0.097234
Si Si3 0.694194 0.475167 0.268798
Si Si4 0.027309 0.683078 0.144388
Si Si5 0.000000 0.017166 0.750000
O O1 0.168531 0.843340 0.886691
O O2 0.158954 0.481931 0.962383
O O3 0.482896 0.564694 0.119252
O O4 0.338454 0.904678 0.104357
O O5 0.298339 0.199392 0.189365
O O6 0.221852 0.697018 0.129918
O O7 0.034473 0.082070 0.942832
O O8 0.817952 0.501343 0.287201
O O9 0.078627 0.808127 0.244168
#
# Coordination Sequence:
#
# PCOD9237120 Si02
#       5
#     4   4   4   4   2
#     4  11  26  45  73 104 147 191 236 298 347 425
#     4  11  25  43  69 110 144 179 231 291 359 426
#     4  12  27  42  75 109 142 185 235 289 367 425
#     4  11  25  47  71 102 147 189 236 296 348 424
#     4  10  26  48  72  98 142 198 246 292 352 406
#
# _framework density 23.209925999999999
#
# number of rings (size 3 to 8) (size 9 to 14) (size 15 to 20)
#    0.000    0.889    2.222    2.667   15.556    0.889 
#    0.000    4.444    0.000    0.000    0.000    0.000 
#    0.000    0.000    0.000    0.000    0.000    0.000 
#
# Total GULP energy -100779.872105 kJ/mol
# GULP energy per Si atom -5598.881784 kJ/mol
# Density = 2.315710 g / cm^3
# Si number density = 23.209926 Si / 1000 Ang^3
#
#
#
# Elastic Constant Matrix: (Units=GPa)
#
#
# Indices 1 2 3 4 5 6 
#
# 1 91.5751 25.8404 55.7666 0.0000 12.6140 0.0000
# 2 25.8404 106.4128 17.2253 0.0000 -6.8179 0.0000
# 3 55.7666 17.2253 94.4911 0.0000 -6.6287 0.0000
# 4 0.0000 0.0000 0.0000 44.2443 0.0000 -6.4534
# 5 12.6140 -6.8179 -6.6287 0.0000 48.9097 0.0000
# 6 0.0000 0.0000 0.0000 -6.4534 0.0000 30.6220
#
#
#
# Elastic Compliance Matrix: (Units=1/GPa)
#
#
# Indices 1 2 3 4 5 6 
#
# 1 0.019996 -0.003427 -0.011683 0.000000 -0.007218 0.000000
# 2 -0.003427 0.010332 0.000305 0.000000 0.002365 0.000000
# 3 -0.011683 0.000305 0.017806 0.000000 0.005469 0.000000
# 4 0.000000 0.000000 0.000000 0.023319 0.000000 0.004914
# 5 -0.007218 0.002365 0.005469 0.000000 0.023378 0.000000
# 6 0.000000 0.000000 0.000000 0.004914 0.000000 0.033692
#
#
# Mechanical properties :
#
#
# Convention : Reuss Voigt Hill
#
# Bulk Modulus (GPa) = 53.98367 54.46040 54.22203
# Shear Modulus (GPa) = 30.43106 37.66499 34.04802
#
# Velocity S-wave (km/s) = 3.62487 4.03277 3.83425
# Velocity P-wave (km/s) = 6.38975 6.72305 6.55852
#
# Compressibility (1/GPa) = 0.01852412
#
# Stress axis : x y z
#
# Youngs Moduli (GPa) = 50.01091 96.78940 56.16118
#
# Poissons Ratio (x) = 0.33169 0.65611
# Poissons Ratio (y) = 0.17138 -0.01713
# Poissons Ratio (z) = 0.58426 -0.02952
#
# Static dielectric constant tensor:
#      x y z
#    x 1.930820 0.000000 0.020740 
#    y 0.000000 1.909160 0.000000 
#    z 0.020740 0.000000 1.904090 
# 
# From -- ./inp_files/65194.got.cif
#   From: 2010.05.17/outbox.cif.g08.bks.cpg/sg13_33_cif.got.tgz:65194.got - 2010.06.03 16:44:36.
