data_PCOD9237188
_publ_section_title
;
Structure prediction by ZEFSAII (Michael W. Deem and Ramdas Pophale) SiO2 
 PCOD9237188
Probable space group: P 2/C
;
_chemical_formula_sum "Si O2"
_cell_formula_units_Z 14
_cell_length_a 10.804967
_cell_length_b 7.128387
_cell_length_c 7.114534
_cell_angle_alpha 90.000000
_cell_angle_beta 92.454021
_cell_angle_gamma 90.000000
_cell_volume 547.472994
_symmetry_space_group_name_H-M "P 2/C"
_symmetry_group_IT_number 13
_symmetry_cell_setting 'monoclinic'
loop_
_space_group_symop_operation_xyz
x,y,z
-x,y,1/2-z
-x,-y,-z
x,-y,1/2+z
loop_
_atom_site_type_symbol
_atom_site_label
_atom_site_fract_x
_atom_site_fract_y
_atom_site_fract_z
Si Si1 0.863781 0.270845 0.248833
Si Si2 0.500000 0.349469 0.250000
Si Si3 0.140418 0.164974 0.827661
Si Si4 0.328289 0.662110 0.046852
O O1 0.832263 0.239173 0.462708
O O2 0.777391 0.391305 0.110159
O O3 0.000000 0.351688 0.250000
O O4 0.865053 0.061519 0.161732
O O5 0.596446 0.490662 0.358322
O O6 0.571792 0.240166 0.088935
O O7 0.252683 0.223194 0.697647
O O8 0.000000 0.218033 0.750000
#
# Coordination Sequence:
#
# PCOD9237188 Si02
#       4
#     4   2   4   4
#     4  11  20  39  71 107 133 154 196 274 351 388
#     4  10  28  50  58  80 134 198 216 262 290 356
#     4  11  20  39  71 107 133 154 196 274 351 388
#     4  11  24  47  66  88 132 175 224 255 316 382
#
# _framework density 25.572037000000002
#
# number of rings (size 3 to 8) (size 9 to 14) (size 15 to 20)
#    0.000    1.143    5.714    1.714    8.000    0.000 
#    0.000    8.571    0.000    0.000    0.000    0.000 
#    0.000    0.000    0.000    0.000    0.000    0.000 
#
# Total GULP energy -78312.684095 kJ/mol
# GULP energy per Si atom -5593.763150 kJ/mol
# Density = 2.551383 g / cm^3
# Si number density = 25.572037 Si / 1000 Ang^3
#
#
#
# Elastic Constant Matrix: (Units=GPa)
#
#
# Indices 1 2 3 4 5 6 
#
# 1 152.2954 28.9107 59.2064 0.0000 1.0697 0.0000
# 2 28.9107 95.3135 30.2390 0.0000 7.9136 0.0000
# 3 59.2064 30.2390 180.7968 0.0000 15.3437 0.0000
# 4 0.0000 0.0000 0.0000 -1.7861 0.0000 -20.1993
# 5 1.0697 7.9136 15.3437 0.0000 75.8983 0.0000
# 6 0.0000 0.0000 0.0000 -20.1993 0.0000 34.4968
#
#
#
# Elastic Compliance Matrix: (Units=1/GPa)
#
#
# Indices 1 2 3 4 5 6 
#
# 1 0.007779 -0.001670 -0.002313 0.000000 0.000532 0.000000
# 2 -0.001670 0.011485 -0.001297 0.000000 -0.000912 0.000000
# 3 -0.002313 -0.001297 0.006605 0.000000 -0.001167 0.000000
# 4 0.000000 0.000000 0.000000 -0.073456 0.000000 -0.043011
# 5 0.000532 -0.000912 -0.001167 0.000000 0.013499 0.000000
# 6 0.000000 0.000000 0.000000 -0.043011 0.000000 0.003803
#
#
# Mechanical properties :
#
#
# Convention : Reuss Voigt Hill
#
# Bulk Modulus (GPa) = 65.32076 73.90199 69.61137
# Shear Modulus (GPa) = -341.93390 42.39178 -149.77106
#
# Velocity S-wave (km/s) = -11.57602 4.07595 -7.66130
# Velocity P-wave (km/s) = 12.37227 7.14937 7.14002
#
# Compressibility (1/GPa) = 0.01530907
#
# Stress axis : x y z
#
# Youngs Moduli (GPa) = 128.55598 87.06787 151.41065
#
# Poissons Ratio (x) = 0.14538 0.35025
# Poissons Ratio (y) = 0.21466 0.19635
# Poissons Ratio (z) = 0.29738 0.11291
#
# Static dielectric constant tensor:
#      x y z
#    x 2.104290 0.000000 -0.064400 
#    y 0.000000 1.975580 0.000000 
#    z -0.064400 0.000000 2.033300 
# 
# From -- ./inp_files/10762.got.cif
#   From: 2010.05.17/outbox.cif.g08.bks.cpg/sg13_6_cif.got.tgz:10762.got - 2010.06.03 16:44:36.
