data_PCOD9237293
_publ_section_title
;
Structure prediction by ZEFSAII (Michael W. Deem and Ramdas Pophale) SiO2 
 PCOD9237293
Probable space group: P 2/C
;
_chemical_formula_sum "Si O2"
_cell_formula_units_Z 28
_cell_length_a 11.823563
_cell_length_b 6.381109
_cell_length_c 21.569626
_cell_angle_alpha 90.000000
_cell_angle_beta 59.609243
_cell_angle_gamma 90.000000
_cell_volume 1403.764422
_symmetry_space_group_name_H-M "P 2/C"
_symmetry_group_IT_number 13
_symmetry_cell_setting 'monoclinic'
loop_
_space_group_symop_operation_xyz
x,y,z
-x,y,1/2-z
-x,-y,-z
x,-y,1/2+z
loop_
_atom_site_type_symbol
_atom_site_label
_atom_site_fract_x
_atom_site_fract_y
_atom_site_fract_z
Si Si1 0.556373 0.185480 0.135358
Si Si2 0.185650 0.683014 0.630354
Si Si3 0.291669 0.736399 0.785414
Si Si4 0.962750 0.979391 0.688527
Si Si5 0.364734 0.065206 0.620001
Si Si6 0.372367 0.384571 0.510155
Si Si7 0.173103 0.374489 0.749230
O O1 0.664671 0.187178 0.158936
O O2 0.422984 0.253541 0.207453
O O3 0.606402 0.336092 0.067302
O O4 0.504235 0.976972 0.114271
O O5 0.249563 0.526932 0.563102
O O6 0.144426 0.539932 0.701427
O O7 0.295063 0.842634 0.626788
O O8 0.076901 0.833637 0.629122
O O9 0.236360 0.503913 0.788056
O O10 0.174653 0.884780 0.794721
O O11 0.945026 0.230917 0.691478
O O12 0.000000 0.947581 0.750000
O O13 0.368489 0.174994 0.552471
O O14 0.275876 0.214375 0.688226
O O15 0.500000 0.500000 0.500000
#
# Coordination Sequence:
#
# PCOD9237293 Si02
#       7
#     4   4   4   4   4   4   4
#     4  11  21  44  59  94 134 165 209 270 323 388
#     4  11  23  38  63  96 128 162 218 272 313 380
#     4  11  24  41  62  93 135 164 211 271 331 389
#     4  12  22  38  62  92 126 162 217 269 316 382
#     4  11  20  39  63  96 123 161 214 262 320 376
#     4  11  23  39  67  96 126 173 217 258 320 388
#     4  11  20  37  61  94 121 166 209 263 329 376
#
# _framework density 19.946369000000001
#
# number of rings (size 3 to 8) (size 9 to 14) (size 15 to 20)
#    0.000    0.857    7.143    1.286    2.000    0.000 
#    7.714    0.714    0.000    1.714    0.000    0.000 
#    0.000    0.000    0.000    0.000    0.000    0.000 
#
# Total GULP energy -156100.937961 kJ/mol
# GULP energy per Si atom -5575.033499 kJ/mol
# Density = 1.990097 g / cm^3
# Si number density = 19.946369 Si / 1000 Ang^3
#
#
#
# Elastic Constant Matrix: (Units=GPa)
#
#
# Indices 1 2 3 4 5 6 
#
# 1 126.5105 39.3755 37.7666 0.0000 18.6859 0.0000
# 2 39.3755 95.2921 21.3774 0.0000 4.5181 0.0000
# 3 37.7666 21.3774 70.6863 0.0000 14.8233 0.0000
# 4 0.0000 0.0000 0.0000 19.9617 0.0000 -12.5909
# 5 18.6859 4.5181 14.8233 0.0000 25.2698 0.0000
# 6 0.0000 0.0000 0.0000 -12.5909 0.0000 41.3189
#
#
#
# Elastic Compliance Matrix: (Units=1/GPa)
#
#
# Indices 1 2 3 4 5 6 
#
# 1 0.010832 -0.003407 -0.003655 0.000000 -0.005257 0.000000
# 2 -0.003407 0.012329 -0.002251 0.000000 0.001636 0.000000
# 3 -0.003655 -0.002251 0.018392 0.000000 -0.007684 0.000000
# 4 0.000000 0.000000 0.000000 0.062016 0.000000 0.018898
# 5 -0.005257 0.001636 -0.007684 0.000000 0.047675 0.000000
# 6 0.000000 0.000000 0.000000 0.018898 0.000000 0.029961
#
#
# Mechanical properties :
#
#
# Convention : Reuss Voigt Hill
#
# Bulk Modulus (GPa) = 43.61605 54.39199 49.00402
# Shear Modulus (GPa) = 24.09945 30.24139 27.17042
#
# Velocity S-wave (km/s) = 3.47971 3.89798 3.69477
# Velocity P-wave (km/s) = 6.16917 6.89836 6.54393
#
# Compressibility (1/GPa) = 0.02292734
#
# Stress axis : x y z
#
# Youngs Moduli (GPa) = 92.31590 81.10740 54.37168
#
# Poissons Ratio (x) = 0.27632 0.19872
# Poissons Ratio (y) = 0.31451 0.12242
# Poissons Ratio (z) = 0.33740 0.18261
#
# Static dielectric constant tensor:
#      x y z
#    x 1.751910 0.000000 -0.038300 
#    y 0.000000 1.787840 0.000000 
#    z -0.038300 0.000000 1.972440 
# 
# From -- ./inp_files/77481.got.cif
#   From: 2010.05.17/outbox.cif.g08.bks.cpg/sg13_39_cif.got.tgz:77481.got - 2010.06.03 16:44:36.
