data_PCOD9237765
_publ_section_title
;
Structure prediction by ZEFSAII (Michael W. Deem and Ramdas Pophale) SiO2 
 PCOD9237765
Probable space group: P 2/C
;
_chemical_formula_sum "Si O2"
_cell_formula_units_Z 20
_cell_length_a 22.764861
_cell_length_b 6.792649
_cell_length_c 10.178679
_cell_angle_alpha 90.000000
_cell_angle_beta 34.882558
_cell_angle_gamma 90.000000
_cell_volume 900.145651
_symmetry_space_group_name_H-M "P 2/C"
_symmetry_group_IT_number 13
_symmetry_cell_setting 'monoclinic'
loop_
_space_group_symop_operation_xyz
x,y,z
-x,y,1/2-z
-x,-y,-z
x,-y,1/2+z
loop_
_atom_site_type_symbol
_atom_site_label
_atom_site_fract_x
_atom_site_fract_y
_atom_site_fract_z
Si Si1 0.433565 0.539624 0.752113
Si Si2 0.906609 0.559470 0.513440
Si Si3 0.044637 0.784313 0.434907
Si Si4 0.298228 0.198979 0.108794
Si Si5 0.729843 0.145854 0.049801
O O1 0.500000 0.629101 0.750000
O O2 0.500000 0.500000 0.500000
O O3 0.340207 0.681392 0.881873
O O4 0.389887 0.334681 0.889081
O O5 0.913275 0.322901 0.510692
O O6 0.795800 0.648088 0.696328
O O7 0.000000 0.628147 0.250000
O O8 0.945285 0.653221 0.579788
O O9 0.151313 0.786852 0.158724
O O10 0.000000 0.000000 0.500000
O O11 0.312111 0.102329 0.226856
O O12 0.273161 0.037736 0.044356
#
# Coordination Sequence:
#
# PCOD9237765 Si02
#       5
#     4   4   4   4   4
#     4  12  28  53  77 104 145 196 259 325 386 438
#     4  11  23  40  70 104 153 197 243 295 369 451
#     4  11  23  42  67 109 148 195 239 300 366 445
#     4  12  27  47  75 114 149 196 252 309 380 458
#     4  12  27  46  77 112 151 195 251 306 380 454
#
# _framework density 22.218627000000001
#
# number of rings (size 3 to 8) (size 9 to 14) (size 15 to 20)
#    0.000    0.400    8.000    0.000    2.800    4.000 
#    0.000    0.000    0.000    0.000    0.000    0.000 
#    0.000    0.000    0.000    0.000    0.000    0.000 
#
# Total GULP energy -111506.298175 kJ/mol
# GULP energy per Si atom -5575.314909 kJ/mol
# Density = 2.216806 g / cm^3
# Si number density = 22.218627 Si / 1000 Ang^3
#
#
#
# Elastic Constant Matrix: (Units=GPa)
#
#
# Indices 1 2 3 4 5 6 
#
# 1 103.4525 32.4161 49.1381 0.0000 10.7901 0.0000
# 2 32.4161 87.4798 33.3036 0.0000 0.2104 0.0000
# 3 49.1381 33.3036 150.3564 0.0000 7.5865 0.0000
# 4 0.0000 0.0000 0.0000 31.3346 0.0000 -12.6325
# 5 10.7901 0.2104 7.5865 0.0000 43.8383 0.0000
# 6 0.0000 0.0000 0.0000 -12.6325 0.0000 33.9702
#
#
#
# Elastic Compliance Matrix: (Units=1/GPa)
#
#
# Indices 1 2 3 4 5 6 
#
# 1 0.012522 -0.003412 -0.003210 0.000000 -0.002510 0.000000
# 2 -0.003412 0.013421 -0.001914 0.000000 0.001107 0.000000
# 3 -0.003210 -0.001914 0.008155 0.000000 -0.000612 0.000000
# 4 0.000000 0.000000 0.000000 0.037542 0.000000 0.013961
# 5 -0.002510 0.001107 -0.000612 0.000000 0.023530 0.000000
# 6 0.000000 0.000000 0.000000 0.013961 0.000000 0.034629
#
#
# Mechanical properties :
#
#
# Convention : Reuss Voigt Hill
#
# Bulk Modulus (GPa) = 58.73030 63.44489 61.08759
# Shear Modulus (GPa) = 32.77724 36.92401 34.85062
#
# Velocity S-wave (km/s) = 3.84502 4.08100 3.96477
# Velocity P-wave (km/s) = 6.79724 7.12902 6.96511
#
# Compressibility (1/GPa) = 0.01702699
#
# Stress axis : x y z
#
# Youngs Moduli (GPa) = 79.86049 74.50799 122.63001
#
# Poissons Ratio (x) = 0.25422 0.39363
# Poissons Ratio (y) = 0.27248 0.23466
# Poissons Ratio (z) = 0.25634 0.14258
#
# Static dielectric constant tensor:
#      x y z
#    x 2.059510 0.000000 0.077910 
#    y 0.000000 1.928510 0.000000 
#    z 0.077910 0.000000 1.824430 
# 
# From -- ./inp_files/42023.got.cif
#   From: 2010.05.17/outbox.cif.g08.bks.cpg/sg13_22_cif.got.tgz:42023.got - 2010.06.03 16:44:36.
