data_PCOD9237323
_publ_section_title
;
Structure prediction by ZEFSAII (Michael W. Deem and Ramdas Pophale) SiO2 
 PCOD9237323
Probable space group: P 2/C
;
_chemical_formula_sum "Si O2"
_cell_formula_units_Z 28
_cell_length_a 15.817011
_cell_length_b 8.246380
_cell_length_c 20.355848
_cell_angle_alpha 90.000000
_cell_angle_beta 26.437309
_cell_angle_gamma 90.000000
_cell_volume 1182.088539
_symmetry_space_group_name_H-M "P 2/C"
_symmetry_group_IT_number 13
_symmetry_cell_setting 'monoclinic'
loop_
_space_group_symop_operation_xyz
x,y,z
-x,y,1/2-z
-x,-y,-z
x,-y,1/2+z
loop_
_atom_site_type_symbol
_atom_site_label
_atom_site_fract_x
_atom_site_fract_y
_atom_site_fract_z
Si Si1 0.172724 0.278304 0.795382
Si Si2 0.953633 0.998463 0.206399
Si Si3 0.594826 0.780151 0.947119
Si Si4 0.146361 0.512684 0.199610
Si Si5 0.425925 0.733796 0.931116
Si Si6 0.356778 0.923481 0.411046
Si Si7 0.562140 0.387349 0.783256
O O1 0.054769 0.126622 0.849294
O O2 0.379648 0.232305 0.621549
O O3 0.080198 0.423236 0.816517
O O4 0.232545 0.334492 0.827569
O O5 0.000000 0.949657 0.250000
O O6 0.749487 0.084361 0.356618
O O7 0.132742 0.108052 0.059869
O O8 0.687660 0.608882 0.898738
O O9 0.570436 0.794410 0.885719
O O10 0.000000 0.437706 0.250000
O O11 0.236591 0.663212 0.097196
O O12 0.377665 0.892600 0.922986
O O13 0.515465 0.569863 0.838574
O O14 0.500000 0.926314 0.250000
O O15 0.431065 0.765096 0.398260
O O16 0.500000 0.394622 0.750000
#
# Coordination Sequence:
#
# PCOD9237323 Si02
#       7
#     4   4   4   4   4   4   4
#     4  11  20  41  61 100 137 173 227 286 347 416
#     4  12  24  40  70 108 138 181 233 288 355 416
#     4  11  21  37  65 103 141 169 222 292 355 413
#     4  11  21  35  63 102 138 168 217 289 355 413
#     4  11  21  44  68  95 134 188 228 282 352 412
#     4  11  26  46  68  99 141 191 236 287 343 416
#     4  11  23  42  68  93 129 185 238 281 340 407
#
# _framework density 23.686889999999998
#
# number of rings (size 3 to 8) (size 9 to 14) (size 15 to 20)
#    0.000    0.857    2.857    6.857    2.000    0.000 
#    0.000    6.429    0.000    6.000    0.000    0.000 
#    0.000    0.000    0.000    0.000    0.000    0.000 
#
# Total GULP energy -155904.926474 kJ/mol
# GULP energy per Si atom -5568.033088 kJ/mol
# Density = 2.363298 g / cm^3
# Si number density = 23.686890 Si / 1000 Ang^3
#
#
#
# Elastic Constant Matrix: (Units=GPa)
#
#
# Indices 1 2 3 4 5 6 
#
# 1 111.2068 -7.3399 6.2579 0.0000 -8.9002 0.0000
# 2 -7.3399 84.1791 -8.7118 0.0000 -2.2427 0.0000
# 3 6.2579 -8.7118 34.2009 0.0000 -7.1052 0.0000
# 4 0.0000 0.0000 0.0000 48.5347 0.0000 -9.2725
# 5 -8.9002 -2.2427 -7.1052 0.0000 29.6467 0.0000
# 6 0.0000 0.0000 0.0000 -9.2725 0.0000 43.5527
#
#
#
# Elastic Compliance Matrix: (Units=1/GPa)
#
#
# Indices 1 2 3 4 5 6 
#
# 1 0.009308 0.000782 -0.000959 0.000000 0.002624 0.000000
# 2 0.000782 0.012354 0.003417 0.000000 0.001988 0.000000
# 3 -0.000959 0.003417 0.031865 0.000000 0.007608 0.000000
# 4 0.000000 0.000000 0.000000 0.021477 0.000000 0.004573
# 5 0.002624 0.001988 0.007608 0.000000 0.036492 0.000000
# 6 0.000000 0.000000 0.000000 0.004573 0.000000 0.023934
#
#
# Mechanical properties :
#
#
# Convention : Reuss Voigt Hill
#
# Bulk Modulus (GPa) = 16.66443 23.33323 19.99883
# Shear Modulus (GPa) = 33.56769 40.30553 36.93661
#
# Velocity S-wave (km/s) = 3.76858 4.12952 3.95317
# Velocity P-wave (km/s) = 5.09773 5.71045 5.41277
#
# Compressibility (1/GPa) = 0.06000804
#
# Stress axis : x y z
#
# Youngs Moduli (GPa) = 107.43653 80.94397 31.38214
#
# Poissons Ratio (x) = -0.06332 0.03009
# Poissons Ratio (y) = -0.08404 -0.10723
# Poissons Ratio (z) = 0.10301 -0.27657
#
# Static dielectric constant tensor:
#      x y z
#    x 2.253310 0.000000 0.067450 
#    y 0.000000 1.940970 0.000000 
#    z 0.067450 0.000000 1.948550 
# 
# From -- ./inp_files/79924.got.cif
#   From: 2010.05.17/outbox.cif.g08.bks.cpg/sg13_40_cif.got.tgz:79924.got - 2010.06.03 16:44:36.
