data_PCOD9237344
_publ_section_title
;
Structure prediction by ZEFSAII (Michael W. Deem and Ramdas Pophale) SiO2 
 PCOD9237344
Probable space group: P 2/C
;
_chemical_formula_sum "Si O2"
_cell_formula_units_Z 18
_cell_length_a 10.784802
_cell_length_b 7.879393
_cell_length_c 13.490136
_cell_angle_alpha 90.000000
_cell_angle_beta 42.461044
_cell_angle_gamma 90.000000
_cell_volume 773.895194
_symmetry_space_group_name_H-M "P 2/C"
_symmetry_group_IT_number 13
_symmetry_cell_setting 'monoclinic'
loop_
_space_group_symop_operation_xyz
x,y,z
-x,y,1/2-z
-x,-y,-z
x,-y,1/2+z
loop_
_atom_site_type_symbol
_atom_site_label
_atom_site_fract_x
_atom_site_fract_y
_atom_site_fract_z
Si Si1 0.000000 0.766470 0.750000
Si Si2 0.390530 0.246942 0.021108
Si Si3 0.676691 0.710180 0.717436
Si Si4 0.671094 0.089539 0.725856
Si Si5 0.822680 0.396368 0.523421
O O1 0.804447 0.858402 0.869491
O O2 0.008673 0.644325 0.649055
O O3 0.391518 0.323212 0.129869
O O4 0.570325 0.143155 0.886824
O O5 0.346926 0.378074 0.956798
O O6 0.500000 0.714752 0.750000
O O7 0.806658 0.570656 0.590584
O O8 0.754634 0.902574 0.675340
O O9 0.500000 0.084142 0.750000
O O10 0.798430 0.240414 0.613085
#
# Coordination Sequence:
#
# PCOD9237344 Si02
#       5
#     2   4   4   4   4
#     4   8  20  38  60  74 120 162 174 220 298 336
#     4   9  19  38  58  82 116 150 180 235 286 325
#     4  11  21  33  61  89 108 140 198 237 271 331
#     4   9  18  35  60  84 109 143 191 235 277 326
#     4   9  20  38  56  81 114 152 182 229 285 329
#
# _framework density 23.258962
#
# number of rings (size 3 to 8) (size 9 to 14) (size 15 to 20)
#    1.333    1.333    0.000    2.667    0.000    4.444 
#    0.000    2.222    0.000    0.000    0.000    0.000 
#    0.000    0.000    0.000    0.000    0.000    0.000 
#
# Total GULP energy -100280.786755 kJ/mol
# GULP energy per Si atom -5571.154820 kJ/mol
# Density = 2.320602 g / cm^3
# Si number density = 23.258962 Si / 1000 Ang^3
#
#
#
# Elastic Constant Matrix: (Units=GPa)
#
#
# Indices 1 2 3 4 5 6 
#
# 1 66.9211 21.0716 29.1854 0.0000 19.8068 0.0000
# 2 21.0716 147.2866 92.9914 0.0000 -2.9078 0.0000
# 3 29.1854 92.9914 187.4083 0.0000 15.5606 0.0000
# 4 0.0000 0.0000 0.0000 30.9125 0.0000 1.5191
# 5 19.8068 -2.9078 15.5606 0.0000 40.6136 0.0000
# 6 0.0000 0.0000 0.0000 1.5191 0.0000 23.9115
#
#
#
# Elastic Compliance Matrix: (Units=1/GPa)
#
#
# Indices 1 2 3 4 5 6 
#
# 1 0.018729 -0.002151 -0.001113 0.000000 -0.008861 0.000000
# 2 -0.002151 0.010423 -0.005150 0.000000 0.003769 0.000000
# 3 -0.001113 -0.005150 0.008315 0.000000 -0.003011 0.000000
# 4 0.000000 0.000000 0.000000 0.032451 0.000000 -0.002062
# 5 -0.008861 0.003769 -0.003011 0.000000 0.030367 0.000000
# 6 0.000000 0.000000 0.000000 -0.002062 0.000000 0.041952
#
#
# Mechanical properties :
#
#
# Convention : Reuss Voigt Hill
#
# Bulk Modulus (GPa) = 48.45603 76.45697 62.45650
# Shear Modulus (GPa) = 30.13060 36.31204 33.22132
#
# Velocity S-wave (km/s) = 3.60313 3.95550 3.78342
# Velocity P-wave (km/s) = 6.17969 7.33517 6.78208
#
# Compressibility (1/GPa) = 0.02063727
#
# Stress axis : x y z
#
# Youngs Moduli (GPa) = 53.39424 95.94147 120.26980
#
# Poissons Ratio (x) = 0.20641 0.13390
# Poissons Ratio (y) = 0.11487 0.61936
# Poissons Ratio (z) = 0.05945 0.49407
#
# Static dielectric constant tensor:
#      x y z
#    x 2.028800 0.000000 -0.025620 
#    y 0.000000 1.878670 0.000000 
#    z -0.025620 0.000000 1.910970 
# 
# From -- ./inp_files/52538.got.cif
#   From: 2010.05.17/outbox.cif.g08.bks.cpg/sg13_27_cif.got.tgz:52538.got - 2010.06.03 16:44:36.
