data_PCOD9237137
_publ_section_title
;
Structure prediction by ZEFSAII (Michael W. Deem and Ramdas Pophale) SiO2 
 PCOD9237137
Probable space group: P 2/C
;
_chemical_formula_sum "Si O2"
_cell_formula_units_Z 18
_cell_length_a 10.846532
_cell_length_b 7.940108
_cell_length_c 9.685464
_cell_angle_alpha 90.000000
_cell_angle_beta 121.499022
_cell_angle_gamma 90.000000
_cell_volume 711.226733
_symmetry_space_group_name_H-M "P 2/C"
_symmetry_group_IT_number 13
_symmetry_cell_setting 'monoclinic'
loop_
_space_group_symop_operation_xyz
x,y,z
-x,y,1/2-z
-x,-y,-z
x,-y,1/2+z
loop_
_atom_site_type_symbol
_atom_site_label
_atom_site_fract_x
_atom_site_fract_y
_atom_site_fract_z
Si Si1 0.355879 0.597218 0.874296
Si Si2 0.547476 0.890325 0.902617
Si Si3 0.155887 0.109230 0.793088
Si Si4 0.801786 0.652973 0.426392
Si Si5 0.000000 0.772699 0.750000
O O1 0.423735 0.747489 0.824621
O O2 0.252736 0.485857 0.715223
O O3 0.500000 0.500000 0.000000
O O4 0.292062 0.642855 0.987823
O O5 0.500000 0.007499 0.750000
O O6 0.713119 0.843726 0.028238
O O7 0.500000 0.000000 0.000000
O O8 0.195047 0.177642 0.664956
O O9 0.000000 0.183169 0.750000
O O10 0.124606 0.908461 0.780285
O O11 0.957697 0.660845 0.593838
#
# Coordination Sequence:
#
# PCOD9237137 Si02
#       5
#     4   4   4   4   2
#     4  12  27  49  83 116 164 216 284 346 427 494
#     4  12  28  47  83 122 162 220 288 352 419 498
#     4  10  26  48  83 119 169 214 278 350 427 508
#     4  12  26  53  79 119 166 224 276 355 416 524
#     4  10  26  50  82 120 168 214 284 338 438 508
#
# _framework density 25.308382999999999
#
# number of rings (size 3 to 8) (size 9 to 14) (size 15 to 20)
#    0.667    0.000    2.222    4.000    6.222    2.667 
#    2.000    0.000    0.000    0.000    0.000    0.000 
#    0.000    0.000    0.000    0.000    0.000    0.000 
#
# Total GULP energy -100391.438730 kJ/mol
# GULP energy per Si atom -5577.302152 kJ/mol
# Density = 2.525078 g / cm^3
# Si number density = 25.308383 Si / 1000 Ang^3
#
#
#
# Elastic Constant Matrix: (Units=GPa)
#
#
# Indices 1 2 3 4 5 6 
#
# 1 160.2248 50.5261 84.6971 0.0000 -7.1368 0.0000
# 2 50.5261 60.7894 51.3898 0.0000 21.9592 0.0000
# 3 84.6971 51.3898 269.1302 0.0000 9.2442 0.0000
# 4 0.0000 0.0000 0.0000 46.1832 0.0000 6.7892
# 5 -7.1368 21.9592 9.2442 0.0000 52.6695 0.0000
# 6 0.0000 0.0000 0.0000 6.7892 0.0000 32.3529
#
#
#
# Elastic Compliance Matrix: (Units=1/GPa)
#
#
# Indices 1 2 3 4 5 6 
#
# 1 0.010225 -0.009051 -0.001677 0.000000 0.005453 0.000000
# 2 -0.009051 0.031167 -0.002630 0.000000 -0.013759 0.000000
# 3 -0.001677 -0.002630 0.004744 0.000000 0.000037 0.000000
# 4 0.000000 0.000000 0.000000 0.022342 0.000000 -0.004688
# 5 0.005453 -0.013759 0.000037 0.000000 0.025455 0.000000
# 6 0.000000 0.000000 0.000000 -0.004688 0.000000 0.031893
#
#
# Mechanical properties :
#
#
# Convention : Reuss Voigt Hill
#
# Bulk Modulus (GPa) = 51.49343 95.93006 73.71174
# Shear Modulus (GPa) = 31.44360 46.47654 38.96007
#
# Velocity S-wave (km/s) = 3.52862 4.28998 3.92779
# Velocity P-wave (km/s) = 6.08211 7.90730 7.05399
#
# Compressibility (1/GPa) = 0.01941995
#
# Stress axis : x y z
#
# Youngs Moduli (GPa) = 97.80313 32.08564 210.77558
#
# Poissons Ratio (x) = 0.29040 0.35344
# Poissons Ratio (y) = 0.88518 0.55440
# Poissons Ratio (z) = 0.16400 0.08439
#
# Static dielectric constant tensor:
#      x y z
#    x 2.305540 0.000000 0.182400 
#    y 0.000000 1.478230 0.000000 
#    z 0.182400 0.000000 1.036720 
# 
# From -- ./inp_files/15079.got.cif
#   From: 2010.05.17/outbox.cif.g08.bks.cpg/sg13_8_cif.got.tgz:15079.got - 2010.06.03 16:44:36.
