data_PCOD9237900
_publ_section_title
;
Structure prediction by ZEFSAII (Michael W. Deem and Ramdas Pophale) SiO2 
 PCOD9237900
Probable space group: P 2/C
;
_chemical_formula_sum "Si O2"
_cell_formula_units_Z 20
_cell_length_a 7.379571
_cell_length_b 11.879279
_cell_length_c 11.185788
_cell_angle_alpha 90.000000
_cell_angle_beta 62.818366
_cell_angle_gamma 90.000000
_cell_volume 872.297081
_symmetry_space_group_name_H-M "P 2/C"
_symmetry_group_IT_number 13
_symmetry_cell_setting 'monoclinic'
loop_
_space_group_symop_operation_xyz
x,y,z
-x,y,1/2-z
-x,-y,-z
x,-y,1/2+z
loop_
_atom_site_type_symbol
_atom_site_label
_atom_site_fract_x
_atom_site_fract_y
_atom_site_fract_z
Si Si1 0.311406 0.646468 0.112526
Si Si2 0.247224 0.915928 0.497258
Si Si3 0.000000 0.766705 0.750000
Si Si4 0.500000 0.782999 0.250000
Si Si5 0.345633 0.600640 0.683224
Si Si6 0.095085 0.141395 0.594386
O O1 0.338098 0.702188 0.235491
O O2 0.260508 0.517952 0.158459
O O3 0.164666 0.729903 0.084015
O O4 0.518157 0.644369 0.970364
O O5 0.157226 0.848954 0.635909
O O6 0.440833 0.861284 0.377915
O O7 0.075379 0.885612 0.450805
O O8 0.266579 0.048645 0.512356
O O9 0.157419 0.683029 0.770743
O O10 0.500000 0.586311 0.750000
O O11 0.000000 0.109892 0.750000
#
# Coordination Sequence:
#
# PCOD9237900 Si02
#       6
#     4   4   2   2   4   4
#     4  11  24  45  67  99 137 181 228 285 340 409
#     4  11  25  44  67 102 134 178 231 284 345 420
#     4  12  24  44  72 104 142 184 226 288 352 398
#     4  12  22  44  68  94 138 178 222 278 350 408
#     4  11  25  45  69 103 143 181 235 287 338 413
#     4  11  23  44  70  94 136 179 230 289 341 409
#
# _framework density 22.927968
#
# number of rings (size 3 to 8) (size 9 to 14) (size 15 to 20)
#    0.000    0.800    6.000    1.200    1.400    0.800 
#    9.000    4.000    0.000    0.000    0.000    0.000 
#    0.000    0.000    0.000    0.000    0.000    0.000 
#
# Total GULP energy -111597.662579 kJ/mol
# GULP energy per Si atom -5579.883129 kJ/mol
# Density = 2.287578 g / cm^3
# Si number density = 22.927968 Si / 1000 Ang^3
#
#
#
# Elastic Constant Matrix: (Units=GPa)
#
#
# Indices 1 2 3 4 5 6 
#
# 1 65.6946 34.4364 -13.6739 0.0000 15.4613 0.0000
# 2 34.4364 104.6270 16.7306 0.0000 9.4391 0.0000
# 3 -13.6739 16.7306 57.4300 0.0000 -3.1802 0.0000
# 4 0.0000 0.0000 0.0000 29.4567 0.0000 5.2049
# 5 15.4613 9.4391 -3.1802 0.0000 28.9473 0.0000
# 6 0.0000 0.0000 0.0000 5.2049 0.0000 38.2891
#
#
#
# Elastic Compliance Matrix: (Units=1/GPa)
#
#
# Indices 1 2 3 4 5 6 
#
# 1 0.022989 -0.007930 0.007292 0.000000 -0.008892 0.000000
# 2 -0.007930 0.013150 -0.005757 0.000000 -0.000685 0.000000
# 3 0.007292 -0.005757 0.020841 0.000000 0.000272 0.000000
# 4 0.000000 0.000000 0.000000 0.034784 0.000000 -0.004728
# 5 -0.008892 -0.000685 0.000272 0.000000 0.039548 0.000000
# 6 0.000000 0.000000 0.000000 -0.004728 0.000000 0.026760
#
#
# Mechanical properties :
#
#
# Convention : Reuss Voigt Hill
#
# Bulk Modulus (GPa) = 22.63012 33.63753 28.13382
# Shear Modulus (GPa) = 26.94060 32.02254 29.48157
#
# Velocity S-wave (km/s) = 3.43156 3.74124 3.58974
# Velocity P-wave (km/s) = 5.05889 5.77627 5.42944
#
# Compressibility (1/GPa) = 0.04418889
#
# Stress axis : x y z
#
# Youngs Moduli (GPa) = 43.49822 76.04383 47.98264
#
# Poissons Ratio (x) = 0.60306 -0.34987
# Poissons Ratio (y) = 0.34496 0.27624
# Poissons Ratio (z) = -0.31717 0.43779
#
# Static dielectric constant tensor:
#      x y z
#    x 1.914770 0.000000 0.114960 
#    y 0.000000 1.861700 0.000000 
#    z 0.114960 0.000000 1.258450 
# 
# From -- ./inp_files/28979.got.cif
#   From: 2010.05.17/outbox.cif.g08.bks.cpg/sg13_15_cif.got.tgz:28979.got - 2010.06.03 16:44:36.
