data_PCOD9237077
_publ_section_title
;
Structure prediction by ZEFSAII (Michael W. Deem and Ramdas Pophale) SiO2 
 PCOD9237077
Probable space group: P 2/C
;
_chemical_formula_sum "Si O2"
_cell_formula_units_Z 18
_cell_length_a 13.565964
_cell_length_b 5.455883
_cell_length_c 14.169369
_cell_angle_alpha 90.000000
_cell_angle_beta 48.383334
_cell_angle_gamma 90.000000
_cell_volume 784.040290
_symmetry_space_group_name_H-M "P 2/C"
_symmetry_group_IT_number 13
_symmetry_cell_setting 'monoclinic'
loop_
_space_group_symop_operation_xyz
x,y,z
-x,y,1/2-z
-x,-y,-z
x,-y,1/2+z
loop_
_atom_site_type_symbol
_atom_site_label
_atom_site_fract_x
_atom_site_fract_y
_atom_site_fract_z
Si Si1 0.721159 0.473853 0.549052
Si Si2 0.500000 0.772463 0.750000
Si Si3 0.915087 0.749147 0.065356
Si Si4 0.855092 0.835147 0.317410
Si Si5 0.405572 0.898698 0.480984
O O1 0.633386 0.617438 0.681763
O O2 0.803865 0.272288 0.554403
O O3 0.816660 0.636909 0.422763
O O4 0.609038 0.375606 0.547818
O O5 0.545963 0.945822 0.637810
O O6 0.857560 0.742793 0.208073
O O7 0.000000 0.500000 0.000000
O O8 0.000000 0.000000 0.000000
O O9 0.000000 0.930255 0.250000
O O10 0.743175 0.037879 0.395455
O O11 0.500000 0.000000 0.500000
#
# Coordination Sequence:
#
# PCOD9237077 Si02
#       5
#     4   2   4   4   4
#     4  11  26  46  73 105 151 196 255 317 381 462
#     4  10  26  46  68 104 148 190 254 298 388 442
#     4  12  28  48  79 112 152 200 252 318 388 456
#     4  11  25  46  72 108 148 195 255 311 386 456
#     4  11  27  45  74 105 149 200 250 317 379 465
#
# _framework density 22.958003000000001
#
# number of rings (size 3 to 8) (size 9 to 14) (size 15 to 20)
#    0.000    0.889    2.222    2.000   15.556    2.667 
#    0.000    0.000    0.000    0.000    0.000    0.000 
#    0.000    0.000    0.000    0.000    0.000    0.000 
#
# Total GULP energy -100553.263704 kJ/mol
# GULP energy per Si atom -5586.292428 kJ/mol
# Density = 2.290575 g / cm^3
# Si number density = 22.958003 Si / 1000 Ang^3
#
#
#
# Elastic Constant Matrix: (Units=GPa)
#
#
# Indices 1 2 3 4 5 6 
#
# 1 80.0002 -13.5489 13.5934 0.0000 -13.2948 0.0000
# 2 -13.5489 58.8002 22.9307 0.0000 -14.6612 0.0000
# 3 13.5934 22.9307 149.7152 0.0000 -9.0825 0.0000
# 4 0.0000 0.0000 0.0000 5.3891 0.0000 6.8533
# 5 -13.2948 -14.6612 -9.0825 0.0000 28.3417 0.0000
# 6 0.0000 0.0000 0.0000 6.8533 0.0000 18.4363
#
#
#
# Elastic Compliance Matrix: (Units=1/GPa)
#
#
# Indices 1 2 3 4 5 6 
#
# 1 0.015710 0.006928 -0.001859 0.000000 0.010357 0.000000
# 2 0.006928 0.023483 -0.003357 0.000000 0.014322 0.000000
# 3 -0.001859 -0.003357 0.007347 0.000000 -0.000254 0.000000
# 4 0.000000 0.000000 0.000000 0.351918 0.000000 -0.130818
# 5 0.010357 0.014322 -0.000254 0.000000 0.047470 0.000000
# 6 0.000000 0.000000 0.000000 -0.130818 0.000000 0.102869
#
#
# Mechanical properties :
#
#
# Convention : Reuss Voigt Hill
#
# Bulk Modulus (GPa) = 20.01463 37.16289 28.58876
# Shear Modulus (GPa) = 8.89635 28.13611 18.51623
#
# Velocity S-wave (km/s) = 1.97065 3.50458 2.84302
# Velocity P-wave (km/s) = 3.73026 5.70952 4.82252
#
# Compressibility (1/GPa) = 0.04996344
#
# Stress axis : x y z
#
# Youngs Moduli (GPa) = 63.65223 42.58379 136.11227
#
# Poissons Ratio (x) = -0.29500 0.25305
# Poissons Ratio (y) = -0.44095 0.45691
# Poissons Ratio (z) = 0.11834 0.14295
#
# Static dielectric constant tensor:
#      x y z
#    x 1.852280 0.000000 -0.084560 
#    y 0.000000 2.107300 0.000000 
#    z -0.084560 0.000000 1.544360 
# 
# From -- ./inp_files/51976.got.cif
#   From: 2010.05.17/outbox.cif.g08.bks.cpg/sg13_26_cif.got.tgz:51976.got - 2010.06.03 16:44:36.
