data_PCOD9237748
_publ_section_title
;
Structure prediction by ZEFSAII (Michael W. Deem and Ramdas Pophale) SiO2 
 PCOD9237748
Probable space group: P 2/C
;
_chemical_formula_sum "Si O2"
_cell_formula_units_Z 16
_cell_length_a 8.186114
_cell_length_b 18.874775
_cell_length_c 7.745086
_cell_angle_alpha 90.000000
_cell_angle_beta 35.229871
_cell_angle_gamma 90.000000
_cell_volume 690.327107
_symmetry_space_group_name_H-M "P 2/C"
_symmetry_group_IT_number 13
_symmetry_cell_setting 'monoclinic'
loop_
_space_group_symop_operation_xyz
x,y,z
-x,y,1/2-z
-x,-y,-z
x,-y,1/2+z
loop_
_atom_site_type_symbol
_atom_site_label
_atom_site_fract_x
_atom_site_fract_y
_atom_site_fract_z
Si Si1 0.782979 0.048597 0.080417
Si Si2 0.720892 0.163578 0.404285
Si Si3 0.794387 0.706017 0.593064
Si Si4 0.279611 0.549413 0.784090
O O1 0.500000 0.010263 0.250000
O O2 0.642147 0.108386 0.322944
O O3 0.000000 0.079846 0.750000
O O4 0.000000 0.000000 0.000000
O O5 0.815348 0.234265 0.220928
O O6 0.000000 0.131763 0.250000
O O7 0.500000 0.176137 0.750000
O O8 0.500000 0.717630 0.750000
O O9 0.818368 0.629525 0.667216
O O10 0.000000 0.707457 0.250000
O O11 0.500000 0.565889 0.750000
O O12 0.500000 0.500000 0.500000
O O13 0.000000 0.500000 0.000000
#
# Coordination Sequence:
#
# PCOD9237748 Si02
#       4
#     4   4   4   4
#     4  12  26  47  74 104 140 181 223 277 338 407
#     4  12  26  45  69 103 137 175 228 284 338 404
#     4  11  23  44  68  95 133 183 230 279 342 409
#     4  11  23  40  64  96 135 177 225 280 340 404
#
# _framework density 23.177416999999998
#
# number of rings (size 3 to 8) (size 9 to 14) (size 15 to 20)
#    0.000    0.500    0.000    9.750    0.000    5.000 
#    0.000    0.000    0.000    0.000    0.000    0.000 
#    0.000    0.000    0.000    0.000    0.000    0.000 
#
# Total GULP energy -89080.847476 kJ/mol
# GULP energy per Si atom -5567.552967 kJ/mol
# Density = 2.312466 g / cm^3
# Si number density = 23.177417 Si / 1000 Ang^3
#
#
#
# Elastic Constant Matrix: (Units=GPa)
#
#
# Indices 1 2 3 4 5 6 
#
# 1 74.4620 31.6073 27.5725 0.0000 -18.4315 0.0000
# 2 31.6073 134.9247 37.9544 0.0000 24.6173 0.0000
# 3 27.5725 37.9544 195.7273 0.0000 -1.3493 0.0000
# 4 0.0000 0.0000 0.0000 22.2124 0.0000 -2.5621
# 5 -18.4315 24.6173 -1.3493 0.0000 66.4350 0.0000
# 6 0.0000 0.0000 0.0000 -2.5621 0.0000 35.2170
#
#
#
# Elastic Compliance Matrix: (Units=1/GPa)
#
#
# Indices 1 2 3 4 5 6 
#
# 1 0.017760 -0.004970 -0.001492 0.000000 0.006739 0.000000
# 2 -0.004970 0.009848 -0.001244 0.000000 -0.005053 0.000000
# 3 -0.001492 -0.001244 0.005562 0.000000 0.000160 0.000000
# 4 0.000000 0.000000 0.000000 0.045401 0.000000 0.003303
# 5 0.006739 -0.005053 0.000160 0.000000 0.018798 0.000000
# 6 0.000000 0.000000 0.000000 0.003303 0.000000 0.028636
#
#
# Mechanical properties :
#
#
# Convention : Reuss Voigt Hill
#
# Bulk Modulus (GPa) = 56.31597 66.59804 61.45701
# Shear Modulus (GPa) = 33.93629 45.30486 39.62057
#
# Velocity S-wave (km/s) = 3.83063 4.42599 4.13903
# Velocity P-wave (km/s) = 6.62688 7.41051 7.02962
#
# Compressibility (1/GPa) = 0.01775695
#
# Stress axis : x y z
#
# Youngs Moduli (GPa) = 56.30709 101.54464 179.80218
#
# Poissons Ratio (x) = 0.50471 0.26819
# Poissons Ratio (y) = 0.27986 0.22373
# Poissons Ratio (z) = 0.08399 0.12635
#
# Static dielectric constant tensor:
#      x y z
#    x 2.001180 0.000000 0.059470 
#    y 0.000000 1.746850 0.000000 
#    z 0.059470 0.000000 1.838610 
# 
# From -- ./inp_files/12989.got.cif
#   From: 2010.05.17/outbox.cif.g08.bks.cpg/sg13_7_cif.got.tgz:12989.got - 2010.06.03 16:44:36.
