data_PCOD9237500
_publ_section_title
;
Structure prediction by ZEFSAII (Michael W. Deem and Ramdas Pophale) SiO2 
 PCOD9237500
Probable space group: P 2/C
;
_chemical_formula_sum "Si O2"
_cell_formula_units_Z 26
_cell_length_a 26.499680
_cell_length_b 6.608070
_cell_length_c 23.263095
_cell_angle_alpha 90.000000
_cell_angle_beta 159.342880
_cell_angle_gamma 90.000000
_cell_volume 1437.077342
_symmetry_space_group_name_H-M "P 2/C"
_symmetry_group_IT_number 13
_symmetry_cell_setting 'monoclinic'
loop_
_space_group_symop_operation_xyz
x,y,z
-x,y,1/2-z
-x,-y,-z
x,-y,1/2+z
loop_
_atom_site_type_symbol
_atom_site_label
_atom_site_fract_x
_atom_site_fract_y
_atom_site_fract_z
Si Si1 0.622448 0.138864 0.316472
Si Si2 0.349025 0.949781 0.778931
Si Si3 0.902855 0.193830 0.408271
Si Si4 0.400789 0.693003 0.405624
Si Si5 0.332635 0.616093 0.526640
Si Si6 0.500000 0.238997 0.750000
Si Si7 0.850574 0.450517 0.778702
O O1 0.704161 0.261300 0.454019
O O2 0.472319 0.262832 0.151964
O O3 0.693208 0.115026 0.330036
O O4 0.580675 0.914709 0.293450
O O5 0.360735 0.188858 0.804438
O O6 0.238296 0.866071 0.707736
O O7 0.503165 0.850581 0.955908
O O8 0.865130 0.312747 0.309588
O O9 0.998131 0.345930 0.547993
O O10 0.000000 0.000000 0.500000
O O11 0.500000 0.500000 0.500000
O O12 0.261912 0.632938 0.293745
O O13 0.388602 0.391585 0.601401
O O14 0.212441 0.600790 0.350447
#
# Coordination Sequence:
#
# PCOD9237500 Si02
#       7
#     4   4   4   4   4   2   4
#     4   9  19  34  56  87 114 146 193 245 299 336
#     4  11  22  36  59  87 121 151 192 248 288 351
#     4  11  24  40  55  84 120 160 196 232 298 356
#     4  11  22  34  58  92 113 149 190 244 296 337
#     4   9  19  35  57  84 113 150 193 241 297 347
#     4   8  18  32  52  86 114 146 184 242 302 342
#     4  11  22  39  60  82 118 156 195 239 295 357
#
# _framework density 18.092275000000001
#
# number of rings (size 3 to 8) (size 9 to 14) (size 15 to 20)
#    0.000    2.154    4.615    0.000    2.154    2.462 
#    0.000    0.769    0.000    0.000    0.000    0.000 
#    0.000    0.000    0.000    0.000    0.000    0.000 
#
# Total GULP energy -144955.601709 kJ/mol
# GULP energy per Si atom -5575.215450 kJ/mol
# Density = 1.805110 g / cm^3
# Si number density = 18.092275 Si / 1000 Ang^3
#
#
#
# Elastic Constant Matrix: (Units=GPa)
#
#
# Indices 1 2 3 4 5 6 
#
# 1 70.5241 28.8101 19.4167 0.0000 -22.6956 0.0000
# 2 28.8101 110.4342 17.6085 0.0000 -8.8351 0.0000
# 3 19.4167 17.6085 63.2315 0.0000 -14.3287 0.0000
# 4 0.0000 0.0000 0.0000 29.3839 0.0000 3.1518
# 5 -22.6956 -8.8351 -14.3287 0.0000 37.1191 0.0000
# 6 0.0000 0.0000 0.0000 3.1518 0.0000 14.8764
#
#
#
# Elastic Compliance Matrix: (Units=1/GPa)
#
#
# Indices 1 2 3 4 5 6 
#
# 1 0.019779 -0.003922 -0.002688 0.000000 0.010123 0.000000
# 2 -0.003922 0.010316 -0.001814 0.000000 -0.000643 0.000000
# 3 -0.002688 -0.001814 0.018274 0.000000 0.004979 0.000000
# 4 0.000000 0.000000 0.000000 0.034824 0.000000 -0.007378
# 5 0.010123 -0.000643 0.004979 0.000000 0.034898 0.000000
# 6 0.000000 0.000000 0.000000 -0.007378 0.000000 0.068784
#
#
# Mechanical properties :
#
#
# Convention : Reuss Voigt Hill
#
# Bulk Modulus (GPa) = 31.72400 41.76226 36.74313
# Shear Modulus (GPa) = 23.33949 28.16619 25.75284
#
# Velocity S-wave (km/s) = 3.59559 3.94992 3.77691
# Velocity P-wave (km/s) = 5.90003 6.62839 6.27478
#
# Compressibility (1/GPa) = 0.03152188
#
# Stress axis : x y z
#
# Youngs Moduli (GPa) = 50.55831 96.93600 54.72349
#
# Poissons Ratio (x) = 0.38014 0.14708
# Poissons Ratio (y) = 0.19827 0.09928
# Poissons Ratio (z) = 0.13589 0.17586
#
# Static dielectric constant tensor:
#      x y z
#    x 1.622810 0.000000 -0.023550 
#    y 0.000000 1.656970 0.000000 
#    z -0.023550 0.000000 1.612260 
# 
# From -- ./inp_files/89446.got.cif
#   From: 2010.05.17/outbox.cif.g08.bks.cpg/sg13_45_cif.got.tgz:89446.got - 2010.06.03 16:44:36.
