data_PCOD9237427
_publ_section_title
;
Structure prediction by ZEFSAII (Michael W. Deem and Ramdas Pophale) SiO2 
 PCOD9237427
Probable space group: P 2/C
;
_chemical_formula_sum "Si O2"
_cell_formula_units_Z 30
_cell_length_a 17.059836
_cell_length_b 12.345969
_cell_length_c 14.396510
_cell_angle_alpha 90.000000
_cell_angle_beta 153.024382
_cell_angle_gamma 90.000000
_cell_volume 1375.438310
_symmetry_space_group_name_H-M "P 2/C"
_symmetry_group_IT_number 13
_symmetry_cell_setting 'monoclinic'
loop_
_space_group_symop_operation_xyz
x,y,z
-x,y,1/2-z
-x,-y,-z
x,-y,1/2+z
loop_
_atom_site_type_symbol
_atom_site_label
_atom_site_fract_x
_atom_site_fract_y
_atom_site_fract_z
Si Si1 0.000000 0.578495 0.250000
Si Si2 0.208227 0.133459 0.962201
Si Si3 0.796258 0.900480 0.536898
Si Si4 0.410523 0.890078 0.368702
Si Si5 0.622459 0.280878 0.514561
Si Si6 0.222679 0.722261 0.628993
Si Si7 0.298102 0.735436 0.906838
Si Si8 0.333443 0.498408 0.010038
O O1 0.088851 0.653776 0.424387
O O2 0.157206 0.504080 0.382326
O O3 0.000000 0.138549 0.750000
O O4 0.266970 0.016252 0.988501
O O5 0.307686 0.226201 0.008227
O O6 0.245392 0.157644 0.109343
O O7 0.723374 0.902399 0.356361
O O8 0.755630 0.796113 0.555862
O O9 0.000000 0.907537 0.750000
O O10 0.330799 0.813963 0.364617
O O11 0.557117 0.814486 0.479513
O O12 0.500000 0.000000 0.500000
O O13 0.421457 0.312858 0.322132
O O14 0.701325 0.400610 0.598729
O O15 0.173095 0.724044 0.684760
O O16 0.361697 0.615215 0.996096
O O17 0.500000 0.471632 0.250000
#
# Coordination Sequence:
#
# PCOD9237427 Si02
#       8
#     2   4   4   4   4   4   4   4
#     4  12  24  44  72 100 144 180 240 294 354 406
#     4  11  21  39  68  97 136 178 230 292 344 410
#     4  11  25  43  65 100 144 187 225 291 362 419
#     4  11  24  45  72 102 137 184 238 290 350 426
#     4  11  22  40  69 103 129 179 237 290 343 412
#     4  11  22  43  69 103 133 176 234 291 349 418
#     4  11  27  45  68 100 142 185 233 284 356 432
#     4  12  24  45  71 101 139 186 234 292 352 422
#
# _framework density 21.811228
#
# number of rings (size 3 to 8) (size 9 to 14) (size 15 to 20)
#    0.000    0.800    3.333    4.000    0.933    5.867 
#    2.400    3.333    0.000    0.000    0.000    0.000 
#    0.000    0.000    0.000    0.000    0.000    0.000 
#
# Total GULP energy -167107.881794 kJ/mol
# GULP energy per Si atom -5570.262726 kJ/mol
# Density = 2.176159 g / cm^3
# Si number density = 21.811228 Si / 1000 Ang^3
#
#
#
# Elastic Constant Matrix: (Units=GPa)
#
#
# Indices 1 2 3 4 5 6 
#
# 1 75.3648 44.4631 45.0043 0.0000 -14.3075 0.0000
# 2 44.4631 165.5798 26.6167 0.0000 -16.7072 0.0000
# 3 45.0043 26.6167 103.2312 0.0000 -9.1090 0.0000
# 4 0.0000 0.0000 0.0000 19.8638 0.0000 -8.0244
# 5 -14.3075 -16.7072 -9.1090 0.0000 38.4686 0.0000
# 6 0.0000 0.0000 0.0000 -8.0244 0.0000 34.6429
#
#
#
# Elastic Compliance Matrix: (Units=1/GPa)
#
#
# Indices 1 2 3 4 5 6 
#
# 1 0.021074 -0.003977 -0.007786 0.000000 0.004267 0.000000
# 2 -0.003977 0.007276 0.000006 0.000000 0.001682 0.000000
# 3 -0.007786 0.000006 0.013098 0.000000 0.000209 0.000000
# 4 0.000000 0.000000 0.000000 0.055540 0.000000 0.012865
# 5 0.004267 0.001682 0.000209 0.000000 0.028362 0.000000
# 6 0.000000 0.000000 0.000000 0.012865 0.000000 0.031846
#
#
# Mechanical properties :
#
#
# Convention : Reuss Voigt Hill
#
# Bulk Modulus (GPa) = 55.75458 64.03820 59.89639
# Shear Modulus (GPa) = 26.78269 33.80119 30.29194
#
# Velocity S-wave (km/s) = 3.50799 3.94091 3.73073
# Velocity P-wave (km/s) = 6.48273 7.08037 6.78813
#
# Compressibility (1/GPa) = 0.01793575
#
# Stress axis : x y z
#
# Youngs Moduli (GPa) = 47.45091 137.43665 76.34780
#
# Poissons Ratio (x) = 0.54659 0.59441
# Poissons Ratio (y) = 0.18871 -0.00047
# Poissons Ratio (z) = 0.36943 -0.00085
#
# Static dielectric constant tensor:
#      x y z
#    x 1.858070 0.000000 0.041490 
#    y 0.000000 1.848930 0.000000 
#    z 0.041490 0.000000 1.903740 
# 
# From -- ./inp_files/55704.got.cif
#   From: 2010.05.17/outbox.cif.g08.bks.cpg/sg13_28_cif.got.tgz:55704.got - 2010.06.03 16:44:36.
