data_PCOD9237715
_publ_section_title
;
Structure prediction by ZEFSAII (Michael W. Deem and Ramdas Pophale) SiO2 
 PCOD9237715
Probable space group: P 2/C
;
_chemical_formula_sum "Si O2"
_cell_formula_units_Z 32
_cell_length_a 8.990044
_cell_length_b 26.324531
_cell_length_c 14.790128
_cell_angle_alpha 90.000000
_cell_angle_beta 30.399374
_cell_angle_gamma 90.000000
_cell_volume 1771.192644
_symmetry_space_group_name_H-M "P 2/C"
_symmetry_group_IT_number 13
_symmetry_cell_setting 'monoclinic'
loop_
_space_group_symop_operation_xyz
x,y,z
-x,y,1/2-z
-x,-y,-z
x,-y,1/2+z
loop_
_atom_site_type_symbol
_atom_site_label
_atom_site_fract_x
_atom_site_fract_y
_atom_site_fract_z
Si Si1 0.354759 0.668465 0.053861
Si Si2 0.357441 0.783629 0.065099
Si Si3 0.401333 0.386891 0.709918
Si Si4 0.655430 0.866228 0.573782
Si Si5 0.730594 0.585269 0.548705
Si Si6 0.636910 0.861069 0.280338
Si Si7 0.270361 0.520524 0.547682
Si Si8 0.647396 0.054629 0.925583
O O1 0.459623 0.726310 0.992739
O O2 0.468603 0.645809 0.087214
O O3 0.000000 0.670020 0.250000
O O4 0.406455 0.626747 0.948784
O O5 0.443074 0.811778 0.114535
O O6 0.000000 0.783223 0.250000
O O7 0.442104 0.819044 0.937027
O O8 0.500000 0.361677 0.750000
O O9 0.578009 0.439112 0.598002
O O10 0.053369 0.394751 0.903433
O O11 0.500000 0.867343 0.750000
O O12 0.571885 0.914366 0.555911
O O13 0.006284 0.862552 0.407761
O O14 0.500000 0.578492 0.750000
O O15 0.805775 0.530718 0.465807
O O16 0.500000 0.861155 0.250000
O O17 0.564628 0.910314 0.381786
O O18 0.500000 0.500000 0.500000
O O19 0.000000 0.540724 0.750000
O O20 0.000000 0.049638 0.750000
O O21 0.500000 0.000000 0.000000
#
# Coordination Sequence:
#
# PCOD9237715 Si02
#       8
#     4   4   4   4   4   4   4   4
#     4   9  18  37  56  77 107 139 174 214 261 315
#     4   8  16  33  57  75 101 141 175 212 262 314
#     4  11  24  37  56  83 108 137 174 216 263 312
#     4   9  18  33  53  78 104 136 178 219 260 311
#     4  11  23  38  56  80 108 140 176 212 258 318
#     4   9  18  33  53  78 104 137 177 219 263 310
#     4  12  22  39  61  79 106 142 176 215 262 314
#     4   9  19  34  50  73 107 143 179 214 260 313
#
# _framework density 18.066922000000002
#
# number of rings (size 3 to 8) (size 9 to 14) (size 15 to 20)
#    0.000    2.250    2.500    2.250    1.750    3.500 
#    0.000    4.375    0.000    3.000    0.000    0.000 
#    0.000    0.000    0.000    0.000    0.000    0.000 
#
# Total GULP energy -178219.771910 kJ/mol
# GULP energy per Si atom -5569.367872 kJ/mol
# Density = 1.802580 g / cm^3
# Si number density = 18.066922 Si / 1000 Ang^3
#
#
#
# Elastic Constant Matrix: (Units=GPa)
#
#
# Indices 1 2 3 4 5 6 
#
# 1 127.5977 40.9740 19.1564 0.0000 19.8584 0.0000
# 2 40.9740 113.5088 15.8656 0.0000 13.8366 0.0000
# 3 19.1564 15.8656 69.8771 0.0000 25.4185 0.0000
# 4 0.0000 0.0000 0.0000 14.7206 0.0000 3.1120
# 5 19.8584 13.8366 25.4185 0.0000 25.8125 0.0000
# 6 0.0000 0.0000 0.0000 3.1120 0.0000 -205.0774
#
#
#
# Elastic Compliance Matrix: (Units=1/GPa)
#
#
# Indices 1 2 3 4 5 6 
#
# 1 0.009650 -0.002763 0.000224 0.000000 -0.006163 0.000000
# 2 -0.002763 0.010227 -0.000535 0.000000 -0.002829 0.000000
# 3 0.000224 -0.000535 0.022327 0.000000 -0.021871 0.000000
# 4 0.000000 0.000000 0.000000 0.067715 0.000000 0.001028
# 5 -0.006163 -0.002829 -0.021871 0.000000 0.066537 0.000000
# 6 0.000000 0.000000 0.000000 0.001028 0.000000 -0.004861
#
#
# Mechanical properties :
#
#
# Convention : Reuss Voigt Hill
#
# Bulk Modulus (GPa) = 27.73602 51.44173 39.58887
# Shear Modulus (GPa) = 26.34863 -17.24301 4.55281
#
# Velocity S-wave (km/s) = 3.82303 -3.09268 1.58916
# Velocity P-wave (km/s) = 5.90530 3.97263 5.03261
#
# Compressibility (1/GPa) = 0.03605420
#
# Stress axis : x y z
#
# Youngs Moduli (GPa) = 103.62559 97.77931 44.78882
#
# Poissons Ratio (x) = 0.27021 -0.01003
# Poissons Ratio (y) = 0.28636 0.02398
# Poissons Ratio (z) = -0.02320 0.05236
#
# Static dielectric constant tensor:
#      x y z
#    x 1.662300 0.000000 -0.142450 
#    y 0.000000 1.600540 0.000000 
#    z -0.142450 0.000000 1.997890 
# 
# From -- ./inp_files/48294.got.cif
#   From: 2010.05.17/outbox.cif.g08.bks.cpg/sg13_25_cif.got.tgz:48294.got - 2010.06.03 16:44:36.
