data_PCOD9237710
_publ_section_title
;
Structure prediction by ZEFSAII (Michael W. Deem and Ramdas Pophale) SiO2 
 PCOD9237710
Probable space group: P 2/C
;
_chemical_formula_sum "Si O2"
_cell_formula_units_Z 24
_cell_length_a 13.373134
_cell_length_b 13.030607
_cell_length_c 16.131481
_cell_angle_alpha 90.000000
_cell_angle_beta 152.884079
_cell_angle_gamma 90.000000
_cell_volume 1281.265188
_symmetry_space_group_name_H-M "P 2/C"
_symmetry_group_IT_number 13
_symmetry_cell_setting 'monoclinic'
loop_
_space_group_symop_operation_xyz
x,y,z
-x,y,1/2-z
-x,-y,-z
x,-y,1/2+z
loop_
_atom_site_type_symbol
_atom_site_label
_atom_site_fract_x
_atom_site_fract_y
_atom_site_fract_z
Si Si1 0.833958 0.998239 0.193294
Si Si2 0.379269 0.686897 0.524169
Si Si3 0.666042 0.498239 0.306706
Si Si4 0.120732 0.186897 0.975831
Si Si5 0.394709 0.886973 0.829993
Si Si6 0.105291 0.613027 0.170007
O O1 0.000000 0.047517 0.250000
O O2 0.958838 0.895859 0.316573
O O3 0.771707 0.067383 0.225687
O O4 0.605153 0.962081 0.983236
O O5 0.541162 0.604141 0.683427
O O6 0.250000 0.750000 0.500000
O O7 0.515986 0.775002 0.578148
O O8 0.218063 0.630545 0.341769
O O9 0.500000 0.547517 0.250000
O O10 0.728293 0.567383 0.274313
O O11 0.894847 0.462081 0.516764
O O12 0.984014 0.275002 0.921852
O O13 0.281937 0.130545 0.158231
#
# Coordination Sequence:
#
# PCOD9237710 Si02
#       6
#     4   4   4   4   4   4
#     4  11  23  39  60  88 122 155 199 248 301 357
#     4  12  21  39  65  88 116 155 207 249 294 350
#     4  11  23  39  60  88 122 155 199 248 301 357
#     4  12  21  39  65  88 116 155 207 249 294 350
#     4  11  23  37  61  90 119 153 201 253 296 348
#     4  11  23  37  61  90 119 153 201 253 296 348
#
# _framework density 18.731484999999999
#
# number of rings (size 3 to 8) (size 9 to 14) (size 15 to 20)
#    0.000    0.667    6.667    2.000    0.000    0.000 
#    0.000    1.667    0.000    0.000    0.000    0.000 
#    0.000    0.000    0.000    0.000    0.000    0.000 
#
# Total GULP energy -134103.710144 kJ/mol
# GULP energy per Si atom -5587.654589 kJ/mol
# Density = 1.868885 g / cm^3
# Si number density = 18.731485 Si / 1000 Ang^3
#
#
#
# Elastic Constant Matrix: (Units=GPa)
#
#
# Indices 1 2 3 4 5 6 
#
# 1 169.2762 68.2417 72.1013 0.0000 16.4721 0.0000
# 2 68.2417 72.6858 27.6491 0.0000 4.0896 0.0000
# 3 72.1013 27.6491 119.6258 0.0000 -12.4390 0.0000
# 4 0.0000 0.0000 0.0000 27.5874 0.0000 -1.0796
# 5 16.4721 4.0896 -12.4390 0.0000 33.6998 0.0000
# 6 0.0000 0.0000 0.0000 -1.0796 0.0000 47.9787
#
#
#
# Elastic Compliance Matrix: (Units=1/GPa)
#
#
# Indices 1 2 3 4 5 6 
#
# 1 0.013364 -0.009575 -0.006656 0.000000 -0.007827 0.000000
# 2 -0.009575 0.022292 0.000857 0.000000 0.002291 0.000000
# 3 -0.006656 0.000857 0.012999 0.000000 0.007947 0.000000
# 4 0.000000 0.000000 0.000000 0.036280 0.000000 0.000816
# 5 -0.007827 0.002291 0.007947 0.000000 0.036155 0.000000
# 6 0.000000 0.000000 0.000000 0.000816 0.000000 0.020861
#
#
# Mechanical properties :
#
#
# Convention : Reuss Voigt Hill
#
# Bulk Modulus (GPa) = 55.83998 77.50800 66.67399
# Shear Modulus (GPa) = 27.98472 34.75953 31.37213
#
# Velocity S-wave (km/s) = 3.86941 4.31243 4.09691
# Velocity P-wave (km/s) = 7.05965 8.14029 7.61915
#
# Compressibility (1/GPa) = 0.01790832
#
# Stress axis : x y z
#
# Youngs Moduli (GPa) = 74.82795 44.85831 76.92728
#
# Poissons Ratio (x) = 0.42951 0.51200
# Poissons Ratio (y) = 0.71646 -0.06591
# Poissons Ratio (z) = 0.49803 -0.03843
#
# Static dielectric constant tensor:
#      x y z
#    x 1.674110 0.000000 0.015020 
#    y 0.000000 1.634500 0.000000 
#    z 0.015020 0.000000 1.693690 
# 
# From -- ./inp_files/51512.got.cif
#   From: 2010.05.17/outbox.cif.g08.bks.cpg/sg13_26_cif.got.tgz:51512.got - 2010.06.03 16:44:36.
