data_PCOD9237258
_publ_section_title
;
Structure prediction by ZEFSAII (Michael W. Deem and Ramdas Pophale) SiO2 
 PCOD9237258
Probable space group: P 2/C
;
_chemical_formula_sum "Si O2"
_cell_formula_units_Z 16
_cell_length_a 9.337035
_cell_length_b 7.479036
_cell_length_c 13.253578
_cell_angle_alpha 90.000000
_cell_angle_beta 41.447053
_cell_angle_gamma 90.000000
_cell_volume 612.630022
_symmetry_space_group_name_H-M "P 2/C"
_symmetry_group_IT_number 13
_symmetry_cell_setting 'monoclinic'
loop_
_space_group_symop_operation_xyz
x,y,z
-x,y,1/2-z
-x,-y,-z
x,-y,1/2+z
loop_
_atom_site_type_symbol
_atom_site_label
_atom_site_fract_x
_atom_site_fract_y
_atom_site_fract_z
Si Si1 0.445727 0.693454 0.574489
Si Si2 0.304566 0.207150 0.930815
Si Si3 0.960496 0.516559 0.650176
Si Si4 0.108585 0.139557 0.586926
O O1 0.500000 0.500000 0.500000
O O2 0.382628 0.803444 0.507261
O O3 0.247246 0.644239 0.753602
O O4 0.654438 0.776040 0.516552
O O5 0.500000 0.203460 0.750000
O O6 0.960313 0.694758 0.128657
O O7 0.152588 0.035397 0.999194
O O8 0.000000 0.523512 0.750000
O O9 0.170338 0.609823 0.493617
O O10 0.000000 0.082182 0.750000
#
# Coordination Sequence:
#
# PCOD9237258 Si02
#       4
#     4   4   4   4
#     4  11  19  41  67  89 112 161 210 243 287 359
#     4  11  24  39  58  92 130 153 191 252 306 348
#     4   9  19  38  63  85 118 154 205 242 289 348
#     4  11  20  38  67  87 116 160 211 239 290 360
#
# _framework density 26.116904000000002
#
# number of rings (size 3 to 8) (size 9 to 14) (size 15 to 20)
#    0.000    1.500    7.500    3.000    0.000    1.000 
#    0.000    6.250    0.000    0.000    0.000    0.000 
#    0.000    0.000    0.000    0.000    0.000    0.000 
#
# Total GULP energy -89624.336096 kJ/mol
# GULP energy per Si atom -5601.521006 kJ/mol
# Density = 2.605746 g / cm^3
# Si number density = 26.116904 Si / 1000 Ang^3
#
#
#
# Elastic Constant Matrix: (Units=GPa)
#
#
# Indices 1 2 3 4 5 6 
#
# 1 58.0493 -5.3613 9.1386 0.0000 8.4489 0.0000
# 2 -5.3613 146.7450 79.0406 0.0000 10.5754 0.0000
# 3 9.1386 79.0406 204.4856 0.0000 7.8992 0.0000
# 4 0.0000 0.0000 0.0000 55.5716 0.0000 -9.5349
# 5 8.4489 10.5754 7.8992 0.0000 31.9621 0.0000
# 6 0.0000 0.0000 0.0000 -9.5349 0.0000 -16.8176
#
#
#
# Elastic Compliance Matrix: (Units=1/GPa)
#
#
# Indices 1 2 3 4 5 6 
#
# 1 0.018333 0.001733 -0.001292 0.000000 -0.005100 0.000000
# 2 0.001733 0.008905 -0.003421 0.000000 -0.002559 0.000000
# 3 -0.001292 -0.003421 0.006273 0.000000 -0.000077 0.000000
# 4 0.000000 0.000000 0.000000 0.016399 0.000000 -0.009298
# 5 -0.005100 -0.002559 -0.000077 0.000000 0.033501 0.000000
# 6 0.000000 0.000000 0.000000 -0.009298 0.000000 -0.054190
#
#
# Mechanical properties :
#
#
# Convention : Reuss Voigt Hill
#
# Bulk Modulus (GPa) = 36.29560 63.87954 50.08757
# Shear Modulus (GPa) = 112.70394 35.90733 74.30564
#
# Velocity S-wave (km/s) = 6.57627 3.71195 5.33975
# Velocity P-wave (km/s) = 8.46112 6.54855 7.56552
#
# Compressibility (1/GPa) = 0.02755155
#
# Stress axis : x y z
#
# Youngs Moduli (GPa) = 54.54768 112.30005 159.40785
#
# Poissons Ratio (x) = -0.19466 0.20600
# Poissons Ratio (y) = -0.09455 0.54527
# Poissons Ratio (z) = 0.07049 0.38413
#
# Static dielectric constant tensor:
#      x y z
#    x 2.304360 0.000000 0.169350 
#    y 0.000000 2.022450 0.000000 
#    z 0.169350 0.000000 2.285470 
# 
# From -- ./inp_files/65821.got.cif
#   From: 2010.05.17/outbox.cif.g08.bks.cpg/sg13_33_cif.got.tgz:65821.got - 2010.06.03 16:44:36.
