data_PCOD9237257
_publ_section_title
;
Structure prediction by ZEFSAII (Michael W. Deem and Ramdas Pophale) SiO2 
 PCOD9237257
Probable space group: P 2/C
;
_chemical_formula_sum "Si O2"
_cell_formula_units_Z 32
_cell_length_a 6.597351
_cell_length_b 8.093770
_cell_length_c 28.463010
_cell_angle_alpha 90.000000
_cell_angle_beta 90.477558
_cell_angle_gamma 90.000000
_cell_volume 1519.799121
_symmetry_space_group_name_H-M "P 2/C"
_symmetry_group_IT_number 13
_symmetry_cell_setting 'monoclinic'
loop_
_space_group_symop_operation_xyz
x,y,z
-x,y,1/2-z
-x,-y,-z
x,-y,1/2+z
loop_
_atom_site_type_symbol
_atom_site_label
_atom_site_fract_x
_atom_site_fract_y
_atom_site_fract_z
Si Si1 0.692776 0.593346 0.650508
Si Si2 0.491248 0.832056 0.970187
Si Si3 0.719547 0.981740 0.883867
Si Si4 0.817771 0.559397 0.965842
Si Si5 0.633304 0.779094 0.791180
Si Si6 0.362102 0.642491 0.116443
Si Si7 0.091422 0.818853 0.918011
Si Si8 0.916501 0.475805 0.797242
O O1 0.536247 0.657915 0.688074
O O2 0.566815 0.466117 0.618401
O O3 0.781189 0.753974 0.625314
O O4 0.881985 0.504517 0.673004
O O5 0.585541 0.876277 0.919702
O O6 0.631215 0.674211 0.986178
O O7 0.251137 0.812278 0.960950
O O8 0.500000 0.000000 0.000000
O O9 0.710523 0.899460 0.832473
O O10 0.951115 0.975181 0.904676
O O11 0.622720 0.161734 0.883529
O O12 0.738727 0.411932 0.932955
O O13 0.928390 0.678815 0.928937
O O14 0.000000 0.500000 0.000000
O O15 0.500000 0.865095 0.750000
O O16 0.814045 0.649918 0.780500
O O17 0.236090 0.601867 0.164265
O O18 0.000000 0.387558 0.750000
#
# Coordination Sequence:
#
# PCOD9237257 Si02
#       8
#     4   4   4   4   4   4   4   4
#     4  11  19  41  66  88 120 164 213 252 308 376
#     4  11  25  42  65  93 120 167 215 257 318 384
#     4  11  25  42  61  93 132 164 205 266 323 371
#     4  11  25  41  63  94 127 161 213 266 314 381
#     4  11  21  38  65  93 119 158 213 257 301 375
#     4  11  25  41  60  95 131 164 206 266 322 372
#     4  11  21  43  68  84 126 167 210 256 307 387
#     4  11  21  40  67  92 117 166 213 252 309 375
#
# _framework density 21.055415
#
# number of rings (size 3 to 8) (size 9 to 14) (size 15 to 20)
#    0.000    1.000    6.250    1.500    3.500    3.500 
#    2.250    0.625    0.000    0.000    0.000    0.000 
#    0.000    0.000    0.000    0.000    0.000    0.000 
#
# Total GULP energy -178237.540925 kJ/mol
# GULP energy per Si atom -5569.923154 kJ/mol
# Density = 2.100749 g / cm^3
# Si number density = 21.055415 Si / 1000 Ang^3
#
#
#
# Elastic Constant Matrix: (Units=GPa)
#
#
# Indices 1 2 3 4 5 6 
#
# 1 89.6931 2.5817 9.0616 0.0000 14.2196 0.0000
# 2 2.5817 48.7357 0.5646 0.0000 8.2050 0.0000
# 3 9.0616 0.5646 65.8969 0.0000 15.9425 0.0000
# 4 0.0000 0.0000 0.0000 25.0444 0.0000 2.8540
# 5 14.2196 8.2050 15.9425 0.0000 40.9917 0.0000
# 6 0.0000 0.0000 0.0000 2.8540 0.0000 19.5581
#
#
#
# Elastic Compliance Matrix: (Units=1/GPa)
#
#
# Indices 1 2 3 4 5 6 
#
# 1 0.011827 0.000027 -0.000698 0.000000 -0.003837 0.000000
# 2 0.000027 0.021287 0.000935 0.000000 -0.004634 0.000000
# 3 -0.000698 0.000935 0.016834 0.000000 -0.006492 0.000000
# 4 0.000000 0.000000 0.000000 0.040604 0.000000 -0.005925
# 5 -0.003837 -0.004634 -0.006492 0.000000 0.029178 0.000000
# 6 0.000000 0.000000 0.000000 -0.005925 0.000000 0.051994
#
#
# Mechanical properties :
#
#
# Convention : Reuss Voigt Hill
#
# Bulk Modulus (GPa) = 19.81151 25.41572 22.61362
# Shear Modulus (GPa) = 26.59262 29.92668 28.25965
#
# Velocity S-wave (km/s) = 3.55770 3.77414 3.66752
# Velocity P-wave (km/s) = 5.12894 5.57578 5.35702
#
# Compressibility (1/GPa) = 0.05047570
#
# Stress axis : x y z
#
# Youngs Moduli (GPa) = 84.55126 46.97765 59.40416
#
# Poissons Ratio (x) = -0.00129 0.04149
# Poissons Ratio (y) = -0.00232 -0.05554
# Poissons Ratio (z) = 0.05905 -0.04392
#
# Static dielectric constant tensor:
#      x y z
#    x 1.832670 0.000000 0.039220 
#    y 0.000000 1.769100 0.000000 
#    z 0.039220 0.000000 1.837810 
# 
# From -- ./inp_files/95042.got.cif
#   From: 2010.05.17/outbox.cif.g08.bks.cpg/sg13_48_cif.got.tgz:95042.got - 2010.06.03 16:44:36.
