data_PCOD9237585
_publ_section_title
;
Structure prediction by ZEFSAII (Michael W. Deem and Ramdas Pophale) SiO2 
 PCOD9237585
Probable space group: P 2/C
;
_chemical_formula_sum "Si O2"
_cell_formula_units_Z 20
_cell_length_a 21.978843
_cell_length_b 9.561623
_cell_length_c 13.860201
_cell_angle_alpha 90.000000
_cell_angle_beta 159.849542
_cell_angle_gamma 90.000000
_cell_volume 1003.409670
_symmetry_space_group_name_H-M "P 2/C"
_symmetry_group_IT_number 13
_symmetry_cell_setting 'monoclinic'
loop_
_space_group_symop_operation_xyz
x,y,z
-x,y,1/2-z
-x,-y,-z
x,-y,1/2+z
loop_
_atom_site_type_symbol
_atom_site_label
_atom_site_fract_x
_atom_site_fract_y
_atom_site_fract_z
Si Si1 0.966200 0.283254 0.430775
Si Si2 0.431205 0.656299 0.881754
Si Si3 0.352004 0.848801 0.948975
Si Si4 0.645541 0.174272 0.551637
Si Si5 0.901761 0.527853 0.204235
O O1 0.834281 0.167523 0.273809
O O2 0.874600 0.374766 0.209859
O O3 0.158772 0.226093 0.687435
O O4 0.984796 0.389502 0.548218
O O5 0.376681 0.742240 0.896288
O O6 0.263824 0.627010 0.563958
O O7 0.500000 0.500000 0.000000
O O8 0.580110 0.739309 0.045925
O O9 0.362253 0.010390 0.933904
O O10 0.500000 0.819444 0.250000
O O11 0.500000 0.196221 0.250000
O O12 0.000000 0.510100 0.250000
#
# Coordination Sequence:
#
# PCOD9237585 Si02
#       5
#     4   4   4   4   4
#     4  11  23  42  69  96 131 169 222 271 323 388
#     4  12  24  41  69  96 136 172 219 275 333 385
#     4  11  25  44  66  97 134 176 224 269 327 393
#     4  11  24  43  67  99 134 175 219 271 331 393
#     4  11  22  40  66 100 128 168 221 270 327 391
#
# _framework density 19.932037999999999
#
# number of rings (size 3 to 8) (size 9 to 14) (size 15 to 20)
#    0.000    0.800    4.000    3.600    2.800    0.800 
#    0.000    0.000    4.400    0.000    0.000    0.000 
#    0.000    0.000    0.000    0.000    0.000    0.000 
#
# Total GULP energy -111684.272988 kJ/mol
# GULP energy per Si atom -5584.213649 kJ/mol
# Density = 1.988667 g / cm^3
# Si number density = 19.932038 Si / 1000 Ang^3
#
#
#
# Elastic Constant Matrix: (Units=GPa)
#
#
# Indices 1 2 3 4 5 6 
#
# 1 142.2287 75.9218 61.3295 0.0000 21.6971 0.0000
# 2 75.9218 128.6012 37.7582 0.0000 4.2114 0.0000
# 3 61.3295 37.7582 69.7826 0.0000 11.5676 0.0000
# 4 0.0000 0.0000 0.0000 16.7699 0.0000 3.7290
# 5 21.6971 4.2114 11.5676 0.0000 34.8245 0.0000
# 6 0.0000 0.0000 0.0000 3.7290 0.0000 43.7462
#
#
#
# Elastic Compliance Matrix: (Units=1/GPa)
#
#
# Indices 1 2 3 4 5 6 
#
# 1 0.014968 -0.006020 -0.008966 0.000000 -0.005619 0.000000
# 2 -0.006020 0.011677 -0.001497 0.000000 0.002836 0.000000
# 3 -0.008966 -0.001497 0.023350 0.000000 -0.001989 0.000000
# 4 0.000000 0.000000 0.000000 0.060783 0.000000 -0.005181
# 5 -0.005619 0.002836 -0.001989 0.000000 0.032534 0.000000
# 6 0.000000 0.000000 0.000000 -0.005181 0.000000 0.023301
#
#
# Mechanical properties :
#
#
# Convention : Reuss Voigt Hill
#
# Bulk Modulus (GPa) = 58.72718 76.73686 67.73202
# Shear Modulus (GPa) = 24.36001 30.10833 27.23417
#
# Velocity S-wave (km/s) = 3.49972 3.89080 3.70043
# Velocity P-wave (km/s) = 6.77189 7.66598 7.23276
#
# Compressibility (1/GPa) = 0.01702789
#
# Stress axis : x y z
#
# Youngs Moduli (GPa) = 66.81045 85.64017 42.82673
#
# Poissons Ratio (x) = 0.51555 0.38398
# Poissons Ratio (y) = 0.40220 0.06413
# Poissons Ratio (z) = 0.59901 0.12824
#
# Static dielectric constant tensor:
#      x y z
#    x 1.703120 0.000000 -0.101030 
#    y 0.000000 1.697420 0.000000 
#    z -0.101030 0.000000 2.290540 
# 
# From -- ./inp_files/58558.got.cif
#   From: 2010.05.17/outbox.cif.g08.bks.cpg/sg13_30_cif.got.tgz:58558.got - 2010.06.03 16:44:36.
