data_PCOD9237861
_publ_section_title
;
Structure prediction by ZEFSAII (Michael W. Deem and Ramdas Pophale) SiO2 
 PCOD9237861
Probable space group: P 2/C
;
_chemical_formula_sum "Si O2"
_cell_formula_units_Z 16
_cell_length_a 8.288139
_cell_length_b 9.784280
_cell_length_c 16.760440
_cell_angle_alpha 90.000000
_cell_angle_beta 151.881602
_cell_angle_gamma 90.000000
_cell_volume 640.566541
_symmetry_space_group_name_H-M "P 2/C"
_symmetry_group_IT_number 13
_symmetry_cell_setting 'monoclinic'
loop_
_space_group_symop_operation_xyz
x,y,z
-x,y,1/2-z
-x,-y,-z
x,-y,1/2+z
loop_
_atom_site_type_symbol
_atom_site_label
_atom_site_fract_x
_atom_site_fract_y
_atom_site_fract_z
Si Si1 0.140744 0.963186 0.227259
Si Si2 0.037560 0.701559 0.422244
Si Si3 0.551635 0.542939 0.431608
Si Si4 0.854171 0.195301 0.015754
O O1 0.881708 0.838602 0.091540
O O2 0.506669 0.888946 0.383504
O O3 0.000000 0.015515 0.250000
O O4 0.140822 0.088065 0.165967
O O5 0.766298 0.614854 0.251163
O O6 0.886318 0.758161 0.438555
O O7 0.333009 0.592066 0.565173
O O8 0.500000 0.500000 0.500000
O O9 0.834836 0.663095 0.554580
#
# Coordination Sequence:
#
# PCOD9237861 Si02
#       4
#     4   4   4   4
#     4  11  23  43  67  98 135 177 228 283 338 407
#     4  11  24  44  67  98 136 175 222 280 340 407
#     4  11  23  43  68  99 134 174 222 279 338 406
#     4  11  25  44  66  99 136 178 226 282 342 406
#
# _framework density 24.977889000000001
#
# number of rings (size 3 to 8) (size 9 to 14) (size 15 to 20)
#    0.000    1.000    0.000    9.000    0.000    4.000 
#    0.000    5.000    0.000    0.000    0.000    0.000 
#    0.000    0.000    0.000    0.000    0.000    0.000 
#
# Total GULP energy -89591.627734 kJ/mol
# GULP energy per Si atom -5599.476733 kJ/mol
# Density = 2.492104 g / cm^3
# Si number density = 24.977889 Si / 1000 Ang^3
#
#
#
# Elastic Constant Matrix: (Units=GPa)
#
#
# Indices 1 2 3 4 5 6 
#
# 1 130.6108 29.9367 36.0860 0.0000 -26.8950 0.0000
# 2 29.9367 148.6927 35.8086 0.0000 -19.2516 0.0000
# 3 36.0860 35.8086 61.1921 0.0000 -11.9041 0.0000
# 4 0.0000 0.0000 0.0000 47.6724 0.0000 -12.9808
# 5 -26.8950 -19.2516 -11.9041 0.0000 29.4490 0.0000
# 6 0.0000 0.0000 0.0000 -12.9808 0.0000 44.2710
#
#
#
# Elastic Compliance Matrix: (Units=1/GPa)
#
#
# Indices 1 2 3 4 5 6 
#
# 1 0.010552 0.000015 -0.004727 0.000000 0.007736 0.000000
# 2 0.000015 0.008185 -0.004076 0.000000 0.003717 0.000000
# 3 -0.004727 -0.004076 0.021877 0.000000 0.001862 0.000000
# 4 0.000000 0.000000 0.000000 0.022797 0.000000 0.006684
# 5 0.007736 0.003717 0.001862 0.000000 0.044205 0.000000
# 6 0.000000 0.000000 0.000000 0.006684 0.000000 0.024548
#
#
# Mechanical properties :
#
#
# Convention : Reuss Voigt Hill
#
# Bulk Modulus (GPa) = 43.40344 60.46203 51.93273
# Shear Modulus (GPa) = 31.76289 40.18944 35.97617
#
# Velocity S-wave (km/s) = 3.56988 4.01559 3.79927
# Velocity P-wave (km/s) = 5.86570 6.76452 6.33108
#
# Compressibility (1/GPa) = 0.02303965
#
# Stress axis : x y z
#
# Youngs Moduli (GPa) = 94.77165 122.17513 45.71094
#
# Poissons Ratio (x) = -0.00189 0.21606
# Poissons Ratio (y) = -0.00147 0.18630
# Poissons Ratio (z) = 0.44795 0.49795
#
# Static dielectric constant tensor:
#      x y z
#    x 1.965160 0.000000 0.030850 
#    y 0.000000 1.938250 0.000000 
#    z 0.030850 0.000000 2.149760 
# 
# From -- ./inp_files/63994.got.cif
#   From: 2010.05.17/outbox.cif.g08.bks.cpg/sg13_32_cif.got.tgz:63994.got - 2010.06.03 16:44:36.
