data_PCOD9237892
_publ_section_title
;
Structure prediction by ZEFSAII (Michael W. Deem and Ramdas Pophale) SiO2 
 PCOD9237892
Probable space group: P 2/C
;
_chemical_formula_sum "Si O2"
_cell_formula_units_Z 16
_cell_length_a 8.294783
_cell_length_b 7.348227
_cell_length_c 13.415993
_cell_angle_alpha 90.000000
_cell_angle_beta 133.722507
_cell_angle_gamma 90.000000
_cell_volume 590.970612
_symmetry_space_group_name_H-M "P 2/C"
_symmetry_group_IT_number 13
_symmetry_cell_setting 'monoclinic'
loop_
_space_group_symop_operation_xyz
x,y,z
-x,y,1/2-z
-x,-y,-z
x,-y,1/2+z
loop_
_atom_site_type_symbol
_atom_site_label
_atom_site_fract_x
_atom_site_fract_y
_atom_site_fract_z
Si Si1 0.352613 0.515811 0.591373
Si Si2 0.234469 0.664473 0.857978
Si Si3 0.273407 0.944600 0.347414
Si Si4 0.002411 0.171760 0.926299
O O1 0.500000 0.482669 0.750000
O O2 0.537890 0.602095 0.596342
O O3 0.271780 0.341022 0.493465
O O4 0.143603 0.652444 0.523994
O O5 0.190581 0.853433 0.783465
O O6 0.000000 0.554474 0.750000
O O7 0.500000 0.000000 0.500000
O O8 0.141548 0.869876 0.385583
O O9 0.240468 0.822245 0.234365
O O10 0.000000 0.000000 0.000000
#
# Coordination Sequence:
#
# PCOD9237892 Si02
#       4
#     4   4   4   4
#     4  11  26  45  68 103 142 188 241 295 360 431
#     4  11  24  45  69  98 142 190 235 295 360 428
#     4  11  23  44  67 100 138 183 237 289 359 424
#     4  11  24  42  70 100 134 185 234 298 350 418
#
# _framework density 27.074106
#
# number of rings (size 3 to 8) (size 9 to 14) (size 15 to 20)
#    0.000    1.000    5.000    1.500    3.500    1.000 
#    4.500    0.000    0.000    0.000    0.000    0.000 
#    0.000    0.000    0.000    0.000    0.000    0.000 
#
# Total GULP energy -89108.360918 kJ/mol
# GULP energy per Si atom -5569.272557 kJ/mol
# Density = 2.701248 g / cm^3
# Si number density = 27.074106 Si / 1000 Ang^3
#
#
#
# Elastic Constant Matrix: (Units=GPa)
#
#
# Indices 1 2 3 4 5 6 
#
# 1 86.1490 50.6633 44.5492 0.0000 9.8518 0.0000
# 2 50.6633 120.7352 52.4741 0.0000 -2.7326 0.0000
# 3 44.5492 52.4741 249.0727 0.0000 -3.7366 0.0000
# 4 0.0000 0.0000 0.0000 5.7877 0.0000 -1.3591
# 5 9.8518 -2.7326 -3.7366 0.0000 48.4383 0.0000
# 6 0.0000 0.0000 0.0000 -1.3591 0.0000 19.8971
#
#
#
# Elastic Compliance Matrix: (Units=1/GPa)
#
#
# Indices 1 2 3 4 5 6 
#
# 1 0.016659 -0.006338 -0.001702 0.000000 -0.003877 0.000000
# 2 -0.006338 0.011536 -0.001269 0.000000 0.001842 0.000000
# 3 -0.001702 -0.001269 0.004596 0.000000 0.000629 0.000000
# 4 0.000000 0.000000 0.000000 0.175596 0.000000 0.011995
# 5 -0.003877 0.001842 0.000629 0.000000 0.021586 0.000000
# 6 0.000000 0.000000 0.000000 0.011995 0.000000 0.051078
#
#
# Mechanical properties :
#
#
# Convention : Reuss Voigt Hill
#
# Bulk Modulus (GPa) = 70.56563 83.48111 77.02337
# Shear Modulus (GPa) = 16.42607 35.37599 25.90103
#
# Velocity S-wave (km/s) = 2.46582 3.61866 3.09637
# Velocity P-wave (km/s) = 5.85042 6.95420 6.42605
#
# Compressibility (1/GPa) = 0.01417121
#
# Stress axis : x y z
#
# Youngs Moduli (GPa) = 60.02743 86.68887 217.57223
#
# Poissons Ratio (x) = 0.54946 0.37041
# Poissons Ratio (y) = 0.38047 0.27609
# Poissons Ratio (z) = 0.10219 0.11000
#
# Static dielectric constant tensor:
#      x y z
#    x 2.314130 0.000000 0.234400 
#    y 0.000000 2.212440 0.000000 
#    z 0.234400 0.000000 2.378110 
# 
# From -- ./inp_files/28394.got.cif
#   From: 2010.05.17/outbox.cif.g08.bks.cpg/sg13_15_cif.got.tgz:28394.got - 2010.06.03 16:44:36.
