data_PCOD9237334
_publ_section_title
;
Structure prediction by ZEFSAII (Michael W. Deem and Ramdas Pophale) SiO2 
 PCOD9237334
Probable space group: P 2/C
;
_chemical_formula_sum "Si O2"
_cell_formula_units_Z 16
_cell_length_a 7.690940
_cell_length_b 11.506612
_cell_length_c 11.986671
_cell_angle_alpha 90.000000
_cell_angle_beta 41.155135
_cell_angle_gamma 90.000000
_cell_volume 698.099658
_symmetry_space_group_name_H-M "P 2/C"
_symmetry_group_IT_number 13
_symmetry_cell_setting 'monoclinic'
loop_
_space_group_symop_operation_xyz
x,y,z
-x,y,1/2-z
-x,-y,-z
x,-y,1/2+z
loop_
_atom_site_type_symbol
_atom_site_label
_atom_site_fract_x
_atom_site_fract_y
_atom_site_fract_z
Si Si1 0.865763 0.734928 0.657196
Si Si2 0.869872 0.237101 0.691307
Si Si3 0.254154 0.009781 0.205175
Si Si4 0.400698 0.628771 0.517067
O O1 0.789029 0.871627 0.706558
O O2 0.927152 0.717981 0.498278
O O3 0.130001 0.675568 0.586763
O O4 0.633390 0.680735 0.842384
O O5 0.622710 0.319374 0.829681
O O6 0.000000 0.230737 0.750000
O O7 0.764457 0.107631 0.713665
O O8 0.000000 0.011454 0.250000
O O9 0.500000 0.000000 0.000000
O O10 0.500000 0.500000 0.500000
#
# Coordination Sequence:
#
# PCOD9237334 Si02
#       4
#     4   4   4   4
#     4  11  23  47  73  98 143 191 233 305 367 421
#     4  11  25  42  68 109 143 182 239 292 366 445
#     4  11  20  42  73 108 147 187 235 304 371 445
#     4  11  25  46  71  99 138 192 252 294 354 427
#
# _framework density 22.919364999999999
#
# number of rings (size 3 to 8) (size 9 to 14) (size 15 to 20)
#    0.000    1.000    5.000    1.500    3.500    2.000 
#    4.500    2.500    0.000    0.000    0.000    0.000 
#    0.000    0.000    0.000    0.000    0.000    0.000 
#
# Total GULP energy -89104.603923 kJ/mol
# GULP energy per Si atom -5569.037745 kJ/mol
# Density = 2.286720 g / cm^3
# Si number density = 22.919365 Si / 1000 Ang^3
#
#
#
# Elastic Constant Matrix: (Units=GPa)
#
#
# Indices 1 2 3 4 5 6 
#
# 1 73.5812 24.1609 55.8640 0.0000 -5.2852 0.0000
# 2 24.1609 128.3757 18.2890 0.0000 13.2158 0.0000
# 3 55.8640 18.2890 174.7669 0.0000 30.5617 0.0000
# 4 0.0000 0.0000 0.0000 11.9795 0.0000 -31.9972
# 5 -5.2852 13.2158 30.5617 0.0000 40.5304 0.0000
# 6 0.0000 0.0000 0.0000 -31.9972 0.0000 0.2107
#
#
#
# Elastic Compliance Matrix: (Units=1/GPa)
#
#
# Indices 1 2 3 4 5 6 
#
# 1 0.022148 -0.004050 -0.008514 0.000000 0.010629 0.000000
# 2 -0.004050 0.008830 0.001113 0.000000 -0.004247 0.000000
# 3 -0.008514 0.001113 0.009889 0.000000 -0.008930 0.000000
# 4 0.000000 0.000000 0.000000 -0.000206 0.000000 -0.031330
# 5 0.010629 -0.004247 -0.008930 0.000000 0.034177 0.000000
# 6 0.000000 0.000000 0.000000 -0.031330 0.000000 -0.011730
#
#
# Mechanical properties :
#
#
# Convention : Reuss Voigt Hill
#
# Bulk Modulus (GPa) = 55.66425 63.70573 59.68499
# Shear Modulus (GPa) = 54.34908 29.10479 41.72694
#
# Velocity S-wave (km/s) = 4.87490 3.56740 4.27147
# Velocity P-wave (km/s) = 7.48505 6.69510 7.10107
#
# Compressibility (1/GPa) = 0.01796485
#
# Stress axis : x y z
#
# Youngs Moduli (GPa) = 45.15117 113.24526 101.12663
#
# Poissons Ratio (x) = 0.45859 0.86103
# Poissons Ratio (y) = 0.18284 -0.11255
# Poissons Ratio (z) = 0.38444 -0.12604
#
# Static dielectric constant tensor:
#      x y z
#    x 1.882990 0.000000 0.000210 
#    y 0.000000 1.998310 0.000000 
#    z 0.000210 0.000000 1.802580 
# 
# From -- ./inp_files/28842.got.cif
#   From: 2010.05.17/outbox.cif.g08.bks.cpg/sg13_15_cif.got.tgz:28842.got - 2010.06.03 16:44:36.
