data_PCOD9237228
_publ_section_title
;
Structure prediction by ZEFSAII (Michael W. Deem and Ramdas Pophale) SiO2 
 PCOD9237228
Probable space group: P 2/C
;
_chemical_formula_sum "Si O2"
_cell_formula_units_Z 32
_cell_length_a 16.896306
_cell_length_b 11.374800
_cell_length_c 22.911627
_cell_angle_alpha 90.000000
_cell_angle_beta 21.377586
_cell_angle_gamma 90.000000
_cell_volume 1605.106770
_symmetry_space_group_name_H-M "P 2/C"
_symmetry_group_IT_number 13
_symmetry_cell_setting 'monoclinic'
loop_
_space_group_symop_operation_xyz
x,y,z
-x,y,1/2-z
-x,-y,-z
x,-y,1/2+z
loop_
_atom_site_type_symbol
_atom_site_label
_atom_site_fract_x
_atom_site_fract_y
_atom_site_fract_z
Si Si1 0.097030 0.128620 0.916281
Si Si2 0.936891 0.789454 0.194362
Si Si3 0.427780 0.108037 0.864779
Si Si4 0.505829 0.360749 0.993872
Si Si5 0.769776 0.793224 0.726516
Si Si6 0.232180 0.748979 0.585723
Si Si7 0.250969 0.031165 0.157621
Si Si8 0.400936 0.838043 0.883053
O O1 0.051017 0.172319 0.882448
O O2 0.354536 0.116703 0.746244
O O3 0.985403 0.218823 0.038900
O O4 0.000000 0.000000 0.000000
O O5 0.746252 0.695221 0.335491
O O6 0.862028 0.908704 0.277636
O O7 0.184177 0.762056 0.041726
O O8 0.500000 0.126817 0.750000
O O9 0.336995 0.976134 0.930262
O O10 0.273357 0.211189 0.991966
O O11 0.500000 0.500000 0.000000
O O12 0.337274 0.303486 0.156725
O O13 0.417286 0.321983 0.991204
O O14 0.822083 0.902393 0.733493
O O15 0.582555 0.819099 0.807355
O O16 0.227338 0.874125 0.623071
O O17 0.000000 0.689042 0.750000
O O18 0.500000 0.000000 0.000000
O O19 0.500000 0.819069 0.750000
#
# Coordination Sequence:
#
# PCOD9237228 Si02
#       8
#     4   4   4   4   4   4   4   4
#     4  12  19  34  61  92 134 170 192 241 325 398
#     4  12  21  38  64  88 132 168 200 260 319 375
#     4  11  22  34  56  97 138 163 193 234 318 408
#     4  11  27  49  66  85 117 173 236 273 312 359
#     4  11  22  37  63  91 126 165 209 257 315 381
#     4  11  23  40  64  90 128 159 210 270 316 381
#     4  11  19  34  58  93 125 165 203 245 323 388
#     4  11  21  34  56 100 135 159 190 245 315 398
#
# _framework density 19.936368000000002
#
# number of rings (size 3 to 8) (size 9 to 14) (size 15 to 20)
#    0.000    0.750    7.500    2.250    3.500    0.500 
#    2.250    0.625    0.000    0.750    0.000    0.000 
#    0.000    0.000    0.000    0.000    0.000    0.000 
#
# Total GULP energy -178742.410782 kJ/mol
# GULP energy per Si atom -5585.700337 kJ/mol
# Density = 1.989099 g / cm^3
# Si number density = 19.936368 Si / 1000 Ang^3
#
#
#
# Elastic Constant Matrix: (Units=GPa)
#
#
# Indices 1 2 3 4 5 6 
#
# 1 50.0709 9.5198 -9.0143 0.0000 1.5587 0.0000
# 2 9.5198 94.0261 28.1967 0.0000 7.4723 0.0000
# 3 -9.0143 28.1967 88.8833 0.0000 -12.2103 0.0000
# 4 0.0000 0.0000 0.0000 13.2447 0.0000 2.7694
# 5 1.5587 7.4723 -12.2103 0.0000 42.2310 0.0000
# 6 0.0000 0.0000 0.0000 2.7694 0.0000 7.9060
#
#
#
# Elastic Compliance Matrix: (Units=1/GPa)
#
#
# Indices 1 2 3 4 5 6 
#
# 1 0.021137 -0.003172 0.003249 0.000000 0.000720 0.000000
# 2 -0.003172 0.012685 -0.004830 0.000000 -0.003524 0.000000
# 3 0.003249 -0.004830 0.013760 0.000000 0.004713 0.000000
# 4 0.000000 0.000000 0.000000 0.081469 0.000000 -0.028537
# 5 0.000720 -0.003524 0.004713 0.000000 0.025639 0.000000
# 6 0.000000 0.000000 0.000000 -0.028537 0.000000 0.136483
#
#
# Mechanical properties :
#
#
# Convention : Reuss Voigt Hill
#
# Bulk Modulus (GPa) = 26.26282 32.26496 29.26389
# Shear Modulus (GPa) = 15.95560 26.29488 21.12524
#
# Velocity S-wave (km/s) = 2.83207 3.63566 3.25873
# Velocity P-wave (km/s) = 4.88836 5.81749 5.37305
#
# Compressibility (1/GPa) = 0.03807664
#
# Stress axis : x y z
#
# Youngs Moduli (GPa) = 47.31008 78.83415 72.67543
#
# Poissons Ratio (x) = 0.25003 -0.23610
# Poissons Ratio (y) = 0.15005 0.35101
# Poissons Ratio (z) = -0.15370 0.38075
#
# Static dielectric constant tensor:
#      x y z
#    x 1.790690 0.000000 0.022830 
#    y 0.000000 1.662700 0.000000 
#    z 0.022830 0.000000 1.806700 
# 
# From -- ./inp_files/88164.got.cif
#   From: 2010.05.17/outbox.cif.g08.bks.cpg/sg13_45_cif.got.tgz:88164.got - 2010.06.03 16:44:36.
