data_PCOD9237851
_publ_section_title
;
Structure prediction by ZEFSAII (Michael W. Deem and Ramdas Pophale) SiO2 
 PCOD9237851
Probable space group: P 2/C
;
_chemical_formula_sum "Si O2"
_cell_formula_units_Z 20
_cell_length_a 8.906117
_cell_length_b 21.685644
_cell_length_c 8.498699
_cell_angle_alpha 90.000000
_cell_angle_beta 32.257576
_cell_angle_gamma 90.000000
_cell_volume 876.055869
_symmetry_space_group_name_H-M "P 2/C"
_symmetry_group_IT_number 13
_symmetry_cell_setting 'monoclinic'
loop_
_space_group_symop_operation_xyz
x,y,z
-x,y,1/2-z
-x,-y,-z
x,-y,1/2+z
loop_
_atom_site_type_symbol
_atom_site_label
_atom_site_fract_x
_atom_site_fract_y
_atom_site_fract_z
Si Si1 0.994941 0.754873 0.071307
Si Si2 0.535939 0.822463 0.029346
Si Si3 0.425551 0.433468 0.497662
Si Si4 0.699964 0.955497 0.929010
Si Si5 0.033934 0.627166 0.900089
O O1 0.000000 0.736345 0.250000
O O2 0.779936 0.812196 0.250749
O O3 0.283610 0.775034 0.733196
O O4 0.914650 0.695184 0.039553
O O5 0.500000 0.811455 0.250000
O O6 0.696371 0.887503 0.856226
O O7 0.500000 0.437117 0.250000
O O8 0.500000 0.500000 0.500000
O O9 0.634333 0.379362 0.369333
O O10 0.121606 0.416172 0.835393
O O11 0.000000 0.973476 0.750000
O O12 0.500000 0.944154 0.250000
O O13 0.500000 0.000000 0.000000
O O14 0.000000 0.607568 0.750000
#
# Coordination Sequence:
#
# PCOD9237851 Si02
#       5
#     4   4   4   4   4
#     4  12  25  42  65  97 130 169 218 276 334 398
#     4  11  23  43  66  93 130 174 219 269 332 402
#     4  12  25  44  67  96 131 171 218 273 332 399
#     4  11  24  43  68  99 136 179 229 285 344 411
#     4  12  25  44  67  95 130 173 219 271 333 400
#
# _framework density 22.829594
#
# number of rings (size 3 to 8) (size 9 to 14) (size 15 to 20)
#    0.000    0.400    0.000   10.800    0.000    2.400 
#    0.000    0.000    0.000    0.000    0.000    0.000 
#    0.000    0.000    0.000    0.000    0.000    0.000 
#
# Total GULP energy -111444.312945 kJ/mol
# GULP energy per Si atom -5572.215647 kJ/mol
# Density = 2.277763 g / cm^3
# Si number density = 22.829594 Si / 1000 Ang^3
#
#
#
# Elastic Constant Matrix: (Units=GPa)
#
#
# Indices 1 2 3 4 5 6 
#
# 1 78.3346 6.1070 28.0488 0.0000 6.9403 0.0000
# 2 6.1070 73.8328 16.6380 0.0000 0.7258 0.0000
# 3 28.0488 16.6380 144.0136 0.0000 1.3223 0.0000
# 4 0.0000 0.0000 0.0000 21.7293 0.0000 -12.3889
# 5 6.9403 0.7258 1.3223 0.0000 52.6619 0.0000
# 6 0.0000 0.0000 0.0000 -12.3889 0.0000 18.2248
#
#
#
# Elastic Compliance Matrix: (Units=1/GPa)
#
#
# Indices 1 2 3 4 5 6 
#
# 1 0.013905 -0.000540 -0.002630 0.000000 -0.001759 0.000000
# 2 -0.000540 0.013928 -0.001503 0.000000 -0.000083 0.000000
# 3 -0.002630 -0.001503 0.007628 0.000000 0.000176 0.000000
# 4 0.000000 0.000000 0.000000 0.075145 0.000000 0.051082
# 5 -0.001759 -0.000083 0.000176 0.000000 0.019218 0.000000
# 6 0.000000 0.000000 0.000000 0.051082 0.000000 0.089595
#
#
# Mechanical properties :
#
#
# Convention : Reuss Voigt Hill
#
# Bulk Modulus (GPa) = 38.29157 44.19651 41.24404
# Shear Modulus (GPa) = 21.05522 34.88235 27.96878
#
# Velocity S-wave (km/s) = 3.04020 3.91313 3.50396
# Velocity P-wave (km/s) = 5.39749 6.31016 5.87159
#
# Compressibility (1/GPa) = 0.02611541
#
# Stress axis : x y z
#
# Youngs Moduli (GPa) = 71.91490 71.79596 131.09576
#
# Poissons Ratio (x) = 0.03879 0.34474
# Poissons Ratio (y) = 0.03885 0.19706
# Poissons Ratio (z) = 0.18911 0.10792
#
# Static dielectric constant tensor:
#      x y z
#    x 1.863860 0.000000 0.010290 
#    y 0.000000 2.003100 0.000000 
#    z 0.010290 0.000000 1.888150 
# 
# From -- ./inp_files/13768.got.cif
#   From: 2010.05.17/outbox.cif.g08.bks.cpg/sg13_7_cif.got.tgz:13768.got - 2010.06.03 16:44:36.
