data_PCOD9237301
_publ_section_title
;
Structure prediction by ZEFSAII (Michael W. Deem and Ramdas Pophale) SiO2 
 PCOD9237301
Probable space group: P 2/C
;
_chemical_formula_sum "Si O2"
_cell_formula_units_Z 30
_cell_length_a 20.329636
_cell_length_b 12.491766
_cell_length_c 25.989003
_cell_angle_alpha 90.000000
_cell_angle_beta 12.296663
_cell_angle_gamma 90.000000
_cell_volume 1405.622149
_symmetry_space_group_name_H-M "P 2/C"
_symmetry_group_IT_number 13
_symmetry_cell_setting 'monoclinic'
loop_
_space_group_symop_operation_xyz
x,y,z
-x,y,1/2-z
-x,-y,-z
x,-y,1/2+z
loop_
_atom_site_type_symbol
_atom_site_label
_atom_site_fract_x
_atom_site_fract_y
_atom_site_fract_z
Si Si1 0.640368 0.052934 0.537537
Si Si2 0.953565 0.224705 0.656495
Si Si3 0.836070 0.541476 0.509331
Si Si4 0.240302 0.532355 0.612239
Si Si5 0.346757 0.268425 0.724610
Si Si6 0.500000 0.056646 0.250000
Si Si7 0.342043 0.825731 0.013845
Si Si8 0.251945 0.625965 0.810384
O O1 0.452924 0.158996 0.668683
O O2 0.600637 0.016757 0.626201
O O3 0.535230 0.945816 0.587341
O O4 0.000000 0.071264 0.250000
O O5 0.791825 0.241523 0.725569
O O6 0.706413 0.198163 0.889316
O O7 0.111276 0.337206 0.551374
O O8 0.211863 0.133328 0.457118
O O9 0.834716 0.559756 0.571719
O O10 0.082895 0.473495 0.288511
O O11 0.500000 0.502046 0.750000
O O12 0.376901 0.647953 0.494299
O O13 0.524252 0.448939 0.393543
O O14 0.000000 0.501829 0.750000
O O15 0.068033 0.328716 0.967277
O O16 0.000000 0.823196 0.250000
O O17 0.548564 0.733297 0.830631
#
# Coordination Sequence:
#
# PCOD9237301 Si02
#       8
#     4   4   4   4   4   2   4   4
#     4  11  24  47  69  97 140 184 231 281 348 419
#     4  11  22  39  70 106 136 170 228 292 349 401
#     4  11  20  37  69 102 127 170 231 286 338 401
#     4  12  24  45  70  92 139 187 231 283 341 417
#     4  11  28  45  63 101 150 182 223 290 350 415
#     4  12  22  44  78 104 132 186 244 284 338 430
#     4  11  20  40  71 102 135 176 227 290 345 405
#     4  11  23  41  68 102 131 173 231 286 348 402
#
# _framework density 21.342863000000001
#
# number of rings (size 3 to 8) (size 9 to 14) (size 15 to 20)
#    0.000    0.800    6.000    3.600    0.000    4.800 
#    4.800    1.333    0.000    0.000    0.000    0.000 
#    0.000    0.000    0.000    0.000    0.000    0.000 
#
# Total GULP energy -167806.504853 kJ/mol
# GULP energy per Si atom -5593.550162 kJ/mol
# Density = 2.129429 g / cm^3
# Si number density = 21.342863 Si / 1000 Ang^3
#
#
#
# Elastic Constant Matrix: (Units=GPa)
#
#
# Indices 1 2 3 4 5 6 
#
# 1 41.3924 10.0284 30.1467 0.0000 8.9281 0.0000
# 2 10.0284 125.4636 46.3506 0.0000 -4.2516 0.0000
# 3 30.1467 46.3506 110.8305 0.0000 15.5703 0.0000
# 4 0.0000 0.0000 0.0000 68.2907 0.0000 -0.8133
# 5 8.9281 -4.2516 15.5703 0.0000 31.0231 0.0000
# 6 0.0000 0.0000 0.0000 -0.8133 0.0000 19.8077
#
#
#
# Elastic Compliance Matrix: (Units=1/GPa)
#
#
# Indices 1 2 3 4 5 6 
#
# 1 0.030843 0.000250 -0.007802 0.000000 -0.004926 0.000000
# 2 0.000250 0.009800 -0.004675 0.000000 0.003617 0.000000
# 3 -0.007802 -0.004675 0.013851 0.000000 -0.005347 0.000000
# 4 0.000000 0.000000 0.000000 0.014650 0.000000 0.000602
# 5 -0.004926 0.003617 -0.005347 0.000000 0.036831 0.000000
# 6 0.000000 0.000000 0.000000 0.000602 0.000000 0.050510
#
#
# Mechanical properties :
#
#
# Convention : Reuss Voigt Hill
#
# Bulk Modulus (GPa) = 33.28759 50.08198 41.68479
# Shear Modulus (GPa) = 26.18436 36.56837 31.37637
#
# Velocity S-wave (km/s) = 3.50643 4.14379 3.83836
# Velocity P-wave (km/s) = 5.65896 6.81256 6.26238
#
# Compressibility (1/GPa) = 0.03004123
#
# Stress axis : x y z
#
# Youngs Moduli (GPa) = 32.42177 102.04064 72.19566
#
# Poissons Ratio (x) = -0.02552 0.56328
# Poissons Ratio (y) = -0.00811 0.33749
# Poissons Ratio (z) = 0.25296 0.47701
#
# Static dielectric constant tensor:
#      x y z
#    x 1.792720 0.000000 0.008800 
#    y 0.000000 1.756090 0.000000 
#    z 0.008800 0.000000 1.800430 
# 
# From -- ./inp_files/97739.got.cif
#   From: 2010.05.17/outbox.cif.g08.bks.cpg/sg13_49_cif.got.tgz:97739.got - 2010.06.03 16:44:36.
