data_PCOD9237042
_publ_section_title
;
Structure prediction by ZEFSAII (Michael W. Deem and Ramdas Pophale) SiO2 
 PCOD9237042
Probable space group: P 2/C
;
_chemical_formula_sum "Si O2"
_cell_formula_units_Z 28
_cell_length_a 18.954336
_cell_length_b 6.565235
_cell_length_c 11.780501
_cell_angle_alpha 90.000000
_cell_angle_beta 56.729070
_cell_angle_gamma 90.000000
_cell_volume 1225.669740
_symmetry_space_group_name_H-M "P 2/C"
_symmetry_group_IT_number 13
_symmetry_cell_setting 'monoclinic'
loop_
_space_group_symop_operation_xyz
x,y,z
-x,y,1/2-z
-x,-y,-z
x,-y,1/2+z
loop_
_atom_site_type_symbol
_atom_site_label
_atom_site_fract_x
_atom_site_fract_y
_atom_site_fract_z
Si Si1 0.776235 0.685484 0.031162
Si Si2 0.086244 0.409194 0.478483
Si Si3 0.373080 0.549842 0.958135
Si Si4 0.000000 0.823923 0.250000
Si Si5 0.568474 0.131916 0.511347
Si Si6 0.500000 0.160212 0.250000
Si Si7 0.865752 0.921406 0.750147
Si Si8 0.293884 0.875514 0.196303
O O1 0.840001 0.568632 0.058948
O O2 0.718718 0.827126 0.161573
O O3 0.711583 0.543256 0.020092
O O4 0.831409 0.808614 0.892111
O O5 0.120782 0.238143 0.362661
O O6 0.000000 0.500000 0.500000
O O7 0.062510 0.313207 0.621139
O O8 0.431086 0.369940 0.960962
O O9 0.345468 0.701343 0.084135
O O10 0.424440 0.669950 0.815106
O O11 0.048279 0.966329 0.295629
O O12 0.500000 0.000000 0.500000
O O13 0.557825 0.008745 0.635700
O O14 0.655411 0.083146 0.371250
O O15 0.797254 0.089554 0.777056
#
# Coordination Sequence:
#
# PCOD9237042 Si02
#       8
#     4   4   4   2   4   2   4   4
#     4  12  25  43  72  97 142 188 232 298 361 418
#     4  12  25  44  70 105 142 190 248 298 366 440
#     4  11  25  47  68 106 141 187 242 292 358 438
#     4  12  24  42  72  98 142 192 232 304 370 418
#     4  11  26  44  71  99 142 183 234 295 352 428
#     4  10  26  42  72 100 140 184 238 282 362 420
#     4  12  24  46  67 105 143 185 244 297 364 441
#     4  11  26  43  67 104 137 186 235 295 355 429
#
# _framework density 22.844653000000001
#
# number of rings (size 3 to 8) (size 9 to 14) (size 15 to 20)
#    0.000    0.571    1.429    6.000    6.000    1.143 
#    0.000    0.000    0.000    0.000    0.000    0.000 
#    0.000    0.000    0.000    0.000    0.000    0.000 
#
# Total GULP energy -156294.194016 kJ/mol
# GULP energy per Si atom -5581.935501 kJ/mol
# Density = 2.279266 g / cm^3
# Si number density = 22.844653 Si / 1000 Ang^3
#
#
#
# Elastic Constant Matrix: (Units=GPa)
#
#
# Indices 1 2 3 4 5 6 
#
# 1 76.1304 23.9672 -9.9273 0.0000 -4.5174 0.0000
# 2 23.9672 99.7250 29.3217 0.0000 3.6248 0.0000
# 3 -9.9273 29.3217 102.3435 0.0000 -5.9037 0.0000
# 4 0.0000 0.0000 0.0000 621.9740 0.0000 177.9705
# 5 -4.5174 3.6248 -5.9037 0.0000 25.7813 0.0000
# 6 0.0000 0.0000 0.0000 177.9705 0.0000 95.5606
#
#
#
# Elastic Compliance Matrix: (Units=1/GPa)
#
#
# Indices 1 2 3 4 5 6 
#
# 1 0.015259 -0.004715 0.003064 0.000000 0.004038 0.000000
# 2 -0.004715 0.012542 -0.004256 0.000000 -0.003564 0.000000
# 3 0.003064 -0.004256 0.011505 0.000000 0.003770 0.000000
# 4 0.000000 0.000000 0.000000 0.003442 0.000000 -0.006410
# 5 0.004038 -0.003564 0.003770 0.000000 0.040860 0.000000
# 6 0.000000 0.000000 0.000000 -0.006410 0.000000 0.022403
#
#
# Mechanical properties :
#
#
# Convention : Reuss Voigt Hill
#
# Bulk Modulus (GPa) = 36.37515 40.54689 38.46102
# Shear Modulus (GPa) = 39.37363 164.31900 101.84632
#
# Velocity S-wave (km/s) = 4.15606 8.49029 6.68423
# Velocity P-wave (km/s) = 6.24402 10.67243 8.74324
#
# Compressibility (1/GPa) = 0.02749130
#
# Stress axis : x y z
#
# Youngs Moduli (GPa) = 65.53592 79.73419 86.91817
#
# Poissons Ratio (x) = 0.37593 -0.26630
# Poissons Ratio (y) = 0.30899 0.36994
# Poissons Ratio (z) = -0.20079 0.33936
#
# Static dielectric constant tensor:
#      x y z
#    x 2.004130 0.000000 0.207170 
#    y 0.000000 1.842770 0.000000 
#    z 0.207170 0.000000 2.078340 
# 
# From -- ./inp_files/40059.got.cif
#   From: 2010.05.17/outbox.cif.g08.bks.cpg/sg13_21_cif.got.tgz:40059.got - 2010.06.03 16:44:36.
