data_PCOD9237178
_publ_section_title
;
Structure prediction by ZEFSAII (Michael W. Deem and Ramdas Pophale) SiO2 
 PCOD9237178
Probable space group: P 2/C
;
_chemical_formula_sum "Si O2"
_cell_formula_units_Z 16
_cell_length_a 26.971767
_cell_length_b 5.703074
_cell_length_c 8.980088
_cell_angle_alpha 90.000000
_cell_angle_beta 154.047044
_cell_angle_gamma 90.000000
_cell_volume 604.517789
_symmetry_space_group_name_H-M "P 2/C"
_symmetry_group_IT_number 13
_symmetry_cell_setting 'monoclinic'
loop_
_space_group_symop_operation_xyz
x,y,z
-x,y,1/2-z
-x,-y,-z
x,-y,1/2+z
loop_
_atom_site_type_symbol
_atom_site_label
_atom_site_fract_x
_atom_site_fract_y
_atom_site_fract_z
Si Si1 0.807580 0.174597 0.799862
Si Si2 0.500000 0.510771 0.250000
Si Si3 0.000000 0.887669 0.250000
Si Si4 0.873495 0.521045 0.726956
Si Si5 0.601914 0.182868 0.772730
O O1 0.827673 0.297735 0.693773
O O2 0.711613 0.980140 0.553521
O O3 0.793080 0.381312 0.880693
O O4 0.928236 0.054531 0.163596
O O5 0.578404 0.354064 0.569901
O O6 0.419366 0.669456 0.135086
O O7 0.099017 0.725774 0.581566
O O8 0.000000 0.500000 0.000000
O O9 0.500000 0.000000 0.500000
#
# Coordination Sequence:
#
# PCOD9237178 Si02
#       5
#     4   2   2   4   4
#     4  12  28  48  83 117 167 221 276 342 427 497
#     4  10  26  58  82 116 172 202 296 346 420 496
#     4  12  24  46  76 114 162 218 270 342 418 502
#     4  12  24  51  75 120 166 211 277 343 415 509
#     4  11  27  54  85 123 159 224 273 356 420 500
#
# _framework density 26.467376000000002
#
# number of rings (size 3 to 8) (size 9 to 14) (size 15 to 20)
#    0.000    0.500    5.000    1.500    0.000   10.000 
#    4.500    5.000    0.000    0.000    0.000    0.000 
#    0.000    0.000    0.000    0.000    0.000    0.000 
#
# Total GULP energy -89724.892374 kJ/mol
# GULP energy per Si atom -5607.805773 kJ/mol
# Density = 2.640714 g / cm^3
# Si number density = 26.467376 Si / 1000 Ang^3
#
#
#
# Elastic Constant Matrix: (Units=GPa)
#
#
# Indices 1 2 3 4 5 6 
#
# 1 195.4436 132.4030 101.5506 0.0000 6.9191 0.0000
# 2 132.4030 184.9651 86.6211 0.0000 13.3777 0.0000
# 3 101.5506 86.6211 137.7885 0.0000 27.3231 0.0000
# 4 0.0000 0.0000 0.0000 65.2542 0.0000 15.4185
# 5 6.9191 13.3777 27.3231 0.0000 46.8298 0.0000
# 6 0.0000 0.0000 0.0000 15.4185 0.0000 61.0345
#
#
#
# Elastic Compliance Matrix: (Units=1/GPa)
#
#
# Indices 1 2 3 4 5 6 
#
# 1 0.012265 -0.006346 -0.005711 0.000000 0.003333 0.000000
# 2 -0.006346 0.010967 -0.002015 0.000000 -0.001020 0.000000
# 3 -0.005711 -0.002015 0.014080 0.000000 -0.006796 0.000000
# 4 0.000000 0.000000 0.000000 0.016297 0.000000 -0.004117
# 5 0.003333 -0.001020 -0.006796 0.000000 0.025118 0.000000
# 6 0.000000 0.000000 0.000000 -0.004117 0.000000 0.017424
#
#
# Mechanical properties :
#
#
# Convention : Reuss Voigt Hill
#
# Bulk Modulus (GPa) = 109.06613 128.81628 118.94121
# Shear Modulus (GPa) = 39.26145 47.79853 43.52999
#
# Velocity S-wave (km/s) = 3.85566 4.25425 4.05985
# Velocity P-wave (km/s) = 7.81784 8.53856 8.18614
#
# Compressibility (1/GPa) = 0.00916875
#
# Stress axis : x y z
#
# Youngs Moduli (GPa) = 81.53199 91.18616 71.02071
#
# Poissons Ratio (x) = 0.57870 0.40557
# Poissons Ratio (y) = 0.51743 0.14308
# Poissons Ratio (z) = 0.46560 0.18371
#
# Static dielectric constant tensor:
#      x y z
#    x 2.273400 0.000000 -0.068740 
#    y 0.000000 2.122220 0.000000 
#    z -0.068740 0.000000 2.019830 
# 
# From -- ./inp_files/14203.got.cif
#   From: 2010.05.17/outbox.cif.g08.bks.cpg/sg13_8_cif.got.tgz:14203.got - 2010.06.03 16:44:36.
