data_PCOD9237735
_publ_section_title
;
Structure prediction by ZEFSAII (Michael W. Deem and Ramdas Pophale) SiO2 
 PCOD9237735
Probable space group: P 2/C
;
_chemical_formula_sum "Si O2"
_cell_formula_units_Z 28
_cell_length_a 15.169451
_cell_length_b 8.560209
_cell_length_c 11.376895
_cell_angle_alpha 90.000000
_cell_angle_beta 64.713290
_cell_angle_gamma 90.000000
_cell_volume 1335.776110
_symmetry_space_group_name_H-M "P 2/C"
_symmetry_group_IT_number 13
_symmetry_cell_setting 'monoclinic'
loop_
_space_group_symop_operation_xyz
x,y,z
-x,y,1/2-z
-x,-y,-z
x,-y,1/2+z
loop_
_atom_site_type_symbol
_atom_site_label
_atom_site_fract_x
_atom_site_fract_y
_atom_site_fract_z
Si Si1 0.967048 0.200117 0.400860
Si Si2 0.057169 0.822272 0.099621
Si Si3 0.282558 0.142597 0.460353
Si Si4 0.748269 0.224852 0.496093
Si Si5 0.598880 0.607992 0.240109
Si Si6 0.338963 0.692436 0.687974
Si Si7 0.537338 0.176660 0.975231
O O1 0.856253 0.256784 0.479510
O O2 0.000000 0.251132 0.250000
O O3 0.025434 0.240144 0.487865
O O4 0.962654 0.009962 0.396373
O O5 0.000000 0.766292 0.250000
O O6 0.173008 0.800748 0.049826
O O7 0.317901 0.212857 0.317764
O O8 0.363482 0.189520 0.508502
O O9 0.277627 0.954289 0.459948
O O10 0.668434 0.336994 0.597487
O O11 0.739122 0.250394 0.362451
O O12 0.500000 0.527349 0.250000
O O13 0.659516 0.490624 0.286302
O O14 0.561624 0.757112 0.333627
O O15 0.447103 0.728257 0.579045
O O16 0.500000 0.000000 0.000000
#
# Coordination Sequence:
#
# PCOD9237735 Si02
#       7
#     4   4   4   4   4   4   4
#     4   9  18  36  61  89 126 164 206 268 328 379
#     4   9  19  34  59  95 128 159 210 269 329 381
#     4  11  23  39  66  96 129 166 214 269 327 382
#     4  11  24  40  65  96 128 167 214 270 322 383
#     4  12  25  42  63  89 133 175 218 262 322 395
#     4  12  25  42  64  92 131 174 215 259 324 395
#     4  12  23  41  65  94 130 169 213 270 326 379
#
# _framework density 20.961596
#
# number of rings (size 3 to 8) (size 9 to 14) (size 15 to 20)
#    0.000    1.143    2.857    3.429    4.000    2.286 
#    0.000    0.000    0.000    4.286    0.000    0.000 
#    0.000    0.000    0.000    0.000    0.000    0.000 
#
# Total GULP energy -156424.465720 kJ/mol
# GULP energy per Si atom -5586.588061 kJ/mol
# Density = 2.091389 g / cm^3
# Si number density = 20.961596 Si / 1000 Ang^3
#
#
#
# Elastic Constant Matrix: (Units=GPa)
#
#
# Indices 1 2 3 4 5 6 
#
# 1 143.5833 2.2923 40.2057 0.0000 9.5142 0.0000
# 2 2.2923 37.9188 1.8709 0.0000 14.1179 0.0000
# 3 40.2057 1.8709 97.2078 0.0000 17.6112 0.0000
# 4 0.0000 0.0000 0.0000 10.1733 0.0000 21.8516
# 5 9.5142 14.1179 17.6112 0.0000 25.1159 0.0000
# 6 0.0000 0.0000 0.0000 21.8516 0.0000 -11.3995
#
#
#
# Elastic Compliance Matrix: (Units=1/GPa)
#
#
# Indices 1 2 3 4 5 6 
#
# 1 0.007891 -0.000032 -0.003121 0.000000 -0.000783 0.000000
# 2 -0.000032 0.034219 0.003250 0.000000 -0.021502 0.000000
# 3 -0.003121 0.003250 0.013325 0.000000 -0.009988 0.000000
# 4 0.000000 0.000000 0.000000 0.019208 0.000000 0.036820
# 5 -0.000783 -0.021502 -0.009988 0.000000 0.059202 0.000000
# 6 0.000000 0.000000 0.000000 0.036820 0.000000 -0.017142
#
#
# Mechanical properties :
#
#
# Convention : Reuss Voigt Hill
#
# Bulk Modulus (GPa) = 17.97604 40.82752 29.40178
# Shear Modulus (GPa) = 37.02260 20.40068 28.71164
#
# Velocity S-wave (km/s) = 4.20719 3.12307 3.70500
# Velocity P-wave (km/s) = 5.67406 5.70301 5.68855
#
# Compressibility (1/GPa) = 0.05562962
#
# Stress axis : x y z
#
# Youngs Moduli (GPa) = 126.72670 29.22328 75.04556
#
# Poissons Ratio (x) = 0.00092 0.23424
# Poissons Ratio (y) = 0.00400 -0.24390
# Poissons Ratio (z) = 0.39556 -0.09497
#
# Static dielectric constant tensor:
#      x y z
#    x 1.768200 0.000000 0.032430 
#    y 0.000000 1.751860 0.000000 
#    z 0.032430 0.000000 1.749710 
# 
# From -- ./inp_files/36093.got.cif
#   From: 2010.05.17/outbox.cif.g08.bks.cpg/sg13_19_cif.got.tgz:36093.got - 2010.06.03 16:44:36.
