data_PCOD9237249
_publ_section_title
;
Structure prediction by ZEFSAII (Michael W. Deem and Ramdas Pophale) SiO2 
 PCOD9237249
Probable space group: P 2/C
;
_chemical_formula_sum "Si O2"
_cell_formula_units_Z 22
_cell_length_a 8.024468
_cell_length_b 9.071317
_cell_length_c 17.500886
_cell_angle_alpha 90.000000
_cell_angle_beta 131.630946
_cell_angle_gamma 90.000000
_cell_volume 952.187793
_symmetry_space_group_name_H-M "P 2/C"
_symmetry_group_IT_number 13
_symmetry_cell_setting 'monoclinic'
loop_
_space_group_symop_operation_xyz
x,y,z
-x,y,1/2-z
-x,-y,-z
x,-y,1/2+z
loop_
_atom_site_type_symbol
_atom_site_label
_atom_site_fract_x
_atom_site_fract_y
_atom_site_fract_z
Si Si1 0.500000 0.955779 0.250000
Si Si2 0.815699 0.289978 0.826991
Si Si3 0.907164 0.709051 0.947582
Si Si4 0.554905 0.098029 0.408647
Si Si5 0.500000 0.466898 0.250000
Si Si6 0.000000 0.084111 0.750000
Si Si7 0.250929 0.152709 0.434913
O O1 0.312873 0.840891 0.166946
O O2 0.413389 0.060451 0.290362
O O3 0.650134 0.417788 0.747749
O O4 0.902719 0.200476 0.781602
O O5 0.975357 0.358574 0.940885
O O6 0.794821 0.854040 0.950624
O O7 0.684077 0.627395 0.850264
O O8 0.079916 0.747466 0.931507
O O9 0.431340 0.212185 0.427336
O O10 0.596837 0.942228 0.461832
O O11 0.129271 0.970320 0.845309
#
# Coordination Sequence:
#
# PCOD9237249 Si02
#       7
#     2   4   4   4   2   2   4
#     4  11  19  38  68  98 143 179 216 274 358 425
#     4  11  24  46  70  94 142 191 237 280 340 421
#     4  12  24  48  69 101 142 184 238 290 349 410
#     4  11  22  38  66 110 138 174 218 283 366 426
#     4  11  29  46  70  94 131 205 248 280 332 405
#     4  12  22  42  68 108 136 176 224 288 366 412
#     4  11  24  38  70 109 142 171 217 296 366 423
#
# _framework density 23.104686999999998
#
# number of rings (size 3 to 8) (size 9 to 14) (size 15 to 20)
#    0.000    0.727    5.455    2.727    2.545    0.000 
#    3.273    0.909    0.000    0.000    0.000    0.000 
#    0.000    0.000    0.000    0.000    0.000    0.000 
#
# Total GULP energy -122481.384560 kJ/mol
# GULP energy per Si atom -5567.335662 kJ/mol
# Density = 2.305210 g / cm^3
# Si number density = 23.104687 Si / 1000 Ang^3
#
#
#
# Elastic Constant Matrix: (Units=GPa)
#
#
# Indices 1 2 3 4 5 6 
#
# 1 125.1275 24.0094 56.8874 0.0000 -18.0567 0.0000
# 2 24.0094 37.8743 25.3707 0.0000 -3.0002 0.0000
# 3 56.8874 25.3707 106.0665 0.0000 -4.2236 0.0000
# 4 0.0000 0.0000 0.0000 38.2262 0.0000 13.0275
# 5 -18.0567 -3.0002 -4.2236 0.0000 37.5361 0.0000
# 6 0.0000 0.0000 0.0000 13.0275 0.0000 25.3978
#
#
#
# Elastic Compliance Matrix: (Units=1/GPa)
#
#
# Indices 1 2 3 4 5 6 
#
# 1 0.011756 -0.003546 -0.005267 0.000000 0.004779 0.000000
# 2 -0.003546 0.032616 -0.005890 0.000000 0.000238 0.000000
# 3 -0.005267 -0.005890 0.013603 0.000000 -0.001474 0.000000
# 4 0.000000 0.000000 0.000000 0.031702 0.000000 -0.016261
# 5 0.004779 0.000238 -0.001474 0.000000 0.028793 0.000000
# 6 0.000000 0.000000 0.000000 -0.016261 0.000000 0.047714
#
#
# Mechanical properties :
#
#
# Convention : Reuss Voigt Hill
#
# Bulk Modulus (GPa) = 35.00306 53.51147 44.25726
# Shear Modulus (GPa) = 24.37672 31.08540 27.73106
#
# Velocity S-wave (km/s) = 3.25168 3.67197 3.46820
# Velocity P-wave (km/s) = 5.41115 6.41783 5.93587
#
# Compressibility (1/GPa) = 0.02856893
#
# Stress axis : x y z
#
# Youngs Moduli (GPa) = 85.05946 30.66026 73.51252
#
# Poissons Ratio (x) = 0.10872 0.38719
# Poissons Ratio (y) = 0.30162 0.43300
# Poissons Ratio (z) = 0.44800 0.18059
#
# Static dielectric constant tensor:
#      x y z
#    x 2.039930 0.000000 0.068050 
#    y 0.000000 1.929590 0.000000 
#    z 0.068050 0.000000 1.970020 
# 
# From -- ./inp_files/63980.got.cif
#   From: 2010.05.17/outbox.cif.g08.bks.cpg/sg13_32_cif.got.tgz:63980.got - 2010.06.03 16:44:36.
