data_PCOD9237256
_publ_section_title
;
Structure prediction by ZEFSAII (Michael W. Deem and Ramdas Pophale) SiO2 
 PCOD9237256
Probable space group: P 2/C
;
_chemical_formula_sum "Si O2"
_cell_formula_units_Z 24
_cell_length_a 24.426616
_cell_length_b 8.493178
_cell_length_c 18.297838
_cell_angle_alpha 90.000000
_cell_angle_beta 17.512978
_cell_angle_gamma 90.000000
_cell_volume 1142.317908
_symmetry_space_group_name_H-M "P 2/C"
_symmetry_group_IT_number 13
_symmetry_cell_setting 'monoclinic'
loop_
_space_group_symop_operation_xyz
x,y,z
-x,y,1/2-z
-x,-y,-z
x,-y,1/2+z
loop_
_atom_site_type_symbol
_atom_site_label
_atom_site_fract_x
_atom_site_fract_y
_atom_site_fract_z
Si Si1 0.787790 0.964130 0.755371
Si Si2 0.208879 0.074810 0.974025
Si Si3 0.634817 0.754590 0.368055
Si Si4 0.304567 0.742365 0.493101
Si Si5 0.223886 0.758560 0.876226
Si Si6 0.031982 0.478787 0.046950
O O1 0.773578 0.862542 0.700383
O O2 0.673944 0.122011 0.883976
O O3 0.721259 0.857575 0.905715
O O4 0.000000 0.000000 0.500000
O O5 0.000000 0.128040 0.250000
O O6 0.311447 0.151267 0.774378
O O7 0.303184 0.143031 0.925276
O O8 0.199181 0.887438 0.971870
O O9 0.428517 0.695599 0.627662
O O10 0.782174 0.619112 0.186303
O O11 0.500000 0.659929 0.250000
O O12 0.137666 0.621007 0.706696
O O13 0.073886 0.628220 0.046144
O O14 0.000000 0.500000 0.000000
#
# Coordination Sequence:
#
# PCOD9237256 Si02
#       6
#     4   4   4   4   4   4
#     4  11  19  40  70  99 131 175 228 271 323 413
#     4  11  22  42  66  96 132 171 219 279 334 388
#     4  11  22  42  68  96 131 176 226 270 328 409
#     4  12  23  41  69 101 137 179 228 284 345 401
#     4  11  23  41  66 100 131 173 227 273 330 408
#     4  12  24  43  66  98 133 178 224 279 346 410
#
# _framework density 21.009913000000001
#
# number of rings (size 3 to 8) (size 9 to 14) (size 15 to 20)
#    0.000    0.667    5.000    5.500    0.000    0.000 
#    3.000    0.000    0.000    2.000    0.000    0.000 
#    0.000    0.000    0.000    0.000    0.000    0.000 
#
# Total GULP energy -134027.010003 kJ/mol
# GULP energy per Si atom -5584.458750 kJ/mol
# Density = 2.096209 g / cm^3
# Si number density = 21.009913 Si / 1000 Ang^3
#
#
#
# Elastic Constant Matrix: (Units=GPa)
#
#
# Indices 1 2 3 4 5 6 
#
# 1 -50.4528 132.5907 168.1568 0.0000 -32.9498 0.0000
# 2 132.5907 40.1970 -51.2027 0.0000 2.4876 0.0000
# 3 168.1568 -51.2027 9.9392 0.0000 -16.6994 0.0000
# 4 0.0000 0.0000 0.0000 12.7290 0.0000 5.3699
# 5 -32.9498 2.4876 -16.6994 0.0000 34.3367 0.0000
# 6 0.0000 0.0000 0.0000 5.3699 0.0000 17.0115
#
#
#
# Elastic Compliance Matrix: (Units=1/GPa)
#
#
# Indices 1 2 3 4 5 6 
#
# 1 0.000863 0.002791 0.004563 0.000000 0.002845 0.000000
# 2 0.002791 0.008280 -0.005841 0.000000 -0.000762 0.000000
# 3 0.004563 -0.005841 0.007644 0.000000 0.008519 0.000000
# 4 0.000000 0.000000 0.000000 0.090630 0.000000 -0.028608
# 5 0.002845 -0.000762 0.008519 0.000000 0.036051 0.000000
# 6 0.000000 0.000000 0.000000 -0.028608 0.000000 0.067814
#
#
# Mechanical properties :
#
#
# Convention : Reuss Voigt Hill
#
# Bulk Modulus (GPa) = 50.47719 55.41924 52.94821
# Shear Modulus (GPa) = 23.27100 -3.84200 9.71450
#
# Velocity S-wave (km/s) = 3.33170 -1.35375 2.15263
# Velocity P-wave (km/s) = 6.23521 4.89810 5.60666
#
# Compressibility (1/GPa) = 0.01981093
#
# Stress axis : x y z
#
# Youngs Moduli (GPa) = 1159.36851 120.77591 130.82996
#
# Poissons Ratio (x) = -0.33704 -0.59692
# Poissons Ratio (y) = -3.23539 0.76414
# Poissons Ratio (z) = -5.28971 0.70541
#
# Static dielectric constant tensor:
#      x y z
#    x 1.763180 0.000000 -0.034880 
#    y 0.000000 1.781750 0.000000 
#    z -0.034880 0.000000 1.744560 
# 
# From -- ./inp_files/71257.got.cif
#   From: 2010.05.17/outbox.cif.g08.bks.cpg/sg13_36_cif.got.tgz:71257.got - 2010.06.03 16:44:36.
