data_PCOD9237194
_publ_section_title
;
Structure prediction by ZEFSAII (Michael W. Deem and Ramdas Pophale) SiO2 
 PCOD9237194
Probable space group: P 2/C
;
_chemical_formula_sum "Si O2"
_cell_formula_units_Z 24
_cell_length_a 23.088800
_cell_length_b 10.420646
_cell_length_c 16.869866
_cell_angle_alpha 90.000000
_cell_angle_beta 20.727978
_cell_angle_gamma 90.000000
_cell_volume 1436.570555
_symmetry_space_group_name_H-M "P 2/C"
_symmetry_group_IT_number 13
_symmetry_cell_setting 'monoclinic'
loop_
_space_group_symop_operation_xyz
x,y,z
-x,y,1/2-z
-x,-y,-z
x,-y,1/2+z
loop_
_atom_site_type_symbol
_atom_site_label
_atom_site_fract_x
_atom_site_fract_y
_atom_site_fract_z
Si Si1 0.675886 0.026733 0.062506
Si Si2 0.321751 0.280924 0.942297
Si Si3 0.986156 0.122650 0.574480
Si Si4 0.989499 0.372371 0.064723
Si Si5 0.833599 0.019509 0.016187
Si Si6 0.165503 0.724394 0.484661
O O1 0.500000 0.049838 0.250000
O O2 0.713135 0.873293 0.006854
O O3 0.814653 0.105793 0.839571
O O4 0.691981 0.055327 0.135616
O O5 0.500000 0.303815 0.750000
O O6 0.183248 0.355220 0.168585
O O7 0.303394 0.312164 0.872221
O O8 0.994764 0.250916 0.513384
O O9 0.129641 0.108657 0.456299
O O10 0.000000 0.000000 0.500000
O O11 0.127644 0.360444 0.956544
O O12 0.000000 0.500000 0.000000
O O13 0.000000 0.020287 0.750000
O O14 0.809568 0.872163 0.073496
O O15 0.000000 0.723581 0.750000
#
# Coordination Sequence:
#
# PCOD9237194 Si02
#       6
#     4   4   4   4   4   4
#     4   9  17  31  52  78 101 128 166 206 250 298
#     4   9  17  33  55  74  96 132 172 202 241 304
#     4  11  17  31  52  74 100 125 163 210 252 280
#     4  11  21  33  50  78 101 132 170 206 244 291
#     4   8  14  27  49  72  96 132 163 198 248 300
#     4   8  14  29  50  70  96 130 168 196 241 304
#
# _framework density 16.706453
#
# number of rings (size 3 to 8) (size 9 to 14) (size 15 to 20)
#    0.000    2.667    3.333    2.000    0.000    0.000 
#    0.000   11.667    0.000    0.000    0.000    0.000 
#    0.000    0.000    0.000    0.000    0.000    0.000 
#
# Total GULP energy -133657.764129 kJ/mol
# GULP energy per Si atom -5569.073505 kJ/mol
# Density = 1.666843 g / cm^3
# Si number density = 16.706453 Si / 1000 Ang^3
#
#
#
# Elastic Constant Matrix: (Units=GPa)
#
#
# Indices 1 2 3 4 5 6 
#
# 1 176.4192 64.0399 44.0371 0.0000 -25.0608 0.0000
# 2 64.0399 82.1108 19.7212 0.0000 4.2964 0.0000
# 3 44.0371 19.7212 36.0304 0.0000 -14.2804 0.0000
# 4 0.0000 0.0000 0.0000 12.0040 0.0000 7.3060
# 5 -25.0608 4.2964 -14.2804 0.0000 29.7021 0.0000
# 6 0.0000 0.0000 0.0000 7.3060 0.0000 27.2608
#
#
#
# Elastic Compliance Matrix: (Units=1/GPa)
#
#
# Indices 1 2 3 4 5 6 
#
# 1 0.011012 -0.007390 -0.006557 0.000000 0.007208 0.000000
# 2 -0.007390 0.020294 -0.007055 0.000000 -0.012563 0.000000
# 3 -0.006557 -0.007055 0.046750 0.000000 0.017965 0.000000
# 4 0.000000 0.000000 0.000000 0.099542 0.000000 -0.026678
# 5 0.007208 -0.012563 0.017965 0.000000 0.050203 0.000000
# 6 0.000000 0.000000 0.000000 -0.026678 0.000000 0.043833
#
#
# Mechanical properties :
#
#
# Convention : Reuss Voigt Hill
#
# Bulk Modulus (GPa) = 27.73767 61.12854 44.43310
# Shear Modulus (GPa) = 15.35368 24.91086 20.13227
#
# Velocity S-wave (km/s) = 3.03483 3.86566 3.47516
# Velocity P-wave (km/s) = 5.37767 7.52287 6.53884
#
# Compressibility (1/GPa) = 0.03605206
#
# Stress axis : x y z
#
# Youngs Moduli (GPa) = 90.81361 49.27477 21.39054
#
# Poissons Ratio (x) = 0.36416 0.14025
# Poissons Ratio (y) = 0.67116 0.15090
# Poissons Ratio (z) = 0.59544 0.34761
#
# Static dielectric constant tensor:
#      x y z
#    x 1.618770 0.000000 -0.017980 
#    y 0.000000 1.532290 0.000000 
#    z -0.017980 0.000000 1.571070 
# 
# From -- ./inp_files/63366.got.cif
#   From: 2010.05.17/outbox.cif.g08.bks.cpg/sg13_32_cif.got.tgz:63366.got - 2010.06.03 16:44:36.
