data_PCOD9237749
_publ_section_title
;
Structure prediction by ZEFSAII (Michael W. Deem and Ramdas Pophale) SiO2 
 PCOD9237749
Probable space group: P 2/C
;
_chemical_formula_sum "Si O2"
_cell_formula_units_Z 20
_cell_length_a 10.992641
_cell_length_b 9.310787
_cell_length_c 8.825726
_cell_angle_alpha 90.000000
_cell_angle_beta 81.060120
_cell_angle_gamma 90.000000
_cell_volume 892.340768
_symmetry_space_group_name_H-M "P 2/C"
_symmetry_group_IT_number 13
_symmetry_cell_setting 'monoclinic'
loop_
_space_group_symop_operation_xyz
x,y,z
-x,y,1/2-z
-x,-y,-z
x,-y,1/2+z
loop_
_atom_site_type_symbol
_atom_site_label
_atom_site_fract_x
_atom_site_fract_y
_atom_site_fract_z
Si Si1 0.376270 0.416886 0.482473
Si Si2 0.738130 0.354592 0.303663
Si Si3 0.959712 0.664773 0.525179
Si Si4 0.198595 0.867795 0.493599
Si Si5 0.226192 0.824599 0.135428
O O1 0.500000 0.500000 0.500000
O O2 0.357518 0.396985 0.308145
O O3 0.269625 0.520459 0.570792
O O4 0.348358 0.261850 0.560771
O O5 0.862891 0.333624 0.183465
O O6 0.712181 0.212781 0.405205
O O7 0.887194 0.722721 0.391850
O O8 0.000000 0.500000 0.500000
O O9 0.071425 0.776465 0.530687
O O10 0.232973 0.855382 0.311474
O O11 0.197805 0.031319 0.547065
#
# Coordination Sequence:
#
# PCOD9237749 Si02
#       5
#     4   4   4   4   4
#     4  11  23  44  70  97 130 175 230 294 349 399
#     4  11  24  40  64  98 132 175 230 281 342 421
#     4  11  23  40  64  99 141 186 228 279 344 417
#     4  12  24  42  65  99 143 182 223 282 347 420
#     4  11  24  42  65  99 137 182 233 284 342 417
#
# _framework density 22.412962
#
# number of rings (size 3 to 8) (size 9 to 14) (size 15 to 20)
#    0.000    0.800    0.000    9.600    0.000    4.800 
#    0.000    1.000    0.000    4.800    0.000    0.000 
#    0.000    0.000    0.000    0.000    0.000    0.000 
#
# Total GULP energy -111793.710970 kJ/mol
# GULP energy per Si atom -5589.685549 kJ/mol
# Density = 2.236195 g / cm^3
# Si number density = 22.412962 Si / 1000 Ang^3
#
#
#
# Elastic Constant Matrix: (Units=GPa)
#
#
# Indices 1 2 3 4 5 6 
#
# 1 98.4393 55.8353 42.8011 0.0000 15.3192 0.0000
# 2 55.8353 187.3820 53.8643 0.0000 4.1393 0.0000
# 3 42.8011 53.8643 161.1296 0.0000 13.8406 0.0000
# 4 0.0000 0.0000 0.0000 38.9270 0.0000 14.2025
# 5 15.3192 4.1393 13.8406 0.0000 31.9272 0.0000
# 6 0.0000 0.0000 0.0000 14.2025 0.0000 37.5807
#
#
#
# Elastic Compliance Matrix: (Units=1/GPa)
#
#
# Indices 1 2 3 4 5 6 
#
# 1 0.013815 -0.003402 -0.002078 0.000000 -0.005286 0.000000
# 2 -0.003402 0.006742 -0.001470 0.000000 0.001396 0.000000
# 3 -0.002078 -0.001470 0.007424 0.000000 -0.002031 0.000000
# 4 0.000000 0.000000 0.000000 0.029798 0.000000 -0.011261
# 5 -0.005286 0.001396 -0.002031 0.000000 0.034557 0.000000
# 6 0.000000 0.000000 0.000000 -0.011261 0.000000 0.030865
#
#
# Mechanical properties :
#
#
# Convention : Reuss Voigt Hill
#
# Bulk Modulus (GPa) = 71.02257 83.55026 77.28642
# Shear Modulus (GPa) = 35.26214 41.31698 38.28956
#
# Velocity S-wave (km/s) = 3.97078 4.29819 4.13772
# Velocity P-wave (km/s) = 7.26497 7.87345 7.57532
#
# Compressibility (1/GPa) = 0.01408003
#
# Stress axis : x y z
#
# Youngs Moduli (GPa) = 72.38733 148.31919 134.69748
#
# Poissons Ratio (x) = 0.50462 0.27992
# Poissons Ratio (y) = 0.24628 0.19801
# Poissons Ratio (z) = 0.15043 0.21803
#
# Static dielectric constant tensor:
#      x y z
#    x 1.998340 0.000000 0.005180 
#    y 0.000000 1.842940 0.000000 
#    z 0.005180 0.000000 1.828650 
# 
# From -- ./inp_files/14847.got.cif
#   From: 2010.05.17/outbox.cif.g08.bks.cpg/sg13_8_cif.got.tgz:14847.got - 2010.06.03 16:44:36.
