data_PCOD9237115
_publ_section_title
;
Structure prediction by ZEFSAII (Michael W. Deem and Ramdas Pophale) SiO2 
 PCOD9237115
Probable space group: P 2/C
;
_chemical_formula_sum "Si O2"
_cell_formula_units_Z 18
_cell_length_a 7.132865
_cell_length_b 6.181514
_cell_length_c 21.959086
_cell_angle_alpha 90.000000
_cell_angle_beta 58.082297
_cell_angle_gamma 90.000000
_cell_volume 821.831486
_symmetry_space_group_name_H-M "P 2/C"
_symmetry_group_IT_number 13
_symmetry_cell_setting 'monoclinic'
loop_
_space_group_symop_operation_xyz
x,y,z
-x,y,1/2-z
-x,-y,-z
x,-y,1/2+z
loop_
_atom_site_type_symbol
_atom_site_label
_atom_site_fract_x
_atom_site_fract_y
_atom_site_fract_z
Si Si1 0.775055 0.615656 0.022218
Si Si2 0.714913 0.904777 0.927996
Si Si3 0.810438 0.928905 0.123492
Si Si4 0.514484 0.297908 0.352475
Si Si5 0.500000 0.395098 0.750000
O O1 0.784352 0.835512 0.059860
O O2 0.587004 0.460479 0.080042
O O3 0.759711 0.678922 0.955049
O O4 0.000000 0.500000 0.000000
O O5 0.668177 0.862098 0.864962
O O6 0.935401 0.043793 0.901438
O O7 0.500000 0.000000 0.000000
O O8 0.682450 0.758191 0.187814
O O9 0.680690 0.155763 0.144350
O O10 0.604789 0.450385 0.283712
#
# Coordination Sequence:
#
# PCOD9237115 Si02
#       5
#     4   4   4   4   2
#     4  11  21  40  71 103 139 172 216 279 355 410
#     4  12  23  41  76 109 138 172 224 287 358 407
#     4  11  23  45  69  98 139 183 222 290 337 405
#     4  11  23  44  70  98 135 184 228 285 332 415
#     4  10  26  48  70  86 138 194 242 272 338 402
#
# _framework density 21.902301999999999
#
# number of rings (size 3 to 8) (size 9 to 14) (size 15 to 20)
#    0.000    0.889    4.444    3.333    0.000    0.000 
#    0.000    6.667    0.000    0.000    0.000    0.000 
#    0.000    0.000    0.000    0.000    0.000    0.000 
#
# Total GULP energy -100624.906774 kJ/mol
# GULP energy per Si atom -5590.272599 kJ/mol
# Density = 2.185245 g / cm^3
# Si number density = 21.902302 Si / 1000 Ang^3
#
#
#
# Elastic Constant Matrix: (Units=GPa)
#
#
# Indices 1 2 3 4 5 6 
#
# 1 143.6785 33.5442 49.2305 0.0000 -1.8991 0.0000
# 2 33.5442 73.3785 27.4268 0.0000 -2.2026 0.0000
# 3 49.2305 27.4268 76.7242 0.0000 10.2518 0.0000
# 4 0.0000 0.0000 0.0000 39.8565 0.0000 1.2750
# 5 -1.8991 -2.2026 10.2518 0.0000 20.3947 0.0000
# 6 0.0000 0.0000 0.0000 1.2750 0.0000 42.5440
#
#
#
# Elastic Compliance Matrix: (Units=1/GPa)
#
#
# Indices 1 2 3 4 5 6 
#
# 1 0.009485 -0.002047 -0.005834 0.000000 0.003595 0.000000
# 2 -0.002047 0.016632 -0.005196 0.000000 0.004217 0.000000
# 3 -0.005834 -0.005196 0.020135 0.000000 -0.011225 0.000000
# 4 0.000000 0.000000 0.000000 0.025114 0.000000 -0.000753
# 5 0.003595 0.004217 -0.011225 0.000000 0.055465 0.000000
# 6 0.000000 0.000000 0.000000 -0.000753 0.000000 0.023528
#
#
# Mechanical properties :
#
#
# Convention : Reuss Voigt Hill
#
# Bulk Modulus (GPa) = 49.75787 57.13158 53.44472
# Shear Modulus (GPa) = 27.29087 32.79768 30.04427
#
# Velocity S-wave (km/s) = 3.53374 3.87389 3.70772
# Velocity P-wave (km/s) = 6.27831 6.79343 6.54095
#
# Compressibility (1/GPa) = 0.02009732
#
# Stress axis : x y z
#
# Youngs Moduli (GPa) = 105.43472 60.12385 49.66592
#
# Poissons Ratio (x) = 0.12308 0.28977
# Poissons Ratio (y) = 0.21584 0.25804
# Poissons Ratio (z) = 0.61514 0.31238
#
# Static dielectric constant tensor:
#      x y z
#    x 1.817640 0.000000 0.013000 
#    y 0.000000 1.956180 0.000000 
#    z 0.013000 0.000000 1.813150 
# 
# From -- ./inp_files/82984.got.cif
#   From: 2010.05.17/outbox.cif.g08.bks.cpg/sg13_42_cif.got.tgz:82984.got - 2010.06.03 16:44:36.
