data_PCOD9237027
_publ_section_title
;
Structure prediction by ZEFSAII (Michael W. Deem and Ramdas Pophale) SiO2 
 PCOD9237027
Probable space group: P 2/C
;
_chemical_formula_sum "Si O2"
_cell_formula_units_Z 24
_cell_length_a 18.024930
_cell_length_b 14.375538
_cell_length_c 9.536993
_cell_angle_alpha 90.000000
_cell_angle_beta 26.876682
_cell_angle_gamma 90.000000
_cell_volume 1117.162911
_symmetry_space_group_name_H-M "P 2/C"
_symmetry_group_IT_number 13
_symmetry_cell_setting 'monoclinic'
loop_
_space_group_symop_operation_xyz
x,y,z
-x,y,1/2-z
-x,-y,-z
x,-y,1/2+z
loop_
_atom_site_type_symbol
_atom_site_label
_atom_site_fract_x
_atom_site_fract_y
_atom_site_fract_z
Si Si1 0.500000 0.978379 0.250000
Si Si2 0.130117 0.309875 0.798591
Si Si3 0.503475 0.687557 0.946925
Si Si4 0.000000 0.831142 0.750000
Si Si5 0.659933 0.887924 0.248443
Si Si6 0.000000 0.385395 0.750000
Si Si7 0.254111 0.529968 0.249108
Si Si8 0.500000 0.394094 0.750000
O O1 0.600665 0.917074 0.192976
O O2 0.400966 0.044318 0.524734
O O3 0.321505 0.302568 0.426729
O O4 0.009236 0.320538 0.870752
O O5 0.122238 0.405848 0.896852
O O6 0.077060 0.231151 0.995968
O O7 0.407048 0.784598 0.103566
O O8 0.387638 0.601369 0.090603
O O9 0.536568 0.665812 0.053205
O O10 0.145198 0.888682 0.573334
O O11 0.156012 0.453966 0.504009
O O12 0.349728 0.464452 0.978352
#
# Coordination Sequence:
#
# PCOD9237027 Si02
#       8
#     2   4   4   2   4   2   4   2
#     4  10  25  51  80 104 136 172 224 273 359 444
#     4  12  25  44  62  97 137 191 232 291 336 398
#     4  12  24  43  69  96 137 186 237 277 339 410
#     4  12  27  44  76 105 142 176 228 285 358 404
#     4  11  25  47  77 108 135 178 221 286 349 431
#     4  12  27  40  60  93 146 186 244 299 336 372
#     4  12  23  41  63  95 138 192 242 284 329 392
#     4  12  23  37  64  98 136 192 248 281 319 394
#
# _framework density 21.482991999999999
#
# number of rings (size 3 to 8) (size 9 to 14) (size 15 to 20)
#    0.000    0.333    5.000    4.000    2.333    2.000 
#    0.000    0.000    0.000    0.000    0.000    0.000 
#    0.000    0.000    0.000    0.000    0.000    0.000 
#
# Total GULP energy -134076.628774 kJ/mol
# GULP energy per Si atom -5586.526199 kJ/mol
# Density = 2.143410 g / cm^3
# Si number density = 21.482992 Si / 1000 Ang^3
#
#
#
# Elastic Constant Matrix: (Units=GPa)
#
#
# Indices 1 2 3 4 5 6 
#
# 1 161.8541 47.9404 63.5045 0.0000 11.2154 0.0000
# 2 47.9404 72.9092 40.9629 0.0000 -5.9665 0.0000
# 3 63.5045 40.9629 104.9734 0.0000 -1.0386 0.0000
# 4 0.0000 0.0000 0.0000 -125.0226 0.0000 118.1243
# 5 11.2154 -5.9665 -1.0386 0.0000 36.7063 0.0000
# 6 0.0000 0.0000 0.0000 118.1243 0.0000 -83.3212
#
#
#
# Elastic Compliance Matrix: (Units=1/GPa)
#
#
# Indices 1 2 3 4 5 6 
#
# 1 0.009216 -0.004101 -0.004011 0.000000 -0.003596 0.000000
# 2 -0.004101 0.019656 -0.005147 0.000000 0.004302 0.000000
# 3 -0.004011 -0.005147 0.013969 0.000000 0.000784 0.000000
# 4 0.000000 0.000000 0.000000 0.023562 0.000000 0.033403
# 5 -0.003596 0.004302 0.000784 0.000000 0.029063 0.000000
# 6 0.000000 0.000000 0.000000 0.033403 0.000000 0.035354
#
#
# Mechanical properties :
#
#
# Convention : Reuss Voigt Hill
#
# Bulk Modulus (GPa) = 61.25933 71.61693 66.43813
# Shear Modulus (GPa) = 30.71693 -21.83891 4.43901
#
# Velocity S-wave (km/s) = 3.78541 -3.19182 1.43902
# Velocity P-wave (km/s) = 6.90528 4.45256 5.80983
#
# Compressibility (1/GPa) = 0.01632404
#
# Stress axis : x y z
#
# Youngs Moduli (GPa) = 108.51013 50.87564 71.58925
#
# Poissons Ratio (x) = 0.20862 0.28711
# Poissons Ratio (y) = 0.44497 0.36846
# Poissons Ratio (z) = 0.43518 0.26185
#
# Static dielectric constant tensor:
#      x y z
#    x 1.803070 0.000000 -0.006970 
#    y 0.000000 1.749360 0.000000 
#    z -0.006970 0.000000 1.831040 
# 
# From -- ./inp_files/21930.got.cif
#   From: 2010.05.17/outbox.cif.g08.bks.cpg/sg13_11_cif.got.tgz:21930.got - 2010.06.03 16:44:36.
