data_PCOD9237697
_publ_section_title
;
Structure prediction by ZEFSAII (Michael W. Deem and Ramdas Pophale) SiO2 
 PCOD9237697
Probable space group: P 2/C
;
_chemical_formula_sum "Si O2"
_cell_formula_units_Z 20
_cell_length_a 8.962771
_cell_length_b 7.894575
_cell_length_c 24.770678
_cell_angle_alpha 90.000000
_cell_angle_beta 149.774413
_cell_angle_gamma 90.000000
_cell_volume 882.322222
_symmetry_space_group_name_H-M "P 2/C"
_symmetry_group_IT_number 13
_symmetry_cell_setting 'monoclinic'
loop_
_space_group_symop_operation_xyz
x,y,z
-x,y,1/2-z
-x,-y,-z
x,-y,1/2+z
loop_
_atom_site_type_symbol
_atom_site_label
_atom_site_fract_x
_atom_site_fract_y
_atom_site_fract_z
Si Si1 0.309626 0.595803 0.099827
Si Si2 0.872363 0.761405 0.150685
Si Si3 0.191099 0.896818 0.147488
Si Si4 0.072539 0.606011 0.711376
Si Si5 0.240170 0.822737 0.974966
O O1 0.263914 0.737204 0.132063
O O2 0.594540 0.470626 0.192851
O O3 0.330851 0.692282 0.049915
O O4 0.000000 0.500000 0.000000
O O5 0.000000 0.792386 0.250000
O O6 0.094202 0.831357 0.175660
O O7 0.863420 0.559426 0.139186
O O8 0.555869 0.847060 0.045471
O O9 0.500000 0.995636 0.250000
O O10 0.921276 0.018878 0.047280
O O11 0.000000 0.666699 0.750000
O O12 0.983301 0.741823 0.638559
#
# Coordination Sequence:
#
# PCOD9237697 Si02
#       5
#     4   4   4   4   4
#     4  12  27  45  74 103 142 185 239 294 355 427
#     4  11  22  47  72 100 143 190 235 288 354 430
#     4  12  26  45  70 104 149 182 233 302 361 419
#     4  11  24  46  74 106 140 189 243 294 348 432
#     4  12  26  45  72 104 141 189 236 293 365 425
#
# _framework density 22.667455
#
# number of rings (size 3 to 8) (size 9 to 14) (size 15 to 20)
#    0.000    0.400    6.000    3.000    5.600    0.800 
#    0.000    0.000    0.000    0.000    0.000    0.000 
#    0.000    0.000    0.000    0.000    0.000    0.000 
#
# Total GULP energy -111815.712367 kJ/mol
# GULP energy per Si atom -5590.785618 kJ/mol
# Density = 2.261586 g / cm^3
# Si number density = 22.667455 Si / 1000 Ang^3
#
#
#
# Elastic Constant Matrix: (Units=GPa)
#
#
# Indices 1 2 3 4 5 6 
#
# 1 150.8411 40.3821 62.5348 0.0000 19.5152 0.0000
# 2 40.3821 51.4996 52.3254 0.0000 4.8925 0.0000
# 3 62.5348 52.3254 115.0728 0.0000 29.8264 0.0000
# 4 0.0000 0.0000 0.0000 -26.6070 0.0000 29.2330
# 5 19.5152 4.8925 29.8264 0.0000 50.2642 0.0000
# 6 0.0000 0.0000 0.0000 29.2330 0.0000 10.9770
#
#
#
# Elastic Compliance Matrix: (Units=1/GPa)
#
#
# Indices 1 2 3 4 5 6 
#
# 1 0.009053 -0.004405 -0.002502 0.000000 -0.001602 0.000000
# 2 -0.004405 0.040695 -0.018350 0.000000 0.008638 0.000000
# 3 -0.002502 -0.018350 0.020892 0.000000 -0.009640 0.000000
# 4 0.000000 0.000000 0.000000 -0.009573 0.000000 0.025495
# 5 -0.001602 0.008638 -0.009640 0.000000 0.025396 0.000000
# 6 0.000000 0.000000 0.000000 0.025495 0.000000 0.023204
#
#
# Mechanical properties :
#
#
# Convention : Reuss Voigt Hill
#
# Bulk Modulus (GPa) = 49.68269 69.76644 59.72456
# Shear Modulus (GPa) = 29.95997 17.73825 23.84911
#
# Velocity S-wave (km/s) = 3.63949 2.80043 3.24717
# Velocity P-wave (km/s) = 6.29498 6.42663 6.36115
#
# Compressibility (1/GPa) = 0.02012774
#
# Stress axis : x y z
#
# Youngs Moduli (GPa) = 110.45993 24.57311 47.86463
#
# Poissons Ratio (x) = 0.10824 0.11975
# Poissons Ratio (y) = 0.48654 0.87831
# Poissons Ratio (z) = 0.27634 0.45091
#
# Static dielectric constant tensor:
#      x y z
#    x 2.034690 0.000000 0.089390 
#    y 0.000000 1.895570 0.000000 
#    z 0.089390 0.000000 1.901760 
# 
# From -- ./inp_files/28126.got.cif
#   From: 2010.05.17/outbox.cif.g08.bks.cpg/sg13_15_cif.got.tgz:28126.got - 2010.06.03 16:44:36.
