data_PCOD9237202
_publ_section_title
;
Structure prediction by ZEFSAII (Michael W. Deem and Ramdas Pophale) SiO2 
 PCOD9237202
Probable space group: P 2/C
;
_chemical_formula_sum "Si O2"
_cell_formula_units_Z 26
_cell_length_a 17.474759
_cell_length_b 14.437950
_cell_length_c 9.842338
_cell_angle_alpha 90.000000
_cell_angle_beta 36.332566
_cell_angle_gamma 90.000000
_cell_volume 1471.235577
_symmetry_space_group_name_H-M "P 2/C"
_symmetry_group_IT_number 13
_symmetry_cell_setting 'monoclinic'
loop_
_space_group_symop_operation_xyz
x,y,z
-x,y,1/2-z
-x,-y,-z
x,-y,1/2+z
loop_
_atom_site_type_symbol
_atom_site_label
_atom_site_fract_x
_atom_site_fract_y
_atom_site_fract_z
Si Si1 0.321964 0.724183 0.274808
Si Si2 0.603167 0.801693 0.837561
Si Si3 0.500000 0.936642 0.750000
Si Si4 0.593556 0.465830 0.740228
Si Si5 0.746421 0.953943 0.789622
Si Si6 0.344824 0.657723 0.945061
Si Si7 0.145529 0.900833 0.585823
O O1 0.321787 0.622675 0.341676
O O2 0.231066 0.807444 0.452262
O O3 0.470359 0.758543 0.083887
O O4 0.292378 0.702278 0.158054
O O5 0.552155 0.873661 0.797122
O O6 0.695935 0.856315 0.804723
O O7 0.679438 0.722572 0.648173
O O8 0.617772 0.997579 0.530428
O O9 0.500000 0.439824 0.750000
O O10 0.678226 0.552101 0.564442
O O11 0.500000 0.500000 0.000000
O O12 0.842003 0.938764 0.778745
O O13 0.800344 0.020413 0.594382
O O14 0.500000 0.659527 0.750000
O O15 0.000000 0.880956 0.750000
#
# Coordination Sequence:
#
# PCOD9237202 Si02
#       7
#     4   4   2   4   4   4   4
#     4  11  21  36  58  87 123 154 190 242 298 361
#     4  11  18  32  57  88 121 150 183 235 311 356
#     4  12  18  36  58  88 124 146 184 238 322 356
#     4  11  19  32  54  91 126 151 182 230 309 371
#     4  12  24  39  60  88 117 155 201 254 297 360
#     4   9  17  32  54  84 124 158 173 224 302 359
#     4  12  27  44  60  81 116 167 211 247 287 345
#
# _framework density 17.672221
#
# number of rings (size 3 to 8) (size 9 to 14) (size 15 to 20)
#    0.000    0.923   10.000    1.846    2.154    0.000 
#    0.000    0.000    0.000    0.923    0.000    0.000 
#    0.000    0.000    0.000    0.000    0.000    0.000 
#
# Total GULP energy -145063.655932 kJ/mol
# GULP energy per Si atom -5579.371382 kJ/mol
# Density = 1.763200 g / cm^3
# Si number density = 17.672221 Si / 1000 Ang^3
#
#
#
# Elastic Constant Matrix: (Units=GPa)
#
#
# Indices 1 2 3 4 5 6 
#
# 1 97.6713 38.2960 20.9093 0.0000 7.6570 0.0000
# 2 38.2960 117.9591 16.4540 0.0000 2.1383 0.0000
# 3 20.9093 16.4540 14.7840 0.0000 0.2008 0.0000
# 4 0.0000 0.0000 0.0000 45.9089 0.0000 40.4297
# 5 7.6570 2.1383 0.2008 0.0000 13.8929 0.0000
# 6 0.0000 0.0000 0.0000 40.4297 0.0000 51.3739
#
#
#
# Elastic Compliance Matrix: (Units=1/GPa)
#
#
# Indices 1 2 3 4 5 6 
#
# 1 0.016074 -0.002266 -0.020101 0.000000 -0.008220 0.000000
# 2 -0.002266 0.010382 -0.008347 0.000000 -0.000228 0.000000
# 3 -0.020101 -0.008347 0.105212 0.000000 0.010843 0.000000
# 4 0.000000 0.000000 0.000000 0.070962 0.000000 -0.055845
# 5 -0.008220 -0.000228 0.010843 0.000000 0.076388 0.000000
# 6 0.000000 0.000000 0.000000 -0.055845 0.000000 0.063414
#
#
# Mechanical properties :
#
#
# Convention : Reuss Voigt Hill
#
# Bulk Modulus (GPa) = 14.23660 42.41477 28.32568
# Shear Modulus (GPa) = 11.70211 32.55213 22.12712
#
# Velocity S-wave (km/s) = 2.57607 4.29650 3.54232
# Velocity P-wave (km/s) = 4.11359 6.97611 5.72659
#
# Compressibility (1/GPa) = 0.07024150
#
# Stress axis : x y z
#
# Youngs Moduli (GPa) = 62.21075 96.32508 9.50458
#
# Poissons Ratio (x) = 0.21825 0.19105
# Poissons Ratio (y) = 0.14095 0.07933
# Poissons Ratio (z) = 1.25050 0.80399
#
# Static dielectric constant tensor:
#      x y z
#    x 1.620270 0.000000 0.083620 
#    y 0.000000 1.656180 0.000000 
#    z 0.083620 0.000000 1.687020 
# 
# From -- ./inp_files/19845.got.cif
#   From: 2010.05.17/outbox.cif.g08.bks.cpg/sg13_10_cif.got.tgz:19845.got - 2010.06.03 16:44:36.
