data_PCOD9237950
_publ_section_title
;
Structure prediction by ZEFSAII (Michael W. Deem and Ramdas Pophale) SiO2 
 PCOD9237950
Probable space group: P 2/C
;
_chemical_formula_sum "Si O2"
_cell_formula_units_Z 30
_cell_length_a 10.434091
_cell_length_b 6.174131
_cell_length_c 20.934760
_cell_angle_alpha 90.000000
_cell_angle_beta 65.142046
_cell_angle_gamma 90.000000
_cell_volume 1223.698994
_symmetry_space_group_name_H-M "P 2/C"
_symmetry_group_IT_number 13
_symmetry_cell_setting 'monoclinic'
loop_
_space_group_symop_operation_xyz
x,y,z
-x,y,1/2-z
-x,-y,-z
x,-y,1/2+z
loop_
_atom_site_type_symbol
_atom_site_label
_atom_site_fract_x
_atom_site_fract_y
_atom_site_fract_z
Si Si1 0.935499 0.189807 0.560013
Si Si2 0.692083 0.456422 0.121452
Si Si3 0.384689 0.994648 0.578139
Si Si4 0.586221 0.269642 0.806365
Si Si5 0.250667 0.565446 0.642293
Si Si6 0.763667 0.293284 0.974830
Si Si7 0.000000 0.751012 0.750000
Si Si8 0.777928 0.926336 0.699703
O O1 0.073164 0.330539 0.545176
O O2 0.805901 0.358235 0.576110
O O3 0.000000 0.000000 0.500000
O O4 0.878392 0.059310 0.632041
O O5 0.551825 0.582011 0.174095
O O6 0.679967 0.312822 0.058899
O O7 0.735353 0.290231 0.169080
O O8 0.344505 0.777582 0.621764
O O9 0.500000 0.000000 0.500000
O O10 0.441645 0.148784 0.621183
O O11 0.249556 0.073876 0.564558
O O12 0.713447 0.426499 0.802456
O O13 0.647964 0.085179 0.746390
O O14 0.290227 0.459716 0.566577
O O15 0.084535 0.612419 0.680150
O O16 0.874831 0.878377 0.741091
#
# Coordination Sequence:
#
# PCOD9237950 Si02
#       8
#     4   4   4   4   4   4   2   4
#     4  12  28  47  77 117 154 210 276 337 415 482
#     4  12  28  53  79 117 167 210 269 341 409 500
#     4  11  23  45  78 111 151 206 258 331 396 477
#     4  11  28  50  76 118 157 214 270 324 415 492
#     4  11  25  45  78 115 156 208 265 335 402 479
#     4  11  25  45  79 116 156 203 270 330 403 487
#     4  12  26  50  80 108 158 202 272 334 402 476
#     4  12  29  53  79 116 160 221 266 344 411 487
#
# _framework density 24.515832
#
# number of rings (size 3 to 8) (size 9 to 14) (size 15 to 20)
#    0.000    0.533    2.667    3.600   11.200    3.733 
#    2.400    0.000    0.000    0.000    0.000    0.000 
#    0.000    0.000    0.000    0.000    0.000    0.000 
#
# Total GULP energy -167569.914350 kJ/mol
# GULP energy per Si atom -5585.663812 kJ/mol
# Density = 2.446003 g / cm^3
# Si number density = 24.515832 Si / 1000 Ang^3
#
#
#
# Elastic Constant Matrix: (Units=GPa)
#
#
# Indices 1 2 3 4 5 6 
#
# 1 111.5926 39.8787 34.4539 0.0000 -11.5247 0.0000
# 2 39.8787 102.8221 47.7594 0.0000 5.5093 0.0000
# 3 34.4539 47.7594 166.5932 0.0000 -6.9483 0.0000
# 4 0.0000 0.0000 0.0000 45.9678 0.0000 -9.4756
# 5 -11.5247 5.5093 -6.9483 0.0000 44.5468 0.0000
# 6 0.0000 0.0000 0.0000 -9.4756 0.0000 35.5607
#
#
#
# Elastic Compliance Matrix: (Units=1/GPa)
#
#
# Indices 1 2 3 4 5 6 
#
# 1 0.011023 -0.003978 -0.001006 0.000000 0.003187 0.000000
# 2 -0.003978 0.012818 -0.002980 0.000000 -0.003079 0.000000
# 3 -0.001006 -0.002980 0.007116 0.000000 0.001218 0.000000
# 4 0.000000 0.000000 0.000000 0.023019 0.000000 0.006134
# 5 0.003187 -0.003079 0.001218 0.000000 0.023844 0.000000
# 6 0.000000 0.000000 0.000000 0.006134 0.000000 0.029755
#
#
# Mechanical properties :
#
#
# Convention : Reuss Voigt Hill
#
# Bulk Modulus (GPa) = 66.54856 69.46578 68.00717
# Shear Modulus (GPa) = 38.90664 42.47614 40.69139
#
# Velocity S-wave (km/s) = 3.98804 4.16697 4.07848
# Velocity P-wave (km/s) = 6.95773 7.17970 7.06959
#
# Compressibility (1/GPa) = 0.01502662
#
# Stress axis : x y z
#
# Youngs Moduli (GPa) = 90.72213 78.01627 140.52944
#
# Poissons Ratio (x) = 0.31038 0.14140
# Poissons Ratio (y) = 0.36093 0.41882
# Poissons Ratio (z) = 0.09128 0.23251
#
# Static dielectric constant tensor:
#      x y z
#    x 1.731530 0.000000 -0.067460 
#    y 0.000000 2.193420 0.000000 
#    z -0.067460 0.000000 1.891290 
# 
# From -- ./inp_files/79310.got.cif
#   From: 2010.05.17/outbox.cif.g08.bks.cpg/sg13_40_cif.got.tgz:79310.got - 2010.06.03 16:44:36.
