data_PCOD9237240
_publ_section_title
;
Structure prediction by ZEFSAII (Michael W. Deem and Ramdas Pophale) SiO2 
 PCOD9237240
Probable space group: P 2/C
;
_chemical_formula_sum "Si O2"
_cell_formula_units_Z 24
_cell_length_a 11.844187
_cell_length_b 13.812126
_cell_length_c 12.722676
_cell_angle_alpha 90.000000
_cell_angle_beta 34.424378
_cell_angle_gamma 90.000000
_cell_volume 1176.622320
_symmetry_space_group_name_H-M "P 2/C"
_symmetry_group_IT_number 13
_symmetry_cell_setting 'monoclinic'
loop_
_space_group_symop_operation_xyz
x,y,z
-x,y,1/2-z
-x,-y,-z
x,-y,1/2+z
loop_
_atom_site_type_symbol
_atom_site_label
_atom_site_fract_x
_atom_site_fract_y
_atom_site_fract_z
Si Si1 0.417757 0.849023 0.115769
Si Si2 0.380384 0.052448 0.240027
Si Si3 0.789058 0.647748 0.458229
Si Si4 0.496566 0.641777 0.026457
Si Si5 0.233514 0.474248 0.319685
Si Si6 0.031676 0.852280 0.110534
O O1 0.514130 0.745900 0.066956
O O2 0.186461 0.829104 0.265368
O O3 0.414870 0.938506 0.197477
O O4 0.533166 0.891252 0.925935
O O5 0.500000 0.085712 0.250000
O O6 0.153812 0.080793 0.438130
O O7 0.633433 0.653716 0.482001
O O8 0.724897 0.580284 0.603112
O O9 0.844772 0.753800 0.461744
O O10 0.000000 0.610508 0.250000
O O11 0.373181 0.567508 0.193343
O O12 0.701782 0.595178 0.827177
O O13 0.000000 0.500000 0.500000
O O14 0.000000 0.899650 0.250000
#
# Coordination Sequence:
#
# PCOD9237240 Si02
#       6
#     4   4   4   4   4   4
#     4  11  22  38  59  87 116 155 196 244 296 345
#     4  11  22  36  58  85 120 156 197 242 291 353
#     4  11  19  36  62  85 113 145 193 246 290 343
#     4  11  22  38  58  86 114 150 192 241 293 347
#     4  11  22  36  58  84 115 146 186 238 291 348
#     4  11  19  36  62  87 116 149 199 248 294 338
#
# _framework density 20.397371
#
# number of rings (size 3 to 8) (size 9 to 14) (size 15 to 20)
#    0.000    1.000    6.667    2.000    0.000    0.000 
#    0.000    3.333    0.000    0.000    0.000    0.000 
#    0.000    0.000    0.000    0.000    0.000    0.000 
#
# Total GULP energy -134080.068521 kJ/mol
# GULP energy per Si atom -5586.669522 kJ/mol
# Density = 2.035095 g / cm^3
# Si number density = 20.397371 Si / 1000 Ang^3
#
#
#
# Elastic Constant Matrix: (Units=GPa)
#
#
# Indices 1 2 3 4 5 6 
#
# 1 22.6306 -5.1576 20.3908 0.0000 0.5734 0.0000
# 2 -5.1576 130.1687 74.1328 0.0000 14.4767 0.0000
# 3 20.3908 74.1328 159.4972 0.0000 1.4105 0.0000
# 4 0.0000 0.0000 0.0000 18.4095 0.0000 5.6558
# 5 0.5734 14.4767 1.4105 0.0000 30.4899 0.0000
# 6 0.0000 0.0000 0.0000 5.6558 0.0000 32.4930
#
#
#
# Elastic Compliance Matrix: (Units=1/GPa)
#
#
# Indices 1 2 3 4 5 6 
#
# 1 0.056930 0.009428 -0.011616 0.000000 -0.005010 0.000000
# 2 0.009428 0.012742 -0.007075 0.000000 -0.005900 0.000000
# 3 -0.011616 -0.007075 0.011016 0.000000 0.003068 0.000000
# 4 0.000000 0.000000 0.000000 0.057389 0.000000 -0.009989
# 5 -0.005010 -0.005900 0.003068 0.000000 0.035551 0.000000
# 6 0.000000 0.000000 0.000000 -0.009989 0.000000 0.032515
#
#
# Mechanical properties :
#
#
# Convention : Reuss Voigt Hill
#
# Bulk Modulus (GPa) = 16.08708 54.55875 35.32291
# Shear Modulus (GPa) = 20.37579 31.14049 25.75814
#
# Velocity S-wave (km/s) = 3.16403 3.91153 3.55747
# Velocity P-wave (km/s) = 4.61000 6.87067 5.85056
#
# Compressibility (1/GPa) = 0.06216167
#
# Stress axis : x y z
#
# Youngs Moduli (GPa) = 17.56541 78.48328 90.77542
#
# Poissons Ratio (x) = -0.73997 1.05446
# Poissons Ratio (y) = -0.16561 0.64227
# Poissons Ratio (z) = 0.20404 0.55530
#
# Static dielectric constant tensor:
#      x y z
#    x 1.723410 0.000000 -0.024040 
#    y 0.000000 1.754260 0.000000 
#    z -0.024040 0.000000 1.693620 
# 
# From -- ./inp_files/53632.got.cif
#   From: 2010.05.17/outbox.cif.g08.bks.cpg/sg13_27_cif.got.tgz:53632.got - 2010.06.03 16:44:36.
