data_PCOD9237338
_publ_section_title
;
Structure prediction by ZEFSAII (Michael W. Deem and Ramdas Pophale) SiO2 
 PCOD9237338
Probable space group: P 2/C
;
_chemical_formula_sum "Si O2"
_cell_formula_units_Z 30
_cell_length_a 14.919523
_cell_length_b 13.953701
_cell_length_c 14.594603
_cell_angle_alpha 90.000000
_cell_angle_beta 29.351284
_cell_angle_gamma 90.000000
_cell_volume 1489.282222
_symmetry_space_group_name_H-M "P 2/C"
_symmetry_group_IT_number 13
_symmetry_cell_setting 'monoclinic'
loop_
_space_group_symop_operation_xyz
x,y,z
-x,y,1/2-z
-x,-y,-z
x,-y,1/2+z
loop_
_atom_site_type_symbol
_atom_site_label
_atom_site_fract_x
_atom_site_fract_y
_atom_site_fract_z
Si Si1 0.872265 0.463738 0.729675
Si Si2 0.299182 0.775359 0.431933
Si Si3 0.568634 0.669256 0.585374
Si Si4 0.844449 0.843206 0.309115
Si Si5 0.000000 0.376764 0.250000
Si Si6 0.179086 0.630050 0.852846
Si Si7 0.827149 0.060779 0.334893
Si Si8 0.973350 0.814491 0.985439
O O1 0.967710 0.549702 0.697453
O O2 0.800916 0.522193 0.704970
O O3 0.029740 0.386834 0.566537
O O4 0.707008 0.414382 0.930293
O O5 0.500000 0.734613 0.250000
O O6 0.305716 0.864858 0.496376
O O7 0.208027 0.806173 0.416391
O O8 0.168401 0.693649 0.586812
O O9 0.500000 0.657738 0.750000
O O10 0.685879 0.765846 0.467237
O O11 0.380158 0.666535 0.697118
O O12 0.928375 0.831793 0.132011
O O13 0.000000 0.832852 0.250000
O O14 0.766559 0.951496 0.382490
O O15 0.081999 0.713922 0.881123
O O16 0.000000 0.061640 0.250000
O O17 0.900827 0.104243 0.173805
#
# Coordination Sequence:
#
# PCOD9237338 Si02
#       8
#     4   4   4   4   2   4   4   4
#     4  11  24  42  66  94 133 173 223 272 338 390
#     4  11  23  42  70 101 133 167 219 282 341 403
#     4  12  26  42  64  95 133 181 226 268 327 401
#     4  11  24  42  67  97 136 183 226 275 334 399
#     4  12  22  42  66  94 132 172 212 274 334 390
#     4  11  23  43  67  94 134 170 222 280 328 401
#     4   9  20  42  68  98 133 171 222 279 338 403
#     4  11  20  44  69  97 133 178 220 279 342 392
#
# _framework density 20.143930999999998
#
# number of rings (size 3 to 8) (size 9 to 14) (size 15 to 20)
#    0.000    1.067    4.667    2.400    0.933    4.267 
#    0.000    4.000    0.000    0.000    0.000    0.000 
#    0.000    0.000    0.000    0.000    0.000    0.000 
#
# Total GULP energy -167414.895513 kJ/mol
# GULP energy per Si atom -5580.496517 kJ/mol
# Density = 2.009808 g / cm^3
# Si number density = 20.143931 Si / 1000 Ang^3
#
#
#
# Elastic Constant Matrix: (Units=GPa)
#
#
# Indices 1 2 3 4 5 6 
#
# 1 155.0527 -0.8745 117.5901 0.0000 -22.7438 0.0000
# 2 -0.8745 149.1936 31.0231 0.0000 9.9038 0.0000
# 3 117.5901 31.0231 190.3624 0.0000 -29.0302 0.0000
# 4 0.0000 0.0000 0.0000 144.6340 0.0000 -13.2189
# 5 -22.7438 9.9038 -29.0302 0.0000 51.9993 0.0000
# 6 0.0000 0.0000 0.0000 -13.2189 0.0000 32.3909
#
#
#
# Elastic Compliance Matrix: (Units=1/GPa)
#
#
# Indices 1 2 3 4 5 6 
#
# 1 0.012585 0.001673 -0.007931 0.000000 0.000758 0.000000
# 2 0.001673 0.007384 -0.002557 0.000000 -0.002102 0.000000
# 3 -0.007931 -0.002557 0.011055 0.000000 0.003190 0.000000
# 4 0.000000 0.000000 0.000000 0.007182 0.000000 0.002931
# 5 0.000758 -0.002102 0.003190 0.000000 0.021744 0.000000
# 6 0.000000 0.000000 0.000000 0.002931 0.000000 0.032069
#
#
# Mechanical properties :
#
#
# Convention : Reuss Voigt Hill
#
# Bulk Modulus (GPa) = 74.66466 87.78733 81.22600
# Shear Modulus (GPa) = 43.81607 68.92951 56.37279
#
# Velocity S-wave (km/s) = 4.66891 5.85600 5.29582
# Velocity P-wave (km/s) = 8.13701 9.45507 8.82070
#
# Compressibility (1/GPa) = 0.01339322
#
# Stress axis : x y z
#
# Youngs Moduli (GPa) = 79.46237 135.43208 90.45477
#
# Poissons Ratio (x) = -0.22651 0.71736
# Poissons Ratio (y) = -0.13290 0.23130
# Poissons Ratio (z) = 0.63019 0.34631
#
# Static dielectric constant tensor:
#      x y z
#    x 1.812440 0.000000 0.051440 
#    y 0.000000 1.725130 0.000000 
#    z 0.051440 0.000000 1.699340 
# 
# From -- ./inp_files/53856.got.cif
#   From: 2010.05.17/outbox.cif.g08.bks.cpg/sg13_27_cif.got.tgz:53856.got - 2010.06.03 16:44:36.
