data_PCOD9237084
_publ_section_title
;
Structure prediction by ZEFSAII (Michael W. Deem and Ramdas Pophale) SiO2 
 PCOD9237084
Probable space group: P 2/C
;
_chemical_formula_sum "Si O2"
_cell_formula_units_Z 22
_cell_length_a 11.934341
_cell_length_b 5.475007
_cell_length_c 29.306365
_cell_angle_alpha 90.000000
_cell_angle_beta 30.062957
_cell_angle_gamma 90.000000
_cell_volume 959.269370
_symmetry_space_group_name_H-M "P 2/C"
_symmetry_group_IT_number 13
_symmetry_cell_setting 'monoclinic'
loop_
_space_group_symop_operation_xyz
x,y,z
-x,y,1/2-z
-x,-y,-z
x,-y,1/2+z
loop_
_atom_site_type_symbol
_atom_site_label
_atom_site_fract_x
_atom_site_fract_y
_atom_site_fract_z
Si Si1 0.332229 0.206383 0.852149
Si Si2 0.086450 0.205741 0.561286
Si Si3 0.081467 0.476447 0.298653
Si Si4 0.747612 0.900759 0.915613
Si Si5 0.554460 0.288233 0.134829
Si Si6 0.000000 0.195945 0.750000
O O1 0.500000 0.194498 0.750000
O O2 0.369644 0.469767 0.863382
O O3 0.081884 0.170385 0.921230
O O4 0.380838 0.973296 0.866762
O O5 0.149272 0.979376 0.571762
O O6 0.317457 0.305483 0.458688
O O7 0.947842 0.380410 0.644112
O O8 0.284521 0.288451 0.229412
O O9 0.144844 0.640327 0.233090
O O10 0.830830 0.374133 0.379094
O O11 0.863458 0.035503 0.832863
O O12 0.500000 0.000000 0.000000
#
# Coordination Sequence:
#
# PCOD9237084 Si02
#       6
#     4   4   4   4   4   2
#     4  12  25  49  73 111 150 195 244 306 370 444
#     4  11  27  45  72 109 144 192 251 301 371 447
#     4  11  26  47  72 107 147 193 250 308 374 450
#     4  11  27  46  75 104 147 194 248 311 370 450
#     4  12  28  45  81 105 153 194 244 306 375 443
#     4  10  26  46  70 108 144 188 252 304 378 430
#
# _framework density 22.934121999999999
#
# number of rings (size 3 to 8) (size 9 to 14) (size 15 to 20)
#    0.000    0.727    1.818    3.273   15.273    1.455 
#    0.000    0.000    0.000    0.000    0.000    0.000 
#    0.000    0.000    0.000    0.000    0.000    0.000 
#
# Total GULP energy -122919.766308 kJ/mol
# GULP energy per Si atom -5587.262105 kJ/mol
# Density = 2.288192 g / cm^3
# Si number density = 22.934122 Si / 1000 Ang^3
#
#
#
# Elastic Constant Matrix: (Units=GPa)
#
#
# Indices 1 2 3 4 5 6 
#
# 1 51.8424 16.4310 17.8144 0.0000 15.2637 0.0000
# 2 16.4310 68.3723 -9.5991 0.0000 13.6405 0.0000
# 3 17.8144 -9.5991 57.3804 0.0000 13.1623 0.0000
# 4 0.0000 0.0000 0.0000 17.0240 0.0000 34.3472
# 5 15.2637 13.6405 13.1623 0.0000 42.0768 0.0000
# 6 0.0000 0.0000 0.0000 34.3472 0.0000 608.8706
#
#
#
# Elastic Compliance Matrix: (Units=1/GPa)
#
#
# Indices 1 2 3 4 5 6 
#
# 1 0.025352 -0.006251 -0.007834 0.000000 -0.004720 0.000000
# 2 -0.006251 0.018114 0.006246 0.000000 -0.005558 0.000000
# 3 -0.007834 0.006246 0.022319 0.000000 -0.006165 0.000000
# 4 0.000000 0.000000 0.000000 0.066285 0.000000 -0.003739
# 5 -0.004720 -0.005558 -0.006165 0.000000 0.029208 0.000000
# 6 0.000000 0.000000 0.000000 -0.003739 0.000000 0.001853
#
#
# Mechanical properties :
#
#
# Convention : Reuss Voigt Hill
#
# Bulk Modulus (GPa) = 19.95732 25.20974 22.58353
# Shear Modulus (GPa) = 25.57411 143.79088 84.68250
#
# Velocity S-wave (km/s) = 3.34295 7.92676 6.08312
# Velocity P-wave (km/s) = 4.86018 9.73622 7.69465
#
# Compressibility (1/GPa) = 0.05010692
#
# Stress axis : x y z
#
# Youngs Moduli (GPa) = 39.44490 55.20667 44.80564
#
# Poissons Ratio (x) = 0.34508 0.35100
# Poissons Ratio (y) = 0.24656 -0.27985
# Poissons Ratio (z) = 0.30900 -0.34481
#
# Static dielectric constant tensor:
#      x y z
#    x 1.850280 0.000000 -0.054720 
#    y 0.000000 1.927620 0.000000 
#    z -0.054720 0.000000 1.880310 
# 
# From -- ./inp_files/48832.got.cif
#   From: 2010.05.17/outbox.cif.g08.bks.cpg/sg13_25_cif.got.tgz:48832.got - 2010.06.03 16:44:36.
