data_PCOD9237297
_publ_section_title
;
Structure prediction by ZEFSAII (Michael W. Deem and Ramdas Pophale) SiO2 
 PCOD9237297
Probable space group: P 2/C
;
_chemical_formula_sum "Si O2"
_cell_formula_units_Z 32
_cell_length_a 14.767841
_cell_length_b 11.692381
_cell_length_c 17.418025
_cell_angle_alpha 90.000000
_cell_angle_beta 33.315406
_cell_angle_gamma 90.000000
_cell_volume 1651.912320
_symmetry_space_group_name_H-M "P 2/C"
_symmetry_group_IT_number 13
_symmetry_cell_setting 'monoclinic'
loop_
_space_group_symop_operation_xyz
x,y,z
-x,y,1/2-z
-x,-y,-z
x,-y,1/2+z
loop_
_atom_site_type_symbol
_atom_site_label
_atom_site_fract_x
_atom_site_fract_y
_atom_site_fract_z
Si Si1 0.901910 0.051193 0.239109
Si Si2 0.075548 0.205462 0.998303
Si Si3 0.678841 0.579647 0.628016
Si Si4 0.194027 0.396109 0.298976
Si Si5 0.344537 0.325296 0.909714
Si Si6 0.228534 0.189481 0.721474
Si Si7 0.979092 0.405823 0.676909
Si Si8 0.387360 0.236986 0.050121
O O1 0.742020 0.133176 0.352077
O O2 0.000000 0.065374 0.250000
O O3 0.008995 0.094113 0.090059
O O4 0.845073 0.921831 0.267198
O O5 0.926583 0.293929 0.088371
O O6 0.186642 0.270167 0.982267
O O7 0.174544 0.185330 0.849642
O O8 0.500000 0.638934 0.750000
O O9 0.721299 0.550689 0.686147
O O10 0.663631 0.461572 0.592495
O O11 0.841686 0.637285 0.478642
O O12 0.330369 0.335089 0.149709
O O13 0.088194 0.489943 0.327684
O O14 0.500000 0.285202 0.750000
O O15 0.365971 0.288983 0.981099
O O16 0.425198 0.197117 0.573193
O O17 0.148737 0.303001 0.741873
O O18 0.000000 0.443465 0.750000
#
# Coordination Sequence:
#
# PCOD9237297 Si02
#       8
#     4   4   4   4   4   4   4   4
#     4  11  24  44  67  94 126 169 220 280 331 383
#     4  11  21  41  70  91 126 166 221 266 324 391
#     4  11  24  40  64  94 139 171 211 265 323 389
#     4  11  24  42  64  98 131 175 211 268 331 379
#     4  11  20  37  65 100 124 164 214 274 317 369
#     4  12  25  43  65  94 133 174 217 265 335 391
#     4  12  25  41  64  95 137 175 215 265 325 408
#     4  11  25  41  69  95 130 167 226 274 319 391
#
# _framework density 19.371487999999999
#
# number of rings (size 3 to 8) (size 9 to 14) (size 15 to 20)
#    0.000    0.750    5.000    3.000    3.500    0.500 
#    0.000    0.000    0.000    0.750    0.000    0.000 
#    0.000    0.000    0.000    0.000    0.000    0.000 
#
# Total GULP energy -178849.484529 kJ/mol
# GULP energy per Si atom -5589.046392 kJ/mol
# Density = 1.932740 g / cm^3
# Si number density = 19.371488 Si / 1000 Ang^3
#
#
#
# Elastic Constant Matrix: (Units=GPa)
#
#
# Indices 1 2 3 4 5 6 
#
# 1 71.2786 -0.3454 19.4100 0.0000 -8.9742 0.0000
# 2 -0.3454 58.1917 6.5908 0.0000 -6.8243 0.0000
# 3 19.4100 6.5908 106.6181 0.0000 -13.5530 0.0000
# 4 0.0000 0.0000 0.0000 10.7091 0.0000 -5.0952
# 5 -8.9742 -6.8243 -13.5530 0.0000 34.5371 0.0000
# 6 0.0000 0.0000 0.0000 -5.0952 0.0000 -6.8951
#
#
#
# Elastic Compliance Matrix: (Units=1/GPa)
#
#
# Indices 1 2 3 4 5 6 
#
# 1 0.015078 0.000727 -0.002393 0.000000 0.003122 0.000000
# 2 0.000727 0.017674 -0.000797 0.000000 0.003368 0.000000
# 3 -0.002393 -0.000797 0.010278 0.000000 0.003254 0.000000
# 4 0.000000 0.000000 0.000000 0.069089 0.000000 -0.051053
# 5 0.003122 0.003368 0.003254 0.000000 0.031708 0.000000
# 6 0.000000 0.000000 0.000000 -0.051053 0.000000 -0.107304
#
#
# Mechanical properties :
#
#
# Convention : Reuss Voigt Hill
#
# Bulk Modulus (GPa) = 26.24408 31.93325 29.08866
# Shear Modulus (GPa) = 92.33731 21.69908 57.01820
#
# Velocity S-wave (km/s) = 6.91159 3.35050 5.43120
# Velocity P-wave (km/s) = 8.79037 5.61144 7.37424
#
# Compressibility (1/GPa) = 0.03810383
#
# Stress axis : x y z
#
# Youngs Moduli (GPa) = 66.32304 56.57984 97.29713
#
# Poissons Ratio (x) = -0.04112 0.23283
# Poissons Ratio (y) = -0.04820 0.07751
# Poissons Ratio (z) = 0.15871 0.04508
#
# Static dielectric constant tensor:
#      x y z
#    x 1.665910 0.000000 -0.013150 
#    y 0.000000 1.647670 0.000000 
#    z -0.013150 0.000000 1.731970 
# 
# From -- ./inp_files/68653.got.cif
#   From: 2010.05.17/outbox.cif.g08.bks.cpg/sg13_35_cif.got.tgz:68653.got - 2010.06.03 16:44:36.
