data_PCOD9237245
_publ_section_title
;
Structure prediction by ZEFSAII (Michael W. Deem and Ramdas Pophale) SiO2 
 PCOD9237245
Probable space group: P 2/C
;
_chemical_formula_sum "Si O2"
_cell_formula_units_Z 28
_cell_length_a 22.087328
_cell_length_b 8.310299
_cell_length_c 24.849524
_cell_angle_alpha 90.000000
_cell_angle_beta 161.936996
_cell_angle_gamma 90.000000
_cell_volume 1414.253655
_symmetry_space_group_name_H-M "P 2/C"
_symmetry_group_IT_number 13
_symmetry_cell_setting 'monoclinic'
loop_
_space_group_symop_operation_xyz
x,y,z
-x,y,1/2-z
-x,-y,-z
x,-y,1/2+z
loop_
_atom_site_type_symbol
_atom_site_label
_atom_site_fract_x
_atom_site_fract_y
_atom_site_fract_z
Si Si1 0.793744 0.109176 0.583923
Si Si2 0.749487 0.915093 0.243112
Si Si3 0.699492 0.899191 0.400546
Si Si4 0.382729 0.130376 0.268523
Si Si5 0.404829 0.672452 0.929212
Si Si6 0.914561 0.323214 0.434338
Si Si7 0.872166 0.861614 0.745716
O O1 0.602639 0.193001 0.446617
O O2 0.000000 0.198350 0.750000
O O3 0.738183 0.030047 0.480149
O O4 0.834135 0.964236 0.660036
O O5 0.912932 0.807245 0.411769
O O6 0.653029 0.028974 0.206928
O O7 0.838054 0.016426 0.267887
O O8 0.582332 0.798995 0.078417
O O9 0.500000 0.811235 0.250000
O O10 0.902640 0.806110 0.564387
O O11 0.660149 0.001076 0.313812
O O12 0.230140 0.277016 0.139067
O O13 0.232354 0.689656 0.740000
O O14 0.284902 0.718894 0.881615
O O15 0.500000 0.500000 0.000000
O O16 0.000000 0.500000 0.500000
#
# Coordination Sequence:
#
# PCOD9237245 Si02
#       7
#     4   4   4   4   4   4   4
#     4   9  19  33  57  94 124 158 213 265 309 359
#     4  12  22  38  64  94 128 164 206 264 340 372
#     4   9  19  33  57  94 124 158 213 265 309 359
#     4  11  19  37  61  91 129 157 206 268 312 381
#     4  12  24  38  56  91 135 169 202 247 328 397
#     4  12  24  38  56  91 135 169 202 247 328 397
#     4  11  19  37  61  91 129 157 206 268 312 381
#
# _framework density 19.798428000000001
#
# number of rings (size 3 to 8) (size 9 to 14) (size 15 to 20)
#    0.000    1.143    5.714    2.571    0.000    0.000 
#    0.000    0.000    0.000    0.000    0.000  126.000 
#    0.000    0.000    0.000    0.000    0.000    0.000 
#
# Total GULP energy -155979.470172 kJ/mol
# GULP energy per Si atom -5570.695363 kJ/mol
# Density = 1.975337 g / cm^3
# Si number density = 19.798428 Si / 1000 Ang^3
#
#
#
# Elastic Constant Matrix: (Units=GPa)
#
#
# Indices 1 2 3 4 5 6 
#
# 1 87.4745 27.5799 28.9457 0.0000 5.9551 0.0000
# 2 27.5799 84.8814 38.6335 0.0000 14.7196 0.0000
# 3 28.9457 38.6335 141.4697 0.0000 31.1477 0.0000
# 4 0.0000 0.0000 0.0000 24.6076 0.0000 6.2161
# 5 5.9551 14.7196 31.1477 0.0000 61.9836 0.0000
# 6 0.0000 0.0000 0.0000 6.2161 0.0000 10.2324
#
#
#
# Elastic Compliance Matrix: (Units=1/GPa)
#
#
# Indices 1 2 3 4 5 6 
#
# 1 0.013112 -0.003512 -0.001833 0.000000 0.000495 0.000000
# 2 -0.003512 0.014522 -0.002881 0.000000 -0.001663 0.000000
# 3 -0.001833 -0.002881 0.009041 0.000000 -0.003683 0.000000
# 4 0.000000 0.000000 0.000000 0.048005 0.000000 -0.029163
# 5 0.000495 -0.001663 -0.003683 0.000000 0.018332 0.000000
# 6 0.000000 0.000000 0.000000 -0.029163 0.000000 0.115445
#
#
# Mechanical properties :
#
#
# Convention : Reuss Voigt Hill
#
# Bulk Modulus (GPa) = 49.44670 56.01596 52.73133
# Shear Modulus (GPa) = 20.69114 33.94250 27.31682
#
# Velocity S-wave (km/s) = 3.23629 4.14503 3.71852
# Velocity P-wave (km/s) = 6.24452 7.15981 6.71777
#
# Compressibility (1/GPa) = 0.02022380
#
# Stress axis : x y z
#
# Youngs Moduli (GPa) = 76.26615 68.86103 110.60343
#
# Poissons Ratio (x) = 0.24185 0.20271
# Poissons Ratio (y) = 0.26785 0.31864
# Poissons Ratio (z) = 0.13978 0.19838
#
# Static dielectric constant tensor:
#      x y z
#    x 1.770620 0.000000 0.023400 
#    y 0.000000 1.724350 0.000000 
#    z 0.023400 0.000000 1.804140 
# 
# From -- ./inp_files/88530.got.cif
#   From: 2010.05.17/outbox.cif.g08.bks.cpg/sg13_45_cif.got.tgz:88530.got - 2010.06.03 16:44:36.
