data_PCOD9237560
_publ_section_title
;
Structure prediction by ZEFSAII (Michael W. Deem and Ramdas Pophale) SiO2 
 PCOD9237560
Probable space group: P 2/C
;
_chemical_formula_sum "Si O2"
_cell_formula_units_Z 24
_cell_length_a 6.926544
_cell_length_b 7.170637
_cell_length_c 25.440397
_cell_angle_alpha 90.000000
_cell_angle_beta 65.805073
_cell_angle_gamma 90.000000
_cell_volume 1152.570587
_symmetry_space_group_name_H-M "P 2/C"
_symmetry_group_IT_number 13
_symmetry_cell_setting 'monoclinic'
loop_
_space_group_symop_operation_xyz
x,y,z
-x,y,1/2-z
-x,-y,-z
x,-y,1/2+z
loop_
_atom_site_type_symbol
_atom_site_label
_atom_site_fract_x
_atom_site_fract_y
_atom_site_fract_z
Si Si1 0.150381 0.757193 0.805140
Si Si2 0.623862 0.747660 0.436279
Si Si3 0.785467 0.556725 0.994956
Si Si4 0.427193 0.701821 0.679575
Si Si5 0.241807 0.148637 0.095648
Si Si6 0.133935 0.392905 0.690230
O O1 0.267105 0.808669 0.737604
O O2 0.338960 0.722033 0.824886
O O3 0.978641 0.893369 0.849628
O O4 0.016143 0.567929 0.809592
O O5 0.691250 0.632253 0.480299
O O6 0.649491 0.967161 0.440020
O O7 0.000000 0.500000 0.500000
O O8 0.609148 0.336489 0.549676
O O9 0.783044 0.296450 0.870890
O O10 0.811563 0.698767 0.942823
O O11 0.342052 0.490343 0.691885
O O12 0.394004 0.769215 0.624015
O O13 0.000000 0.288567 0.750000
#
# Coordination Sequence:
#
# PCOD9237560 Si02
#       6
#     4   4   4   4   4   4
#     4   9  18  34  61  91 126 165 199 248 308 376
#     4  11  24  41  64  93 120 161 205 262 311 370
#     4  11  26  44  62  86 124 165 213 258 317 367
#     4   9  18  35  60  90 127 164 202 247 309 371
#     4  11  22  39  64  91 122 160 211 261 314 367
#     4   9  18  35  59  90 122 157 199 245 308 372
#
# _framework density 20.823018000000001
#
# number of rings (size 3 to 8) (size 9 to 14) (size 15 to 20)
#    0.000    2.000    3.333    2.000    2.333    3.333 
#    0.000    0.000    0.000    4.000    0.000    0.000 
#    0.000    0.000    0.000    0.000    0.000    0.000 
#
# Total GULP energy -133846.315168 kJ/mol
# GULP energy per Si atom -5576.929799 kJ/mol
# Density = 2.077562 g / cm^3
# Si number density = 20.823018 Si / 1000 Ang^3
#
#
#
# Elastic Constant Matrix: (Units=GPa)
#
#
# Indices 1 2 3 4 5 6 
#
# 1 143.7266 32.3095 44.2507 0.0000 9.8582 0.0000
# 2 32.3095 62.9575 35.0683 0.0000 9.7106 0.0000
# 3 44.2507 35.0683 122.5810 0.0000 -8.1601 0.0000
# 4 0.0000 0.0000 0.0000 16.4586 0.0000 -7.3050
# 5 9.8582 9.7106 -8.1601 0.0000 31.0361 0.0000
# 6 0.0000 0.0000 0.0000 -7.3050 0.0000 12.1101
#
#
#
# Elastic Compliance Matrix: (Units=1/GPa)
#
#
# Indices 1 2 3 4 5 6 
#
# 1 0.008478 -0.002568 -0.002495 0.000000 -0.002545 0.000000
# 2 -0.002568 0.021539 -0.005729 0.000000 -0.007430 0.000000
# 3 -0.002495 -0.005729 0.011063 0.000000 0.005494 0.000000
# 4 0.000000 0.000000 0.000000 0.082973 0.000000 0.050050
# 5 -0.002545 -0.007430 0.005494 0.000000 0.036798 0.000000
# 6 0.000000 0.000000 0.000000 0.050050 0.000000 0.112767
#
#
# Mechanical properties :
#
#
# Convention : Reuss Voigt Hill
#
# Bulk Modulus (GPa) = 51.29625 61.39133 56.34379
# Shear Modulus (GPa) = 16.57263 26.43007 21.50135
#
# Velocity S-wave (km/s) = 2.82420 3.56655 3.21686
# Velocity P-wave (km/s) = 5.94329 6.81959 6.39646
#
# Compressibility (1/GPa) = 0.01949460
#
# Stress axis : x y z
#
# Youngs Moduli (GPa) = 117.95530 46.42709 90.38828
#
# Poissons Ratio (x) = 0.11924 0.22553
# Poissons Ratio (y) = 0.30295 0.51787
# Poissons Ratio (z) = 0.29431 0.26600
#
# Static dielectric constant tensor:
#      x y z
#    x 1.735960 0.000000 -0.041920 
#    y 0.000000 1.754530 0.000000 
#    z -0.041920 0.000000 1.833400 
# 
# From -- ./inp_files/90653.got.cif
#   From: 2010.05.17/outbox.cif.g08.bks.cpg/sg13_46_cif.got.tgz:90653.got - 2010.06.03 16:44:36.
