data_PCOD9237855
_publ_section_title
;
Structure prediction by ZEFSAII (Michael W. Deem and Ramdas Pophale) SiO2 
 PCOD9237855
Probable space group: P 2/C
;
_chemical_formula_sum "Si O2"
_cell_formula_units_Z 20
_cell_length_a 11.012737
_cell_length_b 11.964055
_cell_length_c 7.938553
_cell_angle_alpha 90.000000
_cell_angle_beta 52.591554
_cell_angle_gamma 90.000000
_cell_volume 830.832146
_symmetry_space_group_name_H-M "P 2/C"
_symmetry_group_IT_number 13
_symmetry_cell_setting 'monoclinic'
loop_
_space_group_symop_operation_xyz
x,y,z
-x,y,1/2-z
-x,-y,-z
x,-y,1/2+z
loop_
_atom_site_type_symbol
_atom_site_label
_atom_site_fract_x
_atom_site_fract_y
_atom_site_fract_z
Si Si1 0.172517 0.133819 0.670133
Si Si2 0.681102 0.344285 0.103906
Si Si3 0.173839 0.247282 0.039064
Si Si4 0.380921 0.075953 0.992509
Si Si5 0.822429 0.532053 0.164403
O O1 0.270860 0.217757 0.472266
O O2 0.000000 0.138203 0.750000
O O3 0.244751 0.012674 0.582477
O O4 0.181428 0.173865 0.857754
O O5 0.500000 0.351853 0.250000
O O6 0.734283 0.416343 0.216966
O O7 0.772863 0.408894 0.878027
O O8 0.000000 0.246008 0.250000
O O9 0.284853 0.191258 0.084476
O O10 0.212791 0.372366 0.944956
O O11 0.500000 0.109962 0.750000
O O12 0.500000 0.000000 0.000000
O O13 0.000000 0.500000 0.000000
#
# Coordination Sequence:
#
# PCOD9237855 Si02
#       5
#     4   4   4   4   4
#     4  11  25  45  70  97 138 188 236 290 361 435
#     4  11  23  43  67 103 138 181 231 293 357 419
#     4  11  25  44  69 104 137 184 240 291 354 435
#     4  12  26  47  69 100 141 182 235 300 361 424
#     4  11  23  45  71 102 142 185 235 291 357 432
#
# _framework density 24.072253
#
# number of rings (size 3 to 8) (size 9 to 14) (size 15 to 20)
#    0.000    0.800    2.000    6.000    2.800    2.400 
#    7.200    0.000    0.000    0.000    0.000    0.000 
#    0.000    0.000    0.000    0.000    0.000    0.000 
#
# Total GULP energy -111743.011597 kJ/mol
# GULP energy per Si atom -5587.150580 kJ/mol
# Density = 2.401746 g / cm^3
# Si number density = 24.072253 Si / 1000 Ang^3
#
#
#
# Elastic Constant Matrix: (Units=GPa)
#
#
# Indices 1 2 3 4 5 6 
#
# 1 92.0184 12.9109 -0.0267 0.0000 -12.6134 0.0000
# 2 12.9109 150.0912 1.8265 0.0000 8.4332 0.0000
# 3 -0.0267 1.8265 72.8278 0.0000 2.2567 0.0000
# 4 0.0000 0.0000 0.0000 -417.4083 0.0000 329.4217
# 5 -12.6134 8.4332 2.2567 0.0000 46.4289 0.0000
# 6 0.0000 0.0000 0.0000 329.4217 0.0000 -215.9661
#
#
#
# Elastic Compliance Matrix: (Units=1/GPa)
#
#
# Indices 1 2 3 4 5 6 
#
# 1 0.011490 -0.001175 -0.000070 0.000000 0.003338 0.000000
# 2 -0.001175 0.006853 -0.000124 0.000000 -0.001558 0.000000
# 3 -0.000070 -0.000124 0.013755 0.000000 -0.000665 0.000000
# 4 0.000000 0.000000 0.000000 0.011755 0.000000 0.017930
# 5 0.003338 -0.001558 -0.000665 0.000000 0.022761 0.000000
# 6 0.000000 0.000000 0.000000 0.017930 0.000000 0.022719
#
#
# Mechanical properties :
#
#
# Convention : Reuss Voigt Hill
#
# Bulk Modulus (GPa) = 34.06043 38.26207 36.16125
# Shear Modulus (GPa) = 49.08893 -97.37400 -24.14253
#
# Velocity S-wave (km/s) = 4.52069 -6.36699 -3.17033
# Velocity P-wave (km/s) = 6.43652 6.17432 1.28580
#
# Compressibility (1/GPa) = 0.02935958
#
# Stress axis : x y z
#
# Youngs Moduli (GPa) = 87.03341 145.92703 72.70231
#
# Poissons Ratio (x) = 0.17148 0.00507
# Poissons Ratio (y) = 0.10227 0.00902
# Poissons Ratio (z) = 0.00607 0.01810
#
# Static dielectric constant tensor:
#      x y z
#    x 2.019300 0.000000 0.155730 
#    y 0.000000 1.809810 0.000000 
#    z 0.155730 0.000000 1.872440 
# 
# From -- ./inp_files/11668.got.cif
#   From: 2010.05.17/outbox.cif.g08.bks.cpg/sg13_6_cif.got.tgz:11668.got - 2010.06.03 16:44:36.
