data_PCOD9237897
_publ_section_title
;
Structure prediction by ZEFSAII (Michael W. Deem and Ramdas Pophale) SiO2 
 PCOD9237897
Probable space group: P 2/C
;
_chemical_formula_sum "Si O2"
_cell_formula_units_Z 18
_cell_length_a 8.953265
_cell_length_b 7.694688
_cell_length_c 16.470329
_cell_angle_alpha 90.000000
_cell_angle_beta 134.194424
_cell_angle_gamma 90.000000
_cell_volume 813.543598
_symmetry_space_group_name_H-M "P 2/C"
_symmetry_group_IT_number 13
_symmetry_cell_setting 'monoclinic'
loop_
_space_group_symop_operation_xyz
x,y,z
-x,y,1/2-z
-x,-y,-z
x,-y,1/2+z
loop_
_atom_site_type_symbol
_atom_site_label
_atom_site_fract_x
_atom_site_fract_y
_atom_site_fract_z
Si Si1 0.827305 0.447421 0.092362
Si Si2 0.500000 0.268396 0.250000
Si Si3 0.084358 0.236718 0.618789
Si Si4 0.588612 0.432507 0.656880
Si Si5 0.952643 0.142266 0.391983
O O1 0.759307 0.521086 0.153337
O O2 0.929280 0.604634 0.079537
O O3 0.986597 0.288328 0.148944
O O4 0.615174 0.378488 0.969986
O O5 0.480617 0.397859 0.319078
O O6 0.711318 0.158629 0.327517
O O7 0.302382 0.298486 0.740057
O O8 0.080995 0.194900 0.521742
O O9 0.010290 0.051574 0.625551
#
# Coordination Sequence:
#
# PCOD9237897 Si02
#       5
#     4   2   4   4   4
#     4  11  23  47  66 102 135 185 220 286 344 409
#     4  12  22  42  66 100 128 184 222 284 344 400
#     4  11  23  44  68 102 131 182 229 281 338 412
#     4  11  24  42  73  96 140 174 232 280 343 405
#     4  11  25  42  72  96 141 175 234 281 344 403
#
# _framework density 22.125426999999998
#
# number of rings (size 3 to 8) (size 9 to 14) (size 15 to 20)
#    0.000    0.889    4.444    2.667    0.000    4.444 
#    8.000    2.222    0.000    0.000    0.000    0.000 
#    0.000    0.000    0.000    0.000    0.000    0.000 
#
# Total GULP energy -100607.085617 kJ/mol
# GULP energy per Si atom -5589.282534 kJ/mol
# Density = 2.207507 g / cm^3
# Si number density = 22.125427 Si / 1000 Ang^3
#
#
#
# Elastic Constant Matrix: (Units=GPa)
#
#
# Indices 1 2 3 4 5 6 
#
# 1 77.7608 32.2131 8.9127 0.0000 17.4339 0.0000
# 2 32.2131 138.8297 19.8253 0.0000 12.9159 0.0000
# 3 8.9127 19.8253 123.1093 0.0000 9.3571 0.0000
# 4 0.0000 0.0000 0.0000 21.0473 0.0000 -6.9724
# 5 17.4339 12.9159 9.3571 0.0000 23.4696 0.0000
# 6 0.0000 0.0000 0.0000 -6.9724 0.0000 -2.2165
#
#
#
# Elastic Compliance Matrix: (Units=1/GPa)
#
#
# Indices 1 2 3 4 5 6 
#
# 1 0.016414 -0.002827 0.000078 0.000000 -0.010668 0.000000
# 2 -0.002827 0.008184 -0.000960 0.000000 -0.002021 0.000000
# 3 0.000078 -0.000960 0.008493 0.000000 -0.002916 0.000000
# 4 0.000000 0.000000 0.000000 0.023267 0.000000 -0.073188
# 5 -0.010668 -0.002021 -0.002916 0.000000 0.052808 0.000000
# 6 0.000000 0.000000 0.000000 -0.073188 0.000000 -0.220932
#
#
# Mechanical properties :
#
#
# Convention : Reuss Voigt Hill
#
# Bulk Modulus (GPa) = 38.95086 51.28912 45.11999
# Shear Modulus (GPa) = -52.19740 27.04333 -12.57704
#
# Velocity S-wave (km/s) = -4.86239 3.49990 -2.38679
# Velocity P-wave (km/s) = 3.72572 6.28997 3.58349
#
# Compressibility (1/GPa) = 0.02567337
#
# Stress axis : x y z
#
# Youngs Moduli (GPa) = 60.92376 122.18725 117.73846
#
# Poissons Ratio (x) = 0.34545 -0.00916
# Poissons Ratio (y) = 0.17224 0.11299
# Poissons Ratio (z) = -0.00474 0.11726
#
# Static dielectric constant tensor:
#      x y z
#    x 1.812160 0.000000 0.002690 
#    y 0.000000 1.790920 0.000000 
#    z 0.002690 0.000000 1.897900 
# 
# From -- ./inp_files/63578.got.cif
#   From: 2010.05.17/outbox.cif.g08.bks.cpg/sg13_32_cif.got.tgz:63578.got - 2010.06.03 16:44:36.
