data_PCOD9237848
_publ_section_title
;
Structure prediction by ZEFSAII (Michael W. Deem and Ramdas Pophale) SiO2 
 PCOD9237848
Probable space group: P 2/C
;
_chemical_formula_sum "Si O2"
_cell_formula_units_Z 16
_cell_length_a 8.551393
_cell_length_b 18.325290
_cell_length_c 9.631182
_cell_angle_alpha 90.000000
_cell_angle_beta 148.358743
_cell_angle_gamma 90.000000
_cell_volume 791.762322
_symmetry_space_group_name_H-M "P 2/C"
_symmetry_group_IT_number 13
_symmetry_cell_setting 'monoclinic'
loop_
_space_group_symop_operation_xyz
x,y,z
-x,y,1/2-z
-x,-y,-z
x,-y,1/2+z
loop_
_atom_site_type_symbol
_atom_site_label
_atom_site_fract_x
_atom_site_fract_y
_atom_site_fract_z
Si Si1 0.759807 0.719418 0.838526
Si Si2 0.195994 0.955374 0.258285
Si Si3 0.609743 0.792136 0.175440
Si Si4 0.170025 0.446188 0.026283
O O1 0.500000 0.741248 0.750000
O O2 0.649485 0.756987 0.614109
O O3 0.780949 0.631910 0.861813
O O4 0.087649 0.747291 0.121745
O O5 0.298429 0.874759 0.290988
O O6 0.000000 0.950919 0.250000
O O7 0.500000 0.000000 0.500000
O O8 0.000000 0.000000 0.000000
O O9 0.500000 0.788416 0.250000
O O10 0.500000 0.476809 0.250000
O O11 0.000000 0.436419 0.750000
O O12 0.000000 0.500000 0.000000
#
# Coordination Sequence:
#
# PCOD9237848 Si02
#       4
#     4   4   4   4
#     4  11  23  43  65  92 128 171 214 263 324 387
#     4  12  25  44  67  95 130 170 213 266 323 385
#     4  12  25  42  65  96 128 167 216 268 321 385
#     4  11  24  43  67  97 132 172 217 271 328 391
#
# _framework density 20.208086000000002
#
# number of rings (size 3 to 8) (size 9 to 14) (size 15 to 20)
#    0.000    0.500    0.000   10.500    0.000    3.000 
#    0.000    0.000    0.000    0.000    0.000    0.000 
#    0.000    0.000    0.000    0.000    0.000    0.000 
#
# Total GULP energy -89501.191467 kJ/mol
# GULP energy per Si atom -5593.824467 kJ/mol
# Density = 2.016209 g / cm^3
# Si number density = 20.208086 Si / 1000 Ang^3
#
#
#
# Elastic Constant Matrix: (Units=GPa)
#
#
# Indices 1 2 3 4 5 6 
#
# 1 72.4146 35.8570 -18.8332 0.0000 -1.4344 0.0000
# 2 35.8570 92.4065 15.3881 0.0000 -6.5916 0.0000
# 3 -18.8332 15.3881 95.0867 0.0000 -0.1457 0.0000
# 4 0.0000 0.0000 0.0000 463.6212 0.0000 648.8860
# 5 -1.4344 -6.5916 -0.1457 0.0000 54.3716 0.0000
# 6 0.0000 0.0000 0.0000 648.8860 0.0000 958.3692
#
#
#
# Elastic Compliance Matrix: (Units=1/GPa)
#
#
# Indices 1 2 3 4 5 6 
#
# 1 0.019299 -0.008386 0.005179 0.000000 -0.000494 0.000000
# 2 -0.008386 0.014865 -0.004064 0.000000 0.001570 0.000000
# 3 0.005179 -0.004064 0.012200 0.000000 -0.000323 0.000000
# 4 0.000000 0.000000 0.000000 0.041190 0.000000 -0.027888
# 5 -0.000494 0.001570 -0.000323 0.000000 0.018568 0.000000
# 6 0.000000 0.000000 0.000000 -0.027888 0.000000 0.019926
#
#
# Mechanical properties :
#
#
# Convention : Reuss Voigt Hill
#
# Bulk Modulus (GPa) = 31.42667 36.08129 33.75398
# Shear Modulus (GPa) = 33.06929 310.43880 171.75405
#
# Velocity S-wave (km/s) = 4.04968 12.40784 9.22915
# Velocity P-wave (km/s) = 6.11979 14.93876 11.41530
#
# Compressibility (1/GPa) = 0.03182011
#
# Stress axis : x y z
#
# Youngs Moduli (GPa) = 51.81584 67.27320 81.96929
#
# Poissons Ratio (x) = 0.56418 -0.42451
# Poissons Ratio (y) = 0.43455 0.33314
# Poissons Ratio (z) = -0.26835 0.27341
#
# Static dielectric constant tensor:
#      x y z
#    x 1.652950 0.000000 0.017620 
#    y 0.000000 1.745200 0.000000 
#    z 0.017620 0.000000 1.616220 
# 
# From -- ./inp_files/9627.got.cif
#   From: 2010.05.17/outbox.cif.g08.bks.cpg/sg13_5_cif.got.tgz:9627.got - 2010.06.03 16:44:36.
