data_PCOD9237736
_publ_section_title
;
Structure prediction by ZEFSAII (Michael W. Deem and Ramdas Pophale) SiO2 
 PCOD9237736
Probable space group: P 2/C
;
_chemical_formula_sum "Si O2"
_cell_formula_units_Z 26
_cell_length_a 5.212510
_cell_length_b 10.965456
_cell_length_c 21.806862
_cell_angle_alpha 90.000000
_cell_angle_beta 59.085648
_cell_angle_gamma 90.000000
_cell_volume 1069.354711
_symmetry_space_group_name_H-M "P 2/C"
_symmetry_group_IT_number 13
_symmetry_cell_setting 'monoclinic'
loop_
_space_group_symop_operation_xyz
x,y,z
-x,y,1/2-z
-x,-y,-z
x,-y,1/2+z
loop_
_atom_site_type_symbol
_atom_site_label
_atom_site_fract_x
_atom_site_fract_y
_atom_site_fract_z
Si Si1 0.705892 0.535745 0.390582
Si Si2 0.993711 0.308813 0.399309
Si Si3 0.442830 0.159722 0.412932
Si Si4 0.917763 0.773212 0.425737
Si Si5 0.000000 0.500000 0.500000
Si Si6 0.439890 0.705456 0.191980
Si Si7 0.215735 0.058794 0.677868
O O1 0.777431 0.634546 0.436193
O O2 0.365684 0.488309 0.433751
O O3 0.749684 0.617415 0.326104
O O4 0.083451 0.625254 0.526827
O O5 0.299287 0.238633 0.375471
O O6 0.946746 0.428008 0.363077
O O7 0.745446 0.215033 0.405104
O O8 0.209884 0.163093 0.498248
O O9 0.519918 0.027532 0.377510
O O10 0.867671 0.862291 0.373186
O O11 0.262996 0.737899 0.382162
O O12 0.500000 0.649826 0.250000
O O13 0.300977 0.837696 0.216685
O O14 0.000000 0.980920 0.750000
#
# Coordination Sequence:
#
# PCOD9237736 Si02
#       7
#     4   4   4   4   2   4   4
#     4  11  23  39  73 109 149 189 241 304 376 441
#     4  12  24  42  69 112 149 194 231 297 370 445
#     4  12  27  43  75 111 151 192 248 301 366 457
#     4  11  24  43  72 113 143 185 253 318 373 429
#     4  12  20  42  70 108 152 184 238 292 380 444
#     4  11  24  44  75 106 143 193 251 318 381 438
#     4  11  26  49  72 101 145 201 248 311 384 448
#
# _framework density 24.313732000000002
#
# number of rings (size 3 to 8) (size 9 to 14) (size 15 to 20)
#    0.000    0.615    4.615    3.692    4.308    0.615 
#    0.000    0.000    6.769    0.000    0.000    0.000 
#    0.000    0.000    0.000    0.000    0.000    0.000 
#
# Total GULP energy -144763.523588 kJ/mol
# GULP energy per Si atom -5567.827830 kJ/mol
# Density = 2.425839 g / cm^3
# Si number density = 24.313732 Si / 1000 Ang^3
#
#
#
# Elastic Constant Matrix: (Units=GPa)
#
#
# Indices 1 2 3 4 5 6 
#
# 1 89.8017 28.9768 -4.1006 0.0000 -12.6665 0.0000
# 2 28.9768 101.3260 26.6463 0.0000 5.1004 0.0000
# 3 -4.1006 26.6463 80.8543 0.0000 -6.0817 0.0000
# 4 0.0000 0.0000 0.0000 -7.3058 0.0000 -15.0677
# 5 -12.6665 5.1004 -6.0817 0.0000 37.1621 0.0000
# 6 0.0000 0.0000 0.0000 -15.0677 0.0000 25.4062
#
#
#
# Elastic Compliance Matrix: (Units=1/GPa)
#
#
# Indices 1 2 3 4 5 6 
#
# 1 0.013665 -0.004922 0.002750 0.000000 0.005783 0.000000
# 2 -0.004922 0.012742 -0.004765 0.000000 -0.004206 0.000000
# 3 0.002750 -0.004765 0.014374 0.000000 0.003944 0.000000
# 4 0.000000 0.000000 0.000000 -0.061569 0.000000 -0.036515
# 5 0.005783 -0.004206 0.003944 0.000000 0.030103 0.000000
# 6 0.000000 0.000000 0.000000 -0.036515 0.000000 0.017705
#
#
# Mechanical properties :
#
#
# Convention : Reuss Voigt Hill
#
# Bulk Modulus (GPa) = 37.16509 41.66966 39.41738
# Shear Modulus (GPa) = 100.27335 25.74981 63.01158
#
# Velocity S-wave (km/s) = 6.42892 3.25786 5.09630
# Velocity P-wave (km/s) = 8.39207 5.59706 7.13281
#
# Compressibility (1/GPa) = 0.02690697
#
# Stress axis : x y z
#
# Youngs Moduli (GPa) = 73.17814 78.48278 69.56784
#
# Poissons Ratio (x) = 0.38632 -0.19133
# Poissons Ratio (y) = 0.36021 0.33150
# Poissons Ratio (z) = -0.20126 0.37398
#
# Static dielectric constant tensor:
#      x y z
#    x 2.181950 0.000000 -0.048670 
#    y 0.000000 2.001540 0.000000 
#    z -0.048670 0.000000 2.040240 
# 
# From -- ./inp_files/83862.got.cif
#   From: 2010.05.17/outbox.cif.g08.bks.cpg/sg13_42_cif.got.tgz:83862.got - 2010.06.03 16:44:36.
