data_PCOD9237795
_publ_section_title
;
Structure prediction by ZEFSAII (Michael W. Deem and Ramdas Pophale) SiO2 
 PCOD9237795
Probable space group: P 2/C
;
_chemical_formula_sum "Si O2"
_cell_formula_units_Z 28
_cell_length_a 30.434673
_cell_length_b 8.906472
_cell_length_c 30.047665
_cell_angle_alpha 90.000000
_cell_angle_beta 9.692363
_cell_angle_gamma 90.000000
_cell_volume 1371.256866
_symmetry_space_group_name_H-M "P 2/C"
_symmetry_group_IT_number 13
_symmetry_cell_setting 'monoclinic'
loop_
_space_group_symop_operation_xyz
x,y,z
-x,y,1/2-z
-x,-y,-z
x,-y,1/2+z
loop_
_atom_site_type_symbol
_atom_site_label
_atom_site_fract_x
_atom_site_fract_y
_atom_site_fract_z
Si Si1 0.000000 0.693112 0.250000
Si Si2 0.673154 0.919469 0.620807
Si Si3 0.500000 0.489021 0.750000
Si Si4 0.011774 0.197715 0.098473
Si Si5 0.445722 0.835855 0.033588
Si Si6 0.485854 0.980892 0.901682
Si Si7 0.836946 0.733003 0.957777
Si Si8 0.053366 0.330450 0.431926
O O1 0.911036 0.803997 0.378428
O O2 0.749036 0.591380 0.490069
O O3 0.500000 0.895249 0.750000
O O4 0.523559 0.903859 0.816287
O O5 0.761340 0.092241 0.531129
O O6 0.591811 0.377934 0.697742
O O7 0.027664 0.284102 0.129725
O O8 0.977296 0.303414 0.090278
O O9 0.773612 0.080961 0.338332
O O10 0.273210 0.096933 0.832225
O O11 0.160662 0.777353 0.331205
O O12 0.476477 0.860796 0.950369
O O13 0.661237 0.723541 0.837928
O O14 0.500000 0.000000 0.000000
O O15 0.000000 0.705429 0.750000
O O16 0.000000 0.500000 0.500000
#
# Coordination Sequence:
#
# PCOD9237795 Si02
#       8
#     2   4   2   4   4   4   4   4
#     4  12  26  44  64  96 142 174 208 290 344 388
#     4  11  23  43  71  99 136 175 231 281 335 392
#     4  12  26  44  64  98 138 182 222 270 344 398
#     4  11  23  41  69 104 133 173 231 286 330 396
#     4  12  22  45  72  96 133 177 230 280 331 403
#     4  11  24  39  73 106 127 174 239 285 331 397
#     4  11  23  42  73  97 132 183 240 267 322 415
#     4  12  25  45  68 102 143 178 218 284 352 403
#
# _framework density 20.419224
#
# number of rings (size 3 to 8) (size 9 to 14) (size 15 to 20)
#    0.000    0.571    5.714    2.571    4.000    0.000 
#    2.571    1.429    0.000    0.000    0.000    0.000 
#    0.000    0.000    0.000    0.000    0.000    0.000 
#
# Total GULP energy -156565.799292 kJ/mol
# GULP energy per Si atom -5591.635689 kJ/mol
# Density = 2.037275 g / cm^3
# Si number density = 20.419224 Si / 1000 Ang^3
#
#
#
# Elastic Constant Matrix: (Units=GPa)
#
#
# Indices 1 2 3 4 5 6 
#
# 1 184.7471 31.9339 24.6279 0.0000 9.2840 0.0000
# 2 31.9339 98.5756 20.6172 0.0000 -0.0861 0.0000
# 3 24.6279 20.6172 89.2110 0.0000 -6.3227 0.0000
# 4 0.0000 0.0000 0.0000 30.5898 0.0000 -0.3262
# 5 9.2840 -0.0861 -6.3227 0.0000 33.4019 0.0000
# 6 0.0000 0.0000 0.0000 -0.3262 0.0000 -8.6988
#
#
#
# Elastic Compliance Matrix: (Units=1/GPa)
#
#
# Indices 1 2 3 4 5 6 
#
# 1 0.005982 -0.001645 -0.001408 0.000000 -0.001934 0.000000
# 2 -0.001645 0.011119 -0.002109 0.000000 0.000087 0.000000
# 3 -0.001408 -0.002109 0.012278 0.000000 0.002710 0.000000
# 4 0.000000 0.000000 0.000000 0.032678 0.000000 -0.001225
# 5 -0.001934 0.000087 0.002710 0.000000 0.030989 0.000000
# 6 0.000000 0.000000 0.000000 -0.001225 0.000000 -0.114913
#
#
# Mechanical properties :
#
#
# Convention : Reuss Voigt Hill
#
# Bulk Modulus (GPa) = 52.48483 58.54352 55.51418
# Shear Modulus (GPa) = -963.09585 30.74890 -466.17347
#
# Velocity S-wave (km/s) = -21.74133 3.88478 -15.12603
# Velocity P-wave (km/s) = 24.58633 6.98964 16.66782
#
# Compressibility (1/GPa) = 0.01905312
#
# Stress axis : x y z
#
# Youngs Moduli (GPa) = 167.16677 89.93887 81.44848
#
# Poissons Ratio (x) = 0.14795 0.11470
# Poissons Ratio (y) = 0.27500 0.17180
# Poissons Ratio (z) = 0.23542 0.18971
#
# Static dielectric constant tensor:
#      x y z
#    x 1.740700 0.000000 -0.014240 
#    y 0.000000 1.693860 0.000000 
#    z -0.014240 0.000000 1.750400 
# 
# From -- ./inp_files/98074.got.cif
#   From: 2010.05.17/outbox.cif.g08.bks.cpg/sg13_50_cif.got.tgz:98074.got - 2010.06.03 16:44:36.
