data_PCOD9237969
_publ_section_title
;
Structure prediction by ZEFSAII (Michael W. Deem and Ramdas Pophale) SiO2 
 PCOD9237969
Probable space group: P 2/C
;
_chemical_formula_sum "Si O2"
_cell_formula_units_Z 18
_cell_length_a 8.117209
_cell_length_b 7.929327
_cell_length_c 12.272591
_cell_angle_alpha 90.000000
_cell_angle_beta 115.813074
_cell_angle_gamma 90.000000
_cell_volume 711.095127
_symmetry_space_group_name_H-M "P 2/C"
_symmetry_group_IT_number 13
_symmetry_cell_setting 'monoclinic'
loop_
_space_group_symop_operation_xyz
x,y,z
-x,y,1/2-z
-x,-y,-z
x,-y,1/2+z
loop_
_atom_site_type_symbol
_atom_site_label
_atom_site_fract_x
_atom_site_fract_y
_atom_site_fract_z
Si Si1 0.630683 0.047224 0.684784
Si Si2 0.796361 0.287095 0.240436
Si Si3 0.000000 0.206434 0.750000
Si Si4 0.467315 0.595448 0.368176
Si Si5 0.832222 0.384165 0.490423
O O1 0.500000 0.023599 0.750000
O O2 0.556160 0.211563 0.598131
O O3 0.840379 0.104006 0.764909
O O4 0.671733 0.860007 0.653624
O O5 0.702550 0.466327 0.189997
O O6 0.797469 0.269161 0.373108
O O7 0.000000 0.283158 0.250000
O O8 0.095556 0.299915 0.878722
O O9 0.500000 0.629748 0.250000
O O10 0.354052 0.509034 0.542716
O O11 0.000000 0.500000 0.500000
#
# Coordination Sequence:
#
# PCOD9237969 Si02
#       5
#     4   4   2   4   4
#     4  11  23  46  75 109 154 195 261 315 382 464
#     4  11  24  47  76 112 155 201 257 324 393 457
#     4  12  26  46  72 116 152 208 266 306 392 470
#     4   9  21  43  74 107 145 199 253 316 386 452
#     4  11  25  46  78 113 157 205 259 321 388 472
#
# _framework density 25.31307
#
# number of rings (size 3 to 8) (size 9 to 14) (size 15 to 20)
#    0.000    1.333    1.111    6.000    6.222    1.778 
#    4.000    4.444    0.000    0.000    0.000    0.000 
#    0.000    0.000    0.000    0.000    0.000    0.000 
#
# Total GULP energy -100505.618279 kJ/mol
# GULP energy per Si atom -5583.645460 kJ/mol
# Density = 2.525546 g / cm^3
# Si number density = 25.313070 Si / 1000 Ang^3
#
#
#
# Elastic Constant Matrix: (Units=GPa)
#
#
# Indices 1 2 3 4 5 6 
#
# 1 215.1366 69.6723 50.3980 0.0000 -23.4711 0.0000
# 2 69.6723 171.6377 48.9396 0.0000 1.1320 0.0000
# 3 50.3980 48.9396 148.9719 0.0000 23.6806 0.0000
# 4 0.0000 0.0000 0.0000 50.6396 0.0000 59.7441
# 5 -23.4711 1.1320 23.6806 0.0000 41.1195 0.0000
# 6 0.0000 0.0000 0.0000 59.7441 0.0000 169.7535
#
#
#
# Elastic Compliance Matrix: (Units=1/GPa)
#
#
# Indices 1 2 3 4 5 6 
#
# 1 0.006372 -0.001961 -0.002310 0.000000 0.005021 0.000000
# 2 -0.001961 0.007081 -0.001600 0.000000 -0.000393 0.000000
# 3 -0.002310 -0.001600 0.009051 0.000000 -0.006487 0.000000
# 4 0.000000 0.000000 0.000000 0.033769 0.000000 -0.011885
# 5 0.005021 -0.000393 -0.006487 0.000000 0.030932 0.000000
# 6 0.000000 0.000000 0.000000 -0.011885 0.000000 0.010074
#
#
# Mechanical properties :
#
#
# Convention : Reuss Voigt Hill
#
# Bulk Modulus (GPa) = 92.92061 97.08512 95.00286
# Shear Modulus (GPa) = 44.40138 76.75161 60.57650
#
# Velocity S-wave (km/s) = 4.19273 5.51242 4.89723
# Velocity P-wave (km/s) = 7.76060 8.88553 8.34205
#
# Compressibility (1/GPa) = 0.01076188
#
# Stress axis : x y z
#
# Youngs Moduli (GPa) = 156.93044 141.21807 110.48590
#
# Poissons Ratio (x) = 0.27696 0.25519
# Poissons Ratio (y) = 0.30777 0.17682
# Poissons Ratio (z) = 0.36246 0.22600
#
# Static dielectric constant tensor:
#      x y z
#    x 1.999370 0.000000 -0.039500 
#    y 0.000000 2.021960 0.000000 
#    z -0.039500 0.000000 2.081030 
# 
# From -- ./inp_files/27750.got.cif
#   From: 2010.05.17/outbox.cif.g08.bks.cpg/sg13_14_cif.got.tgz:27750.got - 2010.06.03 16:44:36.
