data_PCOD9237702
_publ_section_title
;
Structure prediction by ZEFSAII (Michael W. Deem and Ramdas Pophale) SiO2 
 PCOD9237702
Probable space group: P 2/C
;
_chemical_formula_sum "Si O2"
_cell_formula_units_Z 16
_cell_length_a 13.502477
_cell_length_b 7.605693
_cell_length_c 22.481291
_cell_angle_alpha 90.000000
_cell_angle_beta 157.762702
_cell_angle_gamma 90.000000
_cell_volume 873.724366
_symmetry_space_group_name_H-M "P 2/C"
_symmetry_group_IT_number 13
_symmetry_cell_setting 'monoclinic'
loop_
_space_group_symop_operation_xyz
x,y,z
-x,y,1/2-z
-x,-y,-z
x,-y,1/2+z
loop_
_atom_site_type_symbol
_atom_site_label
_atom_site_fract_x
_atom_site_fract_y
_atom_site_fract_z
Si Si1 0.891666 0.238193 0.088166
Si Si2 0.792542 0.462994 0.436735
Si Si3 0.206130 0.948978 0.562992
Si Si4 0.726486 0.366506 0.112962
O O1 0.696540 0.252493 0.036384
O O2 0.178905 0.251050 0.278408
O O3 0.850504 0.407827 0.023549
O O4 0.850035 0.069879 0.024816
O O5 0.500000 0.497631 0.250000
O O6 0.812689 0.256945 0.462766
O O7 0.000000 0.500000 0.500000
O O8 0.500000 0.983026 0.750000
O O9 0.000000 0.000000 0.500000
O O10 0.000000 0.468019 0.250000
O O11 0.500000 0.500000 0.000000
#
# Coordination Sequence:
#
# PCOD9237702 Si02
#       4
#     4   4   4   4
#     4   9  21  38  60  83 129 150 204 248 305 357
#     4  11  23  35  61  91 118 161 199 248 317 367
#     4  11  23  37  58  93 126 162 200 253 312 371
#     4   8  20  36  64  86 116 166 206 252 302 357
#
# _framework density 18.312411999999998
#
# number of rings (size 3 to 8) (size 9 to 14) (size 15 to 20)
#    1.500    0.500    2.500    0.750    3.500    0.000 
#    0.000    5.000    0.000    9.000    0.000    0.000 
#    0.000    0.000    0.000    0.000    0.000    0.000 
#
# Total GULP energy -89084.447596 kJ/mol
# GULP energy per Si atom -5567.777975 kJ/mol
# Density = 1.827073 g / cm^3
# Si number density = 18.312412 Si / 1000 Ang^3
#
#
#
# Elastic Constant Matrix: (Units=GPa)
#
#
# Indices 1 2 3 4 5 6 
#
# 1 101.0514 61.8181 81.0558 0.0000 -11.8901 0.0000
# 2 61.8181 107.7114 69.6907 0.0000 -27.3702 0.0000
# 3 81.0558 69.6907 94.6357 0.0000 -13.9174 0.0000
# 4 0.0000 0.0000 0.0000 18.2781 0.0000 -8.9092
# 5 -11.8901 -27.3702 -13.9174 0.0000 48.4849 0.0000
# 6 0.0000 0.0000 0.0000 -8.9092 0.0000 27.2330
#
#
#
# Elastic Compliance Matrix: (Units=1/GPa)
#
#
# Indices 1 2 3 4 5 6 
#
# 1 0.031710 -0.001354 -0.026239 0.000000 -0.000520 0.000000
# 2 -0.001354 0.020027 -0.012502 0.000000 0.007385 0.000000
# 3 -0.026239 -0.012502 0.042038 0.000000 -0.001425 0.000000
# 4 0.000000 0.000000 0.000000 0.065089 0.000000 0.021294
# 5 -0.000520 0.007385 -0.001425 0.000000 0.024257 0.000000
# 6 0.000000 0.000000 0.000000 0.021294 0.000000 0.043686
#
#
# Mechanical properties :
#
#
# Convention : Reuss Voigt Hill
#
# Bulk Modulus (GPa) = 73.61624 80.94756 77.28190
# Shear Modulus (GPa) = 16.05001 24.85478 20.45240
#
# Velocity S-wave (km/s) = 2.96371 3.68810 3.34557
# Velocity P-wave (km/s) = 7.21103 7.90163 7.56421
#
# Compressibility (1/GPa) = 0.01358396
#
# Stress axis : x y z
#
# Youngs Moduli (GPa) = 31.53542 49.93329 23.78819
#
# Poissons Ratio (x) = 0.06763 0.62418
# Poissons Ratio (y) = 0.04271 0.29740
# Poissons Ratio (z) = 0.82746 0.62426
#
# Static dielectric constant tensor:
#      x y z
#    x 1.641660 0.000000 -0.006470 
#    y 0.000000 1.613900 0.000000 
#    z -0.006470 0.000000 1.647620 
# 
# From -- ./inp_files/66201.got.cif
#   From: 2010.05.17/outbox.cif.g08.bks.cpg/sg13_34_cif.got.tgz:66201.got - 2010.06.03 16:44:36.
