data_PCOD9237869
_publ_section_title
;
Structure prediction by ZEFSAII (Michael W. Deem and Ramdas Pophale) SiO2 
 PCOD9237869
Probable space group: P 2/C
;
_chemical_formula_sum "Si O2"
_cell_formula_units_Z 24
_cell_length_a 11.752445
_cell_length_b 10.991390
_cell_length_c 11.370234
_cell_angle_alpha 90.000000
_cell_angle_beta 128.742647
_cell_angle_gamma 90.000000
_cell_volume 1145.579553
_symmetry_space_group_name_H-M "P 2/C"
_symmetry_group_IT_number 13
_symmetry_cell_setting 'monoclinic'
loop_
_space_group_symop_operation_xyz
x,y,z
-x,y,1/2-z
-x,-y,-z
x,-y,1/2+z
loop_
_atom_site_type_symbol
_atom_site_label
_atom_site_fract_x
_atom_site_fract_y
_atom_site_fract_z
Si Si1 0.112990 0.315807 0.961113
Si Si2 0.797656 0.613259 0.241771
Si Si3 0.562422 0.202890 0.564199
Si Si4 0.931088 0.029456 0.581075
Si Si5 0.387431 0.387509 0.282377
Si Si6 0.387976 0.010657 0.582891
O O1 0.169398 0.378012 0.876865
O O2 0.077615 0.175444 0.914939
O O3 0.960473 0.378464 0.901260
O O4 0.249134 0.318398 0.136742
O O5 0.693504 0.501128 0.208088
O O6 0.700685 0.730901 0.209767
O O7 0.477256 0.301254 0.429040
O O8 0.451980 0.137849 0.580512
O O9 0.620227 0.089717 0.524573
O O10 0.000000 0.985557 0.750000
O O11 0.770322 0.975105 0.468845
O O12 0.000000 0.000000 0.500000
O O13 0.500000 0.422845 0.250000
O O14 0.500000 0.958397 0.750000
#
# Coordination Sequence:
#
# PCOD9237869 Si02
#       6
#     4   4   4   4   4   4
#     4  11  23  45  70  94 139 187 226 284 362 413
#     4  11  23  44  66  96 130 182 230 281 348 419
#     4  11  23  43  69  97 138 172 232 285 355 414
#     4  12  26  46  75 104 145 189 234 288 358 426
#     4  12  24  42  70  98 132 182 232 289 348 422
#     4  11  25  42  69 103 136 182 232 290 351 423
#
# _framework density 20.950095000000001
#
# number of rings (size 3 to 8) (size 9 to 14) (size 15 to 20)
#    0.000    0.667    5.000    2.500    9.333    0.667 
#    0.000    3.333    0.000    0.000    0.000    0.000 
#    0.000    0.000    0.000    0.000    0.000    0.000 
#
# Total GULP energy -134067.713681 kJ/mol
# GULP energy per Si atom -5586.154737 kJ/mol
# Density = 2.090241 g / cm^3
# Si number density = 20.950095 Si / 1000 Ang^3
#
#
#
# Elastic Constant Matrix: (Units=GPa)
#
#
# Indices 1 2 3 4 5 6 
#
# 1 186.3527 58.4391 43.4620 0.0000 21.3959 0.0000
# 2 58.4391 77.8467 6.6912 0.0000 2.4055 0.0000
# 3 43.4620 6.6912 80.8181 0.0000 17.1964 0.0000
# 4 0.0000 0.0000 0.0000 15.2209 0.0000 -4.5498
# 5 21.3959 2.4055 17.1964 0.0000 37.3787 0.0000
# 6 0.0000 0.0000 0.0000 -4.5498 0.0000 2.4352
#
#
#
# Elastic Compliance Matrix: (Units=1/GPa)
#
#
# Indices 1 2 3 4 5 6 
#
# 1 0.008321 -0.005868 -0.003387 0.000000 -0.002827 0.000000
# 2 -0.005868 0.017081 0.001397 0.000000 0.001617 0.000000
# 3 -0.003387 0.001397 0.015171 0.000000 -0.005131 0.000000
# 4 0.000000 0.000000 0.000000 0.148798 0.000000 0.278002
# 5 -0.002827 0.001617 -0.005131 0.000000 0.030628 0.000000
# 6 0.000000 0.000000 0.000000 0.278002 0.000000 0.930035
#
#
# Mechanical properties :
#
#
# Convention : Reuss Voigt Hill
#
# Bulk Modulus (GPa) = 40.23028 62.46692 51.34860
# Shear Modulus (GPa) = 4.25881 26.76865 15.51373
#
# Velocity S-wave (km/s) = 1.42732 3.57842 2.72418
# Velocity P-wave (km/s) = 4.68625 6.85238 5.87010
#
# Compressibility (1/GPa) = 0.02485690
#
# Stress axis : x y z
#
# Youngs Moduli (GPa) = 120.17877 58.54548 65.91468
#
# Poissons Ratio (x) = 0.34354 0.22328
# Poissons Ratio (y) = 0.70521 -0.09211
# Poissons Ratio (z) = 0.40710 -0.08182
#
# Static dielectric constant tensor:
#      x y z
#    x 1.939670 0.000000 -0.152450 
#    y 0.000000 1.742650 0.000000 
#    z -0.152450 0.000000 1.888270 
# 
# From -- ./inp_files/33936.got.cif
#   From: 2010.05.17/outbox.cif.g08.bks.cpg/sg13_17_cif.got.tgz:33936.got - 2010.06.03 16:44:36.
