data_PCOD9237787
_publ_section_title
;
Structure prediction by ZEFSAII (Michael W. Deem and Ramdas Pophale) SiO2 
 PCOD9237787
Probable space group: P 2/C
;
_chemical_formula_sum "Si O2"
_cell_formula_units_Z 22
_cell_length_a 8.546736
_cell_length_b 9.926816
_cell_length_c 11.520050
_cell_angle_alpha 90.000000
_cell_angle_beta 99.317170
_cell_angle_gamma 90.000000
_cell_volume 964.488279
_symmetry_space_group_name_H-M "P 2/C"
_symmetry_group_IT_number 13
_symmetry_cell_setting 'monoclinic'
loop_
_space_group_symop_operation_xyz
x,y,z
-x,y,1/2-z
-x,-y,-z
x,-y,1/2+z
loop_
_atom_site_type_symbol
_atom_site_label
_atom_site_fract_x
_atom_site_fract_y
_atom_site_fract_z
Si Si1 0.646952 0.284690 0.445742
Si Si2 0.000000 0.448320 0.250000
Si Si3 0.324101 0.236832 0.779356
Si Si4 0.308571 0.052482 0.229172
Si Si5 0.269338 0.276045 0.384480
Si Si6 0.181640 0.436891 0.594446
O O1 0.667467 0.240287 0.581228
O O2 0.542033 0.303697 0.102041
O O3 0.726116 0.429595 0.433821
O O4 0.717045 0.163638 0.374511
O O5 0.843785 0.357209 0.216708
O O6 0.988629 0.523196 0.373088
O O7 0.500000 0.240423 0.750000
O O8 0.245442 0.099453 0.720822
O O9 0.247486 0.371107 0.721058
O O10 0.500000 0.038919 0.250000
O O11 0.256064 0.121662 0.343418
O O12 0.208684 0.321364 0.502736
#
# Coordination Sequence:
#
# PCOD9237787 Si02
#       6
#     4   2   4   4   4   4
#     4  11  23  41  71 103 132 169 227 277 336 392
#     4  12  26  42  62  98 136 180 224 268 338 390
#     4  11  24  39  69 106 136 167 217 281 342 394
#     4   9  22  40  65 100 134 170 215 269 343 393
#     4  11  23  41  67  96 133 174 224 276 325 394
#     4  12  25  42  68 100 136 174 225 281 331 390
#
# _framework density 22.810023000000001
#
# number of rings (size 3 to 8) (size 9 to 14) (size 15 to 20)
#    0.000    1.091    3.636    2.182    5.091    2.182 
#    0.000    0.909    0.000    3.273    0.000    0.000 
#    0.000    0.000    0.000    0.000    0.000    0.000 
#
# Total GULP energy -122766.204533 kJ/mol
# GULP energy per Si atom -5580.282024 kJ/mol
# Density = 2.275811 g / cm^3
# Si number density = 22.810023 Si / 1000 Ang^3
#
#
#
# Elastic Constant Matrix: (Units=GPa)
#
#
# Indices 1 2 3 4 5 6 
#
# 1 41.6183 27.0507 20.7928 0.0000 -0.0851 0.0000
# 2 27.0507 141.6830 38.6173 0.0000 -6.4241 0.0000
# 3 20.7928 38.6173 120.4458 0.0000 -13.4041 0.0000
# 4 0.0000 0.0000 0.0000 -424.5392 0.0000 277.7108
# 5 -0.0851 -6.4241 -13.4041 0.0000 32.8569 0.0000
# 6 0.0000 0.0000 0.0000 277.7108 0.0000 -153.3161
#
#
#
# Elastic Compliance Matrix: (Units=1/GPa)
#
#
# Indices 1 2 3 4 5 6 
#
# 1 0.028897 -0.004594 -0.003779 0.000000 -0.002365 0.000000
# 2 -0.004594 0.008473 -0.001823 0.000000 0.000901 0.000000
# 3 -0.003779 -0.001823 0.009950 0.000000 0.003693 0.000000
# 4 0.000000 0.000000 0.000000 0.012740 0.000000 0.023076
# 5 -0.002365 0.000901 0.003693 0.000000 0.032112 0.000000
# 6 0.000000 0.000000 0.000000 0.023076 0.000000 0.035277
#
#
# Mechanical properties :
#
#
# Convention : Reuss Voigt Hill
#
# Bulk Modulus (GPa) = 37.13635 52.96321 45.04978
# Shear Modulus (GPa) = 31.88430 -94.51393 -31.31482
#
# Velocity S-wave (km/s) = 3.74280 -6.44401 -3.70922
# Velocity P-wave (km/s) = 5.91558 5.66545 1.20350
#
# Compressibility (1/GPa) = 0.02692780
#
# Stress axis : x y z
#
# Youngs Moduli (GPa) = 34.60542 118.02209 100.49895
#
# Poissons Ratio (x) = 0.54225 0.37976
# Poissons Ratio (y) = 0.15899 0.18323
# Poissons Ratio (z) = 0.13076 0.21518
#
# Static dielectric constant tensor:
#      x y z
#    x 1.952320 0.000000 0.080700 
#    y 0.000000 1.886720 0.000000 
#    z 0.080700 0.000000 1.900120 
# 
# From -- ./inp_files/32495.got.cif
#   From: 2010.05.17/outbox.cif.g08.bks.cpg/sg13_17_cif.got.tgz:32495.got - 2010.06.03 16:44:36.
