data_PCOD9237325
_publ_section_title
;
Structure prediction by ZEFSAII (Michael W. Deem and Ramdas Pophale) SiO2 
 PCOD9237325
Probable space group: P 2/C
;
_chemical_formula_sum "Si O2"
_cell_formula_units_Z 20
_cell_length_a 9.618151
_cell_length_b 11.108818
_cell_length_c 10.314420
_cell_angle_alpha 90.000000
_cell_angle_beta 135.332606
_cell_angle_gamma 90.000000
_cell_volume 774.735496
_symmetry_space_group_name_H-M "P 2/C"
_symmetry_group_IT_number 13
_symmetry_cell_setting 'monoclinic'
loop_
_space_group_symop_operation_xyz
x,y,z
-x,y,1/2-z
-x,-y,-z
x,-y,1/2+z
loop_
_atom_site_type_symbol
_atom_site_label
_atom_site_fract_x
_atom_site_fract_y
_atom_site_fract_z
Si Si1 0.197474 0.977305 0.047658
Si Si2 0.328994 0.235020 0.784286
Si Si3 0.692355 0.619749 0.638009
Si Si4 0.788607 0.468552 0.929188
Si Si5 0.000000 0.786648 0.750000
Si Si6 0.000000 0.169581 0.750000
O O1 0.344428 0.905200 0.244222
O O2 0.156366 0.873578 0.918020
O O3 0.177673 0.095340 0.943331
O O4 0.000000 0.000000 0.000000
O O5 0.285521 0.332090 0.643811
O O6 0.126742 0.241033 0.731453
O O7 0.511196 0.292431 0.982165
O O8 0.655249 0.551040 0.746652
O O9 0.758429 0.527433 0.564942
O O10 0.883077 0.705931 0.773631
O O11 0.000000 0.500000 0.000000
#
# Coordination Sequence:
#
# PCOD9237325 Si02
#       6
#     4   4   4   4   2   2
#     4   9  19  41  68  97 134 183 237 291 359 431
#     4  11  23  42  70 100 143 181 238 302 362 426
#     4  12  25  44  71 105 141 189 239 296 359 441
#     4  12  24  44  71 101 143 190 235 292 362 437
#     4  11  20  41  68  94 138 185 228 289 372 418
#     4   9  22  41  72 102 138 189 242 301 356 438
#
# _framework density 25.815263000000002
#
# number of rings (size 3 to 8) (size 9 to 14) (size 15 to 20)
#    0.000    1.200    4.000    1.200    2.800    0.000 
#    0.000   11.000    0.000    0.000    0.000    0.000 
#    0.000    0.000    0.000    0.000    0.000    0.000 
#
# Total GULP energy -111438.826099 kJ/mol
# GULP energy per Si atom -5571.941305 kJ/mol
# Density = 2.575651 g / cm^3
# Si number density = 25.815263 Si / 1000 Ang^3
#
#
#
# Elastic Constant Matrix: (Units=GPa)
#
#
# Indices 1 2 3 4 5 6 
#
# 1 127.0413 28.4101 23.4103 0.0000 -9.2427 0.0000
# 2 28.4101 75.1600 24.2570 0.0000 1.3274 0.0000
# 3 23.4103 24.2570 106.9650 0.0000 11.1017 0.0000
# 4 0.0000 0.0000 0.0000 38.0989 0.0000 5.5095
# 5 -9.2427 1.3274 11.1017 0.0000 53.9857 0.0000
# 6 0.0000 0.0000 0.0000 5.5095 0.0000 33.7187
#
#
#
# Elastic Compliance Matrix: (Units=1/GPa)
#
#
# Indices 1 2 3 4 5 6 
#
# 1 0.008941 -0.002932 -0.001490 0.000000 0.001909 0.000000
# 2 -0.002932 0.015323 -0.002802 0.000000 -0.000303 0.000000
# 3 -0.001490 -0.002802 0.010555 0.000000 -0.002357 0.000000
# 4 0.000000 0.000000 0.000000 0.026883 0.000000 -0.004392
# 5 0.001909 -0.000303 -0.002357 0.000000 0.019342 0.000000
# 6 0.000000 0.000000 0.000000 -0.004392 0.000000 0.030375
#
#
# Mechanical properties :
#
#
# Convention : Reuss Voigt Hill
#
# Bulk Modulus (GPa) = 49.09049 51.25792 50.17421
# Shear Modulus (GPa) = 37.69132 40.69992 39.19562
#
# Velocity S-wave (km/s) = 3.82519 3.97493 3.90078
# Velocity P-wave (km/s) = 6.21022 6.40043 6.30604
#
# Compressibility (1/GPa) = 0.02037054
#
# Stress axis : x y z
#
# Youngs Moduli (GPa) = 111.84835 65.26160 94.74289
#
# Poissons Ratio (x) = 0.19137 0.14116
# Poissons Ratio (y) = 0.32798 0.26544
# Poissons Ratio (z) = 0.16664 0.18284
#
# Static dielectric constant tensor:
#      x y z
#    x 1.927980 0.000000 0.090340 
#    y 0.000000 2.059160 0.000000 
#    z 0.090340 0.000000 2.328460 
# 
# From -- ./inp_files/33452.got.cif
#   From: 2010.05.17/outbox.cif.g08.bks.cpg/sg13_17_cif.got.tgz:33452.got - 2010.06.03 16:44:36.
