data_PCOD9237827
_publ_section_title
;
Structure prediction by ZEFSAII (Michael W. Deem and Ramdas Pophale) SiO2 
 PCOD9237827
Probable space group: P 2/C
;
_chemical_formula_sum "Si O2"
_cell_formula_units_Z 20
_cell_length_a 5.436772
_cell_length_b 16.846776
_cell_length_c 9.973525
_cell_angle_alpha 90.000000
_cell_angle_beta 109.795066
_cell_angle_gamma 90.000000
_cell_volume 859.517369
_symmetry_space_group_name_H-M "P 2/C"
_symmetry_group_IT_number 13
_symmetry_cell_setting 'monoclinic'
loop_
_space_group_symop_operation_xyz
x,y,z
-x,y,1/2-z
-x,-y,-z
x,-y,1/2+z
loop_
_atom_site_type_symbol
_atom_site_label
_atom_site_fract_x
_atom_site_fract_y
_atom_site_fract_z
Si Si1 0.050397 0.162407 0.396096
Si Si2 0.220522 0.773737 0.401541
Si Si3 0.607518 0.313913 0.118143
Si Si4 0.815450 0.480439 0.091139
Si Si5 0.458099 0.066667 0.599601
O O1 0.241830 0.230109 0.370566
O O2 0.173488 0.101798 0.523679
O O3 0.000000 0.115164 0.250000
O O4 0.854533 0.207638 0.457407
O O5 0.394717 0.696043 0.459398
O O6 0.366607 0.853749 0.380080
O O7 0.000000 0.758816 0.250000
O O8 0.500000 0.325394 0.250000
O O9 0.790157 0.386503 0.113598
O O10 0.000000 0.512022 0.250000
O O11 0.500000 0.500000 0.000000
O O12 0.000000 0.500000 0.000000
O O13 0.500000 0.029343 0.750000
O O14 0.500000 0.000000 0.500000
#
# Coordination Sequence:
#
# PCOD9237827 Si02
#       5
#     4   4   4   4   4
#     4  11  23  42  69 100 134 181 244 298 379 451
#     4  11  24  45  68 104 142 183 247 318 385 449
#     4  11  24  44  76 105 140 189 245 308 372 461
#     4  12  28  52  78 115 160 207 258 318 391 474
#     4  11  26  42  62  96 142 189 243 310 378 461
#
# _framework density 23.268872999999999
#
# number of rings (size 3 to 8) (size 9 to 14) (size 15 to 20)
#    0.000    0.800    4.000    2.400    5.600    2.400 
#    3.600    0.000    0.000    0.000    0.000    0.000 
#    0.000    0.000    0.000    0.000    0.000    0.000 
#
# Total GULP energy -111422.341346 kJ/mol
# GULP energy per Si atom -5571.117067 kJ/mol
# Density = 2.321591 g / cm^3
# Si number density = 23.268873 Si / 1000 Ang^3
#
#
#
# Elastic Constant Matrix: (Units=GPa)
#
#
# Indices 1 2 3 4 5 6 
#
# 1 88.5766 14.6457 48.6394 0.0000 6.0811 0.0000
# 2 14.6457 69.1657 21.5070 0.0000 4.3800 0.0000
# 3 48.6394 21.5070 203.1919 0.0000 7.6069 0.0000
# 4 0.0000 0.0000 0.0000 26.4284 0.0000 -18.2471
# 5 6.0811 4.3800 7.6069 0.0000 55.6431 0.0000
# 6 0.0000 0.0000 0.0000 -18.2471 0.0000 -144.9489
#
#
#
# Elastic Compliance Matrix: (Units=1/GPa)
#
#
# Indices 1 2 3 4 5 6 
#
# 1 0.013275 -0.001837 -0.002950 0.000000 -0.000903 0.000000
# 2 -0.001837 0.015256 -0.001144 0.000000 -0.000844 0.000000
# 3 -0.002950 -0.001144 0.005763 0.000000 -0.000375 0.000000
# 4 0.000000 0.000000 0.000000 0.034812 0.000000 -0.004382
# 5 -0.000903 -0.000844 -0.000375 0.000000 0.018188 0.000000
# 6 0.000000 0.000000 0.000000 -0.004382 0.000000 -0.006347
#
#
# Mechanical properties :
#
#
# Convention : Reuss Voigt Hill
#
# Bulk Modulus (GPa) = 44.57484 58.94648 51.76066
# Shear Modulus (GPa) = 49.85836 5.83400 27.84618
#
# Velocity S-wave (km/s) = 4.63396 1.58514 3.46311
# Velocity P-wave (km/s) = 6.91588 5.36078 6.18738
#
# Compressibility (1/GPa) = 0.02243418
#
# Stress axis : x y z
#
# Youngs Moduli (GPa) = 75.32969 65.54818 173.53298
#
# Poissons Ratio (x) = 0.12039 0.51184
# Poissons Ratio (y) = 0.13835 0.19844
# Poissons Ratio (z) = 0.22219 0.07496
#
# Static dielectric constant tensor:
#      x y z
#    x 2.216270 0.000000 0.121160 
#    y 0.000000 1.896430 0.000000 
#    z 0.121160 0.000000 2.740440 
# 
# From -- ./inp_files/9571.got.cif
#   From: 2010.05.17/outbox.cif.g08.bks.cpg/sg13_5_cif.got.tgz:9571.got - 2010.06.03 16:44:36.
