data_PCOD9237794
_publ_section_title
;
Structure prediction by ZEFSAII (Michael W. Deem and Ramdas Pophale) SiO2 
 PCOD9237794
Probable space group: P 2/C
;
_chemical_formula_sum "Si O2"
_cell_formula_units_Z 20
_cell_length_a 12.141539
_cell_length_b 8.071478
_cell_length_c 9.420969
_cell_angle_alpha 90.000000
_cell_angle_beta 100.873111
_cell_angle_gamma 90.000000
_cell_volume 906.681612
_symmetry_space_group_name_H-M "P 2/C"
_symmetry_group_IT_number 13
_symmetry_cell_setting 'monoclinic'
loop_
_space_group_symop_operation_xyz
x,y,z
-x,y,1/2-z
-x,-y,-z
x,-y,1/2+z
loop_
_atom_site_type_symbol
_atom_site_label
_atom_site_fract_x
_atom_site_fract_y
_atom_site_fract_z
Si Si1 0.767139 0.679862 0.230087
Si Si2 0.079918 0.952057 0.146045
Si Si3 0.398319 0.611919 0.813213
Si Si4 0.296537 0.127730 0.072841
Si Si5 0.415518 0.801937 0.099392
O O1 0.885562 0.760453 0.310254
O O2 0.714190 0.497337 0.187838
O O3 0.691123 0.725535 0.346753
O O4 0.744860 0.775423 0.076565
O O5 0.000000 0.015273 0.250000
O O6 0.195166 0.047817 0.139362
O O7 0.000000 0.000000 0.000000
O O8 0.500000 0.524380 0.750000
O O9 0.362010 0.756464 0.697579
O O10 0.444182 0.687117 0.972122
O O11 0.375603 0.981025 0.035887
O O12 0.500000 0.829264 0.250000
#
# Coordination Sequence:
#
# PCOD9237794 Si02
#       5
#     4   4   4   4   4
#     4  11  24  42  66 100 139 180 227 284 356 417
#     4  11  23  46  77 102 134 180 233 301 347 405
#     4  12  26  44  68 102 149 188 225 289 357 418
#     4  11  24  43  70 102 137 184 242 289 342 418
#     4  11  23  41  68  97 136 187 239 284 337 414
#
# _framework density 22.058461000000001
#
# number of rings (size 3 to 8) (size 9 to 14) (size 15 to 20)
#    0.000    0.800    2.000    6.000    2.800    4.800 
#    0.000    4.000    0.000    0.000    0.000    0.000 
#    0.000    0.000    0.000    0.000    0.000    0.000 
#
# Total GULP energy -111496.253097 kJ/mol
# GULP energy per Si atom -5574.812655 kJ/mol
# Density = 2.200826 g / cm^3
# Si number density = 22.058461 Si / 1000 Ang^3
#
#
#
# Elastic Constant Matrix: (Units=GPa)
#
#
# Indices 1 2 3 4 5 6 
#
# 1 100.7349 23.6814 39.9301 0.0000 -10.9771 0.0000
# 2 23.6814 86.1932 31.0536 0.0000 0.6932 0.0000
# 3 39.9301 31.0536 156.2180 0.0000 -7.2506 0.0000
# 4 0.0000 0.0000 0.0000 42.9892 0.0000 4.9535
# 5 -10.9771 0.6932 -7.2506 0.0000 48.5410 0.0000
# 6 0.0000 0.0000 0.0000 4.9535 0.0000 38.4795
#
#
#
# Elastic Compliance Matrix: (Units=1/GPa)
#
#
# Indices 1 2 3 4 5 6 
#
# 1 0.011691 -0.002362 -0.002411 0.000000 0.002317 0.000000
# 2 -0.002362 0.012989 -0.002026 0.000000 -0.001022 0.000000
# 3 -0.002411 -0.002026 0.007448 0.000000 0.000596 0.000000
# 4 0.000000 0.000000 0.000000 0.023612 0.000000 -0.003040
# 5 0.002317 -0.001022 0.000596 0.000000 0.021229 0.000000
# 6 0.000000 0.000000 0.000000 -0.003040 0.000000 0.026379
#
#
# Mechanical properties :
#
#
# Convention : Reuss Voigt Hill
#
# Bulk Modulus (GPa) = 53.96687 59.16402 56.56544
# Shear Modulus (GPa) = 40.61038 42.56733 41.58886
#
# Velocity S-wave (km/s) = 4.29538 4.39766 4.34682
# Velocity P-wave (km/s) = 7.00849 7.25710 7.13388
#
# Compressibility (1/GPa) = 0.01852989
#
# Stress axis : x y z
#
# Youngs Moduli (GPa) = 85.53923 76.98934 134.26530
#
# Poissons Ratio (x) = 0.18184 0.32373
# Poissons Ratio (y) = 0.20204 0.27198
# Poissons Ratio (z) = 0.20624 0.15596
#
# Static dielectric constant tensor:
#      x y z
#    x 2.298030 0.000000 0.200950 
#    y 0.000000 1.910080 0.000000 
#    z 0.200950 0.000000 1.800820 
# 
# From -- ./inp_files/14986.got.cif
#   From: 2010.05.17/outbox.cif.g08.bks.cpg/sg13_8_cif.got.tgz:14986.got - 2010.06.03 16:44:36.
