data_PCOD9237873
_publ_section_title
;
Structure prediction by ZEFSAII (Michael W. Deem and Ramdas Pophale) SiO2 
 PCOD9237873
Probable space group: P 2/C
;
_chemical_formula_sum "Si O2"
_cell_formula_units_Z 20
_cell_length_a 7.886573
_cell_length_b 6.420057
_cell_length_c 18.450648
_cell_angle_alpha 90.000000
_cell_angle_beta 93.665455
_cell_angle_gamma 90.000000
_cell_volume 932.286742
_symmetry_space_group_name_H-M "P 2/C"
_symmetry_group_IT_number 13
_symmetry_cell_setting 'monoclinic'
loop_
_space_group_symop_operation_xyz
x,y,z
-x,y,1/2-z
-x,-y,-z
x,-y,1/2+z
loop_
_atom_site_type_symbol
_atom_site_label
_atom_site_fract_x
_atom_site_fract_y
_atom_site_fract_z
Si Si1 0.590637 0.914711 0.324610
Si Si2 0.115698 0.234334 0.182875
Si Si3 0.270470 0.464553 0.593313
Si Si4 0.530760 0.814827 0.557889
Si Si5 0.917455 0.219266 0.025429
O O1 0.500000 0.842025 0.250000
O O2 0.617302 0.734331 0.383590
O O3 0.768996 0.027852 0.312198
O O4 0.480544 0.090366 0.361940
O O5 0.230671 0.436911 0.171240
O O6 0.000000 0.247841 0.250000
O O7 0.020216 0.242854 0.102908
O O8 0.383473 0.636951 0.553062
O O9 0.106491 0.372580 0.545264
O O10 0.723222 0.757135 0.547288
O O11 0.500000 0.000000 0.500000
O O12 0.000000 0.000000 0.000000
#
# Coordination Sequence:
#
# PCOD9237873 Si02
#       5
#     4   4   4   4   4
#     4  11  24  44  67  94 136 181 229 284 343 418
#     4  11  25  44  65 100 138 176 226 289 353 411
#     4  11  24  45  67 101 137 182 235 278 352 429
#     4  11  23  43  70  99 133 179 232 281 343 421
#     4  12  22  44  71  99 138 176 228 293 347 414
#
# _framework density 21.452627
#
# number of rings (size 3 to 8) (size 9 to 14) (size 15 to 20)
#    0.000    0.800    4.000    3.600    0.000    5.600 
#    3.600    0.000    0.000    0.000    0.000    0.000 
#    0.000    0.000    0.000    0.000    0.000    0.000 
#
# Total GULP energy -111357.142333 kJ/mol
# GULP energy per Si atom -5567.857117 kJ/mol
# Density = 2.140380 g / cm^3
# Si number density = 21.452627 Si / 1000 Ang^3
#
#
#
# Elastic Constant Matrix: (Units=GPa)
#
#
# Indices 1 2 3 4 5 6 
#
# 1 63.1376 38.1150 26.2520 0.0000 -7.4210 0.0000
# 2 38.1150 109.8908 51.2683 0.0000 -4.0326 0.0000
# 3 26.2520 51.2683 112.7983 0.0000 -3.0377 0.0000
# 4 0.0000 0.0000 0.0000 30.4380 0.0000 -0.9681
# 5 -7.4210 -4.0326 -3.0377 0.0000 62.2174 0.0000
# 6 0.0000 0.0000 0.0000 -0.9681 0.0000 40.4242
#
#
#
# Elastic Compliance Matrix: (Units=1/GPa)
#
#
# Indices 1 2 3 4 5 6 
#
# 1 0.020598 -0.006169 -0.001937 0.000000 0.001962 0.000000
# 2 -0.006169 0.013411 -0.004662 0.000000 -0.000094 0.000000
# 3 -0.001937 -0.004662 0.011436 0.000000 0.000025 0.000000
# 4 0.000000 0.000000 0.000000 0.032879 0.000000 0.000787
# 5 0.001962 -0.000094 0.000025 0.000000 0.016302 0.000000
# 6 0.000000 0.000000 0.000000 0.000787 0.000000 0.024757
#
#
# Mechanical properties :
#
#
# Convention : Reuss Voigt Hill
#
# Bulk Modulus (GPa) = 50.22878 57.45525 53.84202
# Shear Modulus (GPa) = 32.99107 37.96203 35.47655
#
# Velocity S-wave (km/s) = 3.92581 4.21119 4.07100
# Velocity P-wave (km/s) = 6.63430 7.10536 6.87386
#
# Compressibility (1/GPa) = 0.01990890
#
# Stress axis : x y z
#
# Youngs Moduli (GPa) = 48.54729 74.56431 87.44226
#
# Poissons Ratio (x) = 0.45995 0.16941
# Poissons Ratio (y) = 0.29947 0.40770
# Poissons Ratio (z) = 0.09406 0.34766
#
# Static dielectric constant tensor:
#      x y z
#    x 1.919570 0.000000 0.024750 
#    y 0.000000 1.857300 0.000000 
#    z 0.024750 0.000000 1.781360 
# 
# From -- ./inp_files/62398.got.cif
#   From: 2010.05.17/outbox.cif.g08.bks.cpg/sg13_32_cif.got.tgz:62398.got - 2010.06.03 16:44:36.
