data_PCOD9237069
_publ_section_title
;
Structure prediction by ZEFSAII (Michael W. Deem and Ramdas Pophale) SiO2 
 PCOD9237069
Probable space group: P 2/C
;
_chemical_formula_sum "Si O2"
_cell_formula_units_Z 14
_cell_length_a 16.899805
_cell_length_b 5.014595
_cell_length_c 10.689756
_cell_angle_alpha 90.000000
_cell_angle_beta 36.636589
_cell_angle_gamma 90.000000
_cell_volume 540.590774
_symmetry_space_group_name_H-M "P 2/C"
_symmetry_group_IT_number 13
_symmetry_cell_setting 'monoclinic'
loop_
_space_group_symop_operation_xyz
x,y,z
-x,y,1/2-z
-x,-y,-z
x,-y,1/2+z
loop_
_atom_site_type_symbol
_atom_site_label
_atom_site_fract_x
_atom_site_fract_y
_atom_site_fract_z
Si Si1 0.334520 0.896969 0.775610
Si Si2 0.071790 0.135806 0.029889
Si Si3 0.329425 0.601711 0.143981
Si Si4 0.500000 0.762116 0.250000
O O1 0.380403 0.100555 0.606040
O O2 0.394767 0.039656 0.817177
O O3 0.362137 0.588866 0.720494
O O4 0.176604 0.929673 0.960435
O O5 0.000000 0.234745 0.250000
O O6 0.170955 0.356909 0.842900
O O7 0.000000 0.000000 0.000000
O O8 0.398920 0.437873 0.949014
#
# Coordination Sequence:
#
# PCOD9237069 Si02
#       4
#     4   4   4   2
#     4  10  26  45  75 116 156 217 262 339 408 483
#     4  10  26  52  82 116 161 215 277 334 411 486
#     4  10  26  47  76 116 157 215 262 345 406 485
#     4  12  24  48  80 118 172 204 282 328 430 494
#
# _framework density 25.897592
#
# number of rings (size 3 to 8) (size 9 to 14) (size 15 to 20)
#    1.714    0.000    0.000    1.714    4.000    9.143 
#    0.000    0.000    0.000    0.000    0.000    0.000 
#    0.000    0.000    0.000    0.000    0.000    0.000 
#
# Total GULP energy -78021.493939 kJ/mol
# GULP energy per Si atom -5572.963853 kJ/mol
# Density = 2.583865 g / cm^3
# Si number density = 25.897592 Si / 1000 Ang^3
#
#
#
# Elastic Constant Matrix: (Units=GPa)
#
#
# Indices 1 2 3 4 5 6 
#
# 1 190.6084 43.5793 95.5504 0.0000 7.3026 0.0000
# 2 43.5793 123.7142 41.1938 0.0000 -13.6697 0.0000
# 3 95.5504 41.1938 131.7682 0.0000 -1.1356 0.0000
# 4 0.0000 0.0000 0.0000 35.9534 0.0000 0.1711
# 5 7.3026 -13.6697 -1.1356 0.0000 38.6859 0.0000
# 6 0.0000 0.0000 0.0000 0.1711 0.0000 50.8822
#
#
#
# Elastic Compliance Matrix: (Units=1/GPa)
#
#
# Indices 1 2 3 4 5 6 
#
# 1 0.008543 -0.001327 -0.005800 0.000000 -0.002252 0.000000
# 2 -0.001327 0.009618 -0.002013 0.000000 0.003590 0.000000
# 3 -0.005800 -0.002013 0.012431 0.000000 0.000748 0.000000
# 4 0.000000 0.000000 0.000000 0.027814 0.000000 -0.000094
# 5 -0.002252 0.003590 0.000748 0.000000 0.027565 0.000000
# 6 0.000000 0.000000 0.000000 -0.000094 0.000000 0.019654
#
#
# Mechanical properties :
#
#
# Convention : Reuss Voigt Hill
#
# Bulk Modulus (GPa) = 81.22688 89.63753 85.43220
# Shear Modulus (GPa) = 39.05994 42.82210 40.94102
#
# Velocity S-wave (km/s) = 3.88783 4.07076 3.98034
# Velocity P-wave (km/s) = 7.18236 7.53540 7.36100
#
# Compressibility (1/GPa) = 0.01231120
#
# Stress axis : x y z
#
# Youngs Moduli (GPa) = 117.04963 103.97471 80.44703
#
# Poissons Ratio (x) = 0.13799 0.46657
# Poissons Ratio (y) = 0.15534 0.16197
# Poissons Ratio (z) = 0.67885 0.20934
#
# Static dielectric constant tensor:
#      x y z
#    x 2.164060 0.000000 0.014440 
#    y 0.000000 1.963380 0.000000 
#    z 0.014440 0.000000 2.238390 
# 
# From -- ./inp_files/17564.got.cif
#   From: 2010.05.17/outbox.cif.g08.bks.cpg/sg13_9_cif.got.tgz:17564.got - 2010.06.03 16:44:36.
