data_PCOD9237225
_publ_section_title
;
Structure prediction by ZEFSAII (Michael W. Deem and Ramdas Pophale) SiO2 
 PCOD9237225
Probable space group: P 2/C
;
_chemical_formula_sum "Si O2"
_cell_formula_units_Z 24
_cell_length_a 12.343250
_cell_length_b 4.899928
_cell_length_c 23.415098
_cell_angle_alpha 90.000000
_cell_angle_beta 54.186077
_cell_angle_gamma 90.000000
_cell_volume 1148.402419
_symmetry_space_group_name_H-M "P 2/C"
_symmetry_group_IT_number 13
_symmetry_cell_setting 'monoclinic'
loop_
_space_group_symop_operation_xyz
x,y,z
-x,y,1/2-z
-x,-y,-z
x,-y,1/2+z
loop_
_atom_site_type_symbol
_atom_site_label
_atom_site_fract_x
_atom_site_fract_y
_atom_site_fract_z
Si Si1 0.967359 0.575307 0.692877
Si Si2 0.798270 0.918696 0.252090
Si Si3 0.336300 0.976957 0.089902
Si Si4 0.568365 0.260165 0.595760
Si Si5 0.748586 0.485611 0.448629
Si Si6 0.520863 0.788131 0.808819
O O1 0.841960 0.378473 0.718422
O O2 0.000000 0.531712 0.750000
O O3 0.095883 0.523401 0.614405
O O4 0.920011 0.883556 0.700502
O O5 0.774724 0.918404 0.327581
O O6 0.662508 0.055455 0.271318
O O7 0.472127 0.875887 0.077345
O O8 0.303986 0.788740 0.046007
O O9 0.323756 0.290643 0.076229
O O10 0.699810 0.371270 0.524077
O O11 0.494056 0.520187 0.647252
O O12 0.583319 0.019437 0.637275
O O13 0.500000 0.710155 0.750000
#
# Coordination Sequence:
#
# PCOD9237225 Si02
#       6
#     4   4   4   4   4   4
#     4  12  21  35  56  86 128 165 189 222 278 368
#     4  11  21  37  57  87 115 154 208 237 281 348
#     4  11  19  34  54  84 124 160 190 232 282 361
#     4  11  23  38  58  90 117 151 203 248 306 353
#     4  12  22  33  56  85 130 164 183 228 293 366
#     4  11  24  44  67  83 109 153 210 274 304 328
#
# _framework density 20.898596999999999
#
# number of rings (size 3 to 8) (size 9 to 14) (size 15 to 20)
#    0.000    0.667    3.333    8.000    0.000    0.000 
#    0.000    0.000    0.000    6.000    0.000    0.000 
#    0.000    0.000    0.000    0.000    0.000    0.000 
#
# Total GULP energy -134182.258282 kJ/mol
# GULP energy per Si atom -5590.927428 kJ/mol
# Density = 2.085103 g / cm^3
# Si number density = 20.898597 Si / 1000 Ang^3
#
#
#
# Elastic Constant Matrix: (Units=GPa)
#
#
# Indices 1 2 3 4 5 6 
#
# 1 28.3002 6.0282 30.7650 0.0000 -8.7847 0.0000
# 2 6.0282 81.7064 9.8408 0.0000 -3.2504 0.0000
# 3 30.7650 9.8408 97.4527 0.0000 -21.3247 0.0000
# 4 0.0000 0.0000 0.0000 37.8866 0.0000 -9.0154
# 5 -8.7847 -3.2504 -21.3247 0.0000 22.4586 0.0000
# 6 0.0000 0.0000 0.0000 -9.0154 0.0000 20.5075
#
#
#
# Elastic Compliance Matrix: (Units=1/GPa)
#
#
# Indices 1 2 3 4 5 6 
#
# 1 0.054782 -0.001899 -0.015745 0.000000 0.006203 0.000000
# 2 -0.001899 0.012466 -0.000539 0.000000 0.000550 0.000000
# 3 -0.015745 -0.000539 0.017573 0.000000 0.010449 0.000000
# 4 0.000000 0.000000 0.000000 0.029478 0.000000 0.012959
# 5 0.006203 0.000550 0.010449 0.000000 0.056954 0.000000
# 6 0.000000 0.000000 0.000000 0.012959 0.000000 0.054460
#
#
# Mechanical properties :
#
#
# Convention : Reuss Voigt Hill
#
# Bulk Modulus (GPa) = 20.63786 33.41415 27.02600
# Shear Modulus (GPa) = 17.97080 26.89222 22.43151
#
# Velocity S-wave (km/s) = 2.93559 3.59109 3.27976
# Velocity P-wave (km/s) = 4.62460 5.76350 5.22517
#
# Compressibility (1/GPa) = 0.04845465
#
# Stress axis : x y z
#
# Youngs Moduli (GPa) = 18.25431 80.21930 56.90592
#
# Poissons Ratio (x) = 0.15230 0.89599
# Poissons Ratio (y) = 0.03466 0.03068
# Poissons Ratio (z) = 0.28741 0.04325
#
# Static dielectric constant tensor:
#      x y z
#    x 1.744340 0.000000 -0.020520 
#    y 0.000000 1.739290 0.000000 
#    z -0.020520 0.000000 1.789570 
# 
# From -- ./inp_files/77169.got.cif
#   From: 2010.05.17/outbox.cif.g08.bks.cpg/sg13_39_cif.got.tgz:77169.got - 2010.06.03 16:44:36.
