data_PCOD9237090
_publ_section_title
;
Structure prediction by ZEFSAII (Michael W. Deem and Ramdas Pophale) SiO2 
 PCOD9237090
Probable space group: P 2/C
;
_chemical_formula_sum "Si O2"
_cell_formula_units_Z 14
_cell_length_a 9.000677
_cell_length_b 8.566047
_cell_length_c 9.386782
_cell_angle_alpha 90.000000
_cell_angle_beta 48.157736
_cell_angle_gamma 90.000000
_cell_volume 539.162135
_symmetry_space_group_name_H-M "P 2/C"
_symmetry_group_IT_number 13
_symmetry_cell_setting 'monoclinic'
loop_
_space_group_symop_operation_xyz
x,y,z
-x,y,1/2-z
-x,-y,-z
x,-y,1/2+z
loop_
_atom_site_type_symbol
_atom_site_label
_atom_site_fract_x
_atom_site_fract_y
_atom_site_fract_z
Si Si1 0.671223 0.159712 0.023077
Si Si2 0.779214 0.522699 0.585051
Si Si3 0.345104 0.701904 0.575804
Si Si4 0.000000 0.914316 0.750000
O O1 0.500000 0.132352 0.250000
O O2 0.773543 0.325509 0.988682
O O3 0.540513 0.189918 0.963383
O O4 0.837380 0.027758 0.924339
O O5 0.645450 0.570065 0.806801
O O6 0.852182 0.802665 0.756172
O O7 0.000000 0.500000 0.500000
O O8 0.293525 0.625128 0.458514
#
# Coordination Sequence:
#
# PCOD9237090 Si02
#       4
#     4   4   4   2
#     4  10  26  46  73 113 151 193 254 311 380 446
#     4  11  22  45  75 105 149 195 254 314 365 439
#     4  11  24  48  74 114 147 197 256 309 378 447
#     4  12  24  46  80 108 158 198 244 312 384 456
#
# _framework density 25.966214999999998
#
# number of rings (size 3 to 8) (size 9 to 14) (size 15 to 20)
#    0.000    1.143    2.857    1.714    4.000    4.571 
#    0.000    7.143    0.000    0.000    0.000    0.000 
#    0.000    0.000    0.000    0.000    0.000    0.000 
#
# Total GULP energy -78412.336534 kJ/mol
# GULP energy per Si atom -5600.881181 kJ/mol
# Density = 2.590711 g / cm^3
# Si number density = 25.966215 Si / 1000 Ang^3
#
#
#
# Elastic Constant Matrix: (Units=GPa)
#
#
# Indices 1 2 3 4 5 6 
#
# 1 195.6623 76.1513 44.4673 0.0000 -27.7058 0.0000
# 2 76.1513 121.9277 55.4927 0.0000 -12.5366 0.0000
# 3 44.4673 55.4927 85.8451 0.0000 -20.3887 0.0000
# 4 0.0000 0.0000 0.0000 44.5290 0.0000 -17.7489
# 5 -27.7058 -12.5366 -20.3887 0.0000 46.7753 0.0000
# 6 0.0000 0.0000 0.0000 -17.7489 0.0000 45.3782
#
#
#
# Elastic Compliance Matrix: (Units=1/GPa)
#
#
# Indices 1 2 3 4 5 6 
#
# 1 0.007183 -0.003980 -0.000436 0.000000 0.002998 0.000000
# 2 -0.003980 0.013826 -0.007313 0.000000 -0.001839 0.000000
# 3 -0.000436 -0.007313 0.017932 0.000000 0.005598 0.000000
# 4 0.000000 0.000000 0.000000 0.026605 0.000000 0.010406
# 5 0.002998 -0.001839 0.005598 0.000000 0.025102 0.000000
# 6 0.000000 0.000000 0.000000 0.010406 0.000000 0.026107
#
#
# Mechanical properties :
#
#
# Convention : Reuss Voigt Hill
#
# Bulk Modulus (GPa) = 64.58553 83.96197 74.27375
# Shear Modulus (GPa) = 34.39377 42.49142 38.44260
#
# Velocity S-wave (km/s) = 3.64340 4.04965 3.85188
# Velocity P-wave (km/s) = 6.52886 7.36692 6.96051
#
# Compressibility (1/GPa) = 0.01548334
#
# Stress axis : x y z
#
# Youngs Moduli (GPa) = 139.21001 72.32527 55.76652
#
# Poissons Ratio (x) = 0.28783 0.02434
# Poissons Ratio (y) = 0.55400 0.40783
# Poissons Ratio (z) = 0.06075 0.52893
#
# Static dielectric constant tensor:
#      x y z
#    x 2.100800 0.000000 0.040200 
#    y 0.000000 2.088090 0.000000 
#    z 0.040200 0.000000 2.052610 
# 
# From -- ./inp_files/27310.got.cif
#   From: 2010.05.17/outbox.cif.g08.bks.cpg/sg13_14_cif.got.tgz:27310.got - 2010.06.03 16:44:36.
