data_PCOD9237057
_publ_section_title
;
Structure prediction by ZEFSAII (Michael W. Deem and Ramdas Pophale) SiO2 
 PCOD9237057
Probable space group: P 2/C
;
_chemical_formula_sum "Si O2"
_cell_formula_units_Z 30
_cell_length_a 21.247850
_cell_length_b 5.514126
_cell_length_c 26.355180
_cell_angle_alpha 90.000000
_cell_angle_beta 151.359148
_cell_angle_gamma 90.000000
_cell_volume 1480.066289
_symmetry_space_group_name_H-M "P 2/C"
_symmetry_group_IT_number 13
_symmetry_cell_setting 'monoclinic'
loop_
_space_group_symop_operation_xyz
x,y,z
-x,y,1/2-z
-x,-y,-z
x,-y,1/2+z
loop_
_atom_site_type_symbol
_atom_site_label
_atom_site_fract_x
_atom_site_fract_y
_atom_site_fract_z
Si Si1 0.820298 0.356541 0.969708
Si Si2 0.806688 0.657402 0.049927
Si Si3 0.091029 0.285864 0.044691
Si Si4 0.484812 0.256042 0.176993
Si Si5 0.000000 0.630505 0.750000
Si Si6 0.170744 0.053071 0.681394
Si Si7 0.371372 0.766386 0.248787
Si Si8 0.023302 0.049486 0.167023
O O1 0.826255 0.604881 0.942472
O O2 0.730994 0.199158 0.870628
O O3 0.770951 0.424272 0.989722
O O4 0.958538 0.238413 0.081068
O O5 0.878306 0.543235 0.149120
O O6 0.918631 0.833934 0.104682
O O7 0.665072 0.775505 0.949105
O O8 0.180832 0.185960 0.153211
O O9 0.000000 0.500000 0.000000
O O10 0.977542 0.124234 0.940002
O O11 0.500000 0.254071 0.250000
O O12 0.548224 0.515424 0.203373
O O13 0.548720 0.014034 0.198965
O O14 0.037598 0.800971 0.729122
O O15 0.280832 0.228573 0.735514
O O16 0.154905 0.033805 0.730698
#
# Coordination Sequence:
#
# PCOD9237057 Si02
#       8
#     4   4   4   4   2   4   4   4
#     4  11  20  34  60  93 139 169 220 257 332 399
#     4  11  24  43  66  96 129 175 229 287 335 395
#     4  11  18  31  52  92 133 179 204 262 324 401
#     4  12  26  41  65  95 143 188 222 259 319 409
#     4  10  26  44  70  96 118 164 236 302 356 376
#     4  11  22  33  59  91 137 170 218 267 335 407
#     4  12  25  39  59 100 141 187 214 251 323 415
#     4  11  22  40  66  96 121 169 220 296 347 379
#
# _framework density 20.269363999999999
#
# number of rings (size 3 to 8) (size 9 to 14) (size 15 to 20)
#    0.000    0.800    5.333    3.200    3.733    0.000 
#    0.000    0.000    0.000    1.600    0.000    0.000 
#    0.000    0.000    0.000    0.000    0.000    0.000 
#
# Total GULP energy -167030.983295 kJ/mol
# GULP energy per Si atom -5567.699443 kJ/mol
# Density = 2.022323 g / cm^3
# Si number density = 20.269364 Si / 1000 Ang^3
#
#
#
# Elastic Constant Matrix: (Units=GPa)
#
#
# Indices 1 2 3 4 5 6 
#
# 1 92.2527 51.3509 57.4032 0.0000 2.8262 0.0000
# 2 51.3509 86.6235 24.7824 0.0000 2.5100 0.0000
# 3 57.4032 24.7824 89.2878 0.0000 -1.5894 0.0000
# 4 0.0000 0.0000 0.0000 25.3998 0.0000 -0.7085
# 5 2.8262 2.5100 -1.5894 0.0000 26.7219 0.0000
# 6 0.0000 0.0000 0.0000 -0.7085 0.0000 32.7301
#
#
#
# Elastic Compliance Matrix: (Units=1/GPa)
#
#
# Indices 1 2 3 4 5 6 
#
# 1 0.025397 -0.011190 -0.013265 0.000000 -0.002424 0.000000
# 2 -0.011190 0.017522 0.002325 0.000000 -0.000324 0.000000
# 3 -0.013265 0.002325 0.019124 0.000000 0.002322 0.000000
# 4 0.000000 0.000000 0.000000 0.039394 0.000000 0.000853
# 5 -0.002424 -0.000324 0.002322 0.000000 0.037847 0.000000
# 6 0.000000 0.000000 0.000000 0.000853 0.000000 0.030571
#
#
# Mechanical properties :
#
#
# Convention : Reuss Voigt Hill
#
# Bulk Modulus (GPa) = 56.23476 59.47076 57.85276
# Shear Modulus (GPa) = 22.72287 25.94553 24.33420
#
# Velocity S-wave (km/s) = 3.35183 3.58164 3.46864
# Velocity P-wave (km/s) = 6.54092 6.81969 6.68176
#
# Compressibility (1/GPa) = 0.01778259
#
# Stress axis : x y z
#
# Youngs Moduli (GPa) = 39.37522 57.07118 52.29112
#
# Poissons Ratio (x) = 0.63863 0.69363
# Poissons Ratio (y) = 0.44061 -0.12158
# Poissons Ratio (z) = 0.52230 -0.13269
#
# Static dielectric constant tensor:
#      x y z
#    x 1.896110 0.000000 0.100730 
#    y 0.000000 1.961560 0.000000 
#    z 0.100730 0.000000 1.828130 
# 
# From -- ./inp_files/93406.got.cif
#   From: 2010.05.17/outbox.cif.g08.bks.cpg/sg13_47_cif.got.tgz:93406.got - 2010.06.03 16:44:36.
