data_PCOD9237186
_publ_section_title
;
Structure prediction by ZEFSAII (Michael W. Deem and Ramdas Pophale) SiO2 
 PCOD9237186
Probable space group: P 2/C
;
_chemical_formula_sum "Si O2"
_cell_formula_units_Z 22
_cell_length_a 5.035104
_cell_length_b 16.567805
_cell_length_c 11.866058
_cell_angle_alpha 90.000000
_cell_angle_beta 80.797991
_cell_angle_gamma 90.000000
_cell_volume 977.134904
_symmetry_space_group_name_H-M "P 2/C"
_symmetry_group_IT_number 13
_symmetry_cell_setting 'monoclinic'
loop_
_space_group_symop_operation_xyz
x,y,z
-x,y,1/2-z
-x,-y,-z
x,-y,1/2+z
loop_
_atom_site_type_symbol
_atom_site_label
_atom_site_fract_x
_atom_site_fract_y
_atom_site_fract_z
Si Si1 0.348320 0.700245 0.592568
Si Si2 0.000000 0.448616 0.750000
Si Si3 0.000000 0.200178 0.750000
Si Si4 0.097467 0.684314 0.057360
Si Si5 0.277510 0.019335 0.421496
Si Si6 0.500000 0.559270 0.750000
Si Si7 0.500000 0.890021 0.250000
Si Si8 0.500000 0.838422 0.750000
O O1 0.601352 0.712111 0.491915
O O2 0.432043 0.619661 0.653360
O O3 0.336841 0.776802 0.678880
O O4 0.072860 0.681786 0.545975
O O5 0.102877 0.393994 0.638047
O O6 0.241449 0.502761 0.781066
O O7 0.933030 0.252990 0.645841
O O8 0.277959 0.158311 0.696723
O O9 0.332318 0.101804 0.346257
O O10 0.500000 0.000000 0.500000
O O11 0.308252 0.947815 0.331624
O O12 0.000000 0.000000 0.500000
#
# Coordination Sequence:
#
# PCOD9237186 Si02
#       8
#     4   2   2   4   4   2   2   2
#     4  11  25  44  69 101 135 186 231 276 350 410
#     4  11  24  44  66 101 144 172 228 297 326 410
#     4  11  24  42  66  99 134 176 232 291 338 412
#     4  11  25  42  68 100 135 183 230 278 352 405
#     4  11  26  45  71 100 135 182 227 281 354 401
#     4  11  24  42  68  99 140 180 230 285 338 408
#     4  11  24  42  66 101 132 172 236 285 330 422
#     4  10  28  48  70 104 144 176 234 296 330 416
#
# _framework density 22.514803000000001
#
# number of rings (size 3 to 8) (size 9 to 14) (size 15 to 20)
#    0.000    1.091    0.000    4.364    7.636   13.091 
#    0.000    0.000    0.000    0.000    0.000    0.000 
#    0.000    0.000    0.000    0.000    0.000    0.000 
#
# Total GULP energy -122833.532900 kJ/mol
# GULP energy per Si atom -5583.342405 kJ/mol
# Density = 2.246356 g / cm^3
# Si number density = 22.514803 Si / 1000 Ang^3
#
#
#
# Elastic Constant Matrix: (Units=GPa)
#
#
# Indices 1 2 3 4 5 6 
#
# 1 122.9719 35.6221 20.9470 0.0000 -4.9539 0.0000
# 2 35.6221 112.5947 44.3135 0.0000 0.9769 0.0000
# 3 20.9470 44.3135 89.6723 0.0000 -7.3986 0.0000
# 4 0.0000 0.0000 0.0000 41.4104 0.0000 -24.8462
# 5 -4.9539 0.9769 -7.3986 0.0000 51.2867 0.0000
# 6 0.0000 0.0000 0.0000 -24.8462 0.0000 23.1113
#
#
#
# Elastic Compliance Matrix: (Units=1/GPa)
#
#
# Indices 1 2 3 4 5 6 
#
# 1 0.009039 -0.002560 -0.000780 0.000000 0.000809 0.000000
# 2 -0.002560 0.011803 -0.005337 0.000000 -0.001242 0.000000
# 3 -0.000780 -0.005337 0.014142 0.000000 0.002066 0.000000
# 4 0.000000 0.000000 0.000000 0.068031 0.000000 0.073138
# 5 0.000809 -0.001242 0.002066 0.000000 0.019898 0.000000
# 6 0.000000 0.000000 0.000000 0.073138 0.000000 0.121897
#
#
# Mechanical properties :
#
#
# Convention : Reuss Voigt Hill
#
# Bulk Modulus (GPa) = 56.72099 58.55602 57.63850
# Shear Modulus (GPa) = 18.65395 38.11876 28.38636
#
# Velocity S-wave (km/s) = 2.88152 4.11914 3.55461
# Velocity P-wave (km/s) = 6.02647 6.97763 6.51942
#
# Compressibility (1/GPa) = 0.01763016
#
# Stress axis : x y z
#
# Youngs Moduli (GPa) = 110.63320 84.72771 70.71275
#
# Poissons Ratio (x) = 0.21689 0.05513
# Poissons Ratio (y) = 0.28320 0.37739
# Poissons Ratio (z) = 0.08626 0.45219
#
# Static dielectric constant tensor:
#      x y z
#    x 1.847780 0.000000 0.047010 
#    y 0.000000 1.932100 0.000000 
#    z 0.047010 0.000000 1.828570 
# 
# From -- ./inp_files/26246.got.cif
#   From: 2010.05.17/outbox.cif.g08.bks.cpg/sg13_14_cif.got.tgz:26246.got - 2010.06.03 16:44:36.
