data_PCOD9237365
_publ_section_title
;
Structure prediction by ZEFSAII (Michael W. Deem and Ramdas Pophale) SiO2 
 PCOD9237365
Probable space group: P 2/C
;
_chemical_formula_sum "Si O2"
_cell_formula_units_Z 26
_cell_length_a 25.187015
_cell_length_b 9.589697
_cell_length_c 8.415106
_cell_angle_alpha 90.000000
_cell_angle_beta 138.043640
_cell_angle_gamma 90.000000
_cell_volume 1358.890355
_symmetry_space_group_name_H-M "P 2/C"
_symmetry_group_IT_number 13
_symmetry_cell_setting 'monoclinic'
loop_
_space_group_symop_operation_xyz
x,y,z
-x,y,1/2-z
-x,-y,-z
x,-y,1/2+z
loop_
_atom_site_type_symbol
_atom_site_label
_atom_site_fract_x
_atom_site_fract_y
_atom_site_fract_z
Si Si1 0.370889 0.616792 0.264297
Si Si2 0.167285 0.077451 0.017728
Si Si3 0.945581 0.093556 0.997164
Si Si4 0.500000 0.761062 0.750000
Si Si5 0.586507 0.932133 0.705810
Si Si6 0.269456 0.139354 0.533591
Si Si7 0.591895 0.334066 0.003718
O O1 0.456544 0.670889 0.519533
O O2 0.301105 0.715320 0.177023
O O3 0.373814 0.453796 0.306441
O O4 0.364927 0.646973 0.066060
O O5 0.118693 0.157272 0.769941
O O6 0.220983 0.161376 0.261772
O O7 0.105257 0.004508 0.999296
O O8 0.218639 0.956617 0.042477
O O9 0.000000 0.173829 0.250000
O O10 0.000000 0.000000 0.000000
O O11 0.572054 0.850343 0.837629
O O12 0.599420 0.816595 0.599600
O O13 0.500000 0.000000 0.500000
O O14 0.654447 0.045780 0.847459
O O15 0.500000 0.355992 0.750000
#
# Coordination Sequence:
#
# PCOD9237365 Si02
#       7
#     4   4   4   2   4   4   4
#     4  12  24  37  56  69 100 135 186 242 297 335
#     4   9  18  30  50  77 114 147 178 210 267 329
#     4   8  14  28  51  80 112 151 176 200 249 328
#     4  12  22  36  52  74  92 128 184 248 286 326
#     4  12  25  36  56  75 103 140 197 244 289 335
#     4  11  21  36  50  77 108 149 179 230 282 332
#     4  12  23  40  53  74  92 132 188 263 306 332
#
# _framework density 19.133258999999999
#
# number of rings (size 3 to 8) (size 9 to 14) (size 15 to 20)
#    0.000    1.231    3.846    3.231    3.231    0.000 
#    0.000    0.000    0.000    0.000    0.000    0.000 
#    0.000    0.000    0.000 1188.000    0.000    0.154 
#
# Total GULP energy -144904.688672 kJ/mol
# GULP energy per Si atom -5573.257257 kJ/mol
# Density = 1.908971 g / cm^3
# Si number density = 19.133259 Si / 1000 Ang^3
#
#
#
# Elastic Constant Matrix: (Units=GPa)
#
#
# Indices 1 2 3 4 5 6 
#
# 1 83.9556 1.9062 10.4130 0.0000 -5.3926 0.0000
# 2 1.9062 71.2569 29.9341 0.0000 -3.0726 0.0000
# 3 10.4130 29.9341 121.9674 0.0000 -9.7216 0.0000
# 4 0.0000 0.0000 0.0000 9.6244 0.0000 -5.1264
# 5 -5.3926 -3.0726 -9.7216 0.0000 31.6175 0.0000
# 6 0.0000 0.0000 0.0000 -5.1264 0.0000 7.2953
#
#
#
# Elastic Compliance Matrix: (Units=1/GPa)
#
#
# Indices 1 2 3 4 5 6 
#
# 1 0.012138 0.000143 -0.000928 0.000000 0.001799 0.000000
# 2 0.000143 0.015652 -0.003824 0.000000 0.000370 0.000000
# 3 -0.000928 -0.003824 0.009405 0.000000 0.002362 0.000000
# 4 0.000000 0.000000 0.000000 0.166055 0.000000 0.116686
# 5 0.001799 0.000370 0.002362 0.000000 0.032697 0.000000
# 6 0.000000 0.000000 0.000000 0.116686 0.000000 0.219069
#
#
# Mechanical properties :
#
#
# Convention : Reuss Voigt Hill
#
# Bulk Modulus (GPa) = 35.74401 40.18741 37.96571
# Shear Modulus (GPa) = 10.55829 25.36922 17.96375
#
# Velocity S-wave (km/s) = 2.35165 3.64527 3.06743
# Velocity P-wave (km/s) = 5.10841 6.22631 5.69486
#
# Compressibility (1/GPa) = 0.02797672
#
# Stress axis : x y z
#
# Youngs Moduli (GPa) = 82.38280 63.88813 106.32678
#
# Poissons Ratio (x) = -0.00911 0.09867
# Poissons Ratio (y) = -0.01175 0.40662
# Poissons Ratio (z) = 0.07645 0.24432
#
# Static dielectric constant tensor:
#      x y z
#    x 1.722890 0.000000 -0.023530 
#    y 0.000000 1.690520 0.000000 
#    z -0.023530 0.000000 1.766020 
# 
# From -- ./inp_files/24476.got.cif
#   From: 2010.05.17/outbox.cif.g08.bks.cpg/sg13_13_cif.got.tgz:24476.got - 2010.06.03 16:44:36.
