data_PCOD9237429
_publ_section_title
;
Structure prediction by ZEFSAII (Michael W. Deem and Ramdas Pophale) SiO2 
 PCOD9237429
Probable space group: P 2/C
;
_chemical_formula_sum "Si O2"
_cell_formula_units_Z 18
_cell_length_a 8.921649
_cell_length_b 6.860170
_cell_length_c 22.158209
_cell_angle_alpha 90.000000
_cell_angle_beta 139.942939
_cell_angle_gamma 90.000000
_cell_volume 872.764539
_symmetry_space_group_name_H-M "P 2/C"
_symmetry_group_IT_number 13
_symmetry_cell_setting 'monoclinic'
loop_
_space_group_symop_operation_xyz
x,y,z
-x,y,1/2-z
-x,-y,-z
x,-y,1/2+z
loop_
_atom_site_type_symbol
_atom_site_label
_atom_site_fract_x
_atom_site_fract_y
_atom_site_fract_z
Si Si1 0.500000 0.114314 0.250000
Si Si2 0.308411 0.403186 0.986016
Si Si3 0.026511 0.782496 0.912506
Si Si4 0.604754 0.963130 0.913824
Si Si5 0.828097 0.929939 0.142563
O O1 0.747752 0.224198 0.328624
O O2 0.489142 0.002573 0.182512
O O3 0.143965 0.574923 0.957540
O O4 0.168774 0.247975 0.902542
O O5 0.500000 0.500000 0.000000
O O6 0.394860 0.266871 0.068090
O O7 0.098952 0.874633 0.870164
O O8 0.150624 0.931208 0.997474
O O9 0.428069 0.052330 0.908444
O O10 0.000000 0.895621 0.250000
#
# Coordination Sequence:
#
# PCOD9237429 Si02
#       5
#     2   4   4   4   4
#     4  12  26  42  66  94 142 184 204 260 332 408
#     4  11  21  39  70  95 125 164 219 285 320 366
#     4  11  23  44  66  95 132 172 217 270 325 383
#     4  11  23  43  67  97 129 173 221 264 328 386
#     4  11  21  39  70  99 120 166 231 272 318 377
#
# _framework density 20.624119
#
# number of rings (size 3 to 8) (size 9 to 14) (size 15 to 20)
#    0.000    0.889    6.667    2.000    0.000    3.556 
#    0.000    5.556    0.000    0.000    0.000    0.000 
#    0.000    0.000    0.000    0.000    0.000    0.000 
#
# Total GULP energy -100457.493914 kJ/mol
# GULP energy per Si atom -5580.971884 kJ/mol
# Density = 2.057718 g / cm^3
# Si number density = 20.624119 Si / 1000 Ang^3
#
#
#
# Elastic Constant Matrix: (Units=GPa)
#
#
# Indices 1 2 3 4 5 6 
#
# 1 96.9940 25.2968 33.9470 0.0000 13.1159 0.0000
# 2 25.2968 95.9806 15.4229 0.0000 6.0402 0.0000
# 3 33.9470 15.4229 99.6921 0.0000 -0.4447 0.0000
# 4 0.0000 0.0000 0.0000 1.2377 0.0000 -1.8669
# 5 13.1159 6.0402 -0.4447 0.0000 52.2853 0.0000
# 6 0.0000 0.0000 0.0000 -1.8669 0.0000 5.0399
#
#
#
# Elastic Compliance Matrix: (Units=1/GPa)
#
#
# Indices 1 2 3 4 5 6 
#
# 1 0.012758 -0.002540 -0.003964 0.000000 -0.002941 0.000000
# 2 -0.002540 0.011272 -0.000882 0.000000 -0.000672 0.000000
# 3 -0.003964 -0.000882 0.011523 0.000000 0.001194 0.000000
# 4 0.000000 0.000000 0.000000 1.831078 0.000000 0.678275
# 5 -0.002941 -0.000672 0.001194 0.000000 0.019951 0.000000
# 6 0.000000 0.000000 0.000000 0.678275 0.000000 0.449666
#
#
# Mechanical properties :
#
#
# Convention : Reuss Voigt Hill
#
# Bulk Modulus (GPa) = 48.12446 49.11113 48.61780
# Shear Modulus (GPa) = 2.12049 26.24590 14.18319
#
# Velocity S-wave (km/s) = 1.01508 3.57120 2.62525
# Velocity P-wave (km/s) = 4.97580 6.39287 5.72832
#
# Compressibility (1/GPa) = 0.02077945
#
# Stress axis : x y z
#
# Youngs Moduli (GPa) = 78.38489 88.71281 86.78623
#
# Poissons Ratio (x) = 0.22536 0.34405
# Poissons Ratio (y) = 0.19912 0.07653
# Poissons Ratio (z) = 0.31074 0.07823
#
# Static dielectric constant tensor:
#      x y z
#    x 1.797970 0.000000 -0.005750 
#    y 0.000000 1.722500 0.000000 
#    z -0.005750 0.000000 1.734270 
# 
# From -- ./inp_files/74720.got.cif
#   From: 2010.05.17/outbox.cif.g08.bks.cpg/sg13_38_cif.got.tgz:74720.got - 2010.06.03 16:44:36.
