data_PCOD9237400
_publ_section_title
;
Structure prediction by ZEFSAII (Michael W. Deem and Ramdas Pophale) SiO2 
 PCOD9237400
Probable space group: P 2/C
;
_chemical_formula_sum "Si O2"
_cell_formula_units_Z 28
_cell_length_a 9.493454
_cell_length_b 14.643534
_cell_length_c 20.851381
_cell_angle_alpha 90.000000
_cell_angle_beta 29.551820
_cell_angle_gamma 90.000000
_cell_volume 1429.674983
_symmetry_space_group_name_H-M "P 2/C"
_symmetry_group_IT_number 13
_symmetry_cell_setting 'monoclinic'
loop_
_space_group_symop_operation_xyz
x,y,z
-x,y,1/2-z
-x,-y,-z
x,-y,1/2+z
loop_
_atom_site_type_symbol
_atom_site_label
_atom_site_fract_x
_atom_site_fract_y
_atom_site_fract_z
Si Si1 0.440094 0.407640 0.601984
Si Si2 0.772062 0.266289 0.027297
Si Si3 0.362497 0.926019 0.233654
Si Si4 0.320860 0.616322 0.635998
Si Si5 0.211795 0.586964 0.410301
Si Si6 0.121946 0.769732 0.265209
Si Si7 0.817384 0.939728 0.521858
O O1 0.320455 0.509989 0.656949
O O2 0.527727 0.388007 0.493928
O O3 0.688504 0.397810 0.556185
O O4 0.219974 0.331251 0.709957
O O5 0.488325 0.324699 0.123404
O O6 0.759749 0.165743 0.064634
O O7 0.015207 0.330193 0.962254
O O8 0.883350 0.240790 0.912848
O O9 0.500000 0.915804 0.250000
O O10 0.379050 0.829770 0.191388
O O11 0.026562 0.942796 0.377943
O O12 0.521695 0.006716 0.134430
O O13 0.000000 0.648857 0.750000
O O14 0.500000 0.576794 0.250000
O O15 0.000000 0.500000 0.500000
O O16 0.000000 0.815143 0.250000
O O17 0.000000 0.000000 0.500000
#
# Coordination Sequence:
#
# PCOD9237400 Si02
#       7
#     4   4   4   4   4   4   4
#     4  11  24  39  66  89 128 173 213 254 324 378
#     4  11  23  42  63  95 128 164 218 268 313 397
#     4   9  20  39  63  89 117 158 207 262 320 381
#     4  11  25  43  62  91 132 178 216 262 319 390
#     4  12  26  40  65 100 133 168 218 273 319 378
#     4  11  21  38  64  91 119 162 214 255 306 385
#     4   9  20  39  64  88 120 159 203 262 325 384
#
# _framework density 19.584872000000001
#
# number of rings (size 3 to 8) (size 9 to 14) (size 15 to 20)
#    0.000    1.429    4.286    0.429   10.000    0.000 
#    2.571    7.143    0.000    0.000    0.000    0.000 
#    0.000    0.000    0.000    0.000    0.000    0.000 
#
# Total GULP energy -155971.968343 kJ/mol
# GULP energy per Si atom -5570.427441 kJ/mol
# Density = 1.954030 g / cm^3
# Si number density = 19.584872 Si / 1000 Ang^3
#
#
#
# Elastic Constant Matrix: (Units=GPa)
#
#
# Indices 1 2 3 4 5 6 
#
# 1 84.4948 30.5465 7.4944 0.0000 -17.3696 0.0000
# 2 30.5465 137.5913 48.1769 0.0000 -13.7927 0.0000
# 3 7.4944 48.1769 52.5237 0.0000 -22.7422 0.0000
# 4 0.0000 0.0000 0.0000 95.9436 0.0000 -38.4544
# 5 -17.3696 -13.7927 -22.7422 0.0000 28.7128 0.0000
# 6 0.0000 0.0000 0.0000 -38.4544 0.0000 37.7626
#
#
#
# Elastic Compliance Matrix: (Units=1/GPa)
#
#
# Indices 1 2 3 4 5 6 
#
# 1 0.015722 -0.005017 0.008269 0.000000 0.013650 0.000000
# 2 -0.005017 0.012620 -0.014533 0.000000 -0.008484 0.000000
# 3 0.008269 -0.014533 0.046165 0.000000 0.034587 0.000000
# 4 0.000000 0.000000 0.000000 0.017610 0.000000 0.017933
# 5 0.013650 -0.008484 0.034587 0.000000 0.066404 0.000000
# 6 0.000000 0.000000 0.000000 0.017933 0.000000 0.044743
#
#
# Mechanical properties :
#
#
# Convention : Reuss Voigt Hill
#
# Bulk Modulus (GPa) = 19.25145 49.67170 34.46158
# Shear Modulus (GPa) = 20.56412 45.04327 32.80370
#
# Velocity S-wave (km/s) = 3.24389 4.80093 4.09706
# Velocity P-wave (km/s) = 4.88687 7.49328 6.32577
#
# Compressibility (1/GPa) = 0.05194413
#
# Stress axis : x y z
#
# Youngs Moduli (GPa) = 63.60697 79.23875 21.66129
#
# Poissons Ratio (x) = 0.39758 -0.17912
# Poissons Ratio (y) = 0.31914 0.31481
# Poissons Ratio (z) = -0.52599 1.15160
#
# Static dielectric constant tensor:
#      x y z
#    x 1.710590 0.000000 -0.006180 
#    y 0.000000 1.751780 0.000000 
#    z -0.006180 0.000000 1.732320 
# 
# From -- ./inp_files/76695.got.cif
#   From: 2010.05.17/outbox.cif.g08.bks.cpg/sg13_39_cif.got.tgz:76695.got - 2010.06.03 16:44:36.
