data_PCOD9237482
_publ_section_title
;
Structure prediction by ZEFSAII (Michael W. Deem and Ramdas Pophale) SiO2 
 PCOD9237482
Probable space group: P 2/C
;
_chemical_formula_sum "Si O2"
_cell_formula_units_Z 28
_cell_length_a 32.432830
_cell_length_b 8.231101
_cell_length_c 31.837358
_cell_angle_alpha 90.000000
_cell_angle_beta 171.145687
_cell_angle_gamma 90.000000
_cell_volume 1308.223797
_symmetry_space_group_name_H-M "P 2/C"
_symmetry_group_IT_number 13
_symmetry_cell_setting 'monoclinic'
loop_
_space_group_symop_operation_xyz
x,y,z
-x,y,1/2-z
-x,-y,-z
x,-y,1/2+z
loop_
_atom_site_type_symbol
_atom_site_label
_atom_site_fract_x
_atom_site_fract_y
_atom_site_fract_z
Si Si1 0.908933 0.989086 0.610742
Si Si2 0.704421 0.009450 0.789221
Si Si3 0.580619 0.856532 0.918413
Si Si4 0.766334 0.697349 0.408632
Si Si5 0.743196 0.553761 0.714917
Si Si6 0.724833 0.480725 0.599362
Si Si7 0.802393 0.942748 0.764651
O O1 0.666714 0.121058 0.363321
O O2 0.000000 0.970345 0.750000
O O3 0.795443 0.823430 0.475984
O O4 0.174260 0.031861 0.850613
O O5 0.685535 0.193548 0.787055
O O6 0.494750 0.986324 0.540314
O O7 0.584512 0.903537 0.705749
O O8 0.016283 0.995175 0.092260
O O9 0.725641 0.689301 0.076229
O O10 0.033817 0.599806 0.668781
O O11 0.537436 0.566980 0.182353
O O12 0.500000 0.500000 0.500000
O O13 0.719635 0.470633 0.645136
O O14 0.770231 0.748116 0.734837
O O15 0.000000 0.500000 0.000000
O O16 0.000000 0.000000 0.000000
#
# Coordination Sequence:
#
# PCOD9237482 Si02
#       7
#     4   4   4   4   4   4   4
#     4  11  24  47  72 102 135 169 215 270 332 411
#     4  11  21  43  60  90 123 176 222 271 317 399
#     4  11  25  41  71 101 131 175 218 263 337 403
#     4  11  21  43  70  93 127 174 221 263 330 389
#     4  12  26  42  61  91 134 180 223 285 347 378
#     4  12  24  43  67  97 136 173 227 276 324 404
#     4  12  25  39  61  89 128 173 226 286 329 382
#
# _framework density 21.403065000000002
#
# number of rings (size 3 to 8) (size 9 to 14) (size 15 to 20)
#    0.000    0.571    2.857    6.857    4.000    0.000 
#    0.000    4.286    0.000    0.000    0.000    0.000 
#    0.000    0.000    0.000    0.000    0.000    0.000 
#
# Total GULP energy -156375.885033 kJ/mol
# GULP energy per Si atom -5584.853037 kJ/mol
# Density = 2.135435 g / cm^3
# Si number density = 21.403065 Si / 1000 Ang^3
#
#
#
# Elastic Constant Matrix: (Units=GPa)
#
#
# Indices 1 2 3 4 5 6 
#
# 1 111.4674 30.4872 39.4192 0.0000 -31.5189 0.0000
# 2 30.4872 66.3720 42.4097 0.0000 -8.9180 0.0000
# 3 39.4192 42.4097 146.3861 0.0000 -19.8547 0.0000
# 4 0.0000 0.0000 0.0000 42.6560 0.0000 -1.4349
# 5 -31.5189 -8.9180 -19.8547 0.0000 38.5651 0.0000
# 6 0.0000 0.0000 0.0000 -1.4349 0.0000 15.1082
#
#
#
# Elastic Compliance Matrix: (Units=1/GPa)
#
#
# Indices 1 2 3 4 5 6 
#
# 1 0.013065 -0.004069 -0.001095 0.000000 0.009173 0.000000
# 2 -0.004069 0.019853 -0.004821 0.000000 -0.001217 0.000000
# 3 -0.001095 -0.004821 0.008870 0.000000 0.002556 0.000000
# 4 0.000000 0.000000 0.000000 0.023518 0.000000 0.002234
# 5 0.009173 -0.001217 0.002556 0.000000 0.034462 0.000000
# 6 0.000000 0.000000 0.000000 0.002234 0.000000 0.066402
#
#
# Mechanical properties :
#
#
# Convention : Reuss Voigt Hill
#
# Bulk Modulus (GPa) = 45.83512 60.98418 53.40965
# Shear Modulus (GPa) = 25.85150 33.39315 29.62232
#
# Velocity S-wave (km/s) = 3.47917 3.95423 3.72428
# Velocity P-wave (km/s) = 6.13198 7.02872 6.59561
#
# Compressibility (1/GPa) = 0.02181733
#
# Stress axis : x y z
#
# Youngs Moduli (GPa) = 76.53819 50.37138 112.74527
#
# Poissons Ratio (x) = 0.20496 0.12348
# Poissons Ratio (y) = 0.31144 0.54352
# Poissons Ratio (z) = 0.08383 0.24283
#
# Static dielectric constant tensor:
#      x y z
#    x 1.837850 0.000000 -0.007510 
#    y 0.000000 1.781150 0.000000 
#    z -0.007510 0.000000 1.755990 
# 
# From -- ./inp_files/98115.got.cif
#   From: 2010.05.17/outbox.cif.g08.bks.cpg/sg13_50_cif.got.tgz:98115.got - 2010.06.03 16:44:36.
