data_PCOD9237020
_publ_section_title
;
Structure prediction by ZEFSAII (Michael W. Deem and Ramdas Pophale) SiO2 
 PCOD9237020
Probable space group: P 2/C
;
_chemical_formula_sum "Si O2"
_cell_formula_units_Z 16
_cell_length_a 7.793629
_cell_length_b 5.023598
_cell_length_c 16.139127
_cell_angle_alpha 90.000000
_cell_angle_beta 65.691774
_cell_angle_gamma 90.000000
_cell_volume 575.860213
_symmetry_space_group_name_H-M "P 2/C"
_symmetry_group_IT_number 13
_symmetry_cell_setting 'monoclinic'
loop_
_space_group_symop_operation_xyz
x,y,z
-x,y,1/2-z
-x,-y,-z
x,-y,1/2+z
loop_
_atom_site_type_symbol
_atom_site_label
_atom_site_fract_x
_atom_site_fract_y
_atom_site_fract_z
Si Si1 0.137445 0.319487 0.913444
Si Si2 0.199725 0.645087 0.733284
Si Si3 0.467805 0.088185 0.394606
Si Si4 0.766675 0.760932 0.428062
O O1 0.186369 0.490507 0.822475
O O2 0.969643 0.127569 0.912519
O O3 0.314163 0.138011 0.904725
O O4 0.000000 0.500000 0.000000
O O5 0.388738 0.813411 0.703099
O O6 0.223349 0.446286 0.649209
O O7 0.000000 0.781742 0.750000
O O8 0.349033 0.319475 0.465291
O O9 0.634559 0.991295 0.421769
#
# Coordination Sequence:
#
# PCOD9237020 Si02
#       4
#     4   4   4   4
#     4  11  27  51  77 119 159 199 259 330 392 473
#     4  10  25  50  77 111 162 205 266 327 392 473
#     4  11  25  49  83 110 149 212 259 321 400 464
#     4  10  25  49  75 113 153 202 264 318 392 471
#
# _framework density 27.784520000000001
#
# number of rings (size 3 to 8) (size 9 to 14) (size 15 to 20)
#    0.000    1.500    0.000    1.500   17.500    4.000 
#   13.500    2.500    0.000    0.000    0.000    0.000 
#    0.000    0.000    0.000    0.000    0.000    0.000 
#
# Total GULP energy -89374.275939 kJ/mol
# GULP energy per Si atom -5585.892246 kJ/mol
# Density = 2.772128 g / cm^3
# Si number density = 27.784520 Si / 1000 Ang^3
#
#
#
# Elastic Constant Matrix: (Units=GPa)
#
#
# Indices 1 2 3 4 5 6 
#
# 1 56.8658 -8.6081 129.5641 0.0000 4.6778 0.0000
# 2 -8.6081 49.3064 87.0964 0.0000 4.4838 0.0000
# 3 129.5641 87.0964 181.0675 0.0000 -37.2287 0.0000
# 4 0.0000 0.0000 0.0000 49.7124 0.0000 -6.8951
# 5 4.6778 4.4838 -37.2287 0.0000 40.5991 0.0000
# 6 0.0000 0.0000 0.0000 -6.8951 0.0000 34.8368
#
#
#
# Elastic Compliance Matrix: (Units=1/GPa)
#
#
# Indices 1 2 3 4 5 6 
#
# 1 0.000977 -0.011539 0.006273 0.000000 0.006914 0.000000
# 2 -0.011539 0.008211 0.005416 0.000000 0.005389 0.000000
# 3 0.006273 0.005416 -0.002271 0.000000 -0.003403 0.000000
# 4 0.000000 0.000000 0.000000 0.020684 0.000000 0.004094
# 5 0.006914 0.005389 -0.003403 0.000000 0.020119 0.000000
# 6 0.000000 0.000000 0.000000 0.004094 0.000000 0.029516
#
#
# Mechanical properties :
#
#
# Convention : Reuss Voigt Hill
#
# Bulk Modulus (GPa) = 138.58712 78.14938 108.36825
# Shear Modulus (GPa) = 63.01899 30.30881 46.66390
#
# Velocity S-wave (km/s) = 4.76766 3.30639 4.10261
# Velocity P-wave (km/s) = 8.96075 6.53944 7.84408
#
# Compressibility (1/GPa) = 0.00721568
#
# Stress axis : x y z
#
# Youngs Moduli (GPa) = 1023.63500 121.79450 -440.40858
#
# Poissons Ratio (x) = 1.40542 2.76274
# Poissons Ratio (y) = 11.81199 2.38505
# Poissons Ratio (z) = -6.42140 -0.65958
#
# Static dielectric constant tensor:
#      x y z
#    x 2.192710 0.000000 0.169170 
#    y 0.000000 2.245570 0.000000 
#    z 0.169170 0.000000 2.840630 
# 
# From -- ./inp_files/62236.got.cif
#   From: 2010.05.17/outbox.cif.g08.bks.cpg/sg13_32_cif.got.tgz:62236.got - 2010.06.03 16:44:36.
