data_PCOD9237605
_publ_section_title
;
Structure prediction by ZEFSAII (Michael W. Deem and Ramdas Pophale) SiO2 
 PCOD9237605
Probable space group: P 2/C
;
_chemical_formula_sum "Si O2"
_cell_formula_units_Z 20
_cell_length_a 9.552342
_cell_length_b 10.067536
_cell_length_c 9.368188
_cell_angle_alpha 90.000000
_cell_angle_beta 90.475846
_cell_angle_gamma 90.000000
_cell_volume 900.893958
_symmetry_space_group_name_H-M "P 2/C"
_symmetry_group_IT_number 13
_symmetry_cell_setting 'monoclinic'
loop_
_space_group_symop_operation_xyz
x,y,z
-x,y,1/2-z
-x,-y,-z
x,-y,1/2+z
loop_
_atom_site_type_symbol
_atom_site_label
_atom_site_fract_x
_atom_site_fract_y
_atom_site_fract_z
Si Si1 0.288640 0.438692 0.420901
Si Si2 0.482113 0.308421 0.904495
Si Si3 0.912764 0.910023 0.892049
Si Si4 0.591176 0.910762 0.893381
Si Si5 0.123804 0.607236 0.645628
O O1 0.369108 0.335219 0.521611
O O2 0.399301 0.554305 0.382600
O O3 0.172638 0.507278 0.522285
O O4 0.241632 0.376715 0.270600
O O5 0.500000 0.242838 0.750000
O O6 0.396541 0.225323 0.017934
O O7 0.751227 0.955757 0.872640
O O8 0.914072 0.750556 0.920399
O O9 0.000000 0.923214 0.750000
O O10 0.000000 0.000000 0.000000
O O11 0.500000 0.895309 0.750000
O O12 0.500000 0.000000 0.000000
O O13 0.000000 0.557469 0.750000
#
# Coordination Sequence:
#
# PCOD9237605 Si02
#       5
#     4   4   4   4   4
#     4  11  22  41  67 103 141 177 231 284 360 425
#     4  11  23  39  68 102 140 182 224 291 358 421
#     4  11  25  47  71 103 144 195 242 296 368 430
#     4  12  25  45  73 104 142 187 253 305 356 432
#     4  11  23  43  68 101 144 186 236 289 357 441
#
# _framework density 22.20017
#
# number of rings (size 3 to 8) (size 9 to 14) (size 15 to 20)
#    0.000    0.800    4.000    3.600    0.000    1.600 
#    0.000    5.000    0.000    0.000    0.000    0.000 
#    0.000    0.000    0.000    0.000    0.000    0.000 
#
# Total GULP energy -111773.491627 kJ/mol
# GULP energy per Si atom -5588.674581 kJ/mol
# Density = 2.214964 g / cm^3
# Si number density = 22.200170 Si / 1000 Ang^3
#
#
#
# Elastic Constant Matrix: (Units=GPa)
#
#
# Indices 1 2 3 4 5 6 
#
# 1 144.1262 25.2229 44.9715 0.0000 -14.3508 0.0000
# 2 25.2229 57.6912 45.4001 0.0000 -0.3522 0.0000
# 3 44.9715 45.4001 132.0483 0.0000 0.6596 0.0000
# 4 0.0000 0.0000 0.0000 32.7689 0.0000 -4.1208
# 5 -14.3508 -0.3522 0.6596 0.0000 47.0408 0.0000
# 6 0.0000 0.0000 0.0000 -4.1208 0.0000 34.2289
#
#
#
# Elastic Compliance Matrix: (Units=1/GPa)
#
#
# Indices 1 2 3 4 5 6 
#
# 1 0.008189 -0.001865 -0.002160 0.000000 0.002515 0.000000
# 2 -0.001865 0.024192 -0.007681 0.000000 -0.000280 0.000000
# 3 -0.002160 -0.007681 0.010954 0.000000 -0.000870 0.000000
# 4 0.000000 0.000000 0.000000 0.030986 0.000000 0.003730
# 5 0.002515 -0.000280 -0.000870 0.000000 0.022035 0.000000
# 6 0.000000 0.000000 0.000000 0.003730 0.000000 0.029664
#
#
# Mechanical properties :
#
#
# Convention : Reuss Voigt Hill
#
# Bulk Modulus (GPa) = 50.19460 62.78387 56.48924
# Shear Modulus (GPa) = 32.03615 37.35914 34.69764
#
# Velocity S-wave (km/s) = 3.80288 4.10668 3.95770
# Velocity P-wave (km/s) = 6.47624 7.12942 6.81066
#
# Compressibility (1/GPa) = 0.01992246
#
# Stress axis : x y z
#
# Youngs Moduli (GPa) = 122.11187 41.33624 91.29153
#
# Poissons Ratio (x) = 0.07709 0.19722
# Poissons Ratio (y) = 0.22773 0.70121
# Poissons Ratio (z) = 0.26381 0.31750
#
# Static dielectric constant tensor:
#      x y z
#    x 1.908210 0.000000 0.024190 
#    y 0.000000 1.947170 0.000000 
#    z 0.024190 0.000000 1.737090 
# 
# From -- ./inp_files/11848.got.cif
#   From: 2010.05.17/outbox.cif.g08.bks.cpg/sg13_6_cif.got.tgz:11848.got - 2010.06.03 16:44:36.
