data_PCOD9237820
_publ_section_title
;
Structure prediction by ZEFSAII (Michael W. Deem and Ramdas Pophale) SiO2 
 PCOD9237820
Probable space group: P 2/C
;
_chemical_formula_sum "Si O2"
_cell_formula_units_Z 26
_cell_length_a 18.446005
_cell_length_b 9.464254
_cell_length_c 8.062211
_cell_angle_alpha 90.000000
_cell_angle_beta 54.612527
_cell_angle_gamma 90.000000
_cell_volume 1147.455987
_symmetry_space_group_name_H-M "P 2/C"
_symmetry_group_IT_number 13
_symmetry_cell_setting 'monoclinic'
loop_
_space_group_symop_operation_xyz
x,y,z
-x,y,1/2-z
-x,-y,-z
x,-y,1/2+z
loop_
_atom_site_type_symbol
_atom_site_label
_atom_site_fract_x
_atom_site_fract_y
_atom_site_fract_z
Si Si1 0.500000 0.648974 0.250000
Si Si2 0.542949 0.853020 0.509972
Si Si3 0.207739 0.801834 0.636029
Si Si4 0.675409 0.430886 0.381468
Si Si5 0.066943 0.582092 0.795397
Si Si6 0.220898 0.361503 0.569263
Si Si7 0.244797 0.102210 0.728078
O O1 0.527103 0.745020 0.375456
O O2 0.424004 0.550886 0.429614
O O3 0.648692 0.874810 0.398950
O O4 0.500000 0.000000 0.500000
O O5 0.500000 0.819522 0.750000
O O6 0.288755 0.692576 0.545833
O O7 0.124163 0.706834 0.799498
O O8 0.200233 0.848815 0.457160
O O9 0.226286 0.939340 0.717646
O O10 0.735124 0.568408 0.326693
O O11 0.700931 0.374304 0.168363
O O12 0.137774 0.463258 0.637875
O O13 0.000000 0.645232 0.750000
O O14 0.000000 0.500000 0.000000
O O15 0.204647 0.200359 0.635699
#
# Coordination Sequence:
#
# PCOD9237820 Si02
#       7
#     2   4   4   4   4   4   4
#     4  12  24  42  64 100 144 190 260 302 342 426
#     4  12  23  40  65  98 145 197 252 302 359 409
#     4  11  23  42  68 100 138 179 230 286 354 428
#     4  11  23  43  64  96 137 188 238 292 350 417
#     4  11  23  45  74 103 133 174 226 289 360 446
#     4  11  24  44  70  96 139 186 232 287 366 432
#     4  12  23  43  67 100 139 190 232 288 359 415
#
# _framework density 22.658819999999999
#
# number of rings (size 3 to 8) (size 9 to 14) (size 15 to 20)
#    0.000    0.615    2.308    8.308    0.000    0.615 
#    1.385    3.846    0.000    0.000    0.000    0.000 
#    0.000    0.000    0.000    0.000    0.000    0.000 
#
# Total GULP energy -145315.025875 kJ/mol
# GULP energy per Si atom -5589.039457 kJ/mol
# Density = 2.260725 g / cm^3
# Si number density = 22.658820 Si / 1000 Ang^3
#
#
#
# Elastic Constant Matrix: (Units=GPa)
#
#
# Indices 1 2 3 4 5 6 
#
# 1 77.0146 37.0962 28.5222 0.0000 -8.4612 0.0000
# 2 37.0962 90.1083 19.3210 0.0000 -14.0828 0.0000
# 3 28.5222 19.3210 141.8973 0.0000 -2.2318 0.0000
# 4 0.0000 0.0000 0.0000 29.5858 0.0000 5.3667
# 5 -8.4612 -14.0828 -2.2318 0.0000 41.0067 0.0000
# 6 0.0000 0.0000 0.0000 5.3667 0.0000 32.5808
#
#
#
# Elastic Compliance Matrix: (Units=1/GPa)
#
#
# Indices 1 2 3 4 5 6 
#
# 1 0.017102 -0.006300 -0.002561 0.000000 0.001226 0.000000
# 2 -0.006300 0.014392 -0.000637 0.000000 0.003608 0.000000
# 3 -0.002561 -0.000637 0.007643 0.000000 -0.000331 0.000000
# 4 0.000000 0.000000 0.000000 0.034841 0.000000 -0.005739
# 5 0.001226 0.003608 -0.000331 0.000000 0.025860 0.000000
# 6 0.000000 0.000000 0.000000 -0.005739 0.000000 0.031638
#
#
# Mechanical properties :
#
#
# Convention : Reuss Voigt Hill
#
# Bulk Modulus (GPa) = 49.64463 53.21100 51.42782
# Shear Modulus (GPa) = 31.80955 35.57338 33.69147
#
# Velocity S-wave (km/s) = 3.75086 3.96657 3.86022
# Velocity P-wave (km/s) = 6.38089 6.67179 6.52796
#
# Compressibility (1/GPa) = 0.02014316
#
# Stress axis : x y z
#
# Youngs Moduli (GPa) = 58.47236 69.48424 130.83027
#
# Poissons Ratio (x) = 0.43776 0.33499
# Poissons Ratio (y) = 0.36838 0.08327
# Poissons Ratio (z) = 0.14972 0.04423
#
# Static dielectric constant tensor:
#      x y z
#    x 1.861870 0.000000 0.009950 
#    y 0.000000 1.830490 0.000000 
#    z 0.009950 0.000000 1.843900 
# 
# From -- ./inp_files/22962.got.cif
#   From: 2010.05.17/outbox.cif.g08.bks.cpg/sg13_12_cif.got.tgz:22962.got - 2010.06.03 16:44:36.
