data_PCOD9237940
_publ_section_title
;
Structure prediction by ZEFSAII (Michael W. Deem and Ramdas Pophale) SiO2 
 PCOD9237940
Probable space group: P 2/C
;
_chemical_formula_sum "Si O2"
_cell_formula_units_Z 20
_cell_length_a 20.515542
_cell_length_b 5.590325
_cell_length_c 9.281899
_cell_angle_alpha 90.000000
_cell_angle_beta 126.916046
_cell_angle_gamma 90.000000
_cell_volume 851.107286
_symmetry_space_group_name_H-M "P 2/C"
_symmetry_group_IT_number 13
_symmetry_cell_setting 'monoclinic'
loop_
_space_group_symop_operation_xyz
x,y,z
-x,y,1/2-z
-x,-y,-z
x,-y,1/2+z
loop_
_atom_site_type_symbol
_atom_site_label
_atom_site_fract_x
_atom_site_fract_y
_atom_site_fract_z
Si Si1 0.285506 0.393757 0.618856
Si Si2 0.428493 0.689652 0.889063
Si Si3 0.377701 0.008646 0.576095
Si Si4 0.785944 0.738041 0.205769
Si Si5 0.027656 0.753302 0.117721
O O1 0.338933 0.572674 0.787384
O O2 0.354214 0.207547 0.661760
O O3 0.247799 0.517189 0.431151
O O4 0.212858 0.302117 0.621937
O O5 0.420353 0.796224 0.718724
O O6 0.500000 0.500000 0.000000
O O7 0.430850 0.887338 0.017367
O O8 0.287514 0.927909 0.406636
O O9 0.874489 0.780742 0.261148
O O10 0.000000 0.746569 0.250000
O O11 0.000000 0.500000 0.000000
O O12 0.000000 0.000000 0.000000
#
# Coordination Sequence:
#
# PCOD9237940 Si02
#       5
#     4   4   4   4   4
#     4  11  23  45  73 107 140 197 249 307 377 448
#     4  11  26  49  73 108 147 186 253 318 380 459
#     4  11  24  47  74 105 141 202 244 303 393 447
#     4  11  25  44  79 103 152 196 261 310 373 484
#     4  12  29  49  78 123 167 214 266 332 413 472
#
# _framework density 23.498799000000002
#
# number of rings (size 3 to 8) (size 9 to 14) (size 15 to 20)
#    0.000    0.800    4.000    1.800    5.600    1.600 
#    3.600    1.000    0.000    0.000    0.000    0.000 
#    0.000    0.000    0.000    0.000    0.000    0.000 
#
# Total GULP energy -111789.050137 kJ/mol
# GULP energy per Si atom -5589.452507 kJ/mol
# Density = 2.344532 g / cm^3
# Si number density = 23.498799 Si / 1000 Ang^3
#
#
#
# Elastic Constant Matrix: (Units=GPa)
#
#
# Indices 1 2 3 4 5 6 
#
# 1 201.2479 49.5638 72.3429 0.0000 -6.9363 0.0000
# 2 49.5638 113.1854 61.4098 0.0000 -2.6118 0.0000
# 3 72.3429 61.4098 97.9516 0.0000 -19.7024 0.0000
# 4 0.0000 0.0000 0.0000 35.2529 0.0000 -7.9802
# 5 -6.9363 -2.6118 -19.7024 0.0000 37.0538 0.0000
# 6 0.0000 0.0000 0.0000 -7.9802 0.0000 29.3303
#
#
#
# Elastic Compliance Matrix: (Units=1/GPa)
#
#
# Indices 1 2 3 4 5 6 
#
# 1 0.006849 -0.000188 -0.005246 0.000000 -0.001521 0.000000
# 2 -0.000188 0.013929 -0.009410 0.000000 -0.004057 0.000000
# 3 -0.005246 -0.009410 0.022006 0.000000 0.010056 0.000000
# 4 0.000000 0.000000 0.000000 0.030228 0.000000 0.008225
# 5 -0.001521 -0.004057 0.010056 0.000000 0.031764 0.000000
# 6 0.000000 0.000000 0.000000 0.008225 0.000000 0.036332
#
#
# Mechanical properties :
#
#
# Convention : Reuss Voigt Hill
#
# Bulk Modulus (GPa) = 76.36174 86.55753 81.45963
# Shear Modulus (GPa) = 28.54491 35.59862 32.07176
#
# Velocity S-wave (km/s) = 3.48909 3.89641 3.69836
# Velocity P-wave (km/s) = 6.98557 7.56026 7.27859
#
# Compressibility (1/GPa) = 0.01309556
#
# Stress axis : x y z
#
# Youngs Moduli (GPa) = 146.01219 71.79155 45.44159
#
# Poissons Ratio (x) = 0.01347 0.23841
# Poissons Ratio (y) = 0.02740 0.42762
# Poissons Ratio (z) = 0.76605 0.67558
#
# Static dielectric constant tensor:
#      x y z
#    x 2.132710 0.000000 -0.435730 
#    y 0.000000 2.099730 0.000000 
#    z -0.435730 0.000000 2.579760 
# 
# From -- ./inp_files/22312.got.cif
#   From: 2010.05.17/outbox.cif.g08.bks.cpg/sg13_12_cif.got.tgz:22312.got - 2010.06.03 16:44:36.
