data_PCOD9237734
_publ_section_title
;
Structure prediction by ZEFSAII (Michael W. Deem and Ramdas Pophale) SiO2 
 PCOD9237734
Probable space group: P 2/C
;
_chemical_formula_sum "Si O2"
_cell_formula_units_Z 22
_cell_length_a 9.201210
_cell_length_b 14.178059
_cell_length_c 9.177589
_cell_angle_alpha 90.000000
_cell_angle_beta 67.341483
_cell_angle_gamma 90.000000
_cell_volume 1104.856896
_symmetry_space_group_name_H-M "P 2/C"
_symmetry_group_IT_number 13
_symmetry_cell_setting 'monoclinic'
loop_
_space_group_symop_operation_xyz
x,y,z
-x,y,1/2-z
-x,-y,-z
x,-y,1/2+z
loop_
_atom_site_type_symbol
_atom_site_label
_atom_site_fract_x
_atom_site_fract_y
_atom_site_fract_z
Si Si1 0.233463 0.299051 0.547096
Si Si2 0.617423 0.539474 0.331592
Si Si3 0.335072 0.050991 0.252753
Si Si4 0.087608 0.579853 0.870873
Si Si5 0.500000 0.231444 0.250000
Si Si6 0.163976 0.917319 0.108438
O O1 0.266147 0.378806 0.653943
O O2 0.107960 0.332775 0.474122
O O3 0.398507 0.290128 0.399299
O O4 0.195987 0.194229 0.616508
O O5 0.500000 0.572948 0.250000
O O6 0.500000 0.500000 0.500000
O O7 0.736988 0.458608 0.231159
O O8 0.500000 0.010818 0.250000
O O9 0.385860 0.159629 0.205372
O O10 0.196633 0.059519 0.426460
O O11 0.285606 0.985520 0.141769
O O12 0.000000 0.596744 0.750000
O O13 0.000000 0.500000 0.000000
O O14 0.000000 0.937670 0.250000
#
# Coordination Sequence:
#
# PCOD9237734 Si02
#       6
#     4   4   4   4   2   4
#     4  11  23  39  66  95 132 162 226 261 314 378
#     4  12  23  42  66  90 125 173 217 261 322 378
#     4   9  20  41  67  90 123 173 199 253 331 373
#     4  12  24  42  66  90 130 175 212 267 331 375
#     4   8  20  40  66  90 130 164 206 276 306 384
#     4  11  23  40  66  94 131 162 209 265 315 390
#
# _framework density 19.912081000000001
#
# number of rings (size 3 to 8) (size 9 to 14) (size 15 to 20)
#    0.545    0.727    3.636    2.182    2.545    0.727 
#    0.000    7.273    0.000    0.000    0.000    0.000 
#    0.000    0.000    0.000    0.000    0.000    0.000 
#
# Total GULP energy -122646.947695 kJ/mol
# GULP energy per Si atom -5574.861259 kJ/mol
# Density = 1.986676 g / cm^3
# Si number density = 19.912081 Si / 1000 Ang^3
#
#
#
# Elastic Constant Matrix: (Units=GPa)
#
#
# Indices 1 2 3 4 5 6 
#
# 1 62.4403 2.9280 25.1201 0.0000 2.6356 0.0000
# 2 2.9280 74.3142 21.4652 0.0000 18.9013 0.0000
# 3 25.1201 21.4652 65.3480 0.0000 2.0608 0.0000
# 4 0.0000 0.0000 0.0000 29.8400 0.0000 7.2935
# 5 2.6356 18.9013 2.0608 0.0000 50.7213 0.0000
# 6 0.0000 0.0000 0.0000 7.2935 0.0000 13.6540
#
#
#
# Elastic Compliance Matrix: (Units=1/GPa)
#
#
# Indices 1 2 3 4 5 6 
#
# 1 0.019184 0.001892 -0.007952 0.000000 -0.001379 0.000000
# 2 0.001892 0.016659 -0.006008 0.000000 -0.006062 0.000000
# 3 -0.007952 -0.006008 0.020275 0.000000 0.001828 0.000000
# 4 0.000000 0.000000 0.000000 0.038545 0.000000 -0.020589
# 5 -0.001379 -0.006062 0.001828 0.000000 0.021972 0.000000
# 6 0.000000 0.000000 0.000000 -0.020589 0.000000 0.084237
#
#
# Mechanical properties :
#
#
# Convention : Reuss Voigt Hill
#
# Bulk Modulus (GPa) = 31.26831 33.45877 32.36354
# Shear Modulus (GPa) = 21.21611 29.01566 25.11589
#
# Velocity S-wave (km/s) = 3.26772 3.82146 3.55539
# Velocity P-wave (km/s) = 5.47491 6.02587 5.75698
#
# Compressibility (1/GPa) = 0.03198127
#
# Stress axis : x y z
#
# Youngs Moduli (GPa) = 52.12654 60.02712 49.32065
#
# Poissons Ratio (x) = -0.11356 0.39222
# Poissons Ratio (y) = -0.09861 0.29633
# Poissons Ratio (z) = 0.41453 0.36065
#
# Static dielectric constant tensor:
#      x y z
#    x 1.723490 0.000000 -0.002670 
#    y 0.000000 1.690620 0.000000 
#    z -0.002670 0.000000 1.704120 
# 
# From -- ./inp_files/12417.got.cif
#   From: 2010.05.17/outbox.cif.g08.bks.cpg/sg13_7_cif.got.tgz:12417.got - 2010.06.03 16:44:36.
