data_PCOD9237624
_publ_section_title
;
Structure prediction by ZEFSAII (Michael W. Deem and Ramdas Pophale) SiO2 
 PCOD9237624
Probable space group: P 2/C
;
_chemical_formula_sum "Si O2"
_cell_formula_units_Z 16
_cell_length_a 14.738366
_cell_length_b 4.984329
_cell_length_c 9.955965
_cell_angle_alpha 90.000000
_cell_angle_beta 53.026557
_cell_angle_gamma 90.000000
_cell_volume 584.305040
_symmetry_space_group_name_H-M "P 2/C"
_symmetry_group_IT_number 13
_symmetry_cell_setting 'monoclinic'
loop_
_space_group_symop_operation_xyz
x,y,z
-x,y,1/2-z
-x,-y,-z
x,-y,1/2+z
loop_
_atom_site_type_symbol
_atom_site_label
_atom_site_fract_x
_atom_site_fract_y
_atom_site_fract_z
Si Si1 0.405895 0.662252 0.163618
Si Si2 0.175483 0.468485 0.778054
Si Si3 0.888111 0.805920 0.904593
Si Si4 0.310130 0.165772 0.346674
O O1 0.296195 0.681542 0.164254
O O2 0.411792 0.964267 0.211378
O O3 0.366435 0.458045 0.318070
O O4 0.500000 0.500000 0.000000
O O5 0.125529 0.550163 0.681564
O O6 0.219404 0.741258 0.811774
O O7 0.102473 0.304342 0.951829
O O8 0.000000 0.949490 0.750000
O O9 0.774193 0.979987 0.993340
#
# Coordination Sequence:
#
# PCOD9237624 Si02
#       4
#     4   4   4   4
#     4   9  18  40  67  91 130 170 216 272 333 387
#     4   9  23  39  66  97 134 171 233 271 332 409
#     4  11  22  42  67  97 137 181 222 282 338 394
#     4   9  21  38  62  95 126 166 222 267 319 399
#
# _framework density 27.382957999999999
#
# number of rings (size 3 to 8) (size 9 to 14) (size 15 to 20)
#    1.500    1.000    0.000    1.500    0.000    6.000 
#    0.000    5.000    5.500    0.000    0.000    0.000 
#    0.000    0.000    0.000    0.000    0.000    0.000 
#
# Total GULP energy -89222.583451 kJ/mol
# GULP energy per Si atom -5576.411466 kJ/mol
# Density = 2.732063 g / cm^3
# Si number density = 27.382958 Si / 1000 Ang^3
#
#
#
# Elastic Constant Matrix: (Units=GPa)
#
#
# Indices 1 2 3 4 5 6 
#
# 1 47.3736 4.1215 21.9145 0.0000 3.7945 0.0000
# 2 4.1215 181.1799 23.9309 0.0000 -4.0868 0.0000
# 3 21.9145 23.9309 117.8673 0.0000 -17.0901 0.0000
# 4 0.0000 0.0000 0.0000 20.5343 0.0000 7.1629
# 5 3.7945 -4.0868 -17.0901 0.0000 45.7903 0.0000
# 6 0.0000 0.0000 0.0000 7.1629 0.0000 25.8343
#
#
#
# Elastic Compliance Matrix: (Units=1/GPa)
#
#
# Indices 1 2 3 4 5 6 
#
# 1 0.023710 0.000031 -0.004968 0.000000 -0.003816 0.000000
# 2 0.000031 0.005672 -0.001146 0.000000 0.000076 0.000000
# 3 -0.004968 -0.001146 0.010239 0.000000 0.004131 0.000000
# 4 0.000000 0.000000 0.000000 0.053913 0.000000 -0.014948
# 5 -0.003816 0.000076 0.004131 0.000000 0.023703 0.000000
# 6 0.000000 0.000000 0.000000 -0.014948 0.000000 0.042853
#
#
# Mechanical properties :
#
#
# Convention : Reuss Voigt Hill
#
# Bulk Modulus (GPa) = 36.42403 49.59495 43.00949
# Shear Modulus (GPa) = 27.56203 38.19538 32.87870
#
# Velocity S-wave (km/s) = 3.17604 3.73883 3.46887
# Velocity P-wave (km/s) = 5.17496 6.06543 5.63780
#
# Compressibility (1/GPa) = 0.02745441
#
# Stress axis : x y z
#
# Youngs Moduli (GPa) = 42.17653 176.31114 97.66139
#
# Poissons Ratio (x) = -0.00542 0.48516
# Poissons Ratio (y) = -0.00130 0.11195
# Poissons Ratio (z) = 0.20953 0.20210
#
# Static dielectric constant tensor:
#      x y z
#    x 2.212260 0.000000 -0.038210 
#    y 0.000000 2.105510 0.000000 
#    z -0.038210 0.000000 2.407690 
# 
# From -- ./inp_files/20408.got.cif
#   From: 2010.05.17/outbox.cif.g08.bks.cpg/sg13_11_cif.got.tgz:20408.got - 2010.06.03 16:44:36.
