data_PCOD9237445
_publ_section_title
;
Structure prediction by ZEFSAII (Michael W. Deem and Ramdas Pophale) SiO2 
 PCOD9237445
Probable space group: P 2/C
;
_chemical_formula_sum "Si O2"
_cell_formula_units_Z 20
_cell_length_a 6.814726
_cell_length_b 9.674063
_cell_length_c 15.398124
_cell_angle_alpha 90.000000
_cell_angle_beta 94.331474
_cell_angle_gamma 90.000000
_cell_volume 1012.238646
_symmetry_space_group_name_H-M "P 2/C"
_symmetry_group_IT_number 13
_symmetry_cell_setting 'monoclinic'
loop_
_space_group_symop_operation_xyz
x,y,z
-x,y,1/2-z
-x,-y,-z
x,-y,1/2+z
loop_
_atom_site_type_symbol
_atom_site_label
_atom_site_fract_x
_atom_site_fract_y
_atom_site_fract_z
Si Si1 0.461541 0.849488 0.036686
Si Si2 0.291805 0.030376 0.704292
Si Si3 0.000000 0.203549 0.250000
Si Si4 0.000000 0.750068 0.250000
Si Si5 0.838084 0.661592 0.573840
Si Si6 0.842676 0.656221 0.067048
O O1 0.334582 0.888888 0.116993
O O2 0.660874 0.763144 0.060952
O O3 0.331802 0.761092 0.966258
O O4 0.500000 0.000000 0.000000
O O5 0.500000 0.987421 0.750000
O O6 0.185898 0.147512 0.757146
O O7 0.148906 0.898557 0.702933
O O8 0.104539 0.295088 0.326820
O O9 0.023609 0.669815 0.341194
O O10 0.772199 0.502406 0.564928
O O11 0.022677 0.678364 0.513736
#
# Coordination Sequence:
#
# PCOD9237445 Si02
#       6
#     4   4   2   2   4   4
#     4  12  24  40  68  97 132 169 214 271 324 380
#     4  11  22  39  64  98 128 163 218 266 321 385
#     4  11  25  42  66  94 132 170 216 274 324 376
#     4  11  21  40  68  92 128 168 212 266 316 382
#     4  11  25  44  64  96 133 171 218 266 323 388
#     4  11  24  43  68  96 130 174 216 264 326 387
#
# _framework density 19.758187
#
# number of rings (size 3 to 8) (size 9 to 14) (size 15 to 20)
#    0.000    0.800    4.000    3.600    2.800    1.600 
#    0.000    0.000    4.400    0.000    0.000    0.000 
#    0.000    0.000    0.000    0.000    0.000    0.000 
#
# Total GULP energy -111643.321981 kJ/mol
# GULP energy per Si atom -5582.166099 kJ/mol
# Density = 1.971322 g / cm^3
# Si number density = 19.758187 Si / 1000 Ang^3
#
#
#
# Elastic Constant Matrix: (Units=GPa)
#
#
# Indices 1 2 3 4 5 6 
#
# 1 80.9752 56.1983 29.0060 0.0000 10.0666 0.0000
# 2 56.1983 148.8343 46.8486 0.0000 11.1379 0.0000
# 3 29.0060 46.8486 117.7137 0.0000 12.8017 0.0000
# 4 0.0000 0.0000 0.0000 27.0079 0.0000 -5.3062
# 5 10.0666 11.1379 12.8017 0.0000 34.3962 0.0000
# 6 0.0000 0.0000 0.0000 -5.3062 0.0000 5.6503
#
#
#
# Elastic Compliance Matrix: (Units=1/GPa)
#
#
# Indices 1 2 3 4 5 6 
#
# 1 0.017302 -0.005816 -0.001671 0.000000 -0.002559 0.000000
# 2 -0.005816 0.009702 -0.002367 0.000000 -0.000558 0.000000
# 3 -0.001671 -0.002367 0.010122 0.000000 -0.002512 0.000000
# 4 0.000000 0.000000 0.000000 0.045403 0.000000 0.042638
# 5 -0.002559 -0.000558 -0.002512 0.000000 0.030937 0.000000
# 6 0.000000 0.000000 0.000000 0.042638 0.000000 0.217024
#
#
# Mechanical properties :
#
#
# Convention : Reuss Voigt Hill
#
# Bulk Modulus (GPa) = 57.40954 67.95878 62.68416
# Shear Modulus (GPa) = 14.04474 27.77557 20.91015
#
# Velocity S-wave (km/s) = 2.66903 3.75343 3.25669
# Velocity P-wave (km/s) = 6.21430 7.29755 6.77760
#
# Compressibility (1/GPa) = 0.01741871
#
# Stress axis : x y z
#
# Youngs Moduli (GPa) = 57.79588 103.07311 98.79277
#
# Poissons Ratio (x) = 0.59946 0.16504
# Poissons Ratio (y) = 0.33613 0.23388
# Poissons Ratio (z) = 0.09655 0.24402
#
# Static dielectric constant tensor:
#      x y z
#    x 1.660890 0.000000 0.019020 
#    y 0.000000 1.673740 0.000000 
#    z 0.019020 0.000000 1.678240 
# 
# From -- ./inp_files/60615.got.cif
#   From: 2010.05.17/outbox.cif.g08.bks.cpg/sg13_31_cif.got.tgz:60615.got - 2010.06.03 16:44:36.
