data_PCOD9237931
_publ_section_title
;
Structure prediction by ZEFSAII (Michael W. Deem and Ramdas Pophale) SiO2 
 PCOD9237931
Probable space group: P 2/C
;
_chemical_formula_sum "Si O2"
_cell_formula_units_Z 20
_cell_length_a 5.949334
_cell_length_b 6.803571
_cell_length_c 23.643908
_cell_angle_alpha 90.000000
_cell_angle_beta 106.388157
_cell_angle_gamma 90.000000
_cell_volume 918.145932
_symmetry_space_group_name_H-M "P 2/C"
_symmetry_group_IT_number 13
_symmetry_cell_setting 'monoclinic'
loop_
_space_group_symop_operation_xyz
x,y,z
-x,y,1/2-z
-x,-y,-z
x,-y,1/2+z
loop_
_atom_site_type_symbol
_atom_site_label
_atom_site_fract_x
_atom_site_fract_y
_atom_site_fract_z
Si Si1 0.912839 0.869444 0.131302
Si Si2 0.448527 0.150974 0.446971
Si Si3 0.893725 0.507815 0.555237
Si Si4 0.000000 0.371564 0.750000
Si Si5 0.247082 0.789404 0.632535
Si Si6 0.500000 0.412367 0.250000
O O1 0.869577 0.709341 0.079035
O O2 0.920664 0.760402 0.191257
O O3 0.716169 0.034682 0.108999
O O4 0.148379 0.996759 0.140623
O O5 0.329873 0.348715 0.461209
O O6 0.671163 0.201407 0.426148
O O7 0.500000 0.000000 0.500000
O O8 0.000000 0.500000 0.500000
O O9 0.052899 0.619208 0.613577
O O10 0.752169 0.480459 0.751685
O O11 0.436490 0.717203 0.690728
#
# Coordination Sequence:
#
# PCOD9237931 Si02
#       6
#     4   4   4   2   4   2
#     4  11  26  44  70 104 142 192 246 301 374 434
#     4  11  25  43  70 107 143 190 245 303 369 441
#     4  11  23  45  70 102 145 186 241 302 365 441
#     4  12  28  48  76 108 146 198 250 308 372 444
#     4  11  26  44  70 102 144 189 243 306 366 437
#     4  12  28  48  76 106 150 192 254 306 372 440
#
# _framework density 21.783031000000001
#
# number of rings (size 3 to 8) (size 9 to 14) (size 15 to 20)
#    0.000    0.800    2.000    3.600    8.400    9.600 
#    0.000    0.000    0.000    0.000    0.000    0.000 
#    0.000    0.000    0.000    0.000    0.000    0.000 
#
# Total GULP energy -111612.950610 kJ/mol
# GULP energy per Si atom -5580.647531 kJ/mol
# Density = 2.173345 g / cm^3
# Si number density = 21.783031 Si / 1000 Ang^3
#
#
#
# Elastic Constant Matrix: (Units=GPa)
#
#
# Indices 1 2 3 4 5 6 
#
# 1 85.9455 54.3301 29.8994 0.0000 -7.2632 0.0000
# 2 54.3301 137.1919 48.5640 0.0000 -2.8368 0.0000
# 3 29.8994 48.5640 129.4227 0.0000 -0.5386 0.0000
# 4 0.0000 0.0000 0.0000 57.5558 0.0000 5.1933
# 5 -7.2632 -2.8368 -0.5386 0.0000 39.5355 0.0000
# 6 0.0000 0.0000 0.0000 5.1933 0.0000 40.5115
#
#
#
# Elastic Compliance Matrix: (Units=1/GPa)
#
#
# Indices 1 2 3 4 5 6 
#
# 1 0.016014 -0.005747 -0.001532 0.000000 0.002509 0.000000
# 2 -0.005747 0.010481 -0.002606 0.000000 -0.000339 0.000000
# 3 -0.001532 -0.002606 0.009057 0.000000 -0.000345 0.000000
# 4 0.000000 0.000000 0.000000 0.017578 0.000000 -0.002253
# 5 0.002509 -0.000339 -0.000345 0.000000 0.025726 0.000000
# 6 0.000000 0.000000 0.000000 -0.002253 0.000000 0.024973
#
#
# Mechanical properties :
#
#
# Convention : Reuss Voigt Hill
#
# Bulk Modulus (GPa) = 63.37455 68.68301 66.02878
# Shear Modulus (GPa) = 38.80186 42.17168 40.48677
#
# Velocity S-wave (km/s) = 4.22511 4.40476 4.31587
# Velocity P-wave (km/s) = 7.27728 7.58078 7.43058
#
# Compressibility (1/GPa) = 0.01577921
#
# Stress axis : x y z
#
# Youngs Moduli (GPa) = 62.44730 95.41374 110.40909
#
# Poissons Ratio (x) = 0.54837 0.16920
# Poissons Ratio (y) = 0.35890 0.28777
# Poissons Ratio (z) = 0.09570 0.24869
#
# Static dielectric constant tensor:
#      x y z
#    x 1.898260 0.000000 0.060720 
#    y 0.000000 1.845280 0.000000 
#    z 0.060720 0.000000 1.851580 
# 
# From -- ./inp_files/89913.got.cif
#   From: 2010.05.17/outbox.cif.g08.bks.cpg/sg13_45_cif.got.tgz:89913.got - 2010.06.03 16:44:36.
