data_PCOD9237223
_publ_section_title
;
Structure prediction by ZEFSAII (Michael W. Deem and Ramdas Pophale) SiO2 
 PCOD9237223
Probable space group: P 2/C
;
_chemical_formula_sum "Si O2"
_cell_formula_units_Z 28
_cell_length_a 24.026851
_cell_length_b 12.215645
_cell_length_c 24.238157
_cell_angle_alpha 90.000000
_cell_angle_beta 168.415941
_cell_angle_gamma 90.000000
_cell_volume 1428.526107
_symmetry_space_group_name_H-M "P 2/C"
_symmetry_group_IT_number 13
_symmetry_cell_setting 'monoclinic'
loop_
_space_group_symop_operation_xyz
x,y,z
-x,y,1/2-z
-x,-y,-z
x,-y,1/2+z
loop_
_atom_site_type_symbol
_atom_site_label
_atom_site_fract_x
_atom_site_fract_y
_atom_site_fract_z
Si Si1 0.495647 0.935087 0.372552
Si Si2 0.921259 0.996190 0.611513
Si Si3 0.782576 0.814129 0.307542
Si Si4 0.915054 0.748073 0.105426
Si Si5 0.239439 0.570443 0.262504
Si Si6 0.532080 0.315454 0.412358
Si Si7 0.665140 0.872957 0.705041
O O1 0.401813 0.830612 0.317179
O O2 0.812246 0.968226 0.668470
O O3 0.335546 0.031797 0.250905
O O4 0.339545 0.929445 0.163247
O O5 0.000000 0.968853 0.750000
O O6 0.828971 0.124453 0.522707
O O7 0.777429 0.689770 0.281890
O O8 0.092626 0.860837 0.604606
O O9 0.623178 0.883666 0.106371
O O10 0.000000 0.712588 0.250000
O O11 0.205057 0.750606 0.354611
O O12 0.682223 0.674822 0.847728
O O13 0.500000 0.500000 0.500000
O O14 0.307979 0.593692 0.394637
O O15 0.000000 0.500000 0.000000
O O16 0.349346 0.242239 0.276581
#
# Coordination Sequence:
#
# PCOD9237223 Si02
#       7
#     4   4   4   4   4   4   4
#     4  12  21  35  54  80 117 156 188 224 276 328
#     4  11  22  35  53  80 118 161 195 227 267 330
#     4  11  23  35  55  82 112 146 192 230 279 353
#     4  11  20  34  53  82 116 154 191 225 273 344
#     4  11  23  40  60  82 111 146 194 248 301 352
#     4  11  20  35  57  80 114 153 188 232 289 345
#     4  11  19  34  51  81 118 150 182 217 276 336
#
# _framework density 19.600621
#
# number of rings (size 3 to 8) (size 9 to 14) (size 15 to 20)
#    0.000    0.857    2.857    7.714    0.000    2.286 
#    0.000    0.000    0.000    0.000    0.000   15.000 
#    0.000    0.000    0.000    0.000    0.000    0.000 
#
# Total GULP energy -155928.536053 kJ/mol
# GULP energy per Si atom -5568.876288 kJ/mol
# Density = 1.955601 g / cm^3
# Si number density = 19.600621 Si / 1000 Ang^3
#
#
#
# Elastic Constant Matrix: (Units=GPa)
#
#
# Indices 1 2 3 4 5 6 
#
# 1 74.8752 14.1301 22.8267 0.0000 -20.4605 0.0000
# 2 14.1301 52.0131 23.1702 0.0000 -4.5333 0.0000
# 3 22.8267 23.1702 122.8908 0.0000 -16.6750 0.0000
# 4 0.0000 0.0000 0.0000 23.0540 0.0000 -0.9646
# 5 -20.4605 -4.5333 -16.6750 0.0000 47.3022 0.0000
# 6 0.0000 0.0000 0.0000 -0.9646 0.0000 19.4364
#
#
#
# Elastic Compliance Matrix: (Units=1/GPa)
#
#
# Indices 1 2 3 4 5 6 
#
# 1 0.016096 -0.003142 -0.001569 0.000000 0.006108 0.000000
# 2 -0.003142 0.021621 -0.003567 0.000000 -0.000544 0.000000
# 3 -0.001569 -0.003567 0.009413 0.000000 0.002298 0.000000
# 4 0.000000 0.000000 0.000000 0.043467 0.000000 0.002157
# 5 0.006108 -0.000544 0.002298 0.000000 0.024541 0.000000
# 6 0.000000 0.000000 0.000000 0.002157 0.000000 0.051557
#
#
# Mechanical properties :
#
#
# Convention : Reuss Voigt Hill
#
# Bulk Modulus (GPa) = 32.70566 41.11480 36.91023
# Shear Modulus (GPa) = 25.84788 30.60199 28.22493
#
# Velocity S-wave (km/s) = 3.63537 3.95559 3.79885
# Velocity P-wave (km/s) = 5.86033 6.47179 6.17363
#
# Compressibility (1/GPa) = 0.03057575
#
# Stress axis : x y z
#
# Youngs Moduli (GPa) = 62.12820 46.25171 106.23634
#
# Poissons Ratio (x) = 0.14530 0.16665
# Poissons Ratio (y) = 0.19518 0.37892
# Poissons Ratio (z) = 0.09746 0.16497
#
# Static dielectric constant tensor:
#      x y z
#    x 1.849030 0.000000 -0.060080 
#    y 0.000000 1.772360 0.000000 
#    z -0.060080 0.000000 1.715350 
# 
# From -- ./inp_files/94172.got.cif
#   From: 2010.05.17/outbox.cif.g08.bks.cpg/sg13_48_cif.got.tgz:94172.got - 2010.06.03 16:44:36.
