data_PCOD9237543
_publ_section_title
;
Structure prediction by ZEFSAII (Michael W. Deem and Ramdas Pophale) SiO2 
 PCOD9237543
Probable space group: P 2/C
;
_chemical_formula_sum "Si O2"
_cell_formula_units_Z 32
_cell_length_a 9.021993
_cell_length_b 11.088878
_cell_length_c 30.446333
_cell_angle_alpha 90.000000
_cell_angle_beta 30.844176
_cell_angle_gamma 90.000000
_cell_volume 1561.682071
_symmetry_space_group_name_H-M "P 2/C"
_symmetry_group_IT_number 13
_symmetry_cell_setting 'monoclinic'
loop_
_space_group_symop_operation_xyz
x,y,z
-x,y,1/2-z
-x,-y,-z
x,-y,1/2+z
loop_
_atom_site_type_symbol
_atom_site_label
_atom_site_fract_x
_atom_site_fract_y
_atom_site_fract_z
Si Si1 0.108779 0.691730 0.025042
Si Si2 0.802016 0.152477 0.912709
Si Si3 0.592695 0.126396 0.176243
Si Si4 0.811924 0.086935 0.465175
Si Si5 0.697123 0.897645 0.090453
Si Si6 0.432851 0.465959 0.817576
Si Si7 0.661172 0.322269 0.321889
Si Si8 0.184757 0.739748 0.240757
O O1 0.154120 0.746757 0.061683
O O2 0.930894 0.795532 0.043756
O O3 0.894717 0.575993 0.085973
O O4 0.420753 0.676538 0.922274
O O5 0.997649 0.181608 0.821518
O O6 0.874008 0.023655 0.916579
O O7 0.471945 0.148452 0.981192
O O8 0.500000 0.118271 0.250000
O O9 0.395260 0.203936 0.194067
O O10 0.920026 0.176874 0.097068
O O11 0.639812 0.995285 0.142687
O O12 0.758991 0.039577 0.528179
O O13 0.400791 0.825964 0.159946
O O14 0.500000 0.499841 0.750000
O O15 0.558894 0.568245 0.817025
O O16 0.624515 0.348249 0.778602
O O17 0.000000 0.328518 0.250000
O O18 0.000000 0.674446 0.250000
#
# Coordination Sequence:
#
# PCOD9237543 Si02
#       8
#     4   4   4   4   4   4   4   4
#     4  11  23  45  75  99 133 176 230 277 341 400
#     4  11  22  38  65 103 136 174 223 276 329 397
#     4  12  25  42  63  92 139 188 224 268 337 411
#     4  11  22  39  62  96 143 176 216 271 330 400
#     4  11  22  40  66  98 134 179 221 271 335 403
#     4  11  24  47  77  99 126 171 228 293 339 394
#     4  12  28  48  67  98 139 179 226 279 345 411
#     4  11  22  40  67 100 132 167 222 283 336 389
#
# _framework density 20.490725000000001
#
# number of rings (size 3 to 8) (size 9 to 14) (size 15 to 20)
#    0.000    0.750    5.000    3.000    1.750    0.500 
#    0.000    0.625    0.000    0.000    0.000    0.000 
#    0.000    0.000    0.000    0.000    0.000    0.000 
#
# Total GULP energy -178630.536433 kJ/mol
# GULP energy per Si atom -5582.204264 kJ/mol
# Density = 2.044409 g / cm^3
# Si number density = 20.490725 Si / 1000 Ang^3
#
#
#
# Elastic Constant Matrix: (Units=GPa)
#
#
# Indices 1 2 3 4 5 6 
#
# 1 120.7246 15.0866 61.0571 0.0000 -11.3461 0.0000
# 2 15.0866 48.2812 31.5745 0.0000 -9.6673 0.0000
# 3 61.0571 31.5745 131.9724 0.0000 -5.9363 0.0000
# 4 0.0000 0.0000 0.0000 17.7235 0.0000 -3.4635
# 5 -11.3461 -9.6673 -5.9363 0.0000 39.6777 0.0000
# 6 0.0000 0.0000 0.0000 -3.4635 0.0000 32.2891
#
#
#
# Elastic Compliance Matrix: (Units=1/GPa)
#
#
# Indices 1 2 3 4 5 6 
#
# 1 0.011043 0.000374 -0.005087 0.000000 0.002488 0.000000
# 2 0.000374 0.025653 -0.006065 0.000000 0.005450 0.000000
# 3 -0.005087 -0.006065 0.011326 0.000000 -0.001238 0.000000
# 4 0.000000 0.000000 0.000000 0.057630 0.000000 0.006182
# 5 0.002488 0.005450 -0.001238 0.000000 0.027057 0.000000
# 6 0.000000 0.000000 0.000000 0.006182 0.000000 0.031633
#
#
# Mechanical properties :
#
#
# Convention : Reuss Voigt Hill
#
# Bulk Modulus (GPa) = 37.78428 57.37940 47.58184
# Shear Modulus (GPa) = 25.67779 30.82206 28.24993
#
# Velocity S-wave (km/s) = 3.54382 3.88260 3.71707
# Velocity P-wave (km/s) = 5.93503 6.93995 6.45707
#
# Compressibility (1/GPa) = 0.02646604
#
# Stress axis : x y z
#
# Youngs Moduli (GPa) = 90.55524 38.98195 88.29132
#
# Poissons Ratio (x) = -0.01458 0.44910
# Poissons Ratio (y) = -0.03387 0.53552
# Poissons Ratio (z) = 0.46062 0.23644
#
# Static dielectric constant tensor:
#      x y z
#    x 1.747140 0.000000 -0.034210 
#    y 0.000000 1.735180 0.000000 
#    z -0.034210 0.000000 1.781220 
# 
# From -- ./inp_files/96137.got.cif
#   From: 2010.05.17/outbox.cif.g08.bks.cpg/sg13_49_cif.got.tgz:96137.got - 2010.06.03 16:44:36.
