data_PCOD9237226
_publ_section_title
;
Structure prediction by ZEFSAII (Michael W. Deem and Ramdas Pophale) SiO2 
 PCOD9237226
Probable space group: P 2/C
;
_chemical_formula_sum "Si O2"
_cell_formula_units_Z 24
_cell_length_a 21.543123
_cell_length_b 10.975519
_cell_length_c 21.769951
_cell_angle_alpha 90.000000
_cell_angle_beta 12.971991
_cell_angle_gamma 90.000000
_cell_volume 1155.469783
_symmetry_space_group_name_H-M "P 2/C"
_symmetry_group_IT_number 13
_symmetry_cell_setting 'monoclinic'
loop_
_space_group_symop_operation_xyz
x,y,z
-x,y,1/2-z
-x,-y,-z
x,-y,1/2+z
loop_
_atom_site_type_symbol
_atom_site_label
_atom_site_fract_x
_atom_site_fract_y
_atom_site_fract_z
Si Si1 0.935253 0.685497 0.492795
Si Si2 0.991131 0.032359 0.936002
Si Si3 0.844194 0.676367 0.836773
Si Si4 0.671792 0.455075 0.700276
Si Si5 0.491331 0.328179 0.517467
Si Si6 0.521186 0.887266 0.079877
O O1 0.906362 0.828295 0.507754
O O2 0.789874 0.591303 0.587363
O O3 0.258276 0.659255 0.190486
O O4 0.789687 0.661308 0.699203
O O5 0.770704 0.940235 0.118282
O O6 0.000000 0.000000 0.000000
O O7 0.286789 0.000220 0.622971
O O8 0.681004 0.795937 0.971029
O O9 0.000000 0.695466 0.750000
O O10 0.077084 0.631795 0.563898
O O11 0.602673 0.574336 0.073875
O O12 0.578211 0.417774 0.859588
O O13 0.472438 0.194759 0.566180
#
# Coordination Sequence:
#
# PCOD9237226 Si02
#       6
#     4   4   4   4   4   4
#     4  12  22  33  56  85 129 163 184 219 291 357
#     4  12  21  35  56  86 128 164 189 219 278 363
#     4  11  24  44  67  82 107 150 205 268 304 325
#     4  11  23  38  58  90 116 148 201 242 297 348
#     4  11  19  34  54  84 125 159 187 229 275 355
#     4  11  21  37  57  88 116 154 203 238 277 340
#
# _framework density 20.770772999999998
#
# number of rings (size 3 to 8) (size 9 to 14) (size 15 to 20)
#    0.000    0.667    3.333    8.000    0.000    0.000 
#    0.000    0.000    0.000    6.000    0.000    0.000 
#    0.000    0.000    0.000    0.000    0.000    0.000 
#
# Total GULP energy -134225.461583 kJ/mol
# GULP energy per Si atom -5592.727566 kJ/mol
# Density = 2.072350 g / cm^3
# Si number density = 20.770773 Si / 1000 Ang^3
#
#
#
# Elastic Constant Matrix: (Units=GPa)
#
#
# Indices 1 2 3 4 5 6 
#
# 1 57.5176 30.5226 11.8753 0.0000 -26.6990 0.0000
# 2 30.5226 129.3662 22.3032 0.0000 -11.9113 0.0000
# 3 11.8753 22.3032 84.9557 0.0000 -20.5682 0.0000
# 4 0.0000 0.0000 0.0000 40.2772 0.0000 -7.9439
# 5 -26.6990 -11.9113 -20.5682 0.0000 31.3930 0.0000
# 6 0.0000 0.0000 0.0000 -7.9439 0.0000 11.2233
#
#
#
# Elastic Compliance Matrix: (Units=1/GPa)
#
#
# Indices 1 2 3 4 5 6 
#
# 1 0.032716 -0.005778 0.003743 0.000000 0.028084 0.000000
# 2 -0.005778 0.009224 -0.002325 0.000000 -0.002938 0.000000
# 3 0.003743 -0.002325 0.014756 0.000000 0.011969 0.000000
# 4 0.000000 0.000000 0.000000 0.028856 0.000000 0.020425
# 5 0.028084 -0.002938 0.011969 0.000000 0.062466 0.000000
# 6 0.000000 0.000000 0.000000 0.020425 0.000000 0.103557
#
#
# Mechanical properties :
#
#
# Convention : Reuss Voigt Hill
#
# Bulk Modulus (GPa) = 20.84436 44.58241 32.71339
# Shear Modulus (GPa) = 18.09714 30.38794 24.24254
#
# Velocity S-wave (km/s) = 2.95495 3.82909 3.42006
# Velocity P-wave (km/s) = 4.65827 6.40779 5.60175
#
# Compressibility (1/GPa) = 0.04797460
#
# Stress axis : x y z
#
# Youngs Moduli (GPa) = 30.56620 108.41650 67.77011
#
# Poissons Ratio (x) = 0.62648 -0.25368
# Poissons Ratio (y) = 0.17663 0.15757
# Poissons Ratio (z) = -0.11441 0.25208
#
# Static dielectric constant tensor:
#      x y z
#    x 1.735690 0.000000 -0.007140 
#    y 0.000000 1.781610 0.000000 
#    z -0.007140 0.000000 1.731320 
# 
# From -- ./inp_files/89045.got.cif
#   From: 2010.05.17/outbox.cif.g08.bks.cpg/sg13_45_cif.got.tgz:89045.got - 2010.06.03 16:44:36.
