data_PCOD9237823
_publ_section_title
;
Structure prediction by ZEFSAII (Michael W. Deem and Ramdas Pophale) SiO2 
 PCOD9237823
Probable space group: P 2/C
;
_chemical_formula_sum "Si O2"
_cell_formula_units_Z 26
_cell_length_a 8.242689
_cell_length_b 10.228035
_cell_length_c 18.061655
_cell_angle_alpha 90.000000
_cell_angle_beta 123.526614
_cell_angle_gamma 90.000000
_cell_volume 1269.380031
_symmetry_space_group_name_H-M "P 2/C"
_symmetry_group_IT_number 13
_symmetry_cell_setting 'monoclinic'
loop_
_space_group_symop_operation_xyz
x,y,z
-x,y,1/2-z
-x,-y,-z
x,-y,1/2+z
loop_
_atom_site_type_symbol
_atom_site_label
_atom_site_fract_x
_atom_site_fract_y
_atom_site_fract_z
Si Si1 0.016322 0.902251 0.073258
Si Si2 0.370031 0.895259 0.425924
Si Si3 0.342757 0.613574 0.446372
Si Si4 0.722671 0.673186 0.778817
Si Si5 0.078618 0.353067 0.016487
Si Si6 0.316358 0.964578 0.757476
Si Si7 0.000000 0.511673 0.250000
O O1 0.821001 0.889394 0.071596
O O2 0.159188 0.965506 0.167467
O O3 0.062491 0.757738 0.053067
O O4 0.000000 0.000000 0.000000
O O5 0.442858 0.745819 0.441597
O O6 0.337811 0.952275 0.336672
O O7 0.500000 0.000000 0.500000
O O8 0.500000 0.500000 0.500000
O O9 0.260235 0.640689 0.507108
O O10 0.152493 0.583856 0.345513
O O11 0.500000 0.639177 0.750000
O O12 0.846613 0.691860 0.884967
O O13 0.845764 0.570717 0.760946
O O14 0.720949 0.811695 0.735734
O O15 0.000000 0.500000 0.000000
O O16 0.500000 0.962683 0.750000
#
# Coordination Sequence:
#
# PCOD9237823 Si02
#       7
#     4   4   4   4   4   4   2
#     4  11  23  42  68  96 137 177 226 285 349 426
#     4  11  27  43  71 100 140 179 235 295 358 421
#     4  11  27  46  72 102 145 184 244 294 362 436
#     4  11  25  43  72 103 142 181 243 293 356 430
#     4  11  23  44  66  97 136 178 225 290 350 419
#     4  11  25  43  67 102 138 180 233 294 354 427
#     4  12  26  46  74 106 144 196 236 296 368 430
#
# _framework density 20.48244
#
# number of rings (size 3 to 8) (size 9 to 14) (size 15 to 20)
#    0.000    0.923    3.077    2.308   15.077    2.462 
#    0.000    1.538    0.000    0.000    0.000    0.000 
#    0.000    0.000    0.000    0.000    0.000    0.000 
#
# Total GULP energy -145062.989425 kJ/mol
# GULP energy per Si atom -5579.345747 kJ/mol
# Density = 2.043582 g / cm^3
# Si number density = 20.482440 Si / 1000 Ang^3
#
#
#
# Elastic Constant Matrix: (Units=GPa)
#
#
# Indices 1 2 3 4 5 6 
#
# 1 33.7668 28.6260 12.1501 0.0000 -11.7598 0.0000
# 2 28.6260 153.5677 45.9305 0.0000 1.2479 0.0000
# 3 12.1501 45.9305 104.8467 0.0000 -12.7461 0.0000
# 4 0.0000 0.0000 0.0000 40.2151 0.0000 0.2129
# 5 -11.7598 1.2479 -12.7461 0.0000 46.0138 0.0000
# 6 0.0000 0.0000 0.0000 0.2129 0.0000 36.7783
#
#
#
# Elastic Compliance Matrix: (Units=1/GPa)
#
#
# Indices 1 2 3 4 5 6 
#
# 1 0.039519 -0.007427 -0.000076 0.000000 0.010280 0.000000
# 2 -0.007427 0.008949 -0.003436 0.000000 -0.003093 0.000000
# 3 -0.000076 -0.003436 0.011446 0.000000 0.003244 0.000000
# 4 0.000000 0.000000 0.000000 0.024867 0.000000 -0.000144
# 5 0.010280 -0.003093 0.003244 0.000000 0.025343 0.000000
# 6 0.000000 0.000000 0.000000 -0.000144 0.000000 0.027191
#
#
# Mechanical properties :
#
#
# Convention : Reuss Voigt Hill
#
# Bulk Modulus (GPa) = 26.29088 51.73271 39.01180
# Shear Modulus (GPa) = 29.09151 38.29974 33.69563
#
# Velocity S-wave (km/s) = 3.77279 4.32890 4.06038
# Velocity P-wave (km/s) = 5.64290 7.09210 6.40859
#
# Compressibility (1/GPa) = 0.03803600
#
# Stress axis : x y z
#
# Youngs Moduli (GPa) = 25.30412 111.74481 87.36696
#
# Poissons Ratio (x) = 0.82997 0.00665
# Poissons Ratio (y) = 0.18794 0.30015
# Poissons Ratio (z) = 0.00193 0.38390
#
# Static dielectric constant tensor:
#      x y z
#    x 1.698240 0.000000 0.024210 
#    y 0.000000 1.848450 0.000000 
#    z 0.024210 0.000000 1.732370 
# 
# From -- ./inp_files/75993.got.cif
#   From: 2010.05.17/outbox.cif.g08.bks.cpg/sg13_38_cif.got.tgz:75993.got - 2010.06.03 16:44:36.
