data_PCOD9237475
_publ_section_title
;
Structure prediction by ZEFSAII (Michael W. Deem and Ramdas Pophale) SiO2 
 PCOD9237475
Probable space group: P 2/C
;
_chemical_formula_sum "Si O2"
_cell_formula_units_Z 24
_cell_length_a 18.904071
_cell_length_b 8.959132
_cell_length_c 24.292078
_cell_angle_alpha 90.000000
_cell_angle_beta 162.154475
_cell_angle_gamma 90.000000
_cell_volume 1260.805296
_symmetry_space_group_name_H-M "P 2/C"
_symmetry_group_IT_number 13
_symmetry_cell_setting 'monoclinic'
loop_
_space_group_symop_operation_xyz
x,y,z
-x,y,1/2-z
-x,-y,-z
x,-y,1/2+z
loop_
_atom_site_type_symbol
_atom_site_label
_atom_site_fract_x
_atom_site_fract_y
_atom_site_fract_z
Si Si1 0.352194 0.296550 0.261600
Si Si2 0.022754 0.201625 0.605189
Si Si3 0.419113 0.433262 0.881464
Si Si4 0.098801 0.682218 0.768317
Si Si5 0.147301 0.627886 0.414051
Si Si6 0.713528 0.909347 0.684535
O O1 0.288097 0.445055 0.248265
O O2 0.587342 0.338180 0.403858
O O3 0.379092 0.173891 0.329678
O O4 0.159380 0.243234 0.076606
O O5 0.928227 0.263162 0.592951
O O6 0.259338 0.291774 0.770732
O O7 0.088674 0.028708 0.654715
O O8 0.500000 0.500000 0.000000
O O9 0.661611 0.391662 0.034080
O O10 0.068709 0.542750 0.871823
O O11 0.174330 0.790496 0.775016
O O12 0.000000 0.759772 0.750000
O O13 0.000000 0.660234 0.250000
O O14 0.500000 0.000000 0.500000
#
# Coordination Sequence:
#
# PCOD9237475 Si02
#       6
#     4   4   4   4   4   4
#     4  12  24  41  66  98 133 171 222 284 333 384
#     4  12  25  40  63 100 139 174 209 279 346 390
#     4  12  19  41  69  95 124 171 233 269 316 396
#     4  11  22  39  69  97 120 165 239 277 312 381
#     4  11  21  42  69  93 124 172 229 274 317 398
#     4  12  24  42  67  95 133 180 223 264 331 420
#
# _framework density 19.035451999999999
#
# number of rings (size 3 to 8) (size 9 to 14) (size 15 to 20)
#    0.000    0.333    8.333    2.500    0.000    2.000 
#    0.000    0.000    0.000    0.000    0.000    0.000 
#    0.000    0.000    0.000    0.000    0.000    0.000 
#
# Total GULP energy -133997.918320 kJ/mol
# GULP energy per Si atom -5583.246597 kJ/mol
# Density = 1.899213 g / cm^3
# Si number density = 19.035452 Si / 1000 Ang^3
#
#
#
# Elastic Constant Matrix: (Units=GPa)
#
#
# Indices 1 2 3 4 5 6 
#
# 1 99.3085 47.9692 39.9660 0.0000 11.4214 0.0000
# 2 47.9692 115.8244 44.2312 0.0000 3.3837 0.0000
# 3 39.9660 44.2312 101.5257 0.0000 0.0251 0.0000
# 4 0.0000 0.0000 0.0000 34.4822 0.0000 -3.4762
# 5 11.4214 3.3837 0.0251 0.0000 37.3730 0.0000
# 6 0.0000 0.0000 0.0000 -3.4762 0.0000 30.1043
#
#
#
# Elastic Compliance Matrix: (Units=1/GPa)
#
#
# Indices 1 2 3 4 5 6 
#
# 1 0.014078 -0.004319 -0.003659 0.000000 -0.003909 0.000000
# 2 -0.004319 0.011715 -0.003404 0.000000 0.000262 0.000000
# 3 -0.003659 -0.003404 0.012773 0.000000 0.001418 0.000000
# 4 0.000000 0.000000 0.000000 0.029342 0.000000 0.003388
# 5 -0.003909 0.000262 0.001418 0.000000 0.027927 0.000000
# 6 0.000000 0.000000 0.000000 0.003388 0.000000 0.033609
#
#
# Mechanical properties :
#
#
# Convention : Reuss Voigt Hill
#
# Bulk Modulus (GPa) = 63.28398 64.55459 63.91928
# Shear Modulus (GPa) = 31.75122 32.69138 32.22130
#
# Velocity S-wave (km/s) = 4.08855 4.14864 4.11871
# Velocity P-wave (km/s) = 7.45693 7.54551 7.50135
#
# Compressibility (1/GPa) = 0.01580179
#
# Stress axis : x y z
#
# Youngs Moduli (GPa) = 71.03288 85.36399 78.29209
#
# Poissons Ratio (x) = 0.36867 0.28650
# Poissons Ratio (y) = 0.30678 0.26647
# Poissons Ratio (z) = 0.25993 0.29054
#
# Static dielectric constant tensor:
#      x y z
#    x 1.683740 0.000000 0.019020 
#    y 0.000000 1.678570 0.000000 
#    z 0.019020 0.000000 1.645220 
# 
# From -- ./inp_files/88056.got.cif
#   From: 2010.05.17/outbox.cif.g08.bks.cpg/sg13_45_cif.got.tgz:88056.got - 2010.06.03 16:44:36.
