data_PCOD9237412
_publ_section_title
;
Structure prediction by ZEFSAII (Michael W. Deem and Ramdas Pophale) SiO2 
 PCOD9237412
Probable space group: P 2/C
;
_chemical_formula_sum "Si O2"
_cell_formula_units_Z 28
_cell_length_a 26.064798
_cell_length_b 9.467429
_cell_length_c 8.997242
_cell_angle_alpha 90.000000
_cell_angle_beta 144.757930
_cell_angle_gamma 90.000000
_cell_volume 1281.137782
_symmetry_space_group_name_H-M "P 2/C"
_symmetry_group_IT_number 13
_symmetry_cell_setting 'monoclinic'
loop_
_space_group_symop_operation_xyz
x,y,z
-x,y,1/2-z
-x,-y,-z
x,-y,1/2+z
loop_
_atom_site_type_symbol
_atom_site_label
_atom_site_fract_x
_atom_site_fract_y
_atom_site_fract_z
Si Si1 0.234316 0.369806 0.493601
Si Si2 0.237691 0.927873 0.170111
Si Si3 0.496184 0.848743 0.065007
Si Si4 0.943324 0.894468 0.264415
Si Si5 0.173024 0.363957 0.005309
Si Si6 0.558924 0.394284 0.538470
Si Si7 0.695199 0.834760 0.855810
O O1 0.230145 0.213834 0.555455
O O2 0.198732 0.364259 0.240351
O O3 0.173439 0.477887 0.443446
O O4 0.337173 0.425456 0.746826
O O5 0.255365 0.887178 0.380892
O O6 0.311513 0.030661 0.271109
O O7 0.149871 0.023125 0.966666
O O8 0.500000 0.853958 0.250000
O O9 0.566083 0.748264 0.152744
O O10 0.399067 0.783728 0.807921
O O11 0.500000 0.000000 0.000000
O O12 0.000000 0.883339 0.250000
O O13 0.913108 0.734256 0.232312
O O14 0.000000 0.000000 0.500000
O O15 0.251818 0.284596 0.103788
O O16 0.500000 0.500000 0.500000
O O17 0.500000 0.373415 0.250000
#
# Coordination Sequence:
#
# PCOD9237412 Si02
#       7
#     4   4   4   4   4   4   4
#     4  12  23  42  63  95 132 172 221 264 314 383
#     4  11  22  39  66  91 123 166 207 262 321 384
#     4  12  23  37  57  87 124 167 216 274 320 359
#     4  11  23  44  69  96 123 154 201 257 322 397
#     4  11  24  41  65  92 126 168 207 259 320 386
#     4  12  24  40  61  90 129 179 226 274 317 360
#     4  11  21  39  59  89 123 168 219 260 313 381
#
# _framework density 21.855571999999999
#
# number of rings (size 3 to 8) (size 9 to 14) (size 15 to 20)
#    0.000    0.571    0.000   11.143    0.000    0.000 
#    0.000    3.571    0.000    0.000    0.000    0.000 
#    0.000    0.000    0.000    0.000    0.000    0.000 
#
# Total GULP energy -156529.312541 kJ/mol
# GULP energy per Si atom -5590.332591 kJ/mol
# Density = 2.180583 g / cm^3
# Si number density = 21.855572 Si / 1000 Ang^3
#
#
#
# Elastic Constant Matrix: (Units=GPa)
#
#
# Indices 1 2 3 4 5 6 
#
# 1 95.7811 40.7514 8.7298 0.0000 -1.8491 0.0000
# 2 40.7514 101.2385 -3.1698 0.0000 -9.2409 0.0000
# 3 8.7298 -3.1698 62.2312 0.0000 -8.1617 0.0000
# 4 0.0000 0.0000 0.0000 24.2638 0.0000 1.5159
# 5 -1.8491 -9.2409 -8.1617 0.0000 49.0158 0.0000
# 6 0.0000 0.0000 0.0000 1.5159 0.0000 52.3475
#
#
#
# Elastic Compliance Matrix: (Units=1/GPa)
#
#
# Indices 1 2 3 4 5 6 
#
# 1 0.012896 -0.005341 -0.002197 0.000000 -0.000886 0.000000
# 2 -0.005341 0.012299 0.001690 0.000000 0.002399 0.000000
# 3 -0.002197 0.001690 0.016863 0.000000 0.003044 0.000000
# 4 0.000000 0.000000 0.000000 0.041288 0.000000 -0.001196
# 5 -0.000886 0.002399 0.003044 0.000000 0.021327 0.000000
# 6 0.000000 0.000000 0.000000 -0.001196 0.000000 0.019138
#
#
# Mechanical properties :
#
#
# Convention : Reuss Voigt Hill
#
# Bulk Modulus (GPa) = 32.93544 39.09707 36.01625
# Shear Modulus (GPa) = 34.33423 39.32139 36.82781
#
# Velocity S-wave (km/s) = 3.96783 4.24624 4.10939
# Velocity P-wave (km/s) = 6.00782 6.47830 6.24749
#
# Compressibility (1/GPa) = 0.03036243
#
# Stress axis : x y z
#
# Youngs Moduli (GPa) = 77.54409 81.30528 59.30282
#
# Poissons Ratio (x) = 0.43422 0.13031
# Poissons Ratio (y) = 0.41414 -0.10024
# Poissons Ratio (z) = 0.17039 -0.13743
#
# Static dielectric constant tensor:
#      x y z
#    x 1.740930 0.000000 0.012600 
#    y 0.000000 1.799720 0.000000 
#    z 0.012600 0.000000 1.878520 
# 
# From -- ./inp_files/24614.got.cif
#   From: 2010.05.17/outbox.cif.g08.bks.cpg/sg13_13_cif.got.tgz:24614.got - 2010.06.03 16:44:36.
