data_PCOD9237459
_publ_section_title
;
Structure prediction by ZEFSAII (Michael W. Deem and Ramdas Pophale) SiO2 
 PCOD9237459
Probable space group: P 2/C
;
_chemical_formula_sum "Si O2"
_cell_formula_units_Z 24
_cell_length_a 20.535687
_cell_length_b 12.368382
_cell_length_c 22.986760
_cell_angle_alpha 90.000000
_cell_angle_beta 168.336549
_cell_angle_gamma 90.000000
_cell_volume 1180.322588
_symmetry_space_group_name_H-M "P 2/C"
_symmetry_group_IT_number 13
_symmetry_cell_setting 'monoclinic'
loop_
_space_group_symop_operation_xyz
x,y,z
-x,y,1/2-z
-x,-y,-z
x,-y,1/2+z
loop_
_atom_site_type_symbol
_atom_site_label
_atom_site_fract_x
_atom_site_fract_y
_atom_site_fract_z
Si Si1 0.500000 0.405547 0.250000
Si Si2 0.815185 0.690463 0.702029
Si Si3 0.930928 0.626488 0.450780
Si Si4 0.791790 0.131636 0.623396
Si Si5 0.891147 0.896007 0.592145
Si Si6 0.000000 0.555082 0.750000
Si Si7 0.158500 0.242994 0.038969
O O1 0.706212 0.479135 0.473918
O O2 0.291982 0.329350 0.109572
O O3 0.435493 0.668583 0.370935
O O4 0.935469 0.625602 0.750680
O O5 0.956967 0.811731 0.820094
O O6 0.945234 0.646320 0.876224
O O7 0.000000 0.500000 0.500000
O O8 0.097662 0.696445 0.545925
O O9 0.425011 0.149421 0.282999
O O10 0.000000 0.174611 0.750000
O O11 0.930861 0.011695 0.755419
O O12 0.856243 0.193838 0.739958
O O13 0.000000 0.851800 0.750000
O O14 0.500000 0.904912 0.250000
#
# Coordination Sequence:
#
# PCOD9237459 Si02
#       7
#     2   4   4   4   4   2   4
#     4  12  24  40  64 100 128 170 228 288 326 386
#     4  12  25  45  68  99 132 181 230 274 342 400
#     4  12  27  46  66  94 143 189 220 272 348 408
#     4  11  21  41  68 102 130 170 221 282 344 394
#     4  11  23  42  71 103 136 173 222 288 348 395
#     4  12  24  40  66  96 128 166 234 290 318 390
#     4  12  23  43  65  98 134 177 222 275 336 402
#
# _framework density 20.333423
#
# number of rings (size 3 to 8) (size 9 to 14) (size 15 to 20)
#    0.000    0.333    2.500    8.500    1.167    0.000 
#    0.000    5.000    0.000    0.000    0.000    0.000 
#    0.000    0.000    0.000    0.000    0.000    0.000 
#
# Total GULP energy -134078.502025 kJ/mol
# GULP energy per Si atom -5586.604251 kJ/mol
# Density = 2.028714 g / cm^3
# Si number density = 20.333423 Si / 1000 Ang^3
#
#
#
# Elastic Constant Matrix: (Units=GPa)
#
#
# Indices 1 2 3 4 5 6 
#
# 1 155.3958 49.2637 25.8279 0.0000 -18.5175 0.0000
# 2 49.2637 106.4744 27.2512 0.0000 -1.4964 0.0000
# 3 25.8279 27.2512 88.2070 0.0000 -20.1521 0.0000
# 4 0.0000 0.0000 0.0000 13.8204 0.0000 1.9052
# 5 -18.5175 -1.4964 -20.1521 0.0000 44.1596 0.0000
# 6 0.0000 0.0000 0.0000 1.9052 0.0000 34.9157
#
#
#
# Elastic Compliance Matrix: (Units=1/GPa)
#
#
# Indices 1 2 3 4 5 6 
#
# 1 0.007998 -0.003511 -0.000579 0.000000 0.002971 0.000000
# 2 -0.003511 0.011799 -0.003195 0.000000 -0.002531 0.000000
# 3 -0.000579 -0.003195 0.013858 0.000000 0.005973 0.000000
# 4 0.000000 0.000000 0.000000 0.072905 0.000000 -0.003978
# 5 0.002971 -0.002531 0.005973 0.000000 0.026531 0.000000
# 6 0.000000 0.000000 0.000000 -0.003978 0.000000 0.028857
#
#
# Mechanical properties :
#
#
# Convention : Reuss Voigt Hill
#
# Bulk Modulus (GPa) = 52.39499 61.64032 57.01765
# Shear Modulus (GPa) = 27.34028 35.09477 31.21752
#
# Velocity S-wave (km/s) = 3.67085 4.15898 3.92252
# Velocity P-wave (km/s) = 6.61746 7.31050 6.97259
#
# Compressibility (1/GPa) = 0.01908579
#
# Stress axis : x y z
#
# Youngs Moduli (GPa) = 125.02508 84.75600 72.15938
#
# Poissons Ratio (x) = 0.29757 0.04175
# Poissons Ratio (y) = 0.43895 0.23057
# Poissons Ratio (z) = 0.07234 0.27082
#
# Static dielectric constant tensor:
#      x y z
#    x 1.712030 0.000000 0.026740 
#    y 0.000000 1.741700 0.000000 
#    z 0.026740 0.000000 1.721130 
# 
# From -- ./inp_files/88598.got.cif
#   From: 2010.05.17/outbox.cif.g08.bks.cpg/sg13_45_cif.got.tgz:88598.got - 2010.06.03 16:44:36.
