data_PCOD9237271
_publ_section_title
;
Structure prediction by ZEFSAII (Michael W. Deem and Ramdas Pophale) SiO2 
 PCOD9237271
Probable space group: P 2/C
;
_chemical_formula_sum "Si O2"
_cell_formula_units_Z 26
_cell_length_a 21.738529
_cell_length_b 6.593347
_cell_length_c 14.162234
_cell_angle_alpha 90.000000
_cell_angle_beta 130.545094
_cell_angle_gamma 90.000000
_cell_volume 1542.485904
_symmetry_space_group_name_H-M "P 2/C"
_symmetry_group_IT_number 13
_symmetry_cell_setting 'monoclinic'
loop_
_space_group_symop_operation_xyz
x,y,z
-x,y,1/2-z
-x,-y,-z
x,-y,1/2+z
loop_
_atom_site_type_symbol
_atom_site_label
_atom_site_fract_x
_atom_site_fract_y
_atom_site_fract_z
Si Si1 0.000000 0.876795 0.750000
Si Si2 0.886860 0.741063 0.137086
Si Si3 0.591714 0.025831 0.489097
Si Si4 0.589460 0.663330 0.353991
Si Si5 0.406700 0.974602 0.791758
Si Si6 0.999956 0.500280 0.886722
Si Si7 0.305071 0.721094 0.554433
O O1 0.000083 0.724815 0.660201
O O2 0.075855 0.032002 0.825779
O O3 0.924192 0.621295 0.264682
O O4 0.924244 0.621013 0.084165
O O5 0.790885 0.737244 0.041320
O O6 0.499802 0.101944 0.379164
O O7 0.655026 0.150153 0.490621
O O8 0.591066 0.794436 0.451349
O O9 0.608993 0.032565 0.616472
O O10 0.500000 0.569125 0.250000
O O11 0.660774 0.504061 0.422152
O O12 0.598332 0.829837 0.280457
O O13 0.344338 0.813354 0.688409
O O14 0.000000 0.500000 0.000000
#
# Coordination Sequence:
#
# PCOD9237271 Si02
#       7
#     2   4   4   4   4   4   4
#     4   8  18  40  62  74 114 144 170 218 268 336
#     4   9  21  36  54  87 109 140 184 218 279 329
#     4   9  19  35  52  75 108 150 192 221 264 330
#     4   9  18  33  55  74 105 152 182 218 275 314
#     4   9  19  35  52  75 108 150 192 221 264 330
#     4   9  19  39  60  82 106 145 181 217 264 344
#     4  11  20  35  51  82 113 138 178 240 275 312
#
# _framework density 16.855907999999999
#
# number of rings (size 3 to 8) (size 9 to 14) (size 15 to 20)
#    0.000    3.077    0.000    2.308    0.000    8.615 
#   11.077    4.615    0.000    0.000    0.000    0.000 
#    0.000    0.000    0.000    0.000    0.000    0.000 
#
# Total GULP energy -144866.336332 kJ/mol
# GULP energy per Si atom -5571.782167 kJ/mol
# Density = 1.681754 g / cm^3
# Si number density = 16.855908 Si / 1000 Ang^3
#
#
#
# Elastic Constant Matrix: (Units=GPa)
#
#
# Indices 1 2 3 4 5 6 
#
# 1 101.1672 30.5728 73.5966 0.0000 4.5955 0.0000
# 2 30.5728 76.9048 32.4650 0.0000 2.9156 0.0000
# 3 73.5966 32.4650 100.3250 0.0000 0.7527 0.0000
# 4 0.0000 0.0000 0.0000 15.8006 0.0000 9.3822
# 5 4.5955 2.9156 0.7527 0.0000 42.9105 0.0000
# 6 0.0000 0.0000 0.0000 9.3822 0.0000 18.6111
#
#
#
# Elastic Compliance Matrix: (Units=1/GPa)
#
#
# Indices 1 2 3 4 5 6 
#
# 1 0.021665 -0.002128 -0.015190 0.000000 -0.001909 0.000000
# 2 -0.002128 0.015307 -0.003387 0.000000 -0.000753 0.000000
# 3 -0.015190 -0.003387 0.022196 0.000000 0.001468 0.000000
# 4 0.000000 0.000000 0.000000 0.090327 0.000000 -0.045535
# 5 -0.001909 -0.000753 0.001468 0.000000 0.023534 0.000000
# 6 0.000000 0.000000 0.000000 -0.045535 0.000000 0.076686
#
#
# Mechanical properties :
#
#
# Convention : Reuss Voigt Hill
#
# Bulk Modulus (GPa) = 56.31141 61.29620 58.80380
# Shear Modulus (GPa) = 16.83254 24.91527 20.87391
#
# Velocity S-wave (km/s) = 3.16351 3.84882 3.52287
# Velocity P-wave (km/s) = 6.84279 7.49633 7.17700
#
# Compressibility (1/GPa) = 0.01775839
#
# Stress axis : x y z
#
# Youngs Moduli (GPa) = 46.15812 65.32852 45.05399
#
# Poissons Ratio (x) = 0.13901 0.68437
# Poissons Ratio (y) = 0.09822 0.15259
# Poissons Ratio (z) = 0.70114 0.22126
#
# Static dielectric constant tensor:
#      x y z
#    x 1.559710 0.000000 -0.003120 
#    y 0.000000 1.578080 0.000000 
#    z -0.003120 0.000000 1.563220 
# 
# From -- ./inp_files/56271.got.cif
#   From: 2010.05.17/outbox.cif.g08.bks.cpg/sg13_29_cif.got.tgz:56271.got - 2010.06.03 16:44:36.
