data_PCOD9237667
_publ_section_title
;
Structure prediction by ZEFSAII (Michael W. Deem and Ramdas Pophale) SiO2 
 PCOD9237667
Probable space group: P 2/C
;
_chemical_formula_sum "Si O2"
_cell_formula_units_Z 16
_cell_length_a 29.519539
_cell_length_b 5.083344
_cell_length_c 27.289398
_cell_angle_alpha 90.000000
_cell_angle_beta 170.647726
_cell_angle_gamma 90.000000
_cell_volume 665.453003
_symmetry_space_group_name_H-M "P 2/C"
_symmetry_group_IT_number 13
_symmetry_cell_setting 'monoclinic'
loop_
_space_group_symop_operation_xyz
x,y,z
-x,y,1/2-z
-x,-y,-z
x,-y,1/2+z
loop_
_atom_site_type_symbol
_atom_site_label
_atom_site_fract_x
_atom_site_fract_y
_atom_site_fract_z
Si Si1 0.440752 0.740428 0.633670
Si Si2 0.423536 0.899755 0.027241
Si Si3 0.521813 0.399801 0.468612
Si Si4 0.112214 0.538228 0.956236
O O1 0.500000 0.858470 0.750000
O O2 0.330162 0.953368 0.476542
O O3 0.209402 0.513743 0.393827
O O4 0.711434 0.604768 0.898404
O O5 0.376503 0.107294 0.933394
O O6 0.746051 0.823389 0.385226
O O7 0.319655 0.618702 0.895911
O O8 0.500000 0.500000 0.500000
O O9 0.217263 0.402359 0.118587
#
# Coordination Sequence:
#
# PCOD9237667 Si02
#       4
#     4   4   4   4
#     4  11  22  44  67  97 133 186 228 289 347 409
#     4   9  21  40  65  97 137 169 229 277 335 416
#     4   9  18  40  69  98 135 178 220 281 348 405
#     4   9  23  39  66  98 135 171 232 278 339 417
#
# _framework density 24.043769000000001
#
# number of rings (size 3 to 8) (size 9 to 14) (size 15 to 20)
#    1.500    1.000    0.000    1.500    0.000    5.000 
#    0.000   11.250    0.000    0.000    0.000    0.000 
#    0.000    0.000    0.000    0.000    0.000    0.000 
#
# Total GULP energy -89121.217889 kJ/mol
# GULP energy per Si atom -5570.076118 kJ/mol
# Density = 2.398904 g / cm^3
# Si number density = 24.043769 Si / 1000 Ang^3
#
#
#
# Elastic Constant Matrix: (Units=GPa)
#
#
# Indices 1 2 3 4 5 6 
#
# 1 130.6585 18.8919 23.4673 0.0000 -3.4574 0.0000
# 2 18.8919 133.5556 4.2883 0.0000 18.7609 0.0000
# 3 23.4673 4.2883 45.4286 0.0000 25.4326 0.0000
# 4 0.0000 0.0000 0.0000 14.0729 0.0000 8.2696
# 5 -3.4574 18.7609 25.4326 0.0000 32.3379 0.0000
# 6 0.0000 0.0000 0.0000 8.2696 0.0000 17.5127
#
#
#
# Elastic Compliance Matrix: (Units=1/GPa)
#
#
# Indices 1 2 3 4 5 6 
#
# 1 0.010544 -0.002822 -0.012020 0.000000 0.012218 0.000000
# 2 -0.002822 0.009204 0.006695 0.000000 -0.010906 0.000000
# 3 -0.012020 0.006695 0.054464 0.000000 -0.048003 0.000000
# 4 0.000000 0.000000 0.000000 0.098348 0.000000 -0.046441
# 5 0.012218 -0.010906 -0.048003 0.000000 0.076310 0.000000
# 6 0.000000 0.000000 0.000000 -0.046441 0.000000 0.079031
#
#
# Mechanical properties :
#
#
# Convention : Reuss Voigt Hill
#
# Bulk Modulus (GPa) = 17.26624 44.77088 31.01856
# Shear Modulus (GPa) = 13.75512 30.31772 22.03642
#
# Velocity S-wave (km/s) = 2.39443 3.55482 3.03068
# Velocity P-wave (km/s) = 3.85242 5.95903 5.01753
#
# Compressibility (1/GPa) = 0.05791647
#
# Stress axis : x y z
#
# Youngs Moduli (GPa) = 94.84238 108.65133 18.36077
#
# Poissons Ratio (x) = 0.30659 0.22070
# Poissons Ratio (y) = 0.26762 -0.12292
# Poissons Ratio (z) = 1.14004 -0.72738
#
# Static dielectric constant tensor:
#      x y z
#    x 1.934360 0.000000 0.017070 
#    y 0.000000 1.983140 0.000000 
#    z 0.017070 0.000000 1.950440 
# 
# From -- ./inp_files/94370.got.cif
#   From: 2010.05.17/outbox.cif.g08.bks.cpg/sg13_48_cif.got.tgz:94370.got - 2010.06.03 16:44:36.
