data_PCOD9237426
_publ_section_title
;
Structure prediction by ZEFSAII (Michael W. Deem and Ramdas Pophale) SiO2 
 PCOD9237426
Probable space group: P 2/C
;
_chemical_formula_sum "Si O2"
_cell_formula_units_Z 22
_cell_length_a 6.523139
_cell_length_b 11.814937
_cell_length_c 13.796131
_cell_angle_alpha 90.000000
_cell_angle_beta 67.313079
_cell_angle_gamma 90.000000
_cell_volume 981.004762
_symmetry_space_group_name_H-M "P 2/C"
_symmetry_group_IT_number 13
_symmetry_cell_setting 'monoclinic'
loop_
_space_group_symop_operation_xyz
x,y,z
-x,y,1/2-z
-x,-y,-z
x,-y,1/2+z
loop_
_atom_site_type_symbol
_atom_site_label
_atom_site_fract_x
_atom_site_fract_y
_atom_site_fract_z
Si Si1 0.321700 0.086955 0.991595
Si Si2 0.691596 0.730369 0.394850
Si Si3 0.000000 0.099002 0.750000
Si Si4 0.158797 0.929001 0.848165
Si Si5 0.500000 0.265663 0.250000
Si Si6 0.500000 0.595917 0.250000
Si Si7 0.597760 0.428925 0.072097
O O1 0.458746 0.202354 0.950570
O O2 0.231372 0.015136 0.917947
O O3 0.186988 0.986003 0.253136
O O4 0.500000 0.000000 0.000000
O O5 0.653356 0.665100 0.298758
O O6 0.746976 0.654674 0.479226
O O7 0.887288 0.821109 0.348786
O O8 0.098052 0.894330 0.593501
O O9 0.301482 0.817317 0.813853
O O10 0.450988 0.343324 0.164902
O O11 0.650757 0.519503 0.148042
O O12 0.500000 0.500000 0.000000
#
# Coordination Sequence:
#
# PCOD9237426 Si02
#       7
#     4   4   2   4   2   2   4
#     4  11  22  42  63  96 139 183 217 266 329 416
#     4  11  21  39  68  89 131 175 215 274 340 386
#     4  12  24  38  62 102 138 172 222 258 336 424
#     4  11  25  38  64 101 144 174 221 265 330 417
#     4  11  22  41  70  98 136 179 220 281 346 394
#     4   9  20  43  66  90 120 173 228 283 332 386
#     4   9  21  41  71  90 125 173 230 289 334 391
#
# _framework density 22.425986999999999
#
# number of rings (size 3 to 8) (size 9 to 14) (size 15 to 20)
#    0.000    1.455    1.818    3.273    5.091    0.000 
#    0.000    0.909   32.000    0.000    0.000    0.000 
#    0.000    0.000    0.000    0.000    0.000    0.000 
#
# Total GULP energy -122471.519580 kJ/mol
# GULP energy per Si atom -5566.887254 kJ/mol
# Density = 2.237494 g / cm^3
# Si number density = 22.425987 Si / 1000 Ang^3
#
#
#
# Elastic Constant Matrix: (Units=GPa)
#
#
# Indices 1 2 3 4 5 6 
#
# 1 59.6868 20.9778 27.4089 0.0000 -12.8434 0.0000
# 2 20.9778 108.9168 56.6185 0.0000 -0.5697 0.0000
# 3 27.4089 56.6185 131.0775 0.0000 11.2421 0.0000
# 4 0.0000 0.0000 0.0000 60.0944 0.0000 -4.5870
# 5 -12.8434 -0.5697 11.2421 0.0000 34.3265 0.0000
# 6 0.0000 0.0000 0.0000 -4.5870 0.0000 7.3631
#
#
#
# Elastic Compliance Matrix: (Units=1/GPa)
#
#
# Indices 1 2 3 4 5 6 
#
# 1 0.021504 -0.001715 -0.004572 0.000000 0.009514 0.000000
# 2 -0.001715 0.012102 -0.004970 0.000000 0.001187 0.000000
# 3 -0.004572 -0.004970 0.011200 0.000000 -0.005461 0.000000
# 4 0.000000 0.000000 0.000000 0.017471 0.000000 0.010884
# 5 0.009514 0.001187 -0.005461 0.000000 0.034500 0.000000
# 6 0.000000 0.000000 0.000000 0.010884 0.000000 0.142594
#
#
# Mechanical properties :
#
#
# Convention : Reuss Voigt Hill
#
# Bulk Modulus (GPa) = 44.86133 56.63238 50.74686
# Shear Modulus (GPa) = 18.56557 33.33517 25.95037
#
# Velocity S-wave (km/s) = 2.88038 3.85964 3.40539
# Velocity P-wave (km/s) = 5.57761 6.72088 6.17576
#
# Compressibility (1/GPa) = 0.02229091
#
# Stress axis : x y z
#
# Youngs Moduli (GPa) = 46.50371 82.63307 89.28314
#
# Poissons Ratio (x) = 0.14176 0.40816
# Poissons Ratio (y) = 0.07978 0.44377
# Poissons Ratio (z) = 0.21259 0.41072
#
# Static dielectric constant tensor:
#      x y z
#    x 2.765500 0.000000 0.608550 
#    y 0.000000 1.902800 0.000000 
#    z 0.608550 0.000000 2.327020 
# 
# From -- ./inp_files/29378.got.cif
#   From: 2010.05.17/outbox.cif.g08.bks.cpg/sg13_15_cif.got.tgz:29378.got - 2010.06.03 16:44:36.
