data_PCOD9237711
_publ_section_title
;
Structure prediction by ZEFSAII (Michael W. Deem and Ramdas Pophale) SiO2 
 PCOD9237711
Probable space group: P 2/C
;
_chemical_formula_sum "Si O2"
_cell_formula_units_Z 26
_cell_length_a 12.039467
_cell_length_b 6.474041
_cell_length_c 20.973098
_cell_angle_alpha 90.000000
_cell_angle_beta 58.974391
_cell_angle_gamma 90.000000
_cell_volume 1400.858255
_symmetry_space_group_name_H-M "P 2/C"
_symmetry_group_IT_number 13
_symmetry_cell_setting 'monoclinic'
loop_
_space_group_symop_operation_xyz
x,y,z
-x,y,1/2-z
-x,-y,-z
x,-y,1/2+z
loop_
_atom_site_type_symbol
_atom_site_label
_atom_site_fract_x
_atom_site_fract_y
_atom_site_fract_z
Si Si1 0.223045 0.042637 0.215838
Si Si2 0.450450 0.811169 0.559738
Si Si3 0.083876 0.990213 0.378166
Si Si4 0.320011 0.515730 0.002643
Si Si5 0.087308 0.689618 0.496420
Si Si6 0.884407 0.266800 0.853450
Si Si7 0.000000 0.365424 0.250000
O O1 0.358353 0.099523 0.142534
O O2 0.121719 0.224433 0.229807
O O3 0.209227 0.022078 0.296149
O O4 0.167609 0.840927 0.195344
O O5 0.561034 0.658923 0.555915
O O6 0.371570 0.658908 0.535830
O O7 0.500000 0.000000 0.500000
O O8 0.111897 0.846014 0.430544
O O9 0.980993 0.880739 0.362007
O O10 0.004397 0.187963 0.426645
O O11 0.221595 0.400908 0.984064
O O12 0.235514 0.679771 0.066962
O O13 0.000000 0.500000 0.500000
O O14 0.957029 0.480155 0.818222
#
# Coordination Sequence:
#
# PCOD9237711 Si02
#       7
#     4   4   4   4   4   4   2
#     4  12  22  36  58  96 130 162 201 262 326 372
#     4  11  24  39  64  92 128 167 207 262 310 382
#     4  11  23  37  61  98 126 164 206 265 325 369
#     4  11  23  40  62  95 123 167 214 251 318 381
#     4  11  24  41  65  92 126 169 211 258 310 384
#     4  12  20  35  63  97 127 151 202 268 326 381
#     4  12  20  32  60  94 130 152 188 270 332 370
#
# _framework density 18.560051999999999
#
# number of rings (size 3 to 8) (size 9 to 14) (size 15 to 20)
#    0.000    0.615    7.692    1.846    0.000    0.000 
#    0.000    0.000    0.000    5.538    0.000    0.000 
#    0.000    0.000    0.000    0.000    0.000    0.000 
#
# Total GULP energy -145105.049415 kJ/mol
# GULP energy per Si atom -5580.963439 kJ/mol
# Density = 1.851781 g / cm^3
# Si number density = 18.560052 Si / 1000 Ang^3
#
#
#
# Elastic Constant Matrix: (Units=GPa)
#
#
# Indices 1 2 3 4 5 6 
#
# 1 90.6972 35.9818 44.0822 0.0000 -7.1981 0.0000
# 2 35.9818 85.1000 49.5029 0.0000 -4.3196 0.0000
# 3 44.0822 49.5029 151.6252 0.0000 -14.5058 0.0000
# 4 0.0000 0.0000 0.0000 42.5113 0.0000 -0.0332
# 5 -7.1981 -4.3196 -14.5058 0.0000 25.8875 0.0000
# 6 0.0000 0.0000 0.0000 -0.0332 0.0000 27.8544
#
#
#
# Elastic Compliance Matrix: (Units=1/GPa)
#
#
# Indices 1 2 3 4 5 6 
#
# 1 0.014139 -0.004439 -0.002490 0.000000 0.001796 0.000000
# 2 -0.004439 0.015901 -0.003978 0.000000 -0.000810 0.000000
# 3 -0.002490 -0.003978 0.008969 0.000000 0.003670 0.000000
# 4 0.000000 0.000000 0.000000 0.023523 0.000000 0.000028
# 5 0.001796 -0.000810 0.003670 0.000000 0.041049 0.000000
# 6 0.000000 0.000000 0.000000 0.000028 0.000000 0.035901
#
#
# Mechanical properties :
#
#
# Convention : Reuss Voigt Hill
#
# Bulk Modulus (GPa) = 58.15584 65.17291 61.66438
# Shear Modulus (GPa) = 29.93510 32.44100 31.18805
#
# Velocity S-wave (km/s) = 4.02042 4.18532 4.10370
# Velocity P-wave (km/s) = 7.27692 7.65158 7.46660
#
# Compressibility (1/GPa) = 0.01719518
#
# Stress axis : x y z
#
# Youngs Moduli (GPa) = 70.72464 62.88987 111.49573
#
# Poissons Ratio (x) = 0.27916 0.27759
# Poissons Ratio (y) = 0.31394 0.44356
# Poissons Ratio (z) = 0.17608 0.25019
#
# Static dielectric constant tensor:
#      x y z
#    x 1.633850 0.000000 -0.012570 
#    y 0.000000 1.670780 0.000000 
#    z -0.012570 0.000000 1.705590 
# 
# From -- ./inp_files/77191.got.cif
#   From: 2010.05.17/outbox.cif.g08.bks.cpg/sg13_39_cif.got.tgz:77191.got - 2010.06.03 16:44:36.
