data_PCOD9237180
_publ_section_title
;
Structure prediction by ZEFSAII (Michael W. Deem and Ramdas Pophale) SiO2 
 PCOD9237180
Probable space group: P 2/C
;
_chemical_formula_sum "Si O2"
_cell_formula_units_Z 22
_cell_length_a 4.962905
_cell_length_b 11.249567
_cell_length_c 16.193533
_cell_angle_alpha 90.000000
_cell_angle_beta 100.346878
_cell_angle_gamma 90.000000
_cell_volume 889.391575
_symmetry_space_group_name_H-M "P 2/C"
_symmetry_group_IT_number 13
_symmetry_cell_setting 'monoclinic'
loop_
_space_group_symop_operation_xyz
x,y,z
-x,y,1/2-z
-x,-y,-z
x,-y,1/2+z
loop_
_atom_site_type_symbol
_atom_site_label
_atom_site_fract_x
_atom_site_fract_y
_atom_site_fract_z
Si Si1 0.249954 0.237657 0.608774
Si Si2 0.290026 0.501243 0.063049
Si Si3 0.000000 0.902356 0.250000
Si Si4 0.663115 0.960531 0.092692
Si Si5 0.977490 0.837148 0.926127
Si Si6 0.457197 0.266367 0.344534
O O1 0.300200 0.377976 0.616283
O O2 0.123070 0.180285 0.683812
O O3 0.526080 0.168949 0.598153
O O4 0.049274 0.214985 0.519513
O O5 0.391837 0.388091 0.120260
O O6 0.500000 0.500000 0.000000
O O7 0.000000 0.500000 0.000000
O O8 0.750624 0.977628 0.196125
O O9 0.943163 0.026652 0.080559
O O10 0.500000 0.000000 0.000000
O O11 0.162350 0.760196 0.870376
O O12 0.656106 0.832559 0.893396
O O13 0.500000 0.258844 0.250000
#
# Coordination Sequence:
#
# PCOD9237180 Si02
#       6
#     4   4   2   4   4   4
#     4  11  26  49  76 112 154 209 268 332 404 482
#     4  12  25  49  79 108 156 211 264 327 413 488
#     4  12  28  46  76 118 156 208 280 324 406 484
#     4  10  27  47  74 111 157 209 261 335 406 476
#     4  11  26  48  80 106 157 205 264 328 411 477
#     4  12  26  46  74 117 149 206 270 333 400 486
#
# _framework density 24.736013
#
# number of rings (size 3 to 8) (size 9 to 14) (size 15 to 20)
#    0.000    0.727    3.636    1.091   12.727    2.909 
#    3.273    0.000    0.000    0.000    0.000    0.000 
#    0.000    0.000    0.000    0.000    0.000    0.000 
#
# Total GULP energy -122605.972192 kJ/mol
# GULP energy per Si atom -5572.998736 kJ/mol
# Density = 2.467971 g / cm^3
# Si number density = 24.736013 Si / 1000 Ang^3
#
#
#
# Elastic Constant Matrix: (Units=GPa)
#
#
# Indices 1 2 3 4 5 6 
#
# 1 98.8554 13.9933 40.6223 0.0000 -15.6849 0.0000
# 2 13.9933 105.6972 41.5005 0.0000 -22.4669 0.0000
# 3 40.6223 41.5005 199.8985 0.0000 -18.5960 0.0000
# 4 0.0000 0.0000 0.0000 46.7469 0.0000 -1.7508
# 5 -15.6849 -22.4669 -18.5960 0.0000 59.0165 0.0000
# 6 0.0000 0.0000 0.0000 -1.7508 0.0000 36.0544
#
#
#
# Elastic Compliance Matrix: (Units=1/GPa)
#
#
# Indices 1 2 3 4 5 6 
#
# 1 0.011351 -0.000211 -0.002050 0.000000 0.002291 0.000000
# 2 -0.000211 0.010988 -0.001910 0.000000 0.003525 0.000000
# 3 -0.002050 -0.001910 0.005869 0.000000 0.000577 0.000000
# 4 0.000000 0.000000 0.000000 0.021431 0.000000 0.001041
# 5 0.002291 0.003525 0.000577 0.000000 0.019077 0.000000
# 6 0.000000 0.000000 0.000000 0.001041 0.000000 0.027786
#
#
# Mechanical properties :
#
#
# Convention : Reuss Voigt Hill
#
# Bulk Modulus (GPa) = 50.33612 66.29812 58.31712
# Shear Modulus (GPa) = 44.85578 48.91924 46.88751
#
# Velocity S-wave (km/s) = 4.26300 4.45190 4.35848
# Velocity P-wave (km/s) = 6.68015 7.29975 6.99681
#
# Compressibility (1/GPa) = 0.01986645
#
# Stress axis : x y z
#
# Youngs Moduli (GPa) = 88.09448 91.00565 170.37419
#
# Poissons Ratio (x) = 0.01921 0.34924
# Poissons Ratio (y) = 0.01859 0.32549
# Poissons Ratio (z) = 0.18058 0.17386
#
# Static dielectric constant tensor:
#      x y z
#    x 1.932300 0.000000 -0.254390 
#    y 0.000000 2.314170 0.000000 
#    z -0.254390 0.000000 1.583960 
# 
# From -- ./inp_files/43738.got.cif
#   From: 2010.05.17/outbox.cif.g08.bks.cpg/sg13_22_cif.got.tgz:43738.got - 2010.06.03 16:44:36.
