data_PCOD9237309
_publ_section_title
;
Structure prediction by ZEFSAII (Michael W. Deem and Ramdas Pophale) SiO2 
 PCOD9237309
Probable space group: P 2/C
;
_chemical_formula_sum "Si O2"
_cell_formula_units_Z 28
_cell_length_a 15.588060
_cell_length_b 9.281687
_cell_length_c 14.106407
_cell_angle_alpha 90.000000
_cell_angle_beta 137.316108
_cell_angle_gamma 90.000000
_cell_volume 1383.677900
_symmetry_space_group_name_H-M "P 2/C"
_symmetry_group_IT_number 13
_symmetry_cell_setting 'monoclinic'
loop_
_space_group_symop_operation_xyz
x,y,z
-x,y,1/2-z
-x,-y,-z
x,-y,1/2+z
loop_
_atom_site_type_symbol
_atom_site_label
_atom_site_fract_x
_atom_site_fract_y
_atom_site_fract_z
Si Si1 0.757710 0.239964 0.626101
Si Si2 0.883602 0.466067 0.976225
Si Si3 0.000000 0.618506 0.250000
Si Si4 0.500000 0.303675 0.750000
Si Si5 0.642624 0.908544 0.846222
Si Si6 0.354216 0.641654 0.790806
Si Si7 0.720397 0.816478 0.310464
Si Si8 0.389234 0.462539 0.509321
O O1 0.700696 0.155406 0.490068
O O2 0.728118 0.168443 0.703073
O O3 0.695057 0.398586 0.577095
O O4 0.903710 0.277402 0.727394
O O5 0.771248 0.568385 0.849067
O O6 0.826124 0.304346 0.921954
O O7 0.926742 0.517877 0.115288
O O8 0.000000 0.500000 0.000000
O O9 0.421702 0.230638 0.771874
O O10 0.387295 0.394805 0.610696
O O11 0.500000 0.962478 0.750000
O O12 0.624049 0.781556 0.754175
O O13 0.731175 0.032495 0.874469
O O14 0.468976 0.527747 0.877208
O O15 0.352056 0.657722 0.902435
#
# Coordination Sequence:
#
# PCOD9237309 Si02
#       8
#     4   4   2   2   4   4   4   4
#     4  12  24  45  70 100 143 191 238 296 359 423
#     4  12  23  45  75 106 137 187 245 303 354 417
#     4  12  24  44  76 104 138 188 248 306 350 402
#     4  12  22  36  66 106 148 176 228 296 356 412
#     4  12  26  43  69 105 150 191 227 289 375 448
#     4  11  21  40  69 104 136 183 242 295 357 420
#     4  12  26  44  66 106 146 185 231 291 363 441
#     4  11  20  38  70 105 138 179 241 308 351 416
#
# _framework density 20.235924000000001
#
# number of rings (size 3 to 8) (size 9 to 14) (size 15 to 20)
#    0.000    0.286    7.857    2.571    0.000    1.714 
#    0.000    3.571    0.000    0.000    0.000    0.000 
#    0.000    0.000    0.000    0.000    0.000    0.000 
#
# Total GULP energy -156276.411911 kJ/mol
# GULP energy per Si atom -5581.300425 kJ/mol
# Density = 2.018987 g / cm^3
# Si number density = 20.235924 Si / 1000 Ang^3
#
#
#
# Elastic Constant Matrix: (Units=GPa)
#
#
# Indices 1 2 3 4 5 6 
#
# 1 126.4279 54.4309 53.3557 0.0000 -7.3875 0.0000
# 2 54.4309 85.8922 37.7740 0.0000 -15.2921 0.0000
# 3 53.3557 37.7740 114.8280 0.0000 -17.8827 0.0000
# 4 0.0000 0.0000 0.0000 6.4147 0.0000 -4.7369
# 5 -7.3875 -15.2921 -17.8827 0.0000 50.6011 0.0000
# 6 0.0000 0.0000 0.0000 -4.7369 0.0000 33.7556
#
#
#
# Elastic Compliance Matrix: (Units=1/GPa)
#
#
# Indices 1 2 3 4 5 6 
#
# 1 0.012130 -0.006277 -0.003800 0.000000 -0.001469 0.000000
# 2 -0.006277 0.017212 -0.002199 0.000000 0.003508 0.000000
# 3 -0.003800 -0.002199 0.011649 0.000000 0.002897 0.000000
# 4 0.000000 0.000000 0.000000 0.173914 0.000000 0.024405
# 5 -0.001469 0.003508 0.002897 0.000000 0.021632 0.000000
# 6 0.000000 0.000000 0.000000 0.024405 0.000000 0.033050
#
#
# Mechanical properties :
#
#
# Convention : Reuss Voigt Hill
#
# Bulk Modulus (GPa) = 60.83316 68.69661 64.76488
# Shear Modulus (GPa) = 16.68786 30.26011 23.47398
#
# Velocity S-wave (km/s) = 2.87481 3.87119 3.40959
# Velocity P-wave (km/s) = 6.41456 7.34868 6.89745
#
# Compressibility (1/GPa) = 0.01643840
#
# Stress axis : x y z
#
# Youngs Moduli (GPa) = 82.43936 58.09841 85.84369
#
# Poissons Ratio (x) = 0.36470 0.32622
# Poissons Ratio (y) = 0.51750 0.18877
# Poissons Ratio (z) = 0.31328 0.12776
#
# Static dielectric constant tensor:
#      x y z
#    x 1.828700 0.000000 -0.027820 
#    y 0.000000 1.753160 0.000000 
#    z -0.027820 0.000000 1.715280 
# 
# From -- ./inp_files/55344.got.cif
#   From: 2010.05.17/outbox.cif.g08.bks.cpg/sg13_28_cif.got.tgz:55344.got - 2010.06.03 16:44:36.
