data_PCOD9237663
_publ_section_title
;
Structure prediction by ZEFSAII (Michael W. Deem and Ramdas Pophale) SiO2 
 PCOD9237663
Probable space group: P 2/C
;
_chemical_formula_sum "Si O2"
_cell_formula_units_Z 24
_cell_length_a 16.226522
_cell_length_b 9.085208
_cell_length_c 13.442829
_cell_angle_alpha 90.000000
_cell_angle_beta 149.928733
_cell_angle_gamma 90.000000
_cell_volume 993.013833
_symmetry_space_group_name_H-M "P 2/C"
_symmetry_group_IT_number 13
_symmetry_cell_setting 'monoclinic'
loop_
_space_group_symop_operation_xyz
x,y,z
-x,y,1/2-z
-x,-y,-z
x,-y,1/2+z
loop_
_atom_site_type_symbol
_atom_site_label
_atom_site_fract_x
_atom_site_fract_y
_atom_site_fract_z
Si Si1 0.344364 0.895201 0.837149
Si Si2 0.115797 0.123438 0.702148
Si Si3 0.202556 0.795366 0.496676
Si Si4 0.205706 0.538989 0.939934
Si Si5 0.650615 0.429452 0.100713
Si Si6 0.891570 0.623324 0.472932
O O1 0.338188 0.835512 0.717891
O O2 0.358208 0.745253 0.912428
O O3 0.185444 0.982109 0.716280
O O4 0.500000 0.000000 0.000000
O O5 0.239556 0.149170 0.924242
O O6 0.104216 0.248825 0.604858
O O7 0.953320 0.136572 0.603122
O O8 0.173421 0.621398 0.452890
O O9 0.057642 0.593380 0.711049
O O10 0.349086 0.516550 0.011654
O O11 0.227724 0.648408 0.055823
O O12 0.812488 0.486879 0.329983
O O13 0.500000 0.500000 0.000000
#
# Coordination Sequence:
#
# PCOD9237663 Si02
#       6
#     4   4   4   4   4   4
#     4  12  28  49  69 106 160 209 252 313 387 476
#     4  11  24  45  79 112 152 192 249 320 394 468
#     4  11  24  45  78 111 144 203 252 317 400 453
#     4  11  24  42  79 116 145 193 263 329 381 452
#     4  12  26  46  73 108 149 204 263 315 374 457
#     4  11  22  43  78 112 145 188 256 325 381 451
#
# _framework density 24.168848000000001
#
# number of rings (size 3 to 8) (size 9 to 14) (size 15 to 20)
#    0.000    0.667    3.333    5.000    0.000    2.667 
#    0.000    5.000    0.000    0.000    0.000    0.000 
#    0.000    0.000    0.000    0.000    0.000    0.000 
#
# Total GULP energy -133858.595573 kJ/mol
# GULP energy per Si atom -5577.441482 kJ/mol
# Density = 2.411384 g / cm^3
# Si number density = 24.168848 Si / 1000 Ang^3
#
#
#
# Elastic Constant Matrix: (Units=GPa)
#
#
# Indices 1 2 3 4 5 6 
#
# 1 216.7785 55.1189 44.0981 0.0000 -40.4282 0.0000
# 2 55.1189 135.6215 33.1747 0.0000 3.1839 0.0000
# 3 44.0981 33.1747 60.5779 0.0000 -18.3979 0.0000
# 4 0.0000 0.0000 0.0000 40.7758 0.0000 -6.5708
# 5 -40.4282 3.1839 -18.3979 0.0000 52.7542 0.0000
# 6 0.0000 0.0000 0.0000 -6.5708 0.0000 52.1032
#
#
#
# Elastic Compliance Matrix: (Units=1/GPa)
#
#
# Indices 1 2 3 4 5 6 
#
# 1 0.006406 -0.002173 -0.002173 0.000000 0.004283 0.000000
# 2 -0.002173 0.009530 -0.004829 0.000000 -0.003924 0.000000
# 3 -0.002173 -0.004829 0.022724 0.000000 0.006551 0.000000
# 4 0.000000 0.000000 0.000000 0.025033 0.000000 0.003157
# 5 0.004283 -0.003924 0.006551 0.000000 0.024759 0.000000
# 6 0.000000 0.000000 0.000000 0.003157 0.000000 0.019591
#
#
# Mechanical properties :
#
#
# Convention : Reuss Voigt Hill
#
# Bulk Modulus (GPa) = 49.23612 75.30681 62.27146
# Shear Modulus (GPa) = 37.54813 47.83237 42.69025
#
# Velocity S-wave (km/s) = 3.94582 4.45352 4.20734
# Velocity P-wave (km/s) = 6.41680 7.59417 7.03017
#
# Compressibility (1/GPa) = 0.02031029
#
# Stress axis : x y z
#
# Youngs Moduli (GPa) = 156.10035 104.93360 44.00692
#
# Poissons Ratio (x) = 0.22798 0.09562
# Poissons Ratio (y) = 0.33914 0.21252
# Poissons Ratio (z) = 0.33920 0.50674
#
# Static dielectric constant tensor:
#      x y z
#    x 2.080530 0.000000 0.122120 
#    y 0.000000 1.990550 0.000000 
#    z 0.122120 0.000000 2.253320 
# 
# From -- ./inp_files/53188.got.cif
#   From: 2010.05.17/outbox.cif.g08.bks.cpg/sg13_27_cif.got.tgz:53188.got - 2010.06.03 16:44:36.
