data_PCOD9237501
_publ_section_title
;
Structure prediction by ZEFSAII (Michael W. Deem and Ramdas Pophale) SiO2 
 PCOD9237501
Probable space group: P 2/C
;
_chemical_formula_sum "Si O2"
_cell_formula_units_Z 24
_cell_length_a 18.524347
_cell_length_b 10.620053
_cell_length_c 19.532485
_cell_angle_alpha 90.000000
_cell_angle_beta 20.439861
_cell_angle_gamma 90.000000
_cell_volume 1341.934189
_symmetry_space_group_name_H-M "P 2/C"
_symmetry_group_IT_number 13
_symmetry_cell_setting 'monoclinic'
loop_
_space_group_symop_operation_xyz
x,y,z
-x,y,1/2-z
-x,-y,-z
x,-y,1/2+z
loop_
_atom_site_type_symbol
_atom_site_label
_atom_site_fract_x
_atom_site_fract_y
_atom_site_fract_z
Si Si1 0.263043 0.762250 0.156600
Si Si2 0.549223 0.693720 0.010590
Si Si3 0.060884 0.028552 0.523810
Si Si4 0.161575 0.132972 0.164256
Si Si5 0.779270 0.483334 0.728064
Si Si6 0.472637 0.907400 0.853338
O O1 0.217680 0.615557 0.211177
O O2 0.419345 0.794213 0.081039
O O3 0.379659 0.797734 0.983712
O O4 0.058216 0.844489 0.347201
O O5 0.686616 0.757892 0.945103
O O6 0.689814 0.615128 0.832676
O O7 0.377881 0.589420 0.183513
O O8 0.967142 0.921150 0.656697
O O9 0.305210 0.046471 0.316375
O O10 0.000000 0.000000 0.500000
O O11 0.000000 0.171972 0.250000
O O12 0.306161 0.020391 0.007428
O O13 0.000000 0.500000 0.500000
O O14 0.500000 0.871350 0.750000
#
# Coordination Sequence:
#
# PCOD9237501 Si02
#       6
#     4   4   4   4   4   4
#     4   9  21  35  59  89 114 147 205 245 289 356
#     4   9  20  37  61  86 118 145 201 255 287 352
#     4  11  22  34  61  87 117 156 198 239 300 357
#     4  11  22  38  56  88 124 157 195 241 300 372
#     4   9  20  37  61  87 114 147 196 254 304 333
#     4  11  22  38  56  84 125 161 190 240 298 358
#
# _framework density 17.884632
#
# number of rings (size 3 to 8) (size 9 to 14) (size 15 to 20)
#    1.000    1.000    1.667    2.000    4.667    2.667 
#    0.000    0.000    3.667    1.000    0.000    0.000 
#    0.000    0.000    0.000    0.000    0.000    0.000 
#
# Total GULP energy -133699.735355 kJ/mol
# GULP energy per Si atom -5570.822306 kJ/mol
# Density = 1.784393 g / cm^3
# Si number density = 17.884632 Si / 1000 Ang^3
#
#
#
# Elastic Constant Matrix: (Units=GPa)
#
#
# Indices 1 2 3 4 5 6 
#
# 1 103.3733 16.4679 33.3978 0.0000 -1.8765 0.0000
# 2 16.4679 46.8334 17.7495 0.0000 -3.3296 0.0000
# 3 33.3978 17.7495 120.8322 0.0000 -3.3456 0.0000
# 4 0.0000 0.0000 0.0000 12.4079 0.0000 -5.8261
# 5 -1.8765 -3.3296 -3.3456 0.0000 29.2599 0.0000
# 6 0.0000 0.0000 0.0000 -5.8261 0.0000 13.4581
#
#
#
# Elastic Compliance Matrix: (Units=1/GPa)
#
#
# Indices 1 2 3 4 5 6 
#
# 1 0.010975 -0.002864 -0.002611 0.000000 0.000079 0.000000
# 2 -0.002864 0.023501 -0.002600 0.000000 0.002193 0.000000
# 3 -0.002611 -0.002600 0.009396 0.000000 0.000611 0.000000
# 4 0.000000 0.000000 0.000000 0.101156 0.000000 0.043791
# 5 0.000079 0.002193 0.000611 0.000000 0.034501 0.000000
# 6 0.000000 0.000000 0.000000 0.043791 0.000000 0.093262
#
#
# Mechanical properties :
#
#
# Convention : Reuss Voigt Hill
#
# Bulk Modulus (GPa) = 36.07102 45.14104 40.60603
# Shear Modulus (GPa) = 16.76840 24.58674 20.67757
#
# Velocity S-wave (km/s) = 3.06533 3.71177 3.40393
# Velocity P-wave (km/s) = 5.72196 6.60792 6.18083
#
# Compressibility (1/GPa) = 0.02772309
#
# Stress axis : x y z
#
# Youngs Moduli (GPa) = 91.11807 42.55213 106.42497
#
# Poissons Ratio (x) = 0.12187 0.27782
# Poissons Ratio (y) = 0.26096 0.27668
# Poissons Ratio (z) = 0.23786 0.11063
#
# Static dielectric constant tensor:
#      x y z
#    x 1.612110 0.000000 -0.014750 
#    y 0.000000 1.613440 0.000000 
#    z -0.014750 0.000000 1.613960 
# 
# From -- ./inp_files/69900.got.cif
#   From: 2010.05.17/outbox.cif.g08.bks.cpg/sg13_35_cif.got.tgz:69900.got - 2010.06.03 16:44:36.
