data_PCOD9237985
_publ_section_title
;
Structure prediction by ZEFSAII (Michael W. Deem and Ramdas Pophale) SiO2 
 PCOD9237985
Probable space group: P 2/C
;
_chemical_formula_sum "Si O2"
_cell_formula_units_Z 22
_cell_length_a 21.645851
_cell_length_b 6.349012
_cell_length_c 22.424032
_cell_angle_alpha 90.000000
_cell_angle_beta 18.613413
_cell_angle_gamma 90.000000
_cell_volume 983.630043
_symmetry_space_group_name_H-M "P 2/C"
_symmetry_group_IT_number 13
_symmetry_cell_setting 'monoclinic'
loop_
_space_group_symop_operation_xyz
x,y,z
-x,y,1/2-z
-x,-y,-z
x,-y,1/2+z
loop_
_atom_site_type_symbol
_atom_site_label
_atom_site_fract_x
_atom_site_fract_y
_atom_site_fract_z
Si Si1 0.500000 0.603890 0.750000
Si Si2 0.450494 0.744769 0.396931
Si Si3 0.321051 0.587900 0.201155
Si Si4 0.738329 0.037959 0.077621
Si Si5 0.011111 0.654236 0.805320
Si Si6 0.043427 0.676099 0.036940
O O1 0.516550 0.455310 0.677073
O O2 0.316019 0.756902 0.910605
O O3 0.583126 0.719533 0.333538
O O4 0.225274 0.748615 0.617960
O O5 0.533826 0.947425 0.287473
O O6 0.166239 0.705198 0.300944
O O7 0.193563 0.406922 0.349972
O O8 0.500000 0.500000 0.000000
O O9 0.870112 0.119150 0.011231
O O10 0.853511 0.841351 0.945386
O O11 0.973539 0.502397 0.895731
O O12 0.000000 0.549193 0.750000
#
# Coordination Sequence:
#
# PCOD9237985 Si02
#       6
#     2   4   4   4   4   4
#     4  12  24  48  74  96 148 186 230 288 362 414
#     4  12  25  46  73 103 141 185 233 292 349 422
#     4  11  23  48  74  98 139 194 234 283 355 412
#     4  12  25  45  70 109 138 181 235 294 348 414
#     4  12  25  44  70 106 143 182 232 289 352 420
#     4  11  25  46  74 101 142 186 234 288 349 416
#
# _framework density 22.366133999999999
#
# number of rings (size 3 to 8) (size 9 to 14) (size 15 to 20)
#    0.000    0.364    5.455    3.818    0.000    5.818 
#    0.000    3.636    0.000    0.000    0.000    0.000 
#    0.000    0.000    0.000    0.000    0.000    0.000 
#
# Total GULP energy -123115.395549 kJ/mol
# GULP energy per Si atom -5596.154343 kJ/mol
# Density = 2.231523 g / cm^3
# Si number density = 22.366134 Si / 1000 Ang^3
#
#
#
# Elastic Constant Matrix: (Units=GPa)
#
#
# Indices 1 2 3 4 5 6 
#
# 1 135.4583 29.5440 32.4757 0.0000 -13.9698 0.0000
# 2 29.5440 63.6940 30.1905 0.0000 6.4657 0.0000
# 3 32.4757 30.1905 149.1302 0.0000 -11.1525 0.0000
# 4 0.0000 0.0000 0.0000 23.0517 0.0000 -12.8910
# 5 -13.9698 6.4657 -11.1525 0.0000 44.3650 0.0000
# 6 0.0000 0.0000 0.0000 -12.8910 0.0000 31.9410
#
#
#
# Elastic Compliance Matrix: (Units=1/GPa)
#
#
# Indices 1 2 3 4 5 6 
#
# 1 0.008781 -0.003976 -0.000874 0.000000 0.003125 0.000000
# 2 -0.003976 0.019711 -0.003499 0.000000 -0.005004 0.000000
# 3 -0.000874 -0.003499 0.007768 0.000000 0.002187 0.000000
# 4 0.000000 0.000000 0.000000 0.056025 0.000000 0.022611
# 5 0.003125 -0.005004 0.002187 0.000000 0.024803 0.000000
# 6 0.000000 0.000000 0.000000 0.022611 0.000000 0.040433
#
#
# Mechanical properties :
#
#
# Convention : Reuss Voigt Hill
#
# Bulk Modulus (GPa) = 51.11785 59.18921 55.15353
# Shear Modulus (GPa) = 27.66413 36.94304 32.30358
#
# Velocity S-wave (km/s) = 3.52074 4.06857 3.80453
# Velocity P-wave (km/s) = 6.27950 6.97081 6.63417
#
# Compressibility (1/GPa) = 0.01956264
#
# Stress axis : x y z
#
# Youngs Moduli (GPa) = 113.87826 50.73378 128.73899
#
# Poissons Ratio (x) = 0.20173 0.11247
# Poissons Ratio (y) = 0.45281 0.45041
# Poissons Ratio (z) = 0.09949 0.17750
#
# Static dielectric constant tensor:
#      x y z
#    x 1.876830 0.000000 0.007920 
#    y 0.000000 1.791150 0.000000 
#    z 0.007920 0.000000 1.835050 
# 
# From -- ./inp_files/88685.got.cif
#   From: 2010.05.17/outbox.cif.g08.bks.cpg/sg13_45_cif.got.tgz:88685.got - 2010.06.03 16:44:36.
