data_PCOD9237516
_publ_section_title
;
Structure prediction by ZEFSAII (Michael W. Deem and Ramdas Pophale) SiO2 
 PCOD9237516
Probable space group: P 2/C
;
_chemical_formula_sum "Si O2"
_cell_formula_units_Z 20
_cell_length_a 24.870484
_cell_length_b 6.858207
_cell_length_c 15.309888
_cell_angle_alpha 90.000000
_cell_angle_beta 159.276185
_cell_angle_gamma 90.000000
_cell_volume 924.065527
_symmetry_space_group_name_H-M "P 2/C"
_symmetry_group_IT_number 13
_symmetry_cell_setting 'monoclinic'
loop_
_space_group_symop_operation_xyz
x,y,z
-x,y,1/2-z
-x,-y,-z
x,-y,1/2+z
loop_
_atom_site_type_symbol
_atom_site_label
_atom_site_fract_x
_atom_site_fract_y
_atom_site_fract_z
Si Si1 0.930351 0.664082 0.953756
Si Si2 0.697676 0.569030 0.743424
Si Si3 0.861810 0.128985 0.608640
Si Si4 0.360996 0.124263 0.477284
Si Si5 0.644554 0.130561 0.694395
O O1 0.852906 0.558353 0.920953
O O2 0.788429 0.790438 0.702615
O O3 0.000000 0.500000 0.000000
O O4 0.062451 0.808411 0.186680
O O5 0.594162 0.696250 0.519827
O O6 0.631710 0.360876 0.666599
O O7 0.747722 0.700827 0.901483
O O8 0.770712 0.930215 0.456875
O O9 0.000000 0.119083 0.750000
O O10 0.500000 0.070373 0.750000
O O11 0.312143 0.954261 0.336019
O O12 0.500000 0.000000 0.500000
#
# Coordination Sequence:
#
# PCOD9237516 Si02
#       5
#     4   4   4   4   4
#     4   9  19  39  62  83 112 156 192 236 291 336
#     4   8  20  37  59  83 113 155 189 234 290 337
#     4   9  18  39  59  84 119 146 197 249 271 339
#     4   9  21  40  56  82 129 147 191 245 280 347
#     4  11  22  37  60  90 118 153 195 235 293 348
#
# _framework density 21.643488000000001
#
# number of rings (size 3 to 8) (size 9 to 14) (size 15 to 20)
#    1.200    1.600    2.000    0.000    0.000    9.600 
#    3.600    1.000    0.000    0.000    0.000    0.000 
#    0.000    0.000    0.000    0.000    0.000    0.000 
#
# Total GULP energy -111413.066285 kJ/mol
# GULP energy per Si atom -5570.653314 kJ/mol
# Density = 2.159423 g / cm^3
# Si number density = 21.643488 Si / 1000 Ang^3
#
#
#
# Elastic Constant Matrix: (Units=GPa)
#
#
# Indices 1 2 3 4 5 6 
#
# 1 37.5744 9.3641 9.6997 0.0000 0.1810 0.0000
# 2 9.3641 107.4971 12.1776 0.0000 -1.1387 0.0000
# 3 9.6997 12.1776 99.8712 0.0000 -17.0963 0.0000
# 4 0.0000 0.0000 0.0000 28.4971 0.0000 6.2043
# 5 0.1810 -1.1387 -17.0963 0.0000 26.0638 0.0000
# 6 0.0000 0.0000 0.0000 6.2043 0.0000 19.2433
#
#
#
# Elastic Compliance Matrix: (Units=1/GPa)
#
#
# Indices 1 2 3 4 5 6 
#
# 1 0.027882 -0.002133 -0.002813 0.000000 -0.002132 0.000000
# 2 -0.002133 0.009599 -0.001001 0.000000 -0.000223 0.000000
# 3 -0.002813 -0.001001 0.011720 0.000000 0.007663 0.000000
# 4 0.000000 0.000000 0.000000 0.037741 0.000000 -0.012168
# 5 -0.002132 -0.000223 0.007663 0.000000 0.043399 0.000000
# 6 0.000000 0.000000 0.000000 -0.012168 0.000000 0.055889
#
#
# Mechanical properties :
#
#
# Convention : Reuss Voigt Hill
#
# Bulk Modulus (GPa) = 26.80447 34.15840 30.48143
# Shear Modulus (GPa) = 23.74619 29.00757 26.37688
#
# Velocity S-wave (km/s) = 3.31592 3.66491 3.49477
# Velocity P-wave (km/s) = 5.20306 5.80735 5.51349
#
# Compressibility (1/GPa) = 0.03730722
#
# Stress axis : x y z
#
# Youngs Moduli (GPa) = 35.86570 104.17256 85.32382
#
# Poissons Ratio (x) = 0.22217 0.24000
# Poissons Ratio (y) = 0.07649 0.08545
# Poissons Ratio (z) = 0.10088 0.10433
#
# Static dielectric constant tensor:
#      x y z
#    x 1.873660 0.000000 0.035850 
#    y 0.000000 1.770730 0.000000 
#    z 0.035850 0.000000 1.814950 
# 
# From -- ./inp_files/65855.got.cif
#   From: 2010.05.17/outbox.cif.g08.bks.cpg/sg13_33_cif.got.tgz:65855.got - 2010.06.03 16:44:36.
