data_PCOD9237053
_publ_section_title
;
Structure prediction by ZEFSAII (Michael W. Deem and Ramdas Pophale) SiO2 
 PCOD9237053
Probable space group: P 2/C
;
_chemical_formula_sum "Si O2"
_cell_formula_units_Z 22
_cell_length_a 19.138799
_cell_length_b 5.066208
_cell_length_c 15.087742
_cell_angle_alpha 90.000000
_cell_angle_beta 136.518583
_cell_angle_gamma 90.000000
_cell_volume 1006.666625
_symmetry_space_group_name_H-M "P 2/C"
_symmetry_group_IT_number 13
_symmetry_cell_setting 'monoclinic'
loop_
_space_group_symop_operation_xyz
x,y,z
-x,y,1/2-z
-x,-y,-z
x,-y,1/2+z
loop_
_atom_site_type_symbol
_atom_site_label
_atom_site_fract_x
_atom_site_fract_y
_atom_site_fract_z
Si Si1 0.000000 0.045964 0.250000
Si Si2 0.749499 0.671386 0.648982
Si Si3 0.022950 0.748562 0.582052
Si Si4 0.403768 0.949407 0.227683
Si Si5 0.768546 0.157725 0.555971
Si Si6 0.591072 0.440921 0.149413
O O1 0.022722 0.211963 0.360897
O O2 0.891891 0.889683 0.164224
O O3 0.860818 0.714729 0.787450
O O4 0.749105 0.456221 0.569584
O O5 0.686402 0.570426 0.672852
O O6 0.721650 0.958506 0.586287
O O7 0.000000 0.500000 0.500000
O O8 0.000000 0.000000 0.500000
O O9 0.500000 0.947943 0.250000
O O10 0.394586 0.660424 0.261699
O O11 0.429016 0.158223 0.326671
O O12 0.298142 0.063644 0.089241
O O13 0.500000 0.500000 0.000000
#
# Coordination Sequence:
#
# PCOD9237053 Si02
#       6
#     2   4   4   4   4   4
#     4  10  26  44  70 100 144 188 232 294 356 408
#     4  11  24  44  66  99 136 179 228 290 353 408
#     4  11  25  42  69  98 139 182 238 287 345 426
#     4  12  25  43  70 101 135 180 234 285 351 433
#     4  11  24  44  68  98 138 181 231 288 351 423
#     4  12  25  43  70  99 138 179 227 293 356 420
#
# _framework density 21.854303999999999
#
# number of rings (size 3 to 8) (size 9 to 14) (size 15 to 20)
#    0.000    0.727    0.000    7.636    5.091    6.545 
#    0.000    0.000    0.000    0.000    0.000    0.000 
#    0.000    0.000    0.000    0.000    0.000    0.000 
#
# Total GULP energy -122898.867491 kJ/mol
# GULP energy per Si atom -5586.312159 kJ/mol
# Density = 2.180456 g / cm^3
# Si number density = 21.854304 Si / 1000 Ang^3
#
#
#
# Elastic Constant Matrix: (Units=GPa)
#
#
# Indices 1 2 3 4 5 6 
#
# 1 113.2977 9.4103 -4.5122 0.0000 -4.1824 0.0000
# 2 9.4103 89.5866 -7.6850 0.0000 -8.3953 0.0000
# 3 -4.5122 -7.6850 52.3274 0.0000 -12.6313 0.0000
# 4 0.0000 0.0000 0.0000 23.0216 0.0000 31.4600
# 5 -4.1824 -8.3953 -12.6313 0.0000 35.0808 0.0000
# 6 0.0000 0.0000 0.0000 31.4600 0.0000 -54.2131
#
#
#
# Elastic Compliance Matrix: (Units=1/GPa)
#
#
# Indices 1 2 3 4 5 6 
#
# 1 0.008972 -0.000744 0.000963 0.000000 0.001239 0.000000
# 2 -0.000744 0.011802 0.002551 0.000000 0.003654 0.000000
# 3 0.000963 0.002551 0.021623 0.000000 0.008511 0.000000
# 4 0.000000 0.000000 0.000000 0.024226 0.000000 0.014058
# 5 0.001239 0.003654 0.008511 0.000000 0.032592 0.000000
# 6 0.000000 0.000000 0.000000 0.014058 0.000000 -0.010288
#
#
# Mechanical properties :
#
#
# Convention : Reuss Voigt Hill
#
# Bulk Modulus (GPa) = 20.86006 27.73753 24.29879
# Shear Modulus (GPa) = 50.31950 17.97776 34.14863
#
# Velocity S-wave (km/s) = 4.80364 2.87124 3.95721
# Velocity P-wave (km/s) = 6.35078 4.86946 5.65880
#
# Compressibility (1/GPa) = 0.04793851
#
# Stress axis : x y z
#
# Youngs Moduli (GPa) = 111.45576 84.73283 46.24773
#
# Poissons Ratio (x) = 0.06302 -0.04456
# Poissons Ratio (y) = 0.08289 -0.11799
# Poissons Ratio (z) = -0.10738 -0.21617
#
# Static dielectric constant tensor:
#      x y z
#    x 2.058260 0.000000 -0.243510 
#    y 0.000000 2.713160 0.000000 
#    z -0.243510 0.000000 1.954650 
# 
# From -- ./inp_files/56285.got.cif
#   From: 2010.05.17/outbox.cif.g08.bks.cpg/sg13_29_cif.got.tgz:56285.got - 2010.06.03 16:44:36.
