data_PCOD9237844
_publ_section_title
;
Structure prediction by ZEFSAII (Michael W. Deem and Ramdas Pophale) SiO2 
 PCOD9237844
Probable space group: P 2/C
;
_chemical_formula_sum "Si O2"
_cell_formula_units_Z 14
_cell_length_a 5.627373
_cell_length_b 7.696512
_cell_length_c 11.877783
_cell_angle_alpha 90.000000
_cell_angle_beta 108.777334
_cell_angle_gamma 90.000000
_cell_volume 487.060140
_symmetry_space_group_name_H-M "P 2/C"
_symmetry_group_IT_number 13
_symmetry_cell_setting 'monoclinic'
loop_
_space_group_symop_operation_xyz
x,y,z
-x,y,1/2-z
-x,-y,-z
x,-y,1/2+z
loop_
_atom_site_type_symbol
_atom_site_label
_atom_site_fract_x
_atom_site_fract_y
_atom_site_fract_z
Si Si1 0.371065 0.152380 0.904800
Si Si2 0.000000 0.599380 0.750000
Si Si3 0.063506 0.799982 0.542774
Si Si4 0.500000 0.400434 0.750000
Si Si5 0.500000 0.085346 0.250000
O O1 0.561592 0.284748 0.872154
O O2 0.301719 0.036793 0.785103
O O3 0.153026 0.260740 0.932649
O O4 0.500000 0.000000 0.000000
O O5 0.079836 0.710670 0.875352
O O6 0.753309 0.496232 0.752228
O O7 0.339513 0.802498 0.642443
O O8 0.000000 0.000000 0.500000
#
# Coordination Sequence:
#
# PCOD9237844 Si02
#       5
#     4   2   4   2   2
#     4   9  21  43  75 107 144 199 263 311 373 466
#     4  12  28  48  72 112 166 198 246 330 406 460
#     4  11  23  42  75 110 147 206 267 314 379 473
#     4  11  27  48  72 114 163 201 244 325 409 460
#     4   9  19  40  70 110 147 185 260 333 365 440
#
# _framework density 28.743887999999998
#
# number of rings (size 3 to 8) (size 9 to 14) (size 15 to 20)
#    0.000    1.714    0.000    2.571    0.000   13.714 
#    0.000    0.000    0.000    0.000    0.000    2.000 
#    0.000    0.000    0.000    0.000    0.000    0.000 
#
# Total GULP energy -77937.553090 kJ/mol
# GULP energy per Si atom -5566.968078 kJ/mol
# Density = 2.867847 g / cm^3
# Si number density = 28.743888 Si / 1000 Ang^3
#
#
#
# Elastic Constant Matrix: (Units=GPa)
#
#
# Indices 1 2 3 4 5 6 
#
# 1 170.8196 81.1003 62.6353 0.0000 -55.5783 0.0000
# 2 81.1003 124.7066 90.0633 0.0000 -44.2836 0.0000
# 3 62.6353 90.0633 151.4148 0.0000 -57.8994 0.0000
# 4 0.0000 0.0000 0.0000 66.9875 0.0000 -28.6653
# 5 -55.5783 -44.2836 -57.8994 0.0000 77.2757 0.0000
# 6 0.0000 0.0000 0.0000 -28.6653 0.0000 65.3411
#
#
#
# Elastic Compliance Matrix: (Units=1/GPa)
#
#
# Indices 1 2 3 4 5 6 
#
# 1 0.009457 -0.005207 0.000904 0.000000 0.004495 0.000000
# 2 -0.005207 0.017280 -0.008087 0.000000 0.000099 0.000000
# 3 0.000904 -0.008087 0.013339 0.000000 0.006010 0.000000
# 4 0.000000 0.000000 0.000000 0.018378 0.000000 0.008063
# 5 0.004495 0.000099 0.006010 0.000000 0.020733 0.000000
# 6 0.000000 0.000000 0.000000 0.008063 0.000000 0.018841
#
#
# Mechanical properties :
#
#
# Convention : Reuss Voigt Hill
#
# Bulk Modulus (GPa) = 65.37354 101.61540 83.49447
# Shear Modulus (GPa) = 39.09034 56.13033 47.61034
#
# Velocity S-wave (km/s) = 3.69175 4.42381 4.07426
# Velocity P-wave (km/s) = 6.40038 7.84361 7.15846
#
# Compressibility (1/GPa) = 0.01529671
#
# Stress axis : x y z
#
# Youngs Moduli (GPa) = 105.73726 57.86872 74.96872
#
# Poissons Ratio (x) = 0.30132 -0.06776
# Poissons Ratio (y) = 0.55056 0.60627
# Poissons Ratio (z) = -0.09557 0.46799
#
# Static dielectric constant tensor:
#      x y z
#    x 2.500810 0.000000 -0.116110 
#    y 0.000000 2.422220 0.000000 
#    z -0.116110 0.000000 2.566900 
# 
# From -- ./inp_files/25204.got.cif
#   From: 2010.05.17/outbox.cif.g08.bks.cpg/sg13_13_cif.got.tgz:25204.got - 2010.06.03 16:44:36.
