data_PCOD9237922
_publ_section_title
;
Structure prediction by ZEFSAII (Michael W. Deem and Ramdas Pophale) SiO2 
 PCOD9237922
Probable space group: P 2/C
;
_chemical_formula_sum "Si O2"
_cell_formula_units_Z 20
_cell_length_a 19.184081
_cell_length_b 5.030221
_cell_length_c 10.174849
_cell_angle_alpha 90.000000
_cell_angle_beta 127.898625
_cell_angle_gamma 90.000000
_cell_volume 774.796117
_symmetry_space_group_name_H-M "P 2/C"
_symmetry_group_IT_number 13
_symmetry_cell_setting 'monoclinic'
loop_
_space_group_symop_operation_xyz
x,y,z
-x,y,1/2-z
-x,-y,-z
x,-y,1/2+z
loop_
_atom_site_type_symbol
_atom_site_label
_atom_site_fract_x
_atom_site_fract_y
_atom_site_fract_z
Si Si1 0.343357 0.445833 0.349650
Si Si2 0.163220 0.381424 0.623672
Si Si3 0.089901 0.723944 0.296532
Si Si4 0.584197 0.975084 0.935906
Si Si5 0.737753 0.048090 0.428514
O O1 0.242134 0.455143 0.288315
O O2 0.385401 0.724202 0.442302
O O3 0.309415 0.326538 0.169879
O O4 0.417607 0.229728 0.472492
O O5 0.120952 0.512790 0.444066
O O6 0.086045 0.358650 0.640875
O O7 0.220592 0.126127 0.641055
O O8 0.174810 0.911480 0.386740
O O9 0.000000 0.843249 0.250000
O O10 0.500000 0.919457 0.750000
O O11 0.660634 0.074599 0.924411
#
# Coordination Sequence:
#
# PCOD9237922 Si02
#       5
#     4   4   4   4   4
#     4  11  23  45  66 102 140 186 242 292 365 428
#     4  11  23  46  72 105 150 195 243 301 372 432
#     4  11  24  42  72 109 147 195 245 305 364 441
#     4  12  26  44  70 104 144 190 245 302 365 433
#     4  11  24  43  73  97 149 194 238 306 362 436
#
# _framework density 25.813241999999999
#
# number of rings (size 3 to 8) (size 9 to 14) (size 15 to 20)
#    0.000    0.800    4.000    2.400    2.800    4.800 
#    0.000    0.000    0.000    0.000    0.000    0.000 
#    0.000    0.000    0.000    0.000    0.000    0.000 
#
# Total GULP energy -111414.441419 kJ/mol
# GULP energy per Si atom -5570.722071 kJ/mol
# Density = 2.575449 g / cm^3
# Si number density = 25.813242 Si / 1000 Ang^3
#
#
#
# Elastic Constant Matrix: (Units=GPa)
#
#
# Indices 1 2 3 4 5 6 
#
# 1 102.1743 -9.0166 30.9863 0.0000 2.5975 0.0000
# 2 -9.0166 82.9824 31.1785 0.0000 -2.3178 0.0000
# 3 30.9863 31.1785 86.4793 0.0000 3.0050 0.0000
# 4 0.0000 0.0000 0.0000 28.6359 0.0000 -3.0790
# 5 2.5975 -2.3178 3.0050 0.0000 40.3811 0.0000
# 6 0.0000 0.0000 0.0000 -3.0790 0.0000 19.7428
#
#
#
# Elastic Compliance Matrix: (Units=1/GPa)
#
#
# Indices 1 2 3 4 5 6 
#
# 1 0.011712 0.003288 -0.005376 0.000000 -0.000165 0.000000
# 2 0.003288 0.014918 -0.006596 0.000000 0.001136 0.000000
# 3 -0.005376 -0.006596 0.015910 0.000000 -0.001217 0.000000
# 4 0.000000 0.000000 0.000000 0.035517 0.000000 0.005539
# 5 -0.000165 0.001136 -0.001217 0.000000 0.024930 0.000000
# 6 0.000000 0.000000 0.000000 0.005539 0.000000 0.051515
#
#
# Mechanical properties :
#
#
# Convention : Reuss Voigt Hill
#
# Bulk Modulus (GPa) = 39.72718 41.99248 40.85983
# Shear Modulus (GPa) = 27.73752 32.31782 30.02767
#
# Velocity S-wave (km/s) = 3.28158 3.54218 3.41437
# Velocity P-wave (km/s) = 5.45729 5.74739 5.60422
#
# Compressibility (1/GPa) = 0.02517168
#
# Stress axis : x y z
#
# Youngs Moduli (GPa) = 85.38276 67.03314 62.85308
#
# Poissons Ratio (x) = -0.22040 0.33791
# Poissons Ratio (y) = -0.28073 0.41458
# Poissons Ratio (z) = 0.45903 0.44215
#
# Static dielectric constant tensor:
#      x y z
#    x 2.191160 0.000000 -0.122770 
#    y 0.000000 2.318760 0.000000 
#    z -0.122770 0.000000 2.080210 
# 
# From -- ./inp_files/35485.got.cif
#   From: 2010.05.17/outbox.cif.g08.bks.cpg/sg13_18_cif.got.tgz:35485.got - 2010.06.03 16:44:36.
