data_PCOD9237032
_publ_section_title
;
Structure prediction by ZEFSAII (Michael W. Deem and Ramdas Pophale) SiO2 
 PCOD9237032
Probable space group: P 2/C
;
_chemical_formula_sum "Si O2"
_cell_formula_units_Z 22
_cell_length_a 9.961639
_cell_length_b 4.992919
_cell_length_c 18.231628
_cell_angle_alpha 90.000000
_cell_angle_beta 117.131702
_cell_angle_gamma 90.000000
_cell_volume 807.014908
_symmetry_space_group_name_H-M "P 2/C"
_symmetry_group_IT_number 13
_symmetry_cell_setting 'monoclinic'
loop_
_space_group_symop_operation_xyz
x,y,z
-x,y,1/2-z
-x,-y,-z
x,-y,1/2+z
loop_
_atom_site_type_symbol
_atom_site_label
_atom_site_fract_x
_atom_site_fract_y
_atom_site_fract_z
Si Si1 0.000000 0.500000 0.500000
Si Si2 0.287681 0.997385 0.901160
Si Si3 0.759015 0.292353 0.977865
Si Si4 0.162478 0.990744 0.136245
Si Si5 0.566712 0.481022 0.124385
Si Si6 0.000000 0.022978 0.250000
Si Si7 0.500000 0.175279 0.250000
O O1 0.130049 0.513956 0.465130
O O2 0.097918 0.749182 0.579823
O O3 0.420417 0.780683 0.922957
O O4 0.149608 0.856823 0.823292
O O5 0.325126 0.279770 0.874492
O O6 0.252562 0.967394 0.976977
O O7 0.598255 0.399819 0.921428
O O8 0.864019 0.244597 0.931371
O O9 0.082222 0.919112 0.193684
O O10 0.348505 0.012097 0.187500
O O11 0.575478 0.364016 0.207697
#
# Coordination Sequence:
#
# PCOD9237032 Si02
#       7
#     2   4   4   4   4   2   2
#     4   8  24  50  88 124 178 238 306 362 464 538
#     4  12  29  52  81 128 175 228 303 370 454 542
#     4  10  25  51  86 124 177 238 299 371 454 554
#     4  10  25  54  86 132 177 244 295 385 446 563
#     4  12  28  50  87 125 174 232 293 379 449 547
#     4  12  28  50  86 126 180 226 304 370 472 520
#     4  12  26  52  90 130 184 232 324 376 482 534
#
# _framework density 27.260956
#
# number of rings (size 3 to 8) (size 9 to 14) (size 15 to 20)
#    1.091    0.000    1.818    2.182    5.091    5.091 
#    0.000    0.000    0.000    0.000    0.000    0.000 
#    0.000    0.000    0.000    0.000    0.000    0.000 
#
# Total GULP energy -122519.428840 kJ/mol
# GULP energy per Si atom -5569.064947 kJ/mol
# Density = 2.719891 g / cm^3
# Si number density = 27.260956 Si / 1000 Ang^3
#
#
#
# Elastic Constant Matrix: (Units=GPa)
#
#
# Indices 1 2 3 4 5 6 
#
# 1 181.2630 74.5781 77.9989 0.0000 -17.3106 0.0000
# 2 74.5781 186.3154 50.6075 0.0000 -18.0522 0.0000
# 3 77.9989 50.6075 113.3147 0.0000 3.5786 0.0000
# 4 0.0000 0.0000 0.0000 6.3706 0.0000 14.8086
# 5 -17.3106 -18.0522 3.5786 0.0000 76.0510 0.0000
# 6 0.0000 0.0000 0.0000 14.8086 0.0000 23.5582
#
#
#
# Elastic Compliance Matrix: (Units=1/GPa)
#
#
# Indices 1 2 3 4 5 6 
#
# 1 0.008706 -0.001900 -0.005200 0.000000 0.001775 0.000000
# 2 -0.001900 0.006719 -0.001732 0.000000 0.001244 0.000000
# 3 -0.005200 -0.001732 0.013248 0.000000 -0.002218 0.000000
# 4 0.000000 0.000000 0.000000 -0.340358 0.000000 0.213948
# 5 0.001775 0.001244 -0.002218 0.000000 0.013953 0.000000
# 6 0.000000 0.000000 0.000000 0.213948 0.000000 -0.092039
#
#
# Mechanical properties :
#
#
# Convention : Reuss Voigt Hill
#
# Bulk Modulus (GPa) = 90.84158 98.58466 94.71312
# Shear Modulus (GPa) = -13.57080 39.70987 13.06954
#
# Velocity S-wave (km/s) = -2.23359 3.82076 2.19195
# Velocity P-wave (km/s) = 5.17140 7.46365 6.42065
#
# Compressibility (1/GPa) = 0.01100817
#
# Stress axis : x y z
#
# Youngs Moduli (GPa) = 114.86593 148.83508 75.48422
#
# Poissons Ratio (x) = 0.28284 0.39251
# Poissons Ratio (y) = 0.21828 0.13073
# Poissons Ratio (z) = 0.59729 0.25777
#
# Static dielectric constant tensor:
#      x y z
#    x 2.229640 0.000000 -0.033810 
#    y 0.000000 2.128190 0.000000 
#    z -0.033810 0.000000 2.236450 
# 
# From -- ./inp_files/74671.got.cif
#   From: 2010.05.17/outbox.cif.g08.bks.cpg/sg13_38_cif.got.tgz:74671.got - 2010.06.03 16:44:36.
