data_PCOD9237273
_publ_section_title
;
Structure prediction by ZEFSAII (Michael W. Deem and Ramdas Pophale) SiO2 
 PCOD9237273
Probable space group: P 2/C
;
_chemical_formula_sum "Si O2"
_cell_formula_units_Z 32
_cell_length_a 8.391524
_cell_length_b 11.493834
_cell_length_c 24.564321
_cell_angle_alpha 90.000000
_cell_angle_beta 44.733485
_cell_angle_gamma 90.000000
_cell_volume 1667.500423
_symmetry_space_group_name_H-M "P 2/C"
_symmetry_group_IT_number 13
_symmetry_cell_setting 'monoclinic'
loop_
_space_group_symop_operation_xyz
x,y,z
-x,y,1/2-z
-x,-y,-z
x,-y,1/2+z
loop_
_atom_site_type_symbol
_atom_site_label
_atom_site_fract_x
_atom_site_fract_y
_atom_site_fract_z
Si Si1 0.044249 0.188568 0.427556
Si Si2 0.703596 0.151243 0.021474
Si Si3 0.842859 0.575131 0.997963
Si Si4 0.416575 0.921640 0.412408
Si Si5 0.216277 0.632700 0.063642
Si Si6 0.163624 0.044111 0.860685
Si Si7 0.749243 0.276830 0.711426
Si Si8 0.379440 0.683990 0.140462
O O1 0.981193 0.322517 0.433688
O O2 0.809247 0.130242 0.504539
O O3 0.210516 0.188720 0.439532
O O4 0.141585 0.095757 0.360114
O O5 0.646519 0.262774 0.999209
O O6 0.922269 0.091792 0.940501
O O7 0.530025 0.045720 0.073345
O O8 0.747887 0.485468 0.976976
O O9 0.636260 0.634708 0.081063
O O10 0.000000 0.500000 0.000000
O O11 0.338031 0.937641 0.368786
O O12 0.602094 0.822915 0.373676
O O13 0.276079 0.627880 0.112165
O O14 0.950386 0.668905 0.126757
O O15 0.224123 0.135989 0.799084
O O16 0.500000 0.303754 0.750000
O O17 0.753663 0.326428 0.771181
#
# Coordination Sequence:
#
# PCOD9237273 Si02
#       8
#     4   4   4   4   4   4   4   4
#     4   8  14  27  50  76 100 130 174 222 266 309
#     4   8  14  27  48  75 103 132 169 214 271 324
#     4  11  20  35  56  79 107 149 199 235 267 327
#     4   8  14  27  48  75 103 131 165 217 274 328
#     4  11  22  34  51  80 115 148 183 231 282 333
#     4   8  14  27  50  76  99 128 170 222 267 315
#     4  11  20  35  56  78 103 140 184 228 281 338
#     4  11  22  34  51  81 113 142 183 235 289 336
#
# _framework density 19.1904
#
# number of rings (size 3 to 8) (size 9 to 14) (size 15 to 20)
#    0.000    2.500    2.500    3.000    0.000    0.500 
#    0.000    0.000    0.000    3.750    0.000    7.000 
#    0.000    0.000    0.000    0.000    0.000    0.000 
#
# Total GULP energy -178211.367803 kJ/mol
# GULP energy per Si atom -5569.105244 kJ/mol
# Density = 1.914672 g / cm^3
# Si number density = 19.190400 Si / 1000 Ang^3
#
#
#
# Elastic Constant Matrix: (Units=GPa)
#
#
# Indices 1 2 3 4 5 6 
#
# 1 32.2082 13.7024 0.5876 0.0000 9.7873 0.0000
# 2 13.7024 118.7758 27.5609 0.0000 14.0390 0.0000
# 3 0.5876 27.5609 45.1628 0.0000 5.8298 0.0000
# 4 0.0000 0.0000 0.0000 23.1007 0.0000 2.9037
# 5 9.7873 14.0390 5.8298 0.0000 26.2560 0.0000
# 6 0.0000 0.0000 0.0000 2.9037 0.0000 12.3999
#
#
#
# Elastic Compliance Matrix: (Units=1/GPa)
#
#
# Indices 1 2 3 4 5 6 
#
# 1 0.036223 -0.003469 0.003242 0.000000 -0.012367 0.000000
# 2 -0.003469 0.010573 -0.006017 0.000000 -0.003024 0.000000
# 3 0.003242 -0.006017 0.026265 0.000000 -0.003823 0.000000
# 4 0.000000 0.000000 0.000000 0.044602 0.000000 -0.010444
# 5 -0.012367 -0.003024 -0.003823 0.000000 0.045163 0.000000
# 6 0.000000 0.000000 0.000000 -0.010444 0.000000 0.083092
#
#
# Mechanical properties :
#
#
# Convention : Reuss Voigt Hill
#
# Bulk Modulus (GPa) = 16.50879 31.09426 23.80153
# Shear Modulus (GPa) = 17.94716 22.63774 20.29245
#
# Velocity S-wave (km/s) = 3.06145 3.43831 3.25534
# Velocity P-wave (km/s) = 4.59542 5.65693 5.15358
#
# Compressibility (1/GPa) = 0.06057379
#
# Stress axis : x y z
#
# Youngs Moduli (GPa) = 27.60678 94.58017 38.07318
#
# Poissons Ratio (x) = 0.32813 -0.12345
# Poissons Ratio (y) = 0.09578 0.22908
# Poissons Ratio (z) = -0.08951 0.56906
#
# Static dielectric constant tensor:
#      x y z
#    x 1.708820 0.000000 -0.004880 
#    y 0.000000 1.709410 0.000000 
#    z -0.004880 0.000000 1.685410 
# 
# From -- ./inp_files/85116.got.cif
#   From: 2010.05.17/outbox.cif.g08.bks.cpg/sg13_43_cif.got.tgz:85116.got - 2010.06.03 16:44:36.
