data_PCOD9237884
_publ_section_title
;
Structure prediction by ZEFSAII (Michael W. Deem and Ramdas Pophale) SiO2 
 PCOD9237884
Probable space group: P 2/C
;
_chemical_formula_sum "Si O2"
_cell_formula_units_Z 22
_cell_length_a 11.587506
_cell_length_b 4.995113
_cell_length_c 14.132359
_cell_angle_alpha 90.000000
_cell_angle_beta 90.467244
_cell_angle_gamma 90.000000
_cell_volume 817.966485
_symmetry_space_group_name_H-M "P 2/C"
_symmetry_group_IT_number 13
_symmetry_cell_setting 'monoclinic'
loop_
_space_group_symop_operation_xyz
x,y,z
-x,y,1/2-z
-x,-y,-z
x,-y,1/2+z
loop_
_atom_site_type_symbol
_atom_site_label
_atom_site_fract_x
_atom_site_fract_y
_atom_site_fract_z
Si Si1 0.810255 0.532085 0.929453
Si Si2 0.792642 0.707734 0.243655
Si Si3 0.602887 0.646479 0.054399
Si Si4 0.078791 0.348183 0.404276
Si Si5 0.604275 0.864455 0.679465
Si Si6 0.000000 0.032725 0.750000
O O1 0.753514 0.496217 0.825353
O O2 0.941571 0.647015 0.928093
O O3 0.711302 0.687883 0.986402
O O4 0.840287 0.292286 0.005373
O O5 0.862632 0.598485 0.151996
O O6 0.703666 0.945765 0.225174
O O7 0.904758 0.805742 0.305560
O O8 0.565260 0.928898 0.097179
O O9 0.636341 0.428187 0.137696
O O10 0.500000 0.500000 0.000000
O O11 0.076583 0.138282 0.320362
O O12 0.500000 0.823659 0.750000
#
# Coordination Sequence:
#
# PCOD9237884 Si02
#       6
#     4   4   4   4   4   2
#     4  11  23  44  72 104 146 198 246 315 373 448
#     4  12  24  45  68 107 147 200 250 309 381 454
#     4  12  27  50  77 112 150 193 262 316 380 453
#     4  11  23  44  64 104 150 189 250 303 375 454
#     4  12  28  51  77 109 152 201 251 319 384 453
#     4  12  22  40  70  98 150 194 252 300 380 450
#
# _framework density 26.895966000000001
#
# number of rings (size 3 to 8) (size 9 to 14) (size 15 to 20)
#    0.000    0.364    5.455    3.273    0.000    3.636 
#    0.000    0.000    0.000    0.000    0.000    0.000 
#    0.000    0.000    0.000    0.000    0.000    0.000 
#
# Total GULP energy -122791.494830 kJ/mol
# GULP energy per Si atom -5581.431583 kJ/mol
# Density = 2.683475 g / cm^3
# Si number density = 26.895966 Si / 1000 Ang^3
#
#
#
# Elastic Constant Matrix: (Units=GPa)
#
#
# Indices 1 2 3 4 5 6 
#
# 1 125.5857 1.9719 32.8707 0.0000 -35.7170 0.0000
# 2 1.9719 93.2347 3.5418 0.0000 -32.5571 0.0000
# 3 32.8707 3.5418 133.5191 0.0000 -18.4033 0.0000
# 4 0.0000 0.0000 0.0000 -114.1567 0.0000 39.3726
# 5 -35.7170 -32.5571 -18.4033 0.0000 60.5420 0.0000
# 6 0.0000 0.0000 0.0000 39.3726 0.0000 21.2308
#
#
#
# Elastic Compliance Matrix: (Units=1/GPa)
#
#
# Indices 1 2 3 4 5 6 
#
# 1 0.010281 0.002201 -0.001660 0.000000 0.006744 0.000000
# 2 0.002201 0.013732 0.000303 0.000000 0.008775 0.000000
# 3 -0.001660 0.000303 0.008118 0.000000 0.001652 0.000000
# 4 0.000000 0.000000 0.000000 -0.005343 0.000000 0.009908
# 5 0.006744 0.008775 0.001652 0.000000 0.025717 0.000000
# 6 0.000000 0.000000 0.000000 0.009908 0.000000 0.028727
#
#
# Mechanical properties :
#
#
# Convention : Reuss Voigt Hill
#
# Bulk Modulus (GPa) = 29.56961 47.67867 38.62414
# Shear Modulus (GPa) = 55.05659 14.45356 34.75507
#
# Velocity S-wave (km/s) = 4.52931 2.32068 3.59862
# Velocity P-wave (km/s) = 6.19442 4.99462 5.62659
#
# Compressibility (1/GPa) = 0.03381850
#
# Stress axis : x y z
#
# Youngs Moduli (GPa) = 97.27103 72.82425 123.18639
#
# Poissons Ratio (x) = -0.16025 0.20446
# Poissons Ratio (y) = -0.21405 -0.03738
# Poissons Ratio (z) = 0.16145 -0.02210
#
# Static dielectric constant tensor:
#      x y z
#    x 2.426430 0.000000 0.310840 
#    y 0.000000 2.199370 0.000000 
#    z 0.310840 0.000000 2.537670 
# 
# From -- ./inp_files/48869.got.cif
#   From: 2010.05.17/outbox.cif.g08.bks.cpg/sg13_25_cif.got.tgz:48869.got - 2010.06.03 16:44:36.
