data_PCOD9237215
_publ_section_title
;
Structure prediction by ZEFSAII (Michael W. Deem and Ramdas Pophale) SiO2 
 PCOD9237215
Probable space group: P 2/C
;
_chemical_formula_sum "Si O2"
_cell_formula_units_Z 26
_cell_length_a 16.355993
_cell_length_b 13.597731
_cell_length_c 9.675366
_cell_angle_alpha 90.000000
_cell_angle_beta 144.622617
_cell_angle_gamma 90.000000
_cell_volume 1245.830175
_symmetry_space_group_name_H-M "P 2/C"
_symmetry_group_IT_number 13
_symmetry_cell_setting 'monoclinic'
loop_
_space_group_symop_operation_xyz
x,y,z
-x,y,1/2-z
-x,-y,-z
x,-y,1/2+z
loop_
_atom_site_type_symbol
_atom_site_label
_atom_site_fract_x
_atom_site_fract_y
_atom_site_fract_z
Si Si1 0.000000 0.785935 0.750000
Si Si2 0.759522 0.376202 0.858629
Si Si3 0.333578 0.518077 0.996502
Si Si4 0.337918 0.965887 0.309073
Si Si5 0.814291 0.897153 0.679660
Si Si6 0.628600 0.733608 0.533825
Si Si7 0.463464 0.233066 0.048557
O O1 0.877170 0.708192 0.538415
O O2 0.965555 0.862352 0.828222
O O3 0.756546 0.438983 0.713237
O O4 0.741140 0.448590 0.963913
O O5 0.614749 0.315641 0.647251
O O6 0.500000 0.490818 0.250000
O O7 0.342524 0.618334 0.919246
O O8 0.366552 0.862582 0.425488
O O9 0.500000 0.000000 0.500000
O O10 0.236451 0.033579 0.263785
O O11 0.265899 0.941590 0.063877
O O12 0.755144 0.790578 0.638583
O O13 0.500000 0.751788 0.250000
O O14 0.599120 0.783675 0.640329
O O15 0.500000 0.267208 0.250000
#
# Coordination Sequence:
#
# PCOD9237215 Si02
#       7
#     2   4   4   4   4   4   4
#     4  12  26  50  66  86 146 198 226 268 324 426
#     4  12  25  43  66  96 134 181 226 274 344 407
#     4  11  22  40  70 104 129 170 225 296 355 403
#     4  12  22  40  71 106 129 168 222 290 345 401
#     4  12  24  43  67  97 136 184 227 266 339 406
#     4  11  18  40  65  94 143 177 209 278 355 400
#     4  12  23  38  66 107 141 166 218 292 352 400
#
# _framework density 20.869619
#
# number of rings (size 3 to 8) (size 9 to 14) (size 15 to 20)
#    0.000    0.308    9.231    2.308    2.154    1.231 
#    0.000    0.000    0.000    2.769    0.000    0.000 
#    0.000    0.000    0.000    0.000    0.000    0.000 
#
# Total GULP energy -144923.343008 kJ/mol
# GULP energy per Si atom -5573.974731 kJ/mol
# Density = 2.082212 g / cm^3
# Si number density = 20.869619 Si / 1000 Ang^3
#
#
#
# Elastic Constant Matrix: (Units=GPa)
#
#
# Indices 1 2 3 4 5 6 
#
# 1 124.0562 39.3755 38.2280 0.0000 -17.0815 0.0000
# 2 39.3755 96.5500 19.7623 0.0000 -7.5165 0.0000
# 3 38.2280 19.7623 57.6155 0.0000 -15.4742 0.0000
# 4 0.0000 0.0000 0.0000 33.1270 0.0000 -9.1840
# 5 -17.0815 -7.5165 -15.4742 0.0000 19.8025 0.0000
# 6 0.0000 0.0000 0.0000 -9.1840 0.0000 71.8832
#
#
#
# Elastic Compliance Matrix: (Units=1/GPa)
#
#
# Indices 1 2 3 4 5 6 
#
# 1 0.011291 -0.003193 -0.005197 0.000000 0.004467 0.000000
# 2 -0.003193 0.012081 -0.001941 0.000000 0.000315 0.000000
# 3 -0.005197 -0.001941 0.025399 0.000000 0.014628 0.000000
# 4 0.000000 0.000000 0.000000 0.031295 0.000000 0.003998
# 5 0.004467 0.000315 0.014628 0.000000 0.065902 0.000000
# 6 0.000000 0.000000 0.000000 0.003998 0.000000 0.014422
#
#
# Mechanical properties :
#
#
# Convention : Reuss Voigt Hill
#
# Bulk Modulus (GPa) = 35.57452 52.55037 44.06244
# Shear Modulus (GPa) = 26.25757 37.01961 31.63859
#
# Velocity S-wave (km/s) = 3.55092 4.21628 3.89782
# Velocity P-wave (km/s) = 5.82195 6.99555 6.43556
#
# Compressibility (1/GPa) = 0.02811001
#
# Stress axis : x y z
#
# Youngs Moduli (GPa) = 88.56829 82.77221 39.37192
#
# Poissons Ratio (x) = 0.26431 0.20460
# Poissons Ratio (y) = 0.28282 0.07641
# Poissons Ratio (z) = 0.46025 0.16063
#
# Static dielectric constant tensor:
#      x y z
#    x 1.886000 0.000000 0.025990 
#    y 0.000000 1.785860 0.000000 
#    z 0.025990 0.000000 1.745800 
# 
# From -- ./inp_files/19917.got.cif
#   From: 2010.05.17/outbox.cif.g08.bks.cpg/sg13_10_cif.got.tgz:19917.got - 2010.06.03 16:44:36.
