data_PCOD9237616
_publ_section_title
;
Structure prediction by ZEFSAII (Michael W. Deem and Ramdas Pophale) SiO2 
 PCOD9237616
Probable space group: P 2/C
;
_chemical_formula_sum "Si O2"
_cell_formula_units_Z 20
_cell_length_a 9.346339
_cell_length_b 19.791023
_cell_length_c 5.242030
_cell_angle_alpha 90.000000
_cell_angle_beta 78.491000
_cell_angle_gamma 90.000000
_cell_volume 950.141082
_symmetry_space_group_name_H-M "P 2/C"
_symmetry_group_IT_number 13
_symmetry_cell_setting 'monoclinic'
loop_
_space_group_symop_operation_xyz
x,y,z
-x,y,1/2-z
-x,-y,-z
x,-y,1/2+z
loop_
_atom_site_type_symbol
_atom_site_label
_atom_site_fract_x
_atom_site_fract_y
_atom_site_fract_z
Si Si1 0.663136 0.469703 0.908456
Si Si2 0.500000 0.119272 0.750000
Si Si3 0.500000 0.346626 0.750000
Si Si4 0.090771 0.177026 0.476445
Si Si5 0.634842 0.228603 0.383466
Si Si6 0.736945 0.955950 0.419297
O O1 0.735002 0.510765 0.650348
O O2 0.619532 0.393351 0.852646
O O3 0.500000 0.500000 0.000000
O O4 0.626276 0.168444 0.595096
O O5 0.426478 0.074047 0.558257
O O6 0.592609 0.298545 0.531587
O O7 0.220446 0.225671 0.334140
O O8 0.161037 0.107300 0.550937
O O9 0.000000 0.164362 0.250000
O O10 0.000000 0.204670 0.750000
O O11 0.500000 0.212490 0.250000
O O12 0.760642 0.009115 0.637187
#
# Coordination Sequence:
#
# PCOD9237616 Si02
#       6
#     4   2   2   4   4   4
#     4   8  15  28  46  80 129 162 181 234 305 342
#     4  11  22  42  60  96 124 147 192 256 320 363
#     4   9  20  30  58  90 120 159 208 244 284 357
#     4  12  27  47  63  85 124 161 196 252 317 368
#     4  11  23  39  65  87 120 160 205 249 298 360
#     4  12  25  41  67  91 114 150 196 251 311 381
#
# _framework density 21.049503999999999
#
# number of rings (size 3 to 8) (size 9 to 14) (size 15 to 20)
#    0.000    1.600    2.000    4.200    8.400    2.400 
#    0.000    0.000    0.000    0.000    0.000    0.000 
#    0.000   43.200    0.000    0.000    0.000    0.000 
#
# Total GULP energy -111625.593156 kJ/mol
# GULP energy per Si atom -5581.279658 kJ/mol
# Density = 2.100159 g / cm^3
# Si number density = 21.049504 Si / 1000 Ang^3
#
#
#
# Elastic Constant Matrix: (Units=GPa)
#
#
# Indices 1 2 3 4 5 6 
#
# 1 77.9065 29.3622 54.5232 0.0000 7.8489 0.0000
# 2 29.3622 98.1920 54.3198 0.0000 -3.4708 0.0000
# 3 54.5232 54.3198 177.0286 0.0000 5.6543 0.0000
# 4 0.0000 0.0000 0.0000 35.9628 0.0000 -2.8224
# 5 7.8489 -3.4708 5.6543 0.0000 41.2475 0.0000
# 6 0.0000 0.0000 0.0000 -2.8224 0.0000 -7.1750
#
#
#
# Elastic Compliance Matrix: (Units=1/GPa)
#
#
# Indices 1 2 3 4 5 6 
#
# 1 0.017246 -0.002859 -0.004341 0.000000 -0.002927 0.000000
# 2 -0.002859 0.012840 -0.003125 0.000000 0.002053 0.000000
# 3 -0.004341 -0.003125 0.007961 0.000000 -0.000528 0.000000
# 4 0.000000 0.000000 0.000000 0.026974 0.000000 -0.010610
# 5 -0.002927 0.002053 -0.000528 0.000000 0.025046 0.000000
# 6 0.000000 0.000000 0.000000 -0.010610 0.000000 -0.135199
#
#
# Mechanical properties :
#
#
# Convention : Reuss Voigt Hill
#
# Bulk Modulus (GPa) = 57.47732 69.94862 63.71297
# Shear Modulus (GPa) = -267.64774 28.33519 -119.65627
#
# Velocity S-wave (km/s) = -11.28838 3.67293 -7.54775
# Velocity P-wave (km/s) = 11.93894 7.16170 6.75457
#
# Compressibility (1/GPa) = 0.01739817
#
# Stress axis : x y z
#
# Youngs Moduli (GPa) = 57.98296 77.87917 125.60455
#
# Poissons Ratio (x) = 0.22268 0.54524
# Poissons Ratio (y) = 0.16579 0.39250
# Poissons Ratio (z) = 0.25170 0.24337
#
# Static dielectric constant tensor:
#      x y z
#    x 1.757120 0.000000 0.035520 
#    y 0.000000 1.794890 0.000000 
#    z 0.035520 0.000000 1.982090 
# 
# From -- ./inp_files/2042.got.cif
#   From: 2010.05.17/outbox.cif.g08.bks.cpg/sg13_2_cif.got.tgz:2042.got - 2010.06.03 16:44:36.
