data_PCOD9237125
_publ_section_title
;
Structure prediction by ZEFSAII (Michael W. Deem and Ramdas Pophale) SiO2 
 PCOD9237125
Probable space group: P 2/C
;
_chemical_formula_sum "Si O2"
_cell_formula_units_Z 16
_cell_length_a 6.220274
_cell_length_b 10.992932
_cell_length_c 10.445503
_cell_angle_alpha 90.000000
_cell_angle_beta 92.173384
_cell_angle_gamma 90.000000
_cell_volume 713.739758
_symmetry_space_group_name_H-M "P 2/C"
_symmetry_group_IT_number 13
_symmetry_cell_setting 'monoclinic'
loop_
_space_group_symop_operation_xyz
x,y,z
-x,y,1/2-z
-x,-y,-z
x,-y,1/2+z
loop_
_atom_site_type_symbol
_atom_site_label
_atom_site_fract_x
_atom_site_fract_y
_atom_site_fract_z
Si Si1 0.500000 0.505838 0.750000
Si Si2 0.634125 0.947372 0.121671
Si Si3 0.000000 0.900276 0.750000
Si Si4 0.173253 0.316169 0.863561
Si Si5 0.147034 0.663603 0.638331
O O1 0.335083 0.419619 0.820471
O O2 0.371122 0.594734 0.652409
O O3 0.500000 0.959079 0.250000
O O4 0.692100 0.806002 0.106423
O O5 0.855632 0.020348 0.152169
O O6 0.500000 0.000000 0.000000
O O7 0.152104 0.806285 0.675562
O O8 0.000000 0.291664 0.750000
O O9 0.057779 0.349897 0.994206
O O10 0.000000 0.611753 0.750000
#
# Coordination Sequence:
#
# PCOD9237125 Si02
#       5
#     2   4   2   4   4
#     4  12  26  48  74 110 144 196 256 294 372 440
#     4  12  27  46  77 111 148 194 246 307 375 446
#     4  10  26  48  74 108 146 190 248 304 372 434
#     4  12  27  47  75 110 150 193 247 309 368 435
#     4  10  27  47  75 102 147 196 243 304 362 438
#
# _framework density 22.417134999999998
#
# number of rings (size 3 to 8) (size 9 to 14) (size 15 to 20)
#    0.750    0.000    2.500    3.000    8.750    8.000 
#    0.000    0.000    0.000    0.000    0.000    0.000 
#    0.000    0.000    0.000    0.000    0.000    0.000 
#
# Total GULP energy -89494.829690 kJ/mol
# GULP energy per Si atom -5593.426856 kJ/mol
# Density = 2.236611 g / cm^3
# Si number density = 22.417135 Si / 1000 Ang^3
#
#
#
# Elastic Constant Matrix: (Units=GPa)
#
#
# Indices 1 2 3 4 5 6 
#
# 1 75.3293 50.2342 43.6073 0.0000 22.8846 0.0000
# 2 50.2342 133.3776 25.3542 0.0000 14.2080 0.0000
# 3 43.6073 25.3542 185.6404 0.0000 13.6069 0.0000
# 4 0.0000 0.0000 0.0000 7.2108 0.0000 26.3926
# 5 22.8846 14.2080 13.6069 0.0000 45.9902 0.0000
# 6 0.0000 0.0000 0.0000 26.3926 0.0000 52.7587
#
#
#
# Elastic Compliance Matrix: (Units=1/GPa)
#
#
# Indices 1 2 3 4 5 6 
#
# 1 0.022459 -0.006900 -0.003752 0.000000 -0.007934 0.000000
# 2 -0.006900 0.010024 0.000232 0.000000 0.000268 0.000000
# 3 -0.003752 0.000232 0.006240 0.000000 -0.000051 0.000000
# 4 0.000000 0.000000 0.000000 -0.166884 0.000000 0.083484
# 5 -0.007934 0.000268 -0.000051 0.000000 0.025624 0.000000
# 6 0.000000 0.000000 0.000000 0.083484 0.000000 -0.022809
#
#
# Mechanical properties :
#
#
# Convention : Reuss Voigt Hill
#
# Bulk Modulus (GPa) = 55.91943 70.30429 63.11186
# Shear Modulus (GPa) = -50.73759 39.53537 -5.60111
#
# Velocity S-wave (km/s) = -4.76262 4.20411 -1.58241
# Velocity P-wave (km/s) = 2.29004 7.41593 4.98757
#
# Compressibility (1/GPa) = 0.01788287
#
# Stress axis : x y z
#
# Youngs Moduli (GPa) = 44.52647 99.76388 160.25503
#
# Poissons Ratio (x) = 0.68840 0.60122
# Poissons Ratio (y) = 0.30725 -0.03722
# Poissons Ratio (z) = 0.16705 -0.02317
#
# Static dielectric constant tensor:
#      x y z
#    x 1.842420 0.000000 -0.027810 
#    y 0.000000 1.815440 0.000000 
#    z -0.027810 0.000000 1.848520 
# 
# From -- ./inp_files/25803.got.cif
#   From: 2010.05.17/outbox.cif.g08.bks.cpg/sg13_13_cif.got.tgz:25803.got - 2010.06.03 16:44:36.
