data_PCOD9237332
_publ_section_title
;
Structure prediction by ZEFSAII (Michael W. Deem and Ramdas Pophale) SiO2 
 PCOD9237332
Probable space group: P 2/C
;
_chemical_formula_sum "Si O2"
_cell_formula_units_Z 24
_cell_length_a 13.957482
_cell_length_b 9.387271
_cell_length_c 17.021929
_cell_angle_alpha 90.000000
_cell_angle_beta 32.163927
_cell_angle_gamma 90.000000
_cell_volume 1187.263433
_symmetry_space_group_name_H-M "P 2/C"
_symmetry_group_IT_number 13
_symmetry_cell_setting 'monoclinic'
loop_
_space_group_symop_operation_xyz
x,y,z
-x,y,1/2-z
-x,-y,-z
x,-y,1/2+z
loop_
_atom_site_type_symbol
_atom_site_label
_atom_site_fract_x
_atom_site_fract_y
_atom_site_fract_z
Si Si1 0.058173 0.149902 0.418352
Si Si2 0.464732 0.031321 0.433482
Si Si3 0.655479 0.199449 0.707357
Si Si4 0.189674 0.815020 0.652931
Si Si5 0.414268 0.703765 0.726040
Si Si6 0.505914 0.581095 0.077827
O O1 0.157335 0.138881 0.265524
O O2 0.202825 0.249389 0.365529
O O3 0.860154 0.215224 0.538166
O O4 0.000000 0.000000 0.500000
O O5 0.605503 0.956729 0.276139
O O6 0.279594 0.948721 0.545695
O O7 0.500000 0.000000 0.500000
O O8 0.477053 0.197078 0.410479
O O9 0.500000 0.233079 0.750000
O O10 0.636145 0.299132 0.797496
O O11 0.315785 0.678359 0.551901
O O12 0.000000 0.779332 0.750000
O O13 0.500000 0.739039 0.750000
O O14 0.465859 0.542374 0.669085
O O15 0.500000 0.500000 0.000000
#
# Coordination Sequence:
#
# PCOD9237332 Si02
#       6
#     4   4   4   4   4   4
#     4  12  23  40  67 102 129 165 223 275 322 393
#     4  11  20  42  66  94 129 170 212 270 334 387
#     4  11  23  41  69  93 125 172 219 268 328 397
#     4  11  24  42  71  95 127 175 228 265 326 405
#     4  12  25  41  65  98 137 173 214 277 338 379
#     4  11  23  47  65  89 131 175 218 268 332 392
#
# _framework density 20.214552999999999
#
# number of rings (size 3 to 8) (size 9 to 14) (size 15 to 20)
#    0.000    0.667    5.000    4.000    2.333    0.667 
#    3.000    0.833    0.000    0.000    0.000    0.000 
#    0.000    0.000    0.000    0.000    0.000    0.000 
#
# Total GULP energy -133710.648970 kJ/mol
# GULP energy per Si atom -5571.277040 kJ/mol
# Density = 2.016854 g / cm^3
# Si number density = 20.214553 Si / 1000 Ang^3
#
#
#
# Elastic Constant Matrix: (Units=GPa)
#
#
# Indices 1 2 3 4 5 6 
#
# 1 73.6416 0.9484 35.8706 0.0000 -8.4507 0.0000
# 2 0.9484 93.0007 26.5326 0.0000 -14.7472 0.0000
# 3 35.8706 26.5326 141.4524 0.0000 -29.5910 0.0000
# 4 0.0000 0.0000 0.0000 42.6860 0.0000 15.4301
# 5 -8.4507 -14.7472 -29.5910 0.0000 37.8072 0.0000
# 6 0.0000 0.0000 0.0000 15.4301 0.0000 25.4178
#
#
#
# Elastic Compliance Matrix: (Units=1/GPa)
#
#
# Indices 1 2 3 4 5 6 
#
# 1 0.015604 0.001107 -0.003999 0.000000 0.000789 0.000000
# 2 0.001107 0.011795 -0.001769 0.000000 0.003464 0.000000
# 3 -0.003999 -0.001769 0.009667 0.000000 0.005982 0.000000
# 4 0.000000 0.000000 0.000000 0.030013 0.000000 -0.018220
# 5 0.000789 0.003464 0.005982 0.000000 0.032660 0.000000
# 6 0.000000 0.000000 0.000000 -0.018220 0.000000 0.050403
#
#
# Mechanical properties :
#
#
# Convention : Reuss Voigt Hill
#
# Bulk Modulus (GPa) = 36.04382 48.31087 42.17734
# Shear Modulus (GPa) = 29.63643 37.49840 33.56742
#
# Velocity S-wave (km/s) = 3.83311 4.31167 4.07941
# Velocity P-wave (km/s) = 6.12043 6.98128 6.56498
#
# Compressibility (1/GPa) = 0.02774401
#
# Stress axis : x y z
#
# Youngs Moduli (GPa) = 64.08724 84.78038 103.44552
#
# Poissons Ratio (x) = -0.09386 0.41373
# Poissons Ratio (y) = -0.07095 0.18295
# Poissons Ratio (z) = 0.25631 0.14994
#
# Static dielectric constant tensor:
#      x y z
#    x 1.797520 0.000000 0.007880 
#    y 0.000000 1.767780 0.000000 
#    z 0.007880 0.000000 1.752380 
# 
# From -- ./inp_files/68102.got.cif
#   From: 2010.05.17/outbox.cif.g08.bks.cpg/sg13_35_cif.got.tgz:68102.got - 2010.06.03 16:44:36.
