data_PCOD9237812
_publ_section_title
;
Structure prediction by ZEFSAII (Michael W. Deem and Ramdas Pophale) SiO2 
 PCOD9237812
Probable space group: P 2/C
;
_chemical_formula_sum "Si O2"
_cell_formula_units_Z 22
_cell_length_a 7.543311
_cell_length_b 15.882179
_cell_length_c 8.885168
_cell_angle_alpha 90.000000
_cell_angle_beta 100.873708
_cell_angle_gamma 90.000000
_cell_volume 1045.368240
_symmetry_space_group_name_H-M "P 2/C"
_symmetry_group_IT_number 13
_symmetry_cell_setting 'monoclinic'
loop_
_space_group_symop_operation_xyz
x,y,z
-x,y,1/2-z
-x,-y,-z
x,-y,1/2+z
loop_
_atom_site_type_symbol
_atom_site_label
_atom_site_fract_x
_atom_site_fract_y
_atom_site_fract_z
Si Si1 0.500000 0.699113 0.750000
Si Si2 0.454582 0.596617 0.022619
Si Si3 0.150928 0.177217 0.509206
Si Si4 0.761822 0.832826 0.827894
Si Si5 0.633763 0.981421 0.385428
Si Si6 0.790832 0.335766 0.771803
O O1 0.592923 0.640031 0.643080
O O2 0.621064 0.764781 0.861251
O O3 0.283171 0.604600 0.105552
O O4 0.632811 0.643355 0.123603
O O5 0.500000 0.500000 0.000000
O O6 0.215847 0.188651 0.346029
O O7 0.207135 0.082194 0.556279
O O8 0.215103 0.243944 0.644967
O O9 0.937508 0.180827 0.455194
O O10 0.701317 0.929374 0.833004
O O11 0.500000 0.935579 0.250000
O O12 0.500000 0.000000 0.500000
O O13 0.000000 0.348227 0.750000
#
# Coordination Sequence:
#
# PCOD9237812 Si02
#       6
#     2   4   4   4   4   4
#     4  12  20  44  74  96 140 186 228 296 362 434
#     4  11  26  47  75 109 145 182 233 295 365 438
#     4  11  24  43  66 100 141 182 238 293 349 421
#     4  11  23  42  66 100 139 183 237 294 356 411
#     4  12  24  41  65  97 138 191 241 293 356 414
#     4  11  25  48  73 111 143 188 242 287 358 431
#
# _framework density 21.045216
#
# number of rings (size 3 to 8) (size 9 to 14) (size 15 to 20)
#    0.000    0.727    4.545    2.727    2.545    2.182 
#    3.273    1.818    0.000    0.000    0.000    0.000 
#    0.000    0.000    0.000    0.000    0.000    0.000 
#
# Total GULP energy -122644.086265 kJ/mol
# GULP energy per Si atom -5574.731194 kJ/mol
# Density = 2.099732 g / cm^3
# Si number density = 21.045216 Si / 1000 Ang^3
#
#
#
# Elastic Constant Matrix: (Units=GPa)
#
#
# Indices 1 2 3 4 5 6 
#
# 1 113.7303 49.8924 26.2768 0.0000 -3.8360 0.0000
# 2 49.8924 157.0455 36.1769 0.0000 4.0515 0.0000
# 3 26.2768 36.1769 74.8212 0.0000 5.0624 0.0000
# 4 0.0000 0.0000 0.0000 26.7081 0.0000 -15.5306
# 5 -3.8360 4.0515 5.0624 0.0000 27.3875 0.0000
# 6 0.0000 0.0000 0.0000 -15.5306 0.0000 -14.9415
#
#
#
# Elastic Compliance Matrix: (Units=1/GPa)
#
#
# Indices 1 2 3 4 5 6 
#
# 1 0.010725 -0.002885 -0.002534 0.000000 0.002397 0.000000
# 2 -0.002885 0.007947 -0.002757 0.000000 -0.001070 0.000000
# 3 -0.002534 -0.002757 0.015782 0.000000 -0.002864 0.000000
# 4 0.000000 0.000000 0.000000 0.023337 0.000000 -0.024257
# 5 0.002397 -0.001070 -0.002864 0.000000 0.037537 0.000000
# 6 0.000000 0.000000 0.000000 -0.024257 0.000000 -0.041715
#
#
# Mechanical properties :
#
#
# Convention : Reuss Voigt Hill
#
# Bulk Modulus (GPa) = 55.24240 63.36547 59.30394
# Shear Modulus (GPa) = 65.79183 23.38087 44.58635
#
# Velocity S-wave (km/s) = 5.59732 3.33676 4.60782
# Velocity P-wave (km/s) = 8.25104 6.70968 7.51996
#
# Compressibility (1/GPa) = 0.01810204
#
# Stress axis : x y z
#
# Youngs Moduli (GPa) = 93.24222 125.83529 63.36475
#
# Poissons Ratio (x) = 0.36309 0.16054
# Poissons Ratio (y) = 0.26904 0.17468
# Poissons Ratio (z) = 0.23623 0.34689
#
# Static dielectric constant tensor:
#      x y z
#    x 1.832490 0.000000 0.039020 
#    y 0.000000 1.701460 0.000000 
#    z 0.039020 0.000000 1.861730 
# 
# From -- ./inp_files/12546.got.cif
#   From: 2010.05.17/outbox.cif.g08.bks.cpg/sg13_7_cif.got.tgz:12546.got - 2010.06.03 16:44:36.
