data_PCOD9237162
_publ_section_title
;
Structure prediction by ZEFSAII (Michael W. Deem and Ramdas Pophale) SiO2 
 PCOD9237162
Probable space group: P 2/C
;
_chemical_formula_sum "Si O2"
_cell_formula_units_Z 14
_cell_length_a 8.598599
_cell_length_b 10.746279
_cell_length_c 8.624130
_cell_angle_alpha 90.000000
_cell_angle_beta 46.937576
_cell_angle_gamma 90.000000
_cell_volume 582.219637
_symmetry_space_group_name_H-M "P 2/C"
_symmetry_group_IT_number 13
_symmetry_cell_setting 'monoclinic'
loop_
_space_group_symop_operation_xyz
x,y,z
-x,y,1/2-z
-x,-y,-z
x,-y,1/2+z
loop_
_atom_site_type_symbol
_atom_site_label
_atom_site_fract_x
_atom_site_fract_y
_atom_site_fract_z
Si Si1 0.155146 0.525473 0.753418
Si Si2 0.000000 0.933518 0.750000
Si Si3 0.693341 0.909473 0.222744
Si Si4 0.559141 0.694416 0.541205
O O1 0.359719 0.605070 0.649454
O O2 0.239378 0.398981 0.613127
O O3 0.000000 0.601726 0.750000
O O4 0.000000 0.500000 0.000000
O O5 0.137556 0.867712 0.523261
O O6 0.170557 0.012003 0.741631
O O7 0.500000 0.966778 0.250000
O O8 0.591112 0.797800 0.389826
O O9 0.500000 0.748082 0.750000
#
# Coordination Sequence:
#
# PCOD9237162 Si02
#       4
#     4   2   4   4
#     4  11  24  44  70  97 149 190 232 289 352 428
#     4  10  26  52  76 104 140 196 236 302 372 418
#     4  11  26  47  77 106 145 183 245 299 359 434
#     4  11  26  44  68 110 140 188 239 292 355 430
#
# _framework density 24.045909000000002
#
# number of rings (size 3 to 8) (size 9 to 14) (size 15 to 20)
#    0.000    1.143    2.857    0.857    6.000    8.000 
#    0.000    0.000    0.000    0.000    0.000    0.000 
#    0.000    0.000    0.000    0.000    0.000    0.000 
#
# Total GULP energy -78108.180240 kJ/mol
# GULP energy per Si atom -5579.155731 kJ/mol
# Density = 2.399118 g / cm^3
# Si number density = 24.045909 Si / 1000 Ang^3
#
#
#
# Elastic Constant Matrix: (Units=GPa)
#
#
# Indices 1 2 3 4 5 6 
#
# 1 161.7771 43.3347 62.9526 0.0000 -5.6306 0.0000
# 2 43.3347 87.3812 75.6636 0.0000 10.2359 0.0000
# 3 62.9526 75.6636 282.2291 0.0000 21.9404 0.0000
# 4 0.0000 0.0000 0.0000 19.9291 0.0000 7.4876
# 5 -5.6306 10.2359 21.9404 0.0000 54.8295 0.0000
# 6 0.0000 0.0000 0.0000 7.4876 0.0000 -7.8994
#
#
#
# Elastic Compliance Matrix: (Units=1/GPa)
#
#
# Indices 1 2 3 4 5 6 
#
# 1 0.007437 -0.003044 -0.000977 0.000000 0.001723 0.000000
# 2 -0.003044 0.016230 -0.003522 0.000000 -0.001933 0.000000
# 3 -0.000977 -0.003522 0.004812 0.000000 -0.001368 0.000000
# 4 0.000000 0.000000 0.000000 0.037001 0.000000 0.035072
# 5 0.001723 -0.001933 -0.001368 0.000000 0.019324 0.000000
# 6 0.000000 0.000000 0.000000 0.035072 0.000000 -0.093348
#
#
# Mechanical properties :
#
#
# Convention : Reuss Voigt Hill
#
# Bulk Modulus (GPa) = 74.66638 99.47658 87.07148
# Shear Modulus (GPa) = 454.37835 36.66761 245.52298
#
# Velocity S-wave (km/s) = 13.76129 3.90923 10.11571
# Velocity P-wave (km/s) = 16.84092 7.86355 13.14252
#
# Compressibility (1/GPa) = 0.01339291
#
# Stress axis : x y z
#
# Youngs Moduli (GPa) = 134.46661 61.61496 207.83185
#
# Poissons Ratio (x) = 0.18757 0.20297
# Poissons Ratio (y) = 0.40935 0.73194
# Poissons Ratio (z) = 0.13132 0.21699
#
# Static dielectric constant tensor:
#      x y z
#    x 1.924460 0.000000 -0.042190 
#    y 0.000000 1.988920 0.000000 
#    z -0.042190 0.000000 1.829760 
# 
# From -- ./inp_files/11442.got.cif
#   From: 2010.05.17/outbox.cif.g08.bks.cpg/sg13_6_cif.got.tgz:11442.got - 2010.06.03 16:44:36.
