data_PCOD9237595
_publ_section_title
;
Structure prediction by ZEFSAII (Michael W. Deem and Ramdas Pophale) SiO2 
 PCOD9237595
Probable space group: P 2/C
;
_chemical_formula_sum "Si O2"
_cell_formula_units_Z 24
_cell_length_a 8.583017
_cell_length_b 8.588829
_cell_length_c 27.262391
_cell_angle_alpha 90.000000
_cell_angle_beta 36.739735
_cell_angle_gamma 90.000000
_cell_volume 1202.182812
_symmetry_space_group_name_H-M "P 2/C"
_symmetry_group_IT_number 13
_symmetry_cell_setting 'monoclinic'
loop_
_space_group_symop_operation_xyz
x,y,z
-x,y,1/2-z
-x,-y,-z
x,-y,1/2+z
loop_
_atom_site_type_symbol
_atom_site_label
_atom_site_fract_x
_atom_site_fract_y
_atom_site_fract_z
Si Si1 0.762163 0.151286 0.167305
Si Si2 0.292010 0.387444 0.578456
Si Si3 0.857302 0.745272 0.531006
Si Si4 0.278407 0.524563 0.768113
Si Si5 0.398679 0.413572 0.905497
Si Si6 0.749640 0.931140 0.465205
O O1 0.500000 0.062093 0.250000
O O2 0.775843 0.220520 0.108194
O O3 0.755588 0.294736 0.207430
O O4 0.012602 0.043808 0.107221
O O5 0.500000 0.500000 0.500000
O O6 0.434894 0.342475 0.592630
O O7 0.224814 0.238005 0.564197
O O8 0.015277 0.466927 0.655781
O O9 0.734744 0.578747 0.545970
O O10 0.762537 0.886825 0.520120
O O11 0.167145 0.706440 0.450092
O O12 0.500000 0.464246 0.750000
O O13 0.402647 0.470745 0.686005
O O14 0.500000 0.000000 0.500000
#
# Coordination Sequence:
#
# PCOD9237595 Si02
#       6
#     4   4   4   4   4   4
#     4  11  24  44  67 102 136 180 227 280 350 417
#     4  12  24  41  67  99 136 177 228 286 337 405
#     4  11  22  43  70 100 131 179 229 282 337 412
#     4  11  22  42  69 100 133 173 233 285 341 401
#     4  11  22  40  72 101 127 172 234 287 334 388
#     4  12  26  43  66  98 140 183 224 277 346 420
#
# _framework density 19.963685999999999
#
# number of rings (size 3 to 8) (size 9 to 14) (size 15 to 20)
#    0.000    0.667    5.000    5.000    0.000    2.000 
#    0.000    2.500    0.000    0.000    0.000    0.000 
#    0.000    0.000    0.000    0.000    0.000    0.000 
#
# Total GULP energy -133814.547640 kJ/mol
# GULP energy per Si atom -5575.606152 kJ/mol
# Density = 1.991825 g / cm^3
# Si number density = 19.963686 Si / 1000 Ang^3
#
#
#
# Elastic Constant Matrix: (Units=GPa)
#
#
# Indices 1 2 3 4 5 6 
#
# 1 85.7441 22.5726 50.4621 0.0000 -5.5025 0.0000
# 2 22.5726 43.9134 33.5484 0.0000 3.5377 0.0000
# 3 50.4621 33.5484 144.0155 0.0000 -10.7073 0.0000
# 4 0.0000 0.0000 0.0000 9.4877 0.0000 -4.2981
# 5 -5.5025 3.5377 -10.7073 0.0000 43.2228 0.0000
# 6 0.0000 0.0000 0.0000 -4.2981 0.0000 41.0346
#
#
#
# Elastic Compliance Matrix: (Units=1/GPa)
#
#
# Indices 1 2 3 4 5 6 
#
# 1 0.015500 -0.004867 -0.004198 0.000000 0.001332 0.000000
# 2 -0.004867 0.029905 -0.005592 0.000000 -0.004452 0.000000
# 3 -0.004198 -0.005592 0.009894 0.000000 0.002374 0.000000
# 4 0.000000 0.000000 0.000000 0.110650 0.000000 0.011590
# 5 0.001332 -0.004452 0.002374 0.000000 0.024258 0.000000
# 6 0.000000 0.000000 0.000000 0.011590 0.000000 0.025584
#
#
# Mechanical properties :
#
#
# Convention : Reuss Voigt Hill
#
# Bulk Modulus (GPa) = 38.48561 54.09323 46.28942
# Shear Modulus (GPa) = 19.70311 29.88835 24.79573
#
# Velocity S-wave (km/s) = 3.14498 3.87348 3.52808
# Velocity P-wave (km/s) = 5.70154 6.86730 6.31139
#
# Compressibility (1/GPa) = 0.02598374
#
# Stress axis : x y z
#
# Youngs Moduli (GPa) = 64.51521 33.43952 101.07247
#
# Poissons Ratio (x) = 0.16276 0.42433
# Poissons Ratio (y) = 0.31402 0.56518
# Poissons Ratio (z) = 0.27085 0.18699
#
# Static dielectric constant tensor:
#      x y z
#    x 1.723860 0.000000 0.097450 
#    y 0.000000 1.954680 0.000000 
#    z 0.097450 0.000000 1.845780 
# 
# From -- ./inp_files/95898.got.cif
#   From: 2010.05.17/outbox.cif.g08.bks.cpg/sg13_48_cif.got.tgz:95898.got - 2010.06.03 16:44:36.
