data_PCOD9237828
_publ_section_title
;
Structure prediction by ZEFSAII (Michael W. Deem and Ramdas Pophale) SiO2 
 PCOD9237828
Probable space group: P 2/C
;
_chemical_formula_sum "Si O2"
_cell_formula_units_Z 28
_cell_length_a 14.525426
_cell_length_b 9.860273
_cell_length_c 18.918575
_cell_angle_alpha 90.000000
_cell_angle_beta 28.317944
_cell_angle_gamma 90.000000
_cell_volume 1285.339641
_symmetry_space_group_name_H-M "P 2/C"
_symmetry_group_IT_number 13
_symmetry_cell_setting 'monoclinic'
loop_
_space_group_symop_operation_xyz
x,y,z
-x,y,1/2-z
-x,-y,-z
x,-y,1/2+z
loop_
_atom_site_type_symbol
_atom_site_label
_atom_site_fract_x
_atom_site_fract_y
_atom_site_fract_z
Si Si1 0.797790 0.191146 0.218502
Si Si2 0.400812 0.666512 0.144145
Si Si3 0.130149 0.256868 0.591091
Si Si4 0.825340 0.030136 0.505962
Si Si5 0.984734 0.642254 0.471409
Si Si6 0.537993 0.378077 0.051015
Si Si7 0.562738 0.052801 0.823589
O O1 0.671463 0.318332 0.330776
O O2 0.646056 0.067706 0.315472
O O3 0.859369 0.250632 0.100280
O O4 0.995242 0.135974 0.120627
O O5 0.515871 0.532879 0.091331
O O6 0.483510 0.815510 0.097548
O O7 0.206059 0.686359 0.319429
O O8 0.347765 0.630669 0.099618
O O9 0.088206 0.368750 0.559551
O O10 0.350153 0.285411 0.468350
O O11 0.000000 0.259035 0.750000
O O12 0.094229 0.117792 0.571757
O O13 0.728520 0.050698 0.649017
O O14 0.640606 0.037909 0.579318
O O15 0.000000 0.500000 0.500000
#
# Coordination Sequence:
#
# PCOD9237828 Si02
#       7
#     4   4   4   4   4   4   4
#     4  12  23  43  72 103 138 183 239 300 351 439
#     4  11  24  47  67 103 142 188 230 296 369 420
#     4  12  25  45  71 103 142 189 244 300 365 438
#     4  11  24  40  69 106 136 184 237 290 363 429
#     4  12  24  43  72 104 139 190 241 294 362 433
#     4  11  26  45  71 100 145 187 237 294 364 435
#     4  11  23  42  69 100 143 178 238 294 351 430
#
# _framework density 21.784126000000001
#
# number of rings (size 3 to 8) (size 9 to 14) (size 15 to 20)
#    0.000    0.571    7.143    1.286    0.000    3.429 
#    0.000    0.000    0.000    0.000    0.000    0.000 
#    0.000    0.000    0.000    0.000    0.000    0.000 
#
# Total GULP energy -155970.108434 kJ/mol
# GULP energy per Si atom -5570.361016 kJ/mol
# Density = 2.173454 g / cm^3
# Si number density = 21.784126 Si / 1000 Ang^3
#
#
#
# Elastic Constant Matrix: (Units=GPa)
#
#
# Indices 1 2 3 4 5 6 
#
# 1 57.7581 42.9199 25.7279 0.0000 0.0650 0.0000
# 2 42.9199 121.4547 35.8699 0.0000 -0.3612 0.0000
# 3 25.7279 35.8699 67.9880 0.0000 -2.6774 0.0000
# 4 0.0000 0.0000 0.0000 27.8503 0.0000 4.8073
# 5 0.0650 -0.3612 -2.6774 0.0000 19.2074 0.0000
# 6 0.0000 0.0000 0.0000 4.8073 0.0000 30.9829
#
#
#
# Elastic Compliance Matrix: (Units=1/GPa)
#
#
# Indices 1 2 3 4 5 6 
#
# 1 0.025258 -0.007219 -0.005790 0.000000 -0.001028 0.000000
# 2 -0.007219 0.011822 -0.003515 0.000000 -0.000243 0.000000
# 3 -0.005790 -0.003515 0.018856 0.000000 0.002582 0.000000
# 4 0.000000 0.000000 0.000000 0.036894 0.000000 -0.005724
# 5 -0.001028 -0.000243 0.002582 0.000000 0.052422 0.000000
# 6 0.000000 0.000000 0.000000 -0.005724 0.000000 0.033164
#
#
# Mechanical properties :
#
#
# Convention : Reuss Voigt Hill
#
# Bulk Modulus (GPa) = 43.69096 50.69291 47.19194
# Shear Modulus (GPa) = 22.82132 25.12033 23.97082
#
# Velocity S-wave (km/s) = 3.24020 3.39949 3.32080
# Velocity P-wave (km/s) = 5.83938 6.22333 6.03441
#
# Compressibility (1/GPa) = 0.02288803
#
# Stress axis : x y z
#
# Youngs Moduli (GPa) = 39.59112 84.58881 53.03434
#
# Poissons Ratio (x) = 0.61063 0.30707
# Poissons Ratio (y) = 0.28580 0.18641
# Poissons Ratio (z) = 0.22924 0.29733
#
# Static dielectric constant tensor:
#      x y z
#    x 1.877980 0.000000 -0.050120 
#    y 0.000000 2.140190 0.000000 
#    z -0.050120 0.000000 1.855770 
# 
# From -- ./inp_files/79919.got.cif
#   From: 2010.05.17/outbox.cif.g08.bks.cpg/sg13_40_cif.got.tgz:79919.got - 2010.06.03 16:44:36.
