data_PCOD9237083
_publ_section_title
;
Structure prediction by ZEFSAII (Michael W. Deem and Ramdas Pophale) SiO2 
 PCOD9237083
Probable space group: P 2/C
;
_chemical_formula_sum "Si O2"
_cell_formula_units_Z 14
_cell_length_a 18.935554
_cell_length_b 5.073619
_cell_length_c 25.175618
_cell_angle_alpha 90.000000
_cell_angle_beta 15.191141
_cell_angle_gamma 90.000000
_cell_volume 633.787313
_symmetry_space_group_name_H-M "P 2/C"
_symmetry_group_IT_number 13
_symmetry_cell_setting 'monoclinic'
loop_
_space_group_symop_operation_xyz
x,y,z
-x,y,1/2-z
-x,-y,-z
x,-y,1/2+z
loop_
_atom_site_type_symbol
_atom_site_label
_atom_site_fract_x
_atom_site_fract_y
_atom_site_fract_z
Si Si1 0.258132 0.817112 0.316767
Si Si2 0.547713 0.249947 0.501620
Si Si3 0.519535 0.678260 0.671787
Si Si4 0.000000 0.571086 0.750000
O O1 0.325205 0.751719 0.208030
O O2 0.289598 0.537474 0.322878
O O3 0.468903 0.022415 0.189956
O O4 0.000000 0.000000 0.500000
O O5 0.500000 0.500000 0.500000
O O6 0.824018 0.266899 0.334762
O O7 0.500000 0.000000 0.500000
O O8 0.500000 0.676553 0.750000
O O9 0.782968 0.585077 0.445499
#
# Coordination Sequence:
#
# PCOD9237083 Si02
#       4
#     4   4   4   2
#     4  11  25  44  68 104 142 176 246 296 356 447
#     4  11  25  43  71 101 136 190 228 294 366 412
#     4  11  25  44  71 102 138 193 227 302 373 412
#     4  10  26  46  70 104 146 176 256 290 348 458
#
# _framework density 22.089428999999999
#
# number of rings (size 3 to 8) (size 9 to 14) (size 15 to 20)
#    0.000    1.143    0.000    5.143    8.000   10.286 
#    0.000    0.000    0.000    0.000    0.000    0.000 
#    0.000    0.000    0.000    0.000    0.000    0.000 
#
# Total GULP energy -78102.030784 kJ/mol
# GULP energy per Si atom -5578.716485 kJ/mol
# Density = 2.203915 g / cm^3
# Si number density = 22.089429 Si / 1000 Ang^3
#
#
#
# Elastic Constant Matrix: (Units=GPa)
#
#
# Indices 1 2 3 4 5 6 
#
# 1 206.6838 80.0954 41.2809 0.0000 24.4867 0.0000
# 2 80.0954 151.4292 1.5740 0.0000 2.4947 0.0000
# 3 41.2809 1.5740 81.4674 0.0000 3.2840 0.0000
# 4 0.0000 0.0000 0.0000 27.0625 0.0000 6.7295
# 5 24.4867 2.4947 3.2840 0.0000 38.3545 0.0000
# 6 0.0000 0.0000 0.0000 6.7295 0.0000 55.2307
#
#
#
# Elastic Compliance Matrix: (Units=1/GPa)
#
#
# Indices 1 2 3 4 5 6 
#
# 1 0.007572 -0.003897 -0.003589 0.000000 -0.004273 0.000000
# 2 -0.003897 0.008618 0.001737 0.000000 0.001779 0.000000
# 3 -0.003589 0.001737 0.014021 0.000000 0.000978 0.000000
# 4 0.000000 0.000000 0.000000 0.038106 0.000000 -0.004643
# 5 -0.004273 0.001779 0.000978 0.000000 0.028601 0.000000
# 6 0.000000 0.000000 0.000000 -0.004643 0.000000 0.018672
#
#
# Mechanical properties :
#
#
# Convention : Reuss Voigt Hill
#
# Bulk Modulus (GPa) = 53.44611 76.16455 64.80533
# Shear Modulus (GPa) = 37.50227 45.23821 41.37024
#
# Velocity S-wave (km/s) = 4.12484 4.53035 4.33234
# Velocity P-wave (km/s) = 6.85081 7.86895 7.37746
#
# Compressibility (1/GPa) = 0.01871044
#
# Stress axis : x y z
#
# Youngs Moduli (GPa) = 132.07078 116.03979 71.32381
#
# Poissons Ratio (x) = 0.45223 0.25599
# Poissons Ratio (y) = 0.51471 -0.12386
# Poissons Ratio (z) = 0.47402 -0.20151
#
# Static dielectric constant tensor:
#      x y z
#    x -0.407000 0.000000 0.870020 
#    y 0.000000 1.680210 0.000000 
#    z 0.870020 0.000000 1.536370 
# 
# From -- ./inp_files/27113.got.cif
#   From: 2010.05.17/outbox.cif.g08.bks.cpg/sg13_14_cif.got.tgz:27113.got - 2010.06.03 16:44:36.
