data_PCOD9237134
_publ_section_title
;
Structure prediction by ZEFSAII (Michael W. Deem and Ramdas Pophale) SiO2 
 PCOD9237134
Probable space group: P 2/C
;
_chemical_formula_sum "Si O2"
_cell_formula_units_Z 18
_cell_length_a 15.580102
_cell_length_b 5.082159
_cell_length_c 15.064950
_cell_angle_alpha 90.000000
_cell_angle_beta 40.803014
_cell_angle_gamma 90.000000
_cell_volume 779.480993
_symmetry_space_group_name_H-M "P 2/C"
_symmetry_group_IT_number 13
_symmetry_cell_setting 'monoclinic'
loop_
_space_group_symop_operation_xyz
x,y,z
-x,y,1/2-z
-x,-y,-z
x,-y,1/2+z
loop_
_atom_site_type_symbol
_atom_site_label
_atom_site_fract_x
_atom_site_fract_y
_atom_site_fract_z
Si Si1 0.746665 0.280600 0.509818
Si Si2 0.500000 0.588502 0.750000
Si Si3 0.999814 0.899119 0.900866
Si Si4 0.848932 0.608543 0.281647
Si Si5 0.406554 0.114042 0.497548
O O1 0.629290 0.410154 0.656107
O O2 0.833113 0.503597 0.393915
O O3 0.850052 0.126249 0.487216
O O4 0.679394 0.110028 0.484708
O O5 0.518962 0.751823 0.644262
O O6 0.079659 0.625347 0.827569
O O7 0.071694 0.123523 0.788504
O O8 0.000000 0.000000 0.000000
O O9 0.697865 0.683499 0.376676
O O10 0.500000 0.000000 0.500000
#
# Coordination Sequence:
#
# PCOD9237134 Si02
#       5
#     4   2   4   4   4
#     4  11  26  48  79 110 159 204 260 327 386 475
#     4  10  26  48  80 120 152 212 268 322 404 466
#     4  12  28  48  78 116 155 200 261 326 389 468
#     4  11  26  49  78 111 151 205 258 316 397 459
#     4  11  26  50  80 112 161 208 262 330 391 477
#
# _framework density 23.092286000000001
#
# number of rings (size 3 to 8) (size 9 to 14) (size 15 to 20)
#    0.000    0.889    2.222    2.000    9.333    8.889 
#    4.000    0.000    0.000    0.000    0.000    0.000 
#    0.000    0.000    0.000    0.000    0.000    0.000 
#
# Total GULP energy -100801.596654 kJ/mol
# GULP energy per Si atom -5600.088703 kJ/mol
# Density = 2.303973 g / cm^3
# Si number density = 23.092286 Si / 1000 Ang^3
#
#
#
# Elastic Constant Matrix: (Units=GPa)
#
#
# Indices 1 2 3 4 5 6 
#
# 1 207.4952 78.2200 89.0621 0.0000 -13.9490 0.0000
# 2 78.2200 141.9737 72.9760 0.0000 -17.1401 0.0000
# 3 89.0621 72.9760 162.6963 0.0000 -18.9060 0.0000
# 4 0.0000 0.0000 0.0000 51.7029 0.0000 -96.2804
# 5 -13.9490 -17.1401 -18.9060 0.0000 13.0337 0.0000
# 6 0.0000 0.0000 0.0000 -96.2804 0.0000 -454.6976
#
#
#
# Elastic Compliance Matrix: (Units=1/GPa)
#
#
# Indices 1 2 3 4 5 6 
#
# 1 0.006882 -0.002381 -0.002655 0.000000 0.000383 0.000000
# 2 -0.002381 0.010597 -0.002558 0.000000 0.007677 0.000000
# 3 -0.002655 -0.002558 0.009653 0.000000 0.007797 0.000000
# 4 0.000000 0.000000 0.000000 0.013872 0.000000 -0.002937
# 5 0.000383 0.007677 0.007797 0.000000 0.098542 0.000000
# 6 0.000000 0.000000 0.000000 -0.002937 0.000000 -0.001577
#
#
# Mechanical properties :
#
#
# Convention : Reuss Voigt Hill
#
# Bulk Modulus (GPa) = 83.71510 110.29794 97.00652
# Shear Modulus (GPa) = 31.81939 -59.86507 -14.02284
#
# Velocity S-wave (km/s) = 3.71607 -5.09711 -2.46692
# Velocity P-wave (km/s) = 7.39887 3.63689 5.82968
#
# Compressibility (1/GPa) = 0.01194528
#
# Stress axis : x y z
#
# Youngs Moduli (GPa) = 145.30157 94.36823 103.59344
#
# Poissons Ratio (x) = 0.22467 0.27504
# Poissons Ratio (y) = 0.34593 0.26496
# Poissons Ratio (z) = 0.38578 0.24136
#
# Static dielectric constant tensor:
#      x y z
#    x 1.861680 0.000000 -0.015310 
#    y 0.000000 1.932590 0.000000 
#    z -0.015310 0.000000 1.745420 
# 
# From -- ./inp_files/52020.got.cif
#   From: 2010.05.17/outbox.cif.g08.bks.cpg/sg13_27_cif.got.tgz:52020.got - 2010.06.03 16:44:36.
