data_PCOD9237632
_publ_section_title
;
Structure prediction by ZEFSAII (Michael W. Deem and Ramdas Pophale) SiO2 
 PCOD9237632
Probable space group: P 2/C
;
_chemical_formula_sum "Si O2"
_cell_formula_units_Z 24
_cell_length_a 11.477333
_cell_length_b 8.242162
_cell_length_c 23.709590
_cell_angle_alpha 90.000000
_cell_angle_beta 150.801702
_cell_angle_gamma 90.000000
_cell_volume 1094.152851
_symmetry_space_group_name_H-M "P 2/C"
_symmetry_group_IT_number 13
_symmetry_cell_setting 'monoclinic'
loop_
_space_group_symop_operation_xyz
x,y,z
-x,y,1/2-z
-x,-y,-z
x,-y,1/2+z
loop_
_atom_site_type_symbol
_atom_site_label
_atom_site_fract_x
_atom_site_fract_y
_atom_site_fract_z
Si Si1 0.029357 0.316354 0.663515
Si Si2 0.790241 0.796227 0.370852
Si Si3 0.496392 0.218530 0.039653
Si Si4 0.035486 0.132756 0.437217
Si Si5 0.900161 0.669822 0.768563
Si Si6 0.462524 0.866017 0.405484
O O1 0.107216 0.328313 0.631585
O O2 0.998229 0.492595 0.676874
O O3 0.243646 0.219496 0.783316
O O4 0.785367 0.219724 0.569361
O O5 0.500000 0.790480 0.250000
O O6 0.924611 0.772015 0.487210
O O7 0.878756 0.973730 0.385399
O O8 0.619859 0.342095 0.134488
O O9 0.605148 0.042268 0.099651
O O10 0.537611 0.243734 0.990730
O O11 0.311646 0.098884 0.538207
O O12 0.935164 0.222589 0.339269
O O13 0.000000 0.730417 0.750000
#
# Coordination Sequence:
#
# PCOD9237632 Si02
#       6
#     4   4   4   4   4   4
#     4  12  26  44  68 105 140 186 233 278 351 419
#     4  11  24  45  73  99 136 183 239 293 332 405
#     4  11  25  41  70 104 140 181 231 289 349 408
#     4  11  24  44  72 101 133 183 236 287 345 405
#     4  12  27  44  69 104 151 181 221 282 360 420
#     4  11  22  42  71 100 138 177 236 294 339 404
#
# _framework density 21.934778999999999
#
# number of rings (size 3 to 8) (size 9 to 14) (size 15 to 20)
#    0.000    0.667    5.000    2.500    2.333    2.000 
#    0.000    0.833    0.000    0.000    0.000    0.000 
#    0.000    0.000    0.000    0.000    0.000    0.000 
#
# Total GULP energy -134071.211073 kJ/mol
# GULP energy per Si atom -5586.300461 kJ/mol
# Density = 2.188485 g / cm^3
# Si number density = 21.934779 Si / 1000 Ang^3
#
#
#
# Elastic Constant Matrix: (Units=GPa)
#
#
# Indices 1 2 3 4 5 6 
#
# 1 116.4525 16.0043 36.1476 0.0000 -22.5711 0.0000
# 2 16.0043 52.5400 21.8628 0.0000 -10.4918 0.0000
# 3 36.1476 21.8628 97.0362 0.0000 -25.5135 0.0000
# 4 0.0000 0.0000 0.0000 23.9100 0.0000 -6.0080
# 5 -22.5711 -10.4918 -25.5135 0.0000 48.5822 0.0000
# 6 0.0000 0.0000 0.0000 -6.0080 0.0000 28.5412
#
#
#
# Elastic Compliance Matrix: (Units=1/GPa)
#
#
# Indices 1 2 3 4 5 6 
#
# 1 0.010199 -0.001382 -0.002692 0.000000 0.003026 0.000000
# 2 -0.001382 0.021429 -0.003788 0.000000 0.001996 0.000000
# 3 -0.002692 -0.003788 0.013479 0.000000 0.005010 0.000000
# 4 0.000000 0.000000 0.000000 0.044159 0.000000 0.009296
# 5 0.003026 0.001996 0.005010 0.000000 0.025052 0.000000
# 6 0.000000 0.000000 0.000000 0.009296 0.000000 0.036994
#
#
# Mechanical properties :
#
#
# Convention : Reuss Voigt Hill
#
# Bulk Modulus (GPa) = 34.03466 46.00644 40.02055
# Shear Modulus (GPa) = 28.27535 33.00761 30.64148
#
# Velocity S-wave (km/s) = 3.59425 3.88339 3.74162
# Velocity P-wave (km/s) = 5.72493 6.41306 6.07874
#
# Compressibility (1/GPa) = 0.02938181
#
# Stress axis : x y z
#
# Youngs Moduli (GPa) = 98.04479 46.66531 74.18883
#
# Poissons Ratio (x) = 0.06450 0.19974
# Poissons Ratio (y) = 0.13552 0.28106
# Poissons Ratio (z) = 0.26397 0.17679
#
# Static dielectric constant tensor:
#      x y z
#    x 1.845900 0.000000 -0.008750 
#    y 0.000000 1.792700 0.000000 
#    z -0.008750 0.000000 1.869650 
# 
# From -- ./inp_files/86275.got.cif
#   From: 2010.05.17/outbox.cif.g08.bks.cpg/sg13_44_cif.got.tgz:86275.got - 2010.06.03 16:44:36.
