data_PCOD9237363
_publ_section_title
;
Structure prediction by ZEFSAII (Michael W. Deem and Ramdas Pophale) SiO2 
 PCOD9237363
Probable space group: P 2/C
;
_chemical_formula_sum "Si O2"
_cell_formula_units_Z 18
_cell_length_a 18.615846
_cell_length_b 9.197674
_cell_length_c 8.429332
_cell_angle_alpha 90.000000
_cell_angle_beta 148.167862
_cell_angle_gamma 90.000000
_cell_volume 761.238559
_symmetry_space_group_name_H-M "P 2/C"
_symmetry_group_IT_number 13
_symmetry_cell_setting 'monoclinic'
loop_
_space_group_symop_operation_xyz
x,y,z
-x,y,1/2-z
-x,-y,-z
x,-y,1/2+z
loop_
_atom_site_type_symbol
_atom_site_label
_atom_site_fract_x
_atom_site_fract_y
_atom_site_fract_z
Si Si1 0.360629 0.563828 0.565891
Si Si2 0.293339 0.302360 0.278733
Si Si3 0.202278 0.957363 0.434866
Si Si4 0.162912 0.783160 0.047242
Si Si5 0.000000 0.786888 0.250000
O O1 0.500000 0.620660 0.750000
O O2 0.362574 0.389384 0.550293
O O3 0.334420 0.610485 0.696454
O O4 0.239565 0.635958 0.235245
O O5 0.132684 0.309954 0.021020
O O6 0.306012 0.135496 0.242463
O O7 0.206789 0.128529 0.472360
O O8 0.944104 0.104506 0.779099
O O9 0.210529 0.896116 0.274399
O O10 0.000000 0.764157 0.750000
#
# Coordination Sequence:
#
# PCOD9237363 Si02
#       5
#     4   4   4   4   2
#     4  11  24  40  57  85 119 154 193 232 283 346
#     4   9  21  39  59  80 119 146 192 237 286 331
#     4   9  20  36  56  89 119 140 190 241 288 333
#     4  11  21  35  61  88 114 149 190 237 286 335
#     4   8  18  36  58  86 114 134 196 242 274 332
#
# _framework density 23.645676999999999
#
# number of rings (size 3 to 8) (size 9 to 14) (size 15 to 20)
#    1.333    0.889    1.111    1.333    1.556    4.444 
#    0.000    5.556    0.000    0.000    0.000    0.000 
#    0.000    0.000    0.000    0.000    0.000    0.000 
#
# Total GULP energy -100268.442633 kJ/mol
# GULP energy per Si atom -5570.469035 kJ/mol
# Density = 2.359186 g / cm^3
# Si number density = 23.645677 Si / 1000 Ang^3
#
#
#
# Elastic Constant Matrix: (Units=GPa)
#
#
# Indices 1 2 3 4 5 6 
#
# 1 72.4533 33.2483 -3.4277 0.0000 -2.6710 0.0000
# 2 33.2483 85.6837 32.9871 0.0000 -2.0148 0.0000
# 3 -3.4277 32.9871 40.4152 0.0000 2.9813 0.0000
# 4 0.0000 0.0000 0.0000 20.2420 0.0000 -13.5470
# 5 -2.6710 -2.0148 2.9813 0.0000 23.2082 0.0000
# 6 0.0000 0.0000 0.0000 -13.5470 0.0000 22.9534
#
#
#
# Elastic Compliance Matrix: (Units=1/GPa)
#
#
# Indices 1 2 3 4 5 6 
#
# 1 0.019982 -0.012279 0.011737 0.000000 -0.000274 0.000000
# 2 -0.012279 0.024817 -0.021556 0.000000 0.003510 0.000000
# 3 0.011737 -0.021556 0.043786 0.000000 -0.006145 0.000000
# 4 0.000000 0.000000 0.000000 0.081655 0.000000 0.048192
# 5 -0.000274 0.003510 -0.006145 0.000000 0.044151 0.000000
# 6 0.000000 0.000000 0.000000 0.048192 0.000000 0.072009
#
#
# Mechanical properties :
#
#
# Convention : Reuss Voigt Hill
#
# Bulk Modulus (GPa) = 22.52814 36.01861 29.27338
# Shear Modulus (GPa) = 14.47636 22.33035 18.40336
#
# Velocity S-wave (km/s) = 2.47699 3.07640 2.79282
# Velocity P-wave (km/s) = 4.21055 5.28060 4.77564
#
# Compressibility (1/GPa) = 0.04438892
#
# Stress axis : x y z
#
# Youngs Moduli (GPa) = 50.04581 40.29570 22.83850
#
# Poissons Ratio (x) = 0.49477 -0.26805
# Poissons Ratio (y) = 0.61449 0.49230
# Poissons Ratio (z) = -0.58737 0.86860
#
# Static dielectric constant tensor:
#      x y z
#    x 1.901880 0.000000 -0.042630 
#    y 0.000000 1.902980 0.000000 
#    z -0.042630 0.000000 1.970910 
# 
# From -- ./inp_files/22930.got.cif
#   From: 2010.05.17/outbox.cif.g08.bks.cpg/sg13_12_cif.got.tgz:22930.got - 2010.06.03 16:44:36.
