data_PCOD9237417
_publ_section_title
;
Structure prediction by ZEFSAII (Michael W. Deem and Ramdas Pophale) SiO2 
 PCOD9237417
Probable space group: P 2/C
;
_chemical_formula_sum "Si O2"
_cell_formula_units_Z 30
_cell_length_a 5.882149
_cell_length_b 12.274553
_cell_length_c 21.807974
_cell_angle_alpha 90.000000
_cell_angle_beta 67.267536
_cell_angle_gamma 90.000000
_cell_volume 1452.239741
_symmetry_space_group_name_H-M "P 2/C"
_symmetry_group_IT_number 13
_symmetry_cell_setting 'monoclinic'
loop_
_space_group_symop_operation_xyz
x,y,z
-x,y,1/2-z
-x,-y,-z
x,-y,1/2+z
loop_
_atom_site_type_symbol
_atom_site_label
_atom_site_fract_x
_atom_site_fract_y
_atom_site_fract_z
Si Si1 0.340642 0.327830 0.000819
Si Si2 0.500000 0.665670 0.250000
Si Si3 0.266697 0.518697 0.690826
Si Si4 0.195251 0.733515 0.387883
Si Si5 0.820363 0.458044 0.940139
Si Si6 0.138643 0.933533 0.038504
Si Si7 0.308402 0.234187 0.214455
Si Si8 0.640785 0.130973 0.419528
O O1 0.156704 0.430982 0.023706
O O2 0.248688 0.236003 0.056919
O O3 0.364788 0.275475 0.930946
O O4 0.602669 0.382298 0.989906
O O5 0.602447 0.582585 0.290357
O O6 0.317774 0.739288 0.308769
O O7 0.258308 0.498444 0.619436
O O8 0.369801 0.638945 0.693192
O O9 0.000000 0.519506 0.750000
O O10 0.049685 0.619430 0.404984
O O11 0.019289 0.835079 0.418652
O O12 0.210028 0.021330 0.082600
O O13 0.381777 0.886177 0.980889
O O14 0.000000 0.000000 0.000000
O O15 0.500000 0.205808 0.250000
O O16 0.378458 0.160349 0.149125
O O17 0.000000 0.227098 0.250000
#
# Coordination Sequence:
#
# PCOD9237417 Si02
#       8
#     4   2   4   4   4   4   4   4
#     4  11  22  38  65 102 133 170 227 291 352 423
#     4  12  24  38  62  96 142 186 224 282 360 458
#     4  11  21  39  62  94 143 187 222 271 355 447
#     4  12  24  41  65  98 138 185 233 289 362 432
#     4  11  22  38  61  99 140 172 221 285 352 431
#     4  11  25  45  73  97 129 181 248 306 364 421
#     4  11  26  45  74 109 150 192 239 292 363 442
#     4  11  24  46  73  98 135 181 237 307 367 423
#
# _framework density 20.657747000000001
#
# number of rings (size 3 to 8) (size 9 to 14) (size 15 to 20)
#    0.000    0.800    7.333    0.400    1.867    0.000 
#    2.400    1.333    0.000    0.000    0.000    0.000 
#    0.000    0.000    0.000    0.000    0.000    0.000 
#
# Total GULP energy -167464.126253 kJ/mol
# GULP energy per Si atom -5582.137542 kJ/mol
# Density = 2.061073 g / cm^3
# Si number density = 20.657747 Si / 1000 Ang^3
#
#
#
# Elastic Constant Matrix: (Units=GPa)
#
#
# Indices 1 2 3 4 5 6 
#
# 1 55.4836 35.6184 31.6706 0.0000 9.6632 0.0000
# 2 35.6184 113.9495 51.7079 0.0000 2.5712 0.0000
# 3 31.6706 51.7079 123.6737 0.0000 19.0285 0.0000
# 4 0.0000 0.0000 0.0000 28.8782 0.0000 5.5133
# 5 9.6632 2.5712 19.0285 0.0000 30.5038 0.0000
# 6 0.0000 0.0000 0.0000 5.5133 0.0000 12.6521
#
#
#
# Elastic Compliance Matrix: (Units=1/GPa)
#
#
# Indices 1 2 3 4 5 6 
#
# 1 0.024638 -0.006293 -0.002831 0.000000 -0.005509 0.000000
# 2 -0.006293 0.012562 -0.004187 0.000000 0.003546 0.000000
# 3 -0.002831 -0.004187 0.011470 0.000000 -0.005905 0.000000
# 4 0.000000 0.000000 0.000000 0.037771 0.000000 -0.016459
# 5 -0.005509 0.003546 -0.005905 0.000000 0.037913 0.000000
# 6 0.000000 0.000000 0.000000 -0.016459 0.000000 0.086211
#
#
# Mechanical properties :
#
#
# Convention : Reuss Voigt Hill
#
# Bulk Modulus (GPa) = 45.35061 59.01117 52.18089
# Shear Modulus (GPa) = 20.44699 26.01412 23.23056
#
# Velocity S-wave (km/s) = 3.14952 3.55250 3.35706
# Velocity P-wave (km/s) = 5.93523 6.74204 6.35146
#
# Compressibility (1/GPa) = 0.02205042
#
# Stress axis : x y z
#
# Youngs Moduli (GPa) = 40.58729 79.60200 87.18589
#
# Poissons Ratio (x) = 0.50090 0.24682
# Poissons Ratio (y) = 0.25540 0.36501
# Poissons Ratio (z) = 0.11490 0.33326
#
# Static dielectric constant tensor:
#      x y z
#    x 1.867790 0.000000 0.018680 
#    y 0.000000 1.754200 0.000000 
#    z 0.018680 0.000000 1.728770 
# 
# From -- ./inp_files/73613.got.cif
#   From: 2010.05.17/outbox.cif.g08.bks.cpg/sg13_37_cif.got.tgz:73613.got - 2010.06.03 16:44:36.
