data_PCOD9237465
_publ_section_title
;
Structure prediction by ZEFSAII (Michael W. Deem and Ramdas Pophale) SiO2 
 PCOD9237465
Probable space group: P 2/C
;
_chemical_formula_sum "Si O2"
_cell_formula_units_Z 20
_cell_length_a 10.204766
_cell_length_b 14.093230
_cell_length_c 7.587034
_cell_angle_alpha 90.000000
_cell_angle_beta 51.417991
_cell_angle_gamma 90.000000
_cell_volume 852.972062
_symmetry_space_group_name_H-M "P 2/C"
_symmetry_group_IT_number 13
_symmetry_cell_setting 'monoclinic'
loop_
_space_group_symop_operation_xyz
x,y,z
-x,y,1/2-z
-x,-y,-z
x,-y,1/2+z
loop_
_atom_site_type_symbol
_atom_site_label
_atom_site_fract_x
_atom_site_fract_y
_atom_site_fract_z
Si Si1 0.000000 0.254852 0.750000
Si Si2 0.637175 0.103441 0.496851
Si Si3 0.685806 0.622430 0.652663
Si Si4 0.500000 0.082247 0.250000
Si Si5 0.197792 0.582880 0.557350
Si Si6 0.871115 0.769014 0.000646
O O1 0.940984 0.198274 0.627666
O O2 0.159662 0.316508 0.554510
O O3 0.500000 0.142915 0.750000
O O4 0.598643 0.130716 0.327524
O O5 0.798712 0.145981 0.447959
O O6 0.622434 0.989953 0.539160
O O7 0.500000 0.654529 0.750000
O O8 0.717946 0.621792 0.835001
O O9 0.711680 0.513491 0.573495
O O10 0.225494 0.668651 0.392872
O O11 0.000000 0.552976 0.750000
O O12 0.000000 0.728768 0.750000
#
# Coordination Sequence:
#
# PCOD9237465 Si02
#       6
#     2   4   4   2   4   4
#     4  12  24  46  64  88 140 182 214 288 336 368
#     4   9  19  39  68  96 126 168 207 260 319 396
#     4  12  24  40  67  93 123 182 237 271 328 398
#     4   8  18  42  70  92 130 162 214 256 326 390
#     4  11  21  42  61  88 133 170 218 284 330 380
#     4  11  24  41  62  94 134 169 213 268 338 386
#
# _framework density 23.447427000000001
#
# number of rings (size 3 to 8) (size 9 to 14) (size 15 to 20)
#    0.600    0.800    5.000    2.400    0.000    4.000 
#    1.800    1.000    0.000    0.000    0.000    0.000 
#    0.000    0.000    0.000    0.000    0.000    0.000 
#
# Total GULP energy -111469.668639 kJ/mol
# GULP energy per Si atom -5573.483432 kJ/mol
# Density = 2.339406 g / cm^3
# Si number density = 23.447427 Si / 1000 Ang^3
#
#
#
# Elastic Constant Matrix: (Units=GPa)
#
#
# Indices 1 2 3 4 5 6 
#
# 1 228.2021 39.5340 47.7543 0.0000 39.5318 0.0000
# 2 39.5340 35.4344 0.2858 0.0000 -0.8234 0.0000
# 3 47.7543 0.2858 40.0276 0.0000 9.5292 0.0000
# 4 0.0000 0.0000 0.0000 -1.9920 0.0000 6.4221
# 5 39.5318 -0.8234 9.5292 0.0000 57.5514 0.0000
# 6 0.0000 0.0000 0.0000 6.4221 0.0000 50.7160
#
#
#
# Elastic Compliance Matrix: (Units=1/GPa)
#
#
# Indices 1 2 3 4 5 6 
#
# 1 0.008889 -0.009950 -0.009417 0.000000 -0.004689 0.000000
# 2 -0.009950 0.039373 0.010232 0.000000 0.005704 0.000000
# 3 -0.009417 0.010232 0.035989 0.000000 0.000656 0.000000
# 4 0.000000 0.000000 0.000000 -0.356484 0.000000 0.045141
# 5 -0.004689 0.005704 0.000656 0.000000 0.020569 0.000000
# 6 0.000000 0.000000 0.000000 0.045141 0.000000 0.014002
#
#
# Mechanical properties :
#
#
# Convention : Reuss Voigt Hill
#
# Bulk Modulus (GPa) = 15.15640 53.20138 34.17889
# Shear Modulus (GPa) = -25.32944 35.66109 5.16582
#
# Velocity S-wave (km/s) = -3.29030 3.90410 1.48591
# Velocity P-wave (km/s) = 2.82078 6.56213 4.18956
#
# Compressibility (1/GPa) = 0.06597874
#
# Stress axis : x y z
#
# Youngs Moduli (GPa) = 112.50091 25.39836 27.78651
#
# Poissons Ratio (x) = 0.25272 0.26168
# Poissons Ratio (y) = 1.11941 -0.28431
# Poissons Ratio (z) = 1.05946 -0.25987
#
# Static dielectric constant tensor:
#      x y z
#    x 1.845640 0.000000 0.113170 
#    y 0.000000 1.947120 0.000000 
#    z 0.113170 0.000000 1.610220 
# 
# From -- ./inp_files/13043.got.cif
#   From: 2010.05.17/outbox.cif.g08.bks.cpg/sg13_7_cif.got.tgz:13043.got - 2010.06.03 16:44:36.
