data_PCOD9237811
_publ_section_title
;
Structure prediction by ZEFSAII (Michael W. Deem and Ramdas Pophale) SiO2 
 PCOD9237811
Probable space group: P 2/C
;
_chemical_formula_sum "Si O2"
_cell_formula_units_Z 20
_cell_length_a 12.179200
_cell_length_b 11.243216
_cell_length_c 9.312713
_cell_angle_alpha 90.000000
_cell_angle_beta 138.363643
_cell_angle_gamma 90.000000
_cell_volume 847.257745
_symmetry_space_group_name_H-M "P 2/C"
_symmetry_group_IT_number 13
_symmetry_cell_setting 'monoclinic'
loop_
_space_group_symop_operation_xyz
x,y,z
-x,y,1/2-z
-x,-y,-z
x,-y,1/2+z
loop_
_atom_site_type_symbol
_atom_site_label
_atom_site_fract_x
_atom_site_fract_y
_atom_site_fract_z
Si Si1 0.317813 0.617333 0.640093
Si Si2 0.122293 0.279316 0.478837
Si Si3 0.186068 0.559639 0.806577
Si Si4 0.828292 0.942009 0.285841
Si Si5 0.322424 0.891736 0.650704
O O1 0.500000 0.605300 0.750000
O O2 0.293171 0.554031 0.768798
O O3 0.195059 0.563235 0.401089
O O4 0.283966 0.754529 0.642396
O O5 0.994831 0.383776 0.406006
O O6 0.245813 0.345821 0.489422
O O7 0.186356 0.190631 0.660487
O O8 0.000000 0.208057 0.250000
O O9 0.693162 0.026986 0.226293
O O10 0.803403 0.936206 0.093113
O O11 0.000000 0.000000 0.500000
O O12 0.500000 0.896966 0.750000
#
# Coordination Sequence:
#
# PCOD9237811 Si02
#       5
#     4   4   4   4   4
#     4  11  23  42  65  95 135 182 228 267 336 415
#     4   8  21  39  66  94 134 167 227 271 345 384
#     4   9  22  41  64  92 137 169 225 276 334 392
#     4  12  23  45  71 101 134 180 228 291 336 406
#     4  11  27  44  68  99 141 177 230 274 349 410
#
# _framework density 23.605568000000002
#
# number of rings (size 3 to 8) (size 9 to 14) (size 15 to 20)
#    1.200    0.400    0.000    4.200    5.600    3.200 
#    7.200    0.000    0.000    0.000    0.000    0.000 
#    0.000    0.000    0.000    0.000    0.000    0.000 
#
# Total GULP energy -111694.833512 kJ/mol
# GULP energy per Si atom -5584.741676 kJ/mol
# Density = 2.355184 g / cm^3
# Si number density = 23.605568 Si / 1000 Ang^3
#
#
#
# Elastic Constant Matrix: (Units=GPa)
#
#
# Indices 1 2 3 4 5 6 
#
# 1 104.8214 37.3945 21.1704 0.0000 -21.8970 0.0000
# 2 37.3945 103.8159 19.1952 0.0000 -0.2557 0.0000
# 3 21.1704 19.1952 56.2987 0.0000 -5.5722 0.0000
# 4 0.0000 0.0000 0.0000 30.9517 0.0000 -4.0990
# 5 -21.8970 -0.2557 -5.5722 0.0000 32.2684 0.0000
# 6 0.0000 0.0000 0.0000 -4.0990 0.0000 24.7378
#
#
#
# Elastic Compliance Matrix: (Units=1/GPa)
#
#
# Indices 1 2 3 4 5 6 
#
# 1 0.013426 -0.004311 -0.002727 0.000000 0.008606 0.000000
# 2 -0.004311 0.011674 -0.002685 0.000000 -0.003296 0.000000
# 3 -0.002727 -0.002685 0.019858 0.000000 0.001557 0.000000
# 4 0.000000 0.000000 0.000000 0.033033 0.000000 0.005474
# 5 0.008606 -0.003296 0.001557 0.000000 0.037073 0.000000
# 6 0.000000 0.000000 0.000000 0.005474 0.000000 0.041331
#
#
# Mechanical properties :
#
#
# Convention : Reuss Voigt Hill
#
# Bulk Modulus (GPa) = 39.19912 46.71737 42.95824
# Shear Modulus (GPa) = 27.12305 30.06998 28.59652
#
# Velocity S-wave (km/s) = 3.39338 3.57298 3.48434
# Velocity P-wave (km/s) = 5.65644 6.07086 5.86731
#
# Compressibility (1/GPa) = 0.02551078
#
# Stress axis : x y z
#
# Youngs Moduli (GPa) = 74.47988 85.66359 50.35837
#
# Poissons Ratio (x) = 0.36927 0.13734
# Poissons Ratio (y) = 0.32106 0.13523
# Poissons Ratio (z) = 0.20313 0.23004
#
# Static dielectric constant tensor:
#      x y z
#    x 1.711520 0.000000 -0.166420 
#    y 0.000000 1.921630 0.000000 
#    z -0.166420 0.000000 1.705330 
# 
# From -- ./inp_files/11659.got.cif
#   From: 2010.05.17/outbox.cif.g08.bks.cpg/sg13_6_cif.got.tgz:11659.got - 2010.06.03 16:44:36.
