data_PCOD9237957
_publ_section_title
;
Structure prediction by ZEFSAII (Michael W. Deem and Ramdas Pophale) SiO2 
 PCOD9237957
Probable space group: P 2/C
;
_chemical_formula_sum "Si O2"
_cell_formula_units_Z 20
_cell_length_a 5.717496
_cell_length_b 7.854880
_cell_length_c 20.965385
_cell_angle_alpha 90.000000
_cell_angle_beta 67.763775
_cell_angle_gamma 90.000000
_cell_volume 871.538140
_symmetry_space_group_name_H-M "P 2/C"
_symmetry_group_IT_number 13
_symmetry_cell_setting 'monoclinic'
loop_
_space_group_symop_operation_xyz
x,y,z
-x,y,1/2-z
-x,-y,-z
x,-y,1/2+z
loop_
_atom_site_type_symbol
_atom_site_label
_atom_site_fract_x
_atom_site_fract_y
_atom_site_fract_z
Si Si1 0.253887 0.344876 0.419868
Si Si2 0.022288 0.142204 0.817314
Si Si3 0.163423 0.709906 0.427864
Si Si4 0.202061 0.232491 0.286769
Si Si5 0.511049 0.015073 0.423292
O O1 0.331725 0.541400 0.418921
O O2 0.127006 0.307052 0.364193
O O3 0.060769 0.307292 0.497877
O O4 0.472955 0.207251 0.405033
O O5 0.088361 0.282900 0.862047
O O6 0.762394 0.061035 0.868384
O O7 0.000000 0.219577 0.750000
O O8 0.198724 0.974702 0.792622
O O9 0.286877 0.892890 0.424256
O O10 0.500000 0.284759 0.250000
O O11 0.000000 0.272070 0.250000
O O12 0.500000 0.000000 0.500000
#
# Coordination Sequence:
#
# PCOD9237957 Si02
#       5
#     4   4   4   4   4
#     4  11  23  46  69 102 141 179 245 294 359 432
#     4  11  24  43  70 100 141 186 236 296 360 432
#     4  11  25  43  68 106 134 181 241 298 358 429
#     4  11  24  45  73 107 142 194 238 292 362 432
#     4  12  23  44  72  99 137 192 236 297 365 426
#
# _framework density 22.947935000000001
#
# number of rings (size 3 to 8) (size 9 to 14) (size 15 to 20)
#    0.000    0.800    4.000    4.200    0.000    1.600 
#   10.800    0.000    0.000    0.000    0.000    0.000 
#    0.000    0.000    0.000    0.000    0.000    0.000 
#
# Total GULP energy -111766.385274 kJ/mol
# GULP energy per Si atom -5588.319264 kJ/mol
# Density = 2.289570 g / cm^3
# Si number density = 22.947935 Si / 1000 Ang^3
#
#
#
# Elastic Constant Matrix: (Units=GPa)
#
#
# Indices 1 2 3 4 5 6 
#
# 1 47.7330 -9.7585 41.2805 0.0000 2.3836 0.0000
# 2 -9.7585 53.2423 16.4280 0.0000 4.8234 0.0000
# 3 41.2805 16.4280 164.7177 0.0000 35.3707 0.0000
# 4 0.0000 0.0000 0.0000 -21.3581 0.0000 24.0905
# 5 2.3836 4.8234 35.3707 0.0000 34.3445 0.0000
# 6 0.0000 0.0000 0.0000 24.0905 0.0000 8.2823
#
#
#
# Elastic Compliance Matrix: (Units=1/GPa)
#
#
# Indices 1 2 3 4 5 6 
#
# 1 0.031009 0.008159 -0.010113 0.000000 0.007117 0.000000
# 2 0.008159 0.021549 -0.004394 0.000000 0.000933 0.000000
# 3 -0.010113 -0.004394 0.011248 0.000000 -0.010265 0.000000
# 4 0.000000 0.000000 0.000000 -0.010937 0.000000 0.031813
# 5 0.007117 0.000933 -0.010265 0.000000 0.039064 0.000000
# 6 0.000000 0.000000 0.000000 0.031813 0.000000 0.028205
#
#
# Mechanical properties :
#
#
# Convention : Reuss Voigt Hill
#
# Bulk Modulus (GPa) = 19.56618 40.17698 29.87158
# Shear Modulus (GPa) = 33.36228 18.76994 26.06611
#
# Velocity S-wave (km/s) = 3.81704 2.86306 3.37394
# Velocity P-wave (km/s) = 5.28879 5.33623 5.31256
#
# Compressibility (1/GPa) = 0.05110860
#
# Stress axis : x y z
#
# Youngs Moduli (GPa) = 32.24903 46.40625 88.90427
#
# Poissons Ratio (x) = -0.37863 0.89912
# Poissons Ratio (y) = -0.26312 0.39067
# Poissons Ratio (z) = 0.32614 0.20392
#
# Static dielectric constant tensor:
#      x y z
#    x 1.986460 0.000000 0.120670 
#    y 0.000000 1.843330 0.000000 
#    z 0.120670 0.000000 1.980760 
# 
# From -- ./inp_files/73022.got.cif
#   From: 2010.05.17/outbox.cif.g08.bks.cpg/sg13_37_cif.got.tgz:73022.got - 2010.06.03 16:44:36.
