data_PCOD9237728
_publ_section_title
;
Structure prediction by ZEFSAII (Michael W. Deem and Ramdas Pophale) SiO2 
 PCOD9237728
Probable space group: P 2/C
;
_chemical_formula_sum "Si O2"
_cell_formula_units_Z 24
_cell_length_a 19.841387
_cell_length_b 10.288074
_cell_length_c 11.413081
_cell_angle_alpha 90.000000
_cell_angle_beta 149.489667
_cell_angle_gamma 90.000000
_cell_volume 1182.798649
_symmetry_space_group_name_H-M "P 2/C"
_symmetry_group_IT_number 13
_symmetry_cell_setting 'monoclinic'
loop_
_space_group_symop_operation_xyz
x,y,z
-x,y,1/2-z
-x,-y,-z
x,-y,1/2+z
loop_
_atom_site_type_symbol
_atom_site_label
_atom_site_fract_x
_atom_site_fract_y
_atom_site_fract_z
Si Si1 0.655470 0.670611 0.497282
Si Si2 0.130810 0.833486 0.562533
Si Si3 0.000000 0.534746 0.750000
Si Si4 0.000000 0.929632 0.750000
Si Si5 0.354525 0.371728 0.975787
Si Si6 0.778582 0.720766 0.434338
Si Si7 0.883593 0.693635 0.212877
O O1 0.500000 0.697202 0.250000
O O2 0.732098 0.789044 0.674943
O O3 0.669069 0.528112 0.578510
O O4 0.720888 0.663831 0.467077
O O5 0.139934 0.769832 0.445269
O O6 0.012590 0.764234 0.458542
O O7 0.073739 0.977172 0.455090
O O8 0.061839 0.446104 0.742891
O O9 0.882793 0.623587 0.528785
O O10 0.874052 0.843413 0.602926
O O11 0.339123 0.282807 0.836818
O O12 0.245477 0.318847 0.903497
O O13 0.500000 0.362453 0.250000
#
# Coordination Sequence:
#
# PCOD9237728 Si02
#       7
#     4   4   2   2   4   4   4
#     4  11  25  39  65  93 131 167 198 256 313 385
#     4   9  21  42  65  87 121 166 213 259 313 348
#     4   9  17  34  58  88 123 145 208 262 294 361
#     4   9  23  46  66  90 119 159 218 280 292 357
#     4  11  24  37  61  95 138 168 191 251 315 386
#     4  11  23  39  61  96 122 160 217 254 309 368
#     4   9  18  36  63  90 117 168 205 249 312 369
#
# _framework density 20.290858
#
# number of rings (size 3 to 8) (size 9 to 14) (size 15 to 20)
#    0.000    2.333    1.667    2.000    7.000    3.333 
#    3.000    1.667    0.000    0.000    0.000    0.000 
#    0.000    0.000    0.000    0.000    0.000    0.000 
#
# Total GULP energy -133689.319747 kJ/mol
# GULP energy per Si atom -5570.388323 kJ/mol
# Density = 2.024468 g / cm^3
# Si number density = 20.290858 Si / 1000 Ang^3
#
#
#
# Elastic Constant Matrix: (Units=GPa)
#
#
# Indices 1 2 3 4 5 6 
#
# 1 57.3040 17.9695 24.0992 0.0000 7.3306 0.0000
# 2 17.9695 76.5343 46.2048 0.0000 9.6537 0.0000
# 3 24.0992 46.2048 125.9281 0.0000 8.1827 0.0000
# 4 0.0000 0.0000 0.0000 23.7691 0.0000 3.5071
# 5 7.3306 9.6537 8.1827 0.0000 29.5001 0.0000
# 6 0.0000 0.0000 0.0000 3.5071 0.0000 -1.2036
#
#
#
# Elastic Compliance Matrix: (Units=1/GPa)
#
#
# Indices 1 2 3 4 5 6 
#
# 1 0.019804 -0.002662 -0.002597 0.000000 -0.003330 0.000000
# 2 -0.002662 0.017583 -0.005714 0.000000 -0.003507 0.000000
# 3 -0.002597 -0.005714 0.010562 0.000000 -0.000414 0.000000
# 4 0.000000 0.000000 0.000000 0.029422 0.000000 0.085730
# 5 -0.003330 -0.003507 -0.000414 0.000000 0.035988 0.000000
# 6 0.000000 0.000000 0.000000 0.085730 0.000000 -0.581031
#
#
# Mechanical properties :
#
#
# Convention : Reuss Voigt Hill
#
# Bulk Modulus (GPa) = 38.45800 48.47928 43.46864
# Shear Modulus (GPa) = -11.44011 21.84598 5.20293
#
# Velocity S-wave (km/s) = -2.37704 3.28478 1.60304
# Velocity P-wave (km/s) = 3.38538 6.19116 4.98955
#
# Compressibility (1/GPa) = 0.02600239
#
# Stress axis : x y z
#
# Youngs Moduli (GPa) = 50.49598 56.87248 94.68319
#
# Poissons Ratio (x) = 0.15139 0.24587
# Poissons Ratio (y) = 0.13442 0.54104
# Poissons Ratio (z) = 0.13113 0.32498
#
# Static dielectric constant tensor:
#      x y z
#    x 1.776540 0.000000 -0.084640 
#    y 0.000000 1.781270 0.000000 
#    z -0.084640 0.000000 1.825910 
# 
# From -- ./inp_files/33372.got.cif
#   From: 2010.05.17/outbox.cif.g08.bks.cpg/sg13_17_cif.got.tgz:33372.got - 2010.06.03 16:44:36.
