data_PCOD9237335
_publ_section_title
;
Structure prediction by ZEFSAII (Michael W. Deem and Ramdas Pophale) SiO2 
 PCOD9237335
Probable space group: P 2/C
;
_chemical_formula_sum "Si O2"
_cell_formula_units_Z 24
_cell_length_a 11.981233
_cell_length_b 6.206120
_cell_length_c 12.590932
_cell_angle_alpha 90.000000
_cell_angle_beta 77.913113
_cell_angle_gamma 90.000000
_cell_volume 915.468584
_symmetry_space_group_name_H-M "P 2/C"
_symmetry_group_IT_number 13
_symmetry_cell_setting 'monoclinic'
loop_
_space_group_symop_operation_xyz
x,y,z
-x,y,1/2-z
-x,-y,-z
x,-y,1/2+z
loop_
_atom_site_type_symbol
_atom_site_label
_atom_site_fract_x
_atom_site_fract_y
_atom_site_fract_z
Si Si1 0.963979 0.812351 0.147884
Si Si2 0.677211 0.379119 0.309323
Si Si3 0.405778 0.012222 0.337731
Si Si4 0.181597 0.018106 0.151085
Si Si5 0.236238 0.372376 0.904145
Si Si6 0.632486 0.299172 0.973188
O O1 0.874261 0.979388 0.221118
O O2 0.897515 0.683013 0.072175
O O3 0.000000 0.683680 0.250000
O O4 0.078674 0.939801 0.095855
O O5 0.630425 0.192331 0.241699
O O6 0.741075 0.541557 0.219318
O O7 0.590403 0.522406 0.397118
O O8 0.770115 0.257529 0.364111
O O9 0.500000 0.886368 0.250000
O O10 0.441645 0.149234 0.434449
O O11 0.311750 0.844734 0.396909
O O12 0.287738 0.863984 0.107735
O O13 0.284860 0.561250 0.967244
#
# Coordination Sequence:
#
# PCOD9237335 Si02
#       6
#     4   4   4   4   4   4
#     4   8  17  38  62  89 129 168 204 245 306 362
#     4  11  20  43  68  89 129 167 208 258 316 371
#     4  11  25  44  65  91 126 162 208 271 319 370
#     4   9  19  40  61  93 129 167 204 255 303 365
#     4  11  22  40  66  94 127 169 211 260 310 373
#     4  11  23  39  66  95 127 166 210 255 315 375
#
# _framework density 26.216083000000001
#
# number of rings (size 3 to 8) (size 9 to 14) (size 15 to 20)
#    1.000    0.667    3.333    1.000    0.000    4.000 
#    9.000    9.167    0.000    0.000    0.000    0.000 
#    0.000    0.000    0.000    0.000    0.000    0.000 
#
# Total GULP energy -133985.048012 kJ/mol
# GULP energy per Si atom -5582.710334 kJ/mol
# Density = 2.615641 g / cm^3
# Si number density = 26.216083 Si / 1000 Ang^3
#
#
#
# Elastic Constant Matrix: (Units=GPa)
#
#
# Indices 1 2 3 4 5 6 
#
# 1 62.7464 32.8567 12.8702 0.0000 12.6944 0.0000
# 2 32.8567 114.1185 43.5649 0.0000 13.1370 0.0000
# 3 12.8702 43.5649 71.4593 0.0000 -4.1271 0.0000
# 4 0.0000 0.0000 0.0000 56.3195 0.0000 21.0581
# 5 12.6944 13.1370 -4.1271 0.0000 29.6958 0.0000
# 6 0.0000 0.0000 0.0000 21.0581 0.0000 32.2571
#
#
#
# Elastic Compliance Matrix: (Units=1/GPa)
#
#
# Indices 1 2 3 4 5 6 
#
# 1 0.019893 -0.004486 -0.001234 0.000000 -0.006691 0.000000
# 2 -0.004486 0.013631 -0.007802 0.000000 -0.005197 0.000000
# 3 -0.001234 -0.007802 0.019358 0.000000 0.006670 0.000000
# 4 0.000000 0.000000 0.000000 0.023489 0.000000 -0.015334
# 5 -0.006691 -0.005197 0.006670 0.000000 0.039761 0.000000
# 6 0.000000 0.000000 0.000000 -0.015334 0.000000 0.041012
#
#
# Mechanical properties :
#
#
# Convention : Reuss Voigt Hill
#
# Bulk Modulus (GPa) = 38.70443 47.43420 43.06932
# Shear Modulus (GPa) = 25.93325 34.25665 30.09495
#
# Velocity S-wave (km/s) = 3.14859 3.61876 3.39183
# Velocity P-wave (km/s) = 5.29281 5.96602 5.63947
#
# Compressibility (1/GPa) = 0.02583684
#
# Stress axis : x y z
#
# Youngs Moduli (GPa) = 50.26864 73.36052 51.65762
#
# Poissons Ratio (x) = 0.32910 0.06376
# Poissons Ratio (y) = 0.22551 0.40306
# Poissons Ratio (z) = 0.06205 0.57239
#
# Static dielectric constant tensor:
#      x y z
#    x 2.157290 0.000000 0.069480 
#    y 0.000000 1.987110 0.000000 
#    z 0.069480 0.000000 2.048560 
# 
# From -- ./inp_files/52087.got.cif
#   From: 2010.05.17/outbox.cif.g08.bks.cpg/sg13_27_cif.got.tgz:52087.got - 2010.06.03 16:44:36.
