data_PCOD9237182
_publ_section_title
;
Structure prediction by ZEFSAII (Michael W. Deem and Ramdas Pophale) SiO2 
 PCOD9237182
Probable space group: P 2/C
;
_chemical_formula_sum "Si O2"
_cell_formula_units_Z 24
_cell_length_a 22.944164
_cell_length_b 8.852918
_cell_length_c 11.621294
_cell_angle_alpha 90.000000
_cell_angle_beta 27.014133
_cell_angle_gamma 90.000000
_cell_volume 1072.185960
_symmetry_space_group_name_H-M "P 2/C"
_symmetry_group_IT_number 13
_symmetry_cell_setting 'monoclinic'
loop_
_space_group_symop_operation_xyz
x,y,z
-x,y,1/2-z
-x,-y,-z
x,-y,1/2+z
loop_
_atom_site_type_symbol
_atom_site_label
_atom_site_fract_x
_atom_site_fract_y
_atom_site_fract_z
Si Si1 0.122441 0.770565 0.872309
Si Si2 0.889724 0.703722 0.860538
Si Si3 0.584579 0.230309 0.308207
Si Si4 0.260240 0.429492 0.298422
Si Si5 0.599515 0.900210 0.180792
Si Si6 0.500000 0.554103 0.750000
Si Si7 0.000000 0.991567 0.750000
O O1 0.070700 0.711220 0.841880
O O2 0.146678 0.639793 0.922182
O O3 0.264156 0.835278 0.595839
O O4 0.040020 0.902889 0.074446
O O5 0.000000 0.643149 0.750000
O O6 0.884543 0.877902 0.914704
O O7 0.773476 0.590334 0.085396
O O8 0.698684 0.308586 0.178149
O O9 0.467903 0.199412 0.601750
O O10 0.543833 0.341514 0.278325
O O11 0.619598 0.068117 0.194967
O O12 0.381606 0.455520 0.002089
O O13 0.500000 0.908492 0.250000
#
# Coordination Sequence:
#
# PCOD9237182 Si02
#       7
#     4   4   4   4   4   2   2
#     4  12  25  48  77 101 144 187 243 303 353 423
#     4  10  27  50  70 104 141 185 243 305 352 420
#     4  11  24  40  70 107 146 189 229 280 361 428
#     4  12  25  44  72 107 145 187 235 290 365 428
#     4  11  23  44  71 112 145 186 236 291 353 438
#     4  12  24  42  66 104 148 188 226 286 358 434
#     4  10  28  48  74 102 132 192 248 300 358 400
#
# _framework density 22.384176
#
# number of rings (size 3 to 8) (size 9 to 14) (size 15 to 20)
#    0.500    0.333    2.500    4.000    5.833    0.667 
#    3.000    0.000    0.000    0.000    0.000    0.000 
#    0.000    0.000    0.000    0.000    0.000    0.000 
#
# Total GULP energy -134298.482197 kJ/mol
# GULP energy per Si atom -5595.770092 kJ/mol
# Density = 2.233323 g / cm^3
# Si number density = 22.384176 Si / 1000 Ang^3
#
#
#
# Elastic Constant Matrix: (Units=GPa)
#
#
# Indices 1 2 3 4 5 6 
#
# 1 159.8633 60.0440 17.3804 0.0000 19.1387 0.0000
# 2 60.0440 124.9164 41.1085 0.0000 11.8686 0.0000
# 3 17.3804 41.1085 51.0402 0.0000 15.7775 0.0000
# 4 0.0000 0.0000 0.0000 40.5154 0.0000 -58.4065
# 5 19.1387 11.8686 15.7775 0.0000 23.4799 0.0000
# 6 0.0000 0.0000 0.0000 -58.4065 0.0000 322.2128
#
#
#
# Elastic Compliance Matrix: (Units=1/GPa)
#
#
# Indices 1 2 3 4 5 6 
#
# 1 0.008331 -0.004237 0.002540 0.000000 -0.006356 0.000000
# 2 -0.004237 0.013051 -0.010220 0.000000 0.003724 0.000000
# 3 0.002540 -0.010220 0.032819 0.000000 -0.018957 0.000000
# 4 0.000000 0.000000 0.000000 0.033413 0.000000 0.006057
# 5 -0.006356 0.003724 -0.018957 0.000000 0.058627 0.000000
# 6 0.000000 0.000000 0.000000 0.006057 0.000000 0.004201
#
#
# Mechanical properties :
#
#
# Convention : Reuss Voigt Hill
#
# Bulk Modulus (GPa) = 32.92903 63.65396 48.29149
# Shear Modulus (GPa) = 27.11504 91.72743 59.42124
#
# Velocity S-wave (km/s) = 3.48422 6.40841 5.15788
# Velocity P-wave (km/s) = 5.56140 9.12445 7.55595
#
# Compressibility (1/GPa) = 0.03036834
#
# Stress axis : x y z
#
# Youngs Moduli (GPa) = 120.02720 76.62047 30.47021
#
# Poissons Ratio (x) = 0.32462 -0.07740
# Poissons Ratio (y) = 0.50852 0.31141
# Poissons Ratio (z) = -0.30488 0.78307
#
# Static dielectric constant tensor:
#      x y z
#    x 1.821670 0.000000 -0.014250 
#    y 0.000000 1.796610 0.000000 
#    z -0.014250 0.000000 1.811270 
# 
# From -- ./inp_files/41574.got.cif
#   From: 2010.05.17/outbox.cif.g08.bks.cpg/sg13_21_cif.got.tgz:41574.got - 2010.06.03 16:44:36.
