data_PCOD9237448
_publ_section_title
;
Structure prediction by ZEFSAII (Michael W. Deem and Ramdas Pophale) SiO2 
 PCOD9237448
Probable space group: P 2/C
;
_chemical_formula_sum "Si O2"
_cell_formula_units_Z 30
_cell_length_a 6.116319
_cell_length_b 13.001686
_cell_length_c 18.107984
_cell_angle_alpha 90.000000
_cell_angle_beta 101.911125
_cell_angle_gamma 90.000000
_cell_volume 1408.986859
_symmetry_space_group_name_H-M "P 2/C"
_symmetry_group_IT_number 13
_symmetry_cell_setting 'monoclinic'
loop_
_space_group_symop_operation_xyz
x,y,z
-x,y,1/2-z
-x,-y,-z
x,-y,1/2+z
loop_
_atom_site_type_symbol
_atom_site_label
_atom_site_fract_x
_atom_site_fract_y
_atom_site_fract_z
Si Si1 0.000000 0.289622 0.750000
Si Si2 0.284305 0.793657 0.082544
Si Si3 0.107184 0.408583 0.607579
Si Si4 0.322210 0.426009 0.028901
Si Si5 0.859214 0.911429 0.028050
Si Si6 0.320090 0.895684 0.323669
Si Si7 0.265719 0.121592 0.277493
Si Si8 0.479793 0.203261 0.435847
O O1 0.059210 0.365859 0.686227
O O2 0.188475 0.207406 0.790083
O O3 0.294832 0.672609 0.094143
O O4 0.424751 0.858127 0.150978
O O5 0.368811 0.816231 0.007078
O O6 0.027953 0.823421 0.066311
O O7 0.212837 0.518220 0.592907
O O8 0.881139 0.403590 0.542508
O O9 0.441326 0.320825 0.060625
O O10 0.500000 0.500000 0.000000
O O11 0.696748 0.868685 0.954180
O O12 0.738569 0.934648 0.096811
O O13 0.000000 0.000000 0.000000
O O14 0.271550 0.996975 0.273471
O O15 0.500000 0.153228 0.250000
O O16 0.319468 0.168490 0.360844
O O17 0.000000 0.149578 0.250000
#
# Coordination Sequence:
#
# PCOD9237448 Si02
#       8
#     2   4   4   4   4   4   4   4
#     4  12  24  44  66 106 158 182 238 302 398 452
#     4  11  21  40  71 102 132 180 240 300 366 430
#     4  11  24  42  72 107 141 182 240 312 375 449
#     4  11  23  47  75 102 133 186 251 308 373 433
#     4  11  22  39  69 105 138 177 245 293 366 436
#     4  11  25  41  66 105 145 196 229 300 366 460
#     4  12  30  48  69 104 152 207 248 293 374 456
#     4  11  24  44  73  99 139 184 246 312 358 440
#
# _framework density 21.291895
#
# number of rings (size 3 to 8) (size 9 to 14) (size 15 to 20)
#    0.000    0.800    4.667    2.400    7.467    2.133 
#    0.000    1.333    0.000    0.000    0.000    0.000 
#    0.000    0.000    0.000    0.000    0.000    0.000 
#
# Total GULP energy -167326.092446 kJ/mol
# GULP energy per Si atom -5577.536415 kJ/mol
# Density = 2.124343 g / cm^3
# Si number density = 21.291895 Si / 1000 Ang^3
#
#
#
# Elastic Constant Matrix: (Units=GPa)
#
#
# Indices 1 2 3 4 5 6 
#
# 1 98.3849 37.7978 51.5195 0.0000 15.0065 0.0000
# 2 37.7978 90.1486 43.5409 0.0000 -0.6817 0.0000
# 3 51.5195 43.5409 112.3790 0.0000 7.1455 0.0000
# 4 0.0000 0.0000 0.0000 35.1943 0.0000 -3.5999
# 5 15.0065 -0.6817 7.1455 0.0000 43.2213 0.0000
# 6 0.0000 0.0000 0.0000 -3.5999 0.0000 39.9309
#
#
#
# Elastic Compliance Matrix: (Units=1/GPa)
#
#
# Indices 1 2 3 4 5 6 
#
# 1 0.014989 -0.003857 -0.005096 0.000000 -0.004423 0.000000
# 2 -0.003857 0.014691 -0.004066 0.000000 0.002243 0.000000
# 3 -0.005096 -0.004066 0.012837 0.000000 -0.000417 0.000000
# 4 0.000000 0.000000 0.000000 0.028678 0.000000 0.002585
# 5 -0.004423 0.002243 -0.000417 0.000000 0.024777 0.000000
# 6 0.000000 0.000000 0.000000 0.002585 0.000000 0.025276
#
#
# Mechanical properties :
#
#
# Convention : Reuss Voigt Hill
#
# Bulk Modulus (GPa) = 60.68680 62.95877 61.82278
# Shear Modulus (GPa) = 32.72699 34.87292 33.79995
#
# Velocity S-wave (km/s) = 3.92479 4.05143 3.98861
# Velocity P-wave (km/s) = 7.00734 7.17767 7.09302
#
# Compressibility (1/GPa) = 0.01647805
#
# Stress axis : x y z
#
# Youngs Moduli (GPa) = 66.71556 68.06946 77.90088
#
# Poissons Ratio (x) = 0.26252 0.39700
# Poissons Ratio (y) = 0.25730 0.31678
# Poissons Ratio (z) = 0.33999 0.27680
#
# Static dielectric constant tensor:
#      x y z
#    x 1.888820 0.000000 -0.036060 
#    y 0.000000 1.771920 0.000000 
#    z -0.036060 0.000000 1.792090 
# 
# From -- ./inp_files/61649.got.cif
#   From: 2010.05.17/outbox.cif.g08.bks.cpg/sg13_31_cif.got.tgz:61649.got - 2010.06.03 16:44:36.
