data_PCOD9237235
_publ_section_title
;
Structure prediction by ZEFSAII (Michael W. Deem and Ramdas Pophale) SiO2 
 PCOD9237235
Probable space group: P 2/C
;
_chemical_formula_sum "Si O2"
_cell_formula_units_Z 32
_cell_length_a 8.207798
_cell_length_b 11.832272
_cell_length_c 21.470770
_cell_angle_alpha 90.000000
_cell_angle_beta 47.491311
_cell_angle_gamma 90.000000
_cell_volume 1537.138315
_symmetry_space_group_name_H-M "P 2/C"
_symmetry_group_IT_number 13
_symmetry_cell_setting 'monoclinic'
loop_
_space_group_symop_operation_xyz
x,y,z
-x,y,1/2-z
-x,-y,-z
x,-y,1/2+z
loop_
_atom_site_type_symbol
_atom_site_label
_atom_site_fract_x
_atom_site_fract_y
_atom_site_fract_z
Si Si1 0.580980 0.904137 0.027246
Si Si2 0.098621 0.252646 0.531265
Si Si3 0.507855 0.565704 0.562945
Si Si4 0.175950 0.914814 0.786912
Si Si5 0.138325 0.714502 0.615104
Si Si6 0.171025 0.405371 0.977009
Si Si7 0.331819 0.063069 0.388805
Si Si8 0.092736 0.142787 0.664889
O O1 0.352734 0.853216 0.108566
O O2 0.703468 0.958261 0.054848
O O3 0.709874 0.812239 0.954543
O O4 0.500000 0.000000 0.000000
O O5 0.286975 0.347706 0.492561
O O6 0.217112 0.165332 0.454455
O O7 0.044453 0.198116 0.611260
O O8 0.880341 0.301915 0.555160
O O9 0.500000 0.500000 0.500000
O O10 0.283784 0.639494 0.625541
O O11 0.588992 0.464865 0.587439
O O12 0.402833 0.922431 0.688902
O O13 0.235685 0.938868 0.843994
O O14 0.067877 0.789956 0.808787
O O15 0.007125 0.015304 0.812882
O O16 0.100585 0.634262 0.564764
O O17 0.000000 0.500000 0.000000
O O18 0.000000 0.201283 0.750000
#
# Coordination Sequence:
#
# PCOD9237235 Si02
#       8
#     4   4   4   4   4   4   4   4
#     4  12  21  35  58  88 126 161 209 243 294 378
#     4  11  20  38  63  87 119 163 207 249 308 375
#     4   9  19  35  59  91 115 145 205 255 303 363
#     4  11  24  36  56  90 134 164 203 248 304 368
#     4  11  19  35  60  92 120 164 201 246 310 368
#     4   9  20  36  60  91 113 153 206 256 305 364
#     4  11  23  38  55  90 129 167 205 249 298 375
#     4  12  24  38  57  89 128 165 202 253 304 372
#
# _framework density 20.817906000000001
#
# number of rings (size 3 to 8) (size 9 to 14) (size 15 to 20)
#    0.000    1.250    6.250    0.000    1.750    1.000 
#    0.000    0.000    0.000    4.500    9.750    0.000 
#    0.000    0.000    0.000    0.125    0.000    0.000 
#
# Total GULP energy -178554.285395 kJ/mol
# GULP energy per Si atom -5579.821419 kJ/mol
# Density = 2.077052 g / cm^3
# Si number density = 20.817906 Si / 1000 Ang^3
#
#
#
# Elastic Constant Matrix: (Units=GPa)
#
#
# Indices 1 2 3 4 5 6 
#
# 1 91.4498 38.9149 11.1329 0.0000 11.8615 0.0000
# 2 38.9149 79.1460 15.2274 0.0000 6.1217 0.0000
# 3 11.1329 15.2274 72.9548 0.0000 10.3835 0.0000
# 4 0.0000 0.0000 0.0000 -1.2347 0.0000 -15.2260
# 5 11.8615 6.1217 10.3835 0.0000 30.9992 0.0000
# 6 0.0000 0.0000 0.0000 -15.2260 0.0000 41.8744
#
#
#
# Elastic Compliance Matrix: (Units=1/GPa)
#
#
# Indices 1 2 3 4 5 6 
#
# 1 0.014340 -0.006694 -0.000208 0.000000 -0.004095 0.000000
# 2 -0.006694 0.016381 -0.002417 0.000000 0.000136 0.000000
# 3 -0.000208 -0.002417 0.014873 0.000000 -0.004425 0.000000
# 4 0.000000 0.000000 0.000000 -0.147688 0.000000 -0.053701
# 5 -0.004095 0.000136 -0.004425 0.000000 0.035281 0.000000
# 6 0.000000 0.000000 0.000000 -0.053701 0.000000 0.004355
#
#
# Mechanical properties :
#
#
# Convention : Reuss Voigt Hill
#
# Bulk Modulus (GPa) = 37.09790 41.56678 39.33234
# Shear Modulus (GPa) = -143.53591 26.21281 -58.66155
#
# Velocity S-wave (km/s) = -8.31252 3.55230 -5.31409
# Velocity P-wave (km/s) = 8.61811 6.06921 4.32646
#
# Compressibility (1/GPa) = 0.02695570
#
# Stress axis : x y z
#
# Youngs Moduli (GPa) = 69.73503 61.04762 67.23527
#
# Poissons Ratio (x) = 0.40865 0.01400
# Poissons Ratio (y) = 0.46680 0.16250
# Poissons Ratio (z) = 0.01452 0.14755
#
# Static dielectric constant tensor:
#      x y z
#    x 1.820280 0.000000 -0.018530 
#    y 0.000000 1.791100 0.000000 
#    z -0.018530 0.000000 1.736940 
# 
# From -- ./inp_files/76437.got.cif
#   From: 2010.05.17/outbox.cif.g08.bks.cpg/sg13_39_cif.got.tgz:76437.got - 2010.06.03 16:44:36.
