data_PCOD9237591
_publ_section_title
;
Structure prediction by ZEFSAII (Michael W. Deem and Ramdas Pophale) SiO2 
 PCOD9237591
Probable space group: P 2/C
;
_chemical_formula_sum "Si O2"
_cell_formula_units_Z 20
_cell_length_a 18.515401
_cell_length_b 7.024332
_cell_length_c 8.037679
_cell_angle_alpha 90.000000
_cell_angle_beta 49.054102
_cell_angle_gamma 90.000000
_cell_volume 789.595775
_symmetry_space_group_name_H-M "P 2/C"
_symmetry_group_IT_number 13
_symmetry_cell_setting 'monoclinic'
loop_
_space_group_symop_operation_xyz
x,y,z
-x,y,1/2-z
-x,-y,-z
x,-y,1/2+z
loop_
_atom_site_type_symbol
_atom_site_label
_atom_site_fract_x
_atom_site_fract_y
_atom_site_fract_z
Si Si1 0.695715 0.440165 0.128096
Si Si2 0.902954 0.117419 0.301684
Si Si3 0.101963 0.707758 0.062283
Si Si4 0.708659 0.209624 0.774733
Si Si5 0.429776 0.133156 0.998687
O O1 0.802332 0.407572 0.042857
O O2 0.668321 0.661283 0.184358
O O3 0.618879 0.307382 0.334595
O O4 0.702444 0.357035 0.934337
O O5 0.894502 0.211364 0.132360
O O6 0.813436 0.162412 0.553241
O O7 0.000000 0.169537 0.250000
O O8 0.901309 0.886555 0.304187
O O9 0.000000 0.607106 0.250000
O O10 0.655348 0.018043 0.911262
O O11 0.500000 0.199933 0.750000
O O12 0.500000 0.000000 0.000000
#
# Coordination Sequence:
#
# PCOD9237591 Si02
#       5
#     4   4   4   4   4
#     4  12  27  46  73 106 144 182 235 288 351 419
#     4  11  22  40  69 103 143 186 234 280 344 414
#     4  11  22  40  69 103 143 187 232 282 342 415
#     4  12  27  46  73 107 142 184 234 289 350 419
#     4  12  28  50  75 101 138 182 234 294 355 413
#
# _framework density 25.329418
#
# number of rings (size 3 to 8) (size 9 to 14) (size 15 to 20)
#    0.000    0.400    4.000    6.000    5.600    2.400 
#    0.000    4.000    0.000    0.000    0.000    0.000 
#    0.000    0.000    0.000    0.000    0.000    0.000 
#
# Total GULP energy -112077.736581 kJ/mol
# GULP energy per Si atom -5603.886829 kJ/mol
# Density = 2.527177 g / cm^3
# Si number density = 25.329418 Si / 1000 Ang^3
#
#
#
# Elastic Constant Matrix: (Units=GPa)
#
#
# Indices 1 2 3 4 5 6 
#
# 1 83.3505 -0.4219 40.9200 0.0000 -14.1119 0.0000
# 2 -0.4219 92.7956 23.9536 0.0000 -25.2465 0.0000
# 3 40.9200 23.9536 207.1043 0.0000 -29.3863 0.0000
# 4 0.0000 0.0000 0.0000 19.0749 0.0000 21.6323
# 5 -14.1119 -25.2465 -29.3863 0.0000 40.3340 0.0000
# 6 0.0000 0.0000 0.0000 21.6323 0.0000 10.5455
#
#
#
# Elastic Compliance Matrix: (Units=1/GPa)
#
#
# Indices 1 2 3 4 5 6 
#
# 1 0.013887 0.001839 -0.002346 0.000000 0.004300 0.000000
# 2 0.001839 0.013260 -0.000700 0.000000 0.008433 0.000000
# 3 -0.002346 -0.000700 0.005793 0.000000 0.002962 0.000000
# 4 0.000000 0.000000 0.000000 -0.039526 0.000000 0.081080
# 5 0.004300 0.008433 0.002962 0.000000 0.033734 0.000000
# 6 0.000000 0.000000 0.000000 0.081080 0.000000 -0.071495
#
#
# Mechanical properties :
#
#
# Convention : Reuss Voigt Hill
#
# Bulk Modulus (GPa) = 32.76115 56.90598 44.83356
# Shear Modulus (GPa) = -157.44939 35.24412 -61.10263
#
# Velocity S-wave (km/s) = -7.89276 3.73423 -4.91686
# Velocity P-wave (km/s) = 8.37250 6.41154 3.80729
#
# Compressibility (1/GPa) = 0.03052396
#
# Stress axis : x y z
#
# Youngs Moduli (GPa) = 72.01100 75.41589 172.61351
#
# Poissons Ratio (x) = -0.13867 0.40500
# Poissons Ratio (y) = -0.13241 0.12089
# Poissons Ratio (z) = 0.16896 0.05282
#
# Static dielectric constant tensor:
#      x y z
#    x 2.116880 0.000000 0.044550 
#    y 0.000000 2.029120 0.000000 
#    z 0.044550 0.000000 1.961190 
# 
# From -- ./inp_files/22483.got.cif
#   From: 2010.05.17/outbox.cif.g08.bks.cpg/sg13_12_cif.got.tgz:22483.got - 2010.06.03 16:44:36.
