data_PCOD9237468
_publ_section_title
;
Structure prediction by ZEFSAII (Michael W. Deem and Ramdas Pophale) SiO2 
 PCOD9237468
Probable space group: P 2/C
;
_chemical_formula_sum "Si O2"
_cell_formula_units_Z 22
_cell_length_a 21.347271
_cell_length_b 9.675623
_cell_length_c 14.258356
_cell_angle_alpha 90.000000
_cell_angle_beta 158.431329
_cell_angle_gamma 90.000000
_cell_volume 1082.643020
_symmetry_space_group_name_H-M "P 2/C"
_symmetry_group_IT_number 13
_symmetry_cell_setting 'monoclinic'
loop_
_space_group_symop_operation_xyz
x,y,z
-x,y,1/2-z
-x,-y,-z
x,-y,1/2+z
loop_
_atom_site_type_symbol
_atom_site_label
_atom_site_fract_x
_atom_site_fract_y
_atom_site_fract_z
Si Si1 0.932530 0.551040 0.506488
Si Si2 0.544008 0.461274 0.455950
Si Si3 0.123455 0.815663 0.744259
Si Si4 0.500000 0.765424 0.750000
Si Si5 0.000000 0.681624 0.250000
Si Si6 0.500000 0.295044 0.750000
Si Si7 0.139608 0.126878 0.790487
O O1 0.738053 0.589259 0.221982
O O2 0.000000 0.500000 0.500000
O O3 0.047776 0.682740 0.693490
O O4 0.928375 0.425187 0.573476
O O5 0.500000 0.500000 0.500000
O O6 0.457545 0.337930 0.277609
O O7 0.511752 0.601167 0.353934
O O8 0.007618 0.826949 0.488479
O O9 0.109636 0.965852 0.771263
O O10 0.323110 0.787558 0.004677
O O11 0.325802 0.853430 0.501897
O O12 0.879901 0.781707 0.143355
#
# Coordination Sequence:
#
# PCOD9237468 Si02
#       7
#     4   4   4   2   2   2   4
#     4  12  22  43  67  97 134 176 225 278 334 395
#     4  11  23  37  63 101 130 165 226 280 329 389
#     4  11  24  44  68  96 135 184 218 274 336 404
#     4  11  21  42  66  96 132 182 216 276 336 404
#     4  12  24  40  72 102 132 174 228 280 330 404
#     4  11  23  42  64  96 138 172 226 278 332 394
#     4  11  24  44  69  97 139 176 225 273 343 401
#
# _framework density 20.320640000000001
#
# number of rings (size 3 to 8) (size 9 to 14) (size 15 to 20)
#    0.000    0.727    5.455    1.636    5.091    0.727 
#    0.000    0.000    0.000    6.545    0.000    0.000 
#    0.000    0.000    0.000    0.000    0.000    0.000 
#
# Total GULP energy -122744.336197 kJ/mol
# GULP energy per Si atom -5579.288009 kJ/mol
# Density = 2.027439 g / cm^3
# Si number density = 20.320640 Si / 1000 Ang^3
#
#
#
# Elastic Constant Matrix: (Units=GPa)
#
#
# Indices 1 2 3 4 5 6 
#
# 1 100.5576 36.4615 36.6060 0.0000 -4.0084 0.0000
# 2 36.4615 146.2690 37.3521 0.0000 2.5902 0.0000
# 3 36.6060 37.3521 110.2004 0.0000 29.9066 0.0000
# 4 0.0000 0.0000 0.0000 22.6087 0.0000 -7.1014
# 5 -4.0084 2.5902 29.9066 0.0000 36.0692 0.0000
# 6 0.0000 0.0000 0.0000 -7.1014 0.0000 16.7519
#
#
#
# Elastic Compliance Matrix: (Units=1/GPa)
#
#
# Indices 1 2 3 4 5 6 
#
# 1 0.012769 -0.001969 -0.005158 0.000000 0.005837 0.000000
# 2 -0.001969 0.007904 -0.002338 0.000000 0.001152 0.000000
# 3 -0.005158 -0.002338 0.015084 0.000000 -0.012913 0.000000
# 4 0.000000 0.000000 0.000000 0.051025 0.000000 0.021630
# 5 0.005837 0.001152 -0.012913 0.000000 0.038997 0.000000
# 6 0.000000 0.000000 0.000000 0.021630 0.000000 0.068864
#
#
# Mechanical properties :
#
#
# Convention : Reuss Voigt Hill
#
# Bulk Modulus (GPa) = 59.42631 64.20736 61.81684
# Shear Modulus (GPa) = 22.81203 31.52646 27.16925
#
# Velocity S-wave (km/s) = 3.35416 3.94312 3.66051
# Velocity P-wave (km/s) = 6.65645 7.23855 6.95360
#
# Compressibility (1/GPa) = 0.01682756
#
# Stress axis : x y z
#
# Youngs Moduli (GPa) = 78.31456 126.51652 66.29359
#
# Poissons Ratio (x) = 0.24913 0.34196
# Poissons Ratio (y) = 0.15421 0.15496
# Poissons Ratio (z) = 0.40397 0.29574
#
# Static dielectric constant tensor:
#      x y z
#    x 1.800760 0.000000 -0.163390 
#    y 0.000000 1.735450 0.000000 
#    z -0.163390 0.000000 2.004880 
# 
# From -- ./inp_files/58770.got.cif
#   From: 2010.05.17/outbox.cif.g08.bks.cpg/sg13_30_cif.got.tgz:58770.got - 2010.06.03 16:44:36.
