data_PCOD9237898
_publ_section_title
;
Structure prediction by ZEFSAII (Michael W. Deem and Ramdas Pophale) SiO2 
 PCOD9237898
Probable space group: P 2/C
;
_chemical_formula_sum "Si O2"
_cell_formula_units_Z 28
_cell_length_a 6.946751
_cell_length_b 15.536723
_cell_length_c 17.723233
_cell_angle_alpha 90.000000
_cell_angle_beta 144.946521
_cell_angle_gamma 90.000000
_cell_volume 1098.635804
_symmetry_space_group_name_H-M "P 2/C"
_symmetry_group_IT_number 13
_symmetry_cell_setting 'monoclinic'
loop_
_space_group_symop_operation_xyz
x,y,z
-x,y,1/2-z
-x,-y,-z
x,-y,1/2+z
loop_
_atom_site_type_symbol
_atom_site_label
_atom_site_fract_x
_atom_site_fract_y
_atom_site_fract_z
Si Si1 0.717999 0.431044 0.892464
Si Si2 0.044466 0.072100 0.355682
Si Si3 0.783063 0.265719 0.279682
Si Si4 0.170085 0.895315 0.152972
Si Si5 0.820869 0.280852 0.513271
Si Si6 0.340393 0.864071 0.353349
Si Si7 0.501833 0.672777 0.055341
O O1 0.500000 0.453290 0.750000
O O2 0.485561 0.410694 0.889103
O O3 0.000000 0.500000 0.000000
O O4 0.913750 0.340879 0.942824
O O5 0.410653 0.087901 0.508260
O O6 0.000000 0.051256 0.250000
O O7 0.867879 0.164290 0.308627
O O8 0.909326 0.996943 0.366752
O O9 0.500000 0.286167 0.250000
O O10 0.565564 0.282322 0.135974
O O11 0.120100 0.318464 0.401664
O O12 0.998099 0.873154 0.188713
O O13 0.528803 0.890138 0.323194
O O14 0.945539 0.817260 0.046772
O O15 0.789496 0.322715 0.585255
O O16 0.434151 0.763488 0.382873
#
# Coordination Sequence:
#
# PCOD9237898 Si02
#       7
#     4   4   4   4   4   4   4
#     4  12  30  52  83 120 157 197 249 317 391 468
#     4  11  27  44  64 106 151 203 265 319 380 444
#     4  11  23  45  75 110 155 206 258 320 382 453
#     4  12  27  42  68 102 147 201 258 320 378 442
#     4  12  25  48  81 112 154 205 259 314 388 462
#     4  11  23  44  70 100 142 195 252 315 371 440
#     4  11  24  48  77 113 150 200 251 308 383 459
#
# _framework density 25.486153000000002
#
# number of rings (size 3 to 8) (size 9 to 14) (size 15 to 20)
#    0.000    0.571    2.857    5.143    6.000    2.286 
#    0.000    0.000    0.000    0.000    0.000    0.000 
#    0.000    0.000    0.000    0.000    0.000    0.000 
#
# Total GULP energy -156386.180977 kJ/mol
# GULP energy per Si atom -5585.220749 kJ/mol
# Density = 2.542815 g / cm^3
# Si number density = 25.486153 Si / 1000 Ang^3
#
#
#
# Elastic Constant Matrix: (Units=GPa)
#
#
# Indices 1 2 3 4 5 6 
#
# 1 150.7172 11.9253 45.7922 0.0000 4.6365 0.0000
# 2 11.9253 46.5473 31.9243 0.0000 -9.0795 0.0000
# 3 45.7922 31.9243 191.6242 0.0000 10.3828 0.0000
# 4 0.0000 0.0000 0.0000 23.7398 0.0000 15.6328
# 5 4.6365 -9.0795 10.3828 0.0000 37.3588 0.0000
# 6 0.0000 0.0000 0.0000 15.6328 0.0000 12.7909
#
#
#
# Elastic Compliance Matrix: (Units=1/GPa)
#
#
# Indices 1 2 3 4 5 6 
#
# 1 0.007194 -0.000932 -0.001526 0.000000 -0.000695 0.000000
# 2 -0.000932 0.026399 -0.004599 0.000000 0.007810 0.000000
# 3 -0.001526 -0.004599 0.006498 0.000000 -0.002734 0.000000
# 4 0.000000 0.000000 0.000000 0.215807 0.000000 -0.263755
# 5 -0.000695 0.007810 -0.002734 0.000000 0.029512 0.000000
# 6 0.000000 0.000000 0.000000 -0.263755 0.000000 0.400536
#
#
# Mechanical properties :
#
#
# Convention : Reuss Voigt Hill
#
# Bulk Modulus (GPa) = 38.49485 63.13024 50.81255
# Shear Modulus (GPa) = 7.05499 34.72770 20.89134
#
# Velocity S-wave (km/s) = 1.66559 3.69536 2.86617
# Velocity P-wave (km/s) = 4.34004 6.55986 5.56182
#
# Compressibility (1/GPa) = 0.02597750
#
# Stress axis : x y z
#
# Youngs Moduli (GPa) = 139.00947 37.87951 153.90529
#
# Poissons Ratio (x) = 0.03530 0.23489
# Poissons Ratio (y) = 0.12954 0.70774
# Poissons Ratio (z) = 0.21215 0.17419
#
# Static dielectric constant tensor:
#      x y z
#    x 2.448920 0.000000 -0.175940 
#    y 0.000000 1.880960 0.000000 
#    z -0.175940 0.000000 2.096920 
# 
# From -- ./inp_files/76745.got.cif
#   From: 2010.05.17/outbox.cif.g08.bks.cpg/sg13_39_cif.got.tgz:76745.got - 2010.06.03 16:44:36.
