data_PCOD9237136
_publ_section_title
;
Structure prediction by ZEFSAII (Michael W. Deem and Ramdas Pophale) SiO2 
 PCOD9237136
Probable space group: P 2/C
;
_chemical_formula_sum "Si O2"
_cell_formula_units_Z 28
_cell_length_a 19.118255
_cell_length_b 5.726677
_cell_length_c 10.037961
_cell_angle_alpha 90.000000
_cell_angle_beta 101.116778
_cell_angle_gamma 90.000000
_cell_volume 1078.375530
_symmetry_space_group_name_H-M "P 2/C"
_symmetry_group_IT_number 13
_symmetry_cell_setting 'monoclinic'
loop_
_space_group_symop_operation_xyz
x,y,z
-x,y,1/2-z
-x,-y,-z
x,-y,1/2+z
loop_
_atom_site_type_symbol
_atom_site_label
_atom_site_fract_x
_atom_site_fract_y
_atom_site_fract_z
Si Si1 0.500000 0.513978 0.750000
Si Si2 0.302635 0.052340 0.794659
Si Si3 0.113915 0.520403 0.185393
Si Si4 0.186058 0.254474 0.925000
Si Si5 0.557529 0.205915 0.521468
Si Si6 0.273225 0.552011 0.668256
Si Si7 0.080992 0.944983 0.990432
Si Si8 0.000000 0.237978 0.250000
O O1 0.540827 0.362708 0.649373
O O2 0.451204 0.664185 0.626291
O O3 0.227311 0.077506 0.843769
O O4 0.366112 0.090230 0.923594
O O5 0.304753 0.292282 0.705236
O O6 0.309228 0.796520 0.729009
O O7 0.117679 0.623881 0.335405
O O8 0.196714 0.449297 0.213474
O O9 0.039772 0.386946 0.153709
O O10 0.106944 0.717185 0.073185
O O11 0.146171 0.120178 0.029463
O O12 0.248277 0.417140 0.006434
O O13 0.500000 0.000000 0.500000
O O14 0.067284 0.902333 0.829301
O O15 0.000000 0.000000 0.000000
#
# Coordination Sequence:
#
# PCOD9237136 Si02
#       8
#     2   4   4   4   4   4   4   2
#     4  10  26  48  82 118 172 208 278 332 416 492
#     4  11  28  45  77 107 149 194 256 306 386 462
#     4  11  23  41  61  95 134 183 240 307 380 462
#     4  11  23  43  67  96 141 188 239 310 378 451
#     4  11  26  50  81 123 163 222 269 342 408 491
#     4  11  25  46  67 104 140 191 243 308 374 458
#     4  12  23  39  65  98 135 186 249 313 384 464
#     4  12  22  36  62  88 130 182 234 310 380 450
#
# _framework density 25.964980000000001
#
# number of rings (size 3 to 8) (size 9 to 14) (size 15 to 20)
#    0.000    0.857    0.000    6.857    6.000    4.571 
#    0.000    0.000    0.000    0.000    0.000    0.000 
#    0.000    0.000    0.000    0.000    0.000    0.000 
#
# Total GULP energy -156126.212819 kJ/mol
# GULP energy per Si atom -5575.936172 kJ/mol
# Density = 2.590588 g / cm^3
# Si number density = 25.964980 Si / 1000 Ang^3
#
#
#
# Elastic Constant Matrix: (Units=GPa)
#
#
# Indices 1 2 3 4 5 6 
#
# 1 97.2450 28.7925 25.7422 0.0000 20.6810 0.0000
# 2 28.7925 112.5965 47.2676 0.0000 24.2684 0.0000
# 3 25.7422 47.2676 133.6898 0.0000 26.9005 0.0000
# 4 0.0000 0.0000 0.0000 54.7551 0.0000 7.3659
# 5 20.6810 24.2684 26.9005 0.0000 47.5741 0.0000
# 6 0.0000 0.0000 0.0000 7.3659 0.0000 31.8879
#
#
#
# Elastic Compliance Matrix: (Units=1/GPa)
#
#
# Indices 1 2 3 4 5 6 
#
# 1 0.011856 -0.001864 -0.000878 0.000000 -0.003706 0.000000
# 2 -0.001864 0.011316 -0.002983 0.000000 -0.003276 0.000000
# 3 -0.000878 -0.002983 0.009389 0.000000 -0.003406 0.000000
# 4 0.000000 0.000000 0.000000 0.018849 0.000000 -0.004354
# 5 -0.003706 -0.003276 -0.003406 0.000000 0.026228 0.000000
# 6 0.000000 0.000000 0.000000 -0.004354 0.000000 0.032366
#
#
# Mechanical properties :
#
#
# Convention : Reuss Voigt Hill
#
# Bulk Modulus (GPa) = 47.36914 60.79289 54.08102
# Shear Modulus (GPa) = 38.91339 42.95869 40.93604
#
# Velocity S-wave (km/s) = 3.87549 4.07195 3.97493
# Velocity P-wave (km/s) = 6.18942 6.75070 6.47614
#
# Compressibility (1/GPa) = 0.02111079
#
# Stress axis : x y z
#
# Youngs Moduli (GPa) = 84.34589 88.36885 106.50801
#
# Poissons Ratio (x) = 0.16475 0.09351
# Poissons Ratio (y) = 0.15725 0.31770
# Poissons Ratio (z) = 0.07405 0.26360
#
# Static dielectric constant tensor:
#      x y z
#    x 1.997390 0.000000 -0.204150 
#    y 0.000000 1.577650 0.000000 
#    z -0.204150 0.000000 2.143660 
# 
# From -- ./inp_files/40177.got.cif
#   From: 2010.05.17/outbox.cif.g08.bks.cpg/sg13_21_cif.got.tgz:40177.got - 2010.06.03 16:44:36.
