data_PCOD9237649
_publ_section_title
;
Structure prediction by ZEFSAII (Michael W. Deem and Ramdas Pophale) SiO2 
 PCOD9237649
Probable space group: P 2/C
;
_chemical_formula_sum "Si O2"
_cell_formula_units_Z 18
_cell_length_a 7.373843
_cell_length_b 9.575186
_cell_length_c 10.617061
_cell_angle_alpha 90.000000
_cell_angle_beta 106.695989
_cell_angle_gamma 90.000000
_cell_volume 718.025008
_symmetry_space_group_name_H-M "P 2/C"
_symmetry_group_IT_number 13
_symmetry_cell_setting 'monoclinic'
loop_
_space_group_symop_operation_xyz
x,y,z
-x,y,1/2-z
-x,-y,-z
x,-y,1/2+z
loop_
_atom_site_type_symbol
_atom_site_label
_atom_site_fract_x
_atom_site_fract_y
_atom_site_fract_z
Si Si1 0.225797 0.989532 0.014261
Si Si2 0.691676 0.735048 0.851501
Si Si3 0.700406 0.562898 0.080745
Si Si4 0.224375 0.155705 0.767941
Si Si5 0.000000 0.345381 0.250000
O O1 0.345697 0.121362 0.087719
O O2 0.274620 0.871934 0.130466
O O3 0.257320 0.021936 0.870225
O O4 0.000000 0.000000 0.000000
O O5 0.500000 0.683072 0.750000
O O6 0.868055 0.758278 0.799097
O O7 0.775850 0.624635 0.965404
O O8 0.683147 0.698291 0.167324
O O9 0.844720 0.447716 0.158452
O O10 0.500000 0.500000 0.000000
O O11 0.000000 0.182502 0.750000
#
# Coordination Sequence:
#
# PCOD9237649 Si02
#       5
#     4   4   4   4   2
#     4   9  20  38  66  98 138 177 232 290 353 419
#     4  11  24  43  67 100 138 181 234 297 347 424
#     4  11  22  43  68 102 141 182 236 294 347 433
#     4   9  18  37  66 100 139 178 233 292 351 421
#     4  12  24  42  72  94 142 186 230 284 374 412
#
# _framework density 25.068764999999999
#
# number of rings (size 3 to 8) (size 9 to 14) (size 15 to 20)
#    0.000    1.778    3.333    0.667    4.667    0.000 
#    0.000    6.667    4.889    0.000    0.000    0.000 
#    0.000    0.000    0.000    0.000    0.000    0.000 
#
# Total GULP energy -100301.774029 kJ/mol
# GULP energy per Si atom -5572.320779 kJ/mol
# Density = 2.501171 g / cm^3
# Si number density = 25.068765 Si / 1000 Ang^3
#
#
#
# Elastic Constant Matrix: (Units=GPa)
#
#
# Indices 1 2 3 4 5 6 
#
# 1 83.4077 12.6417 21.1716 0.0000 15.8114 0.0000
# 2 12.6417 89.7773 53.9461 0.0000 16.1378 0.0000
# 3 21.1716 53.9461 102.4229 0.0000 34.4504 0.0000
# 4 0.0000 0.0000 0.0000 -82.2597 0.0000 24.8063
# 5 15.8114 16.1378 34.4504 0.0000 20.3043 0.0000
# 6 0.0000 0.0000 0.0000 24.8063 0.0000 24.0069
#
#
#
# Elastic Compliance Matrix: (Units=1/GPa)
#
#
# Indices 1 2 3 4 5 6 
#
# 1 0.014252 -0.000817 0.002327 0.000000 -0.014396 0.000000
# 2 -0.000817 0.016467 -0.010054 0.000000 0.004607 0.000000
# 3 0.002327 -0.010054 0.029116 0.000000 -0.043222 0.000000
# 4 0.000000 0.000000 0.000000 -0.009269 0.000000 0.009577
# 5 -0.014396 0.004607 -0.043222 0.000000 0.130136 0.000000
# 6 0.000000 0.000000 0.000000 0.009577 0.000000 0.031759
#
#
# Mechanical properties :
#
#
# Convention : Reuss Voigt Hill
#
# Bulk Modulus (GPa) = 23.39387 50.12519 36.75953
# Shear Modulus (GPa) = 20.50889 4.93352 12.72120
#
# Velocity S-wave (km/s) = 2.86336 1.40437 2.25511
# Velocity P-wave (km/s) = 4.50376 4.76111 4.63422
#
# Compressibility (1/GPa) = 0.04274624
#
# Stress axis : x y z
#
# Youngs Moduli (GPa) = 70.16742 60.72839 34.34570
#
# Poissons Ratio (x) = 0.04962 -0.07991
# Poissons Ratio (y) = 0.05733 0.34530
# Poissons Ratio (z) = -0.16326 0.61054
#
# Static dielectric constant tensor:
#      x y z
#    x 1.984380 0.000000 -0.096080 
#    y 0.000000 1.964490 0.000000 
#    z -0.096080 0.000000 2.235680 
# 
# From -- ./inp_files/28372.got.cif
#   From: 2010.05.17/outbox.cif.g08.bks.cpg/sg13_15_cif.got.tgz:28372.got - 2010.06.03 16:44:36.
