data_PCOD9237943
_publ_section_title
;
Structure prediction by ZEFSAII (Michael W. Deem and Ramdas Pophale) SiO2 
 PCOD9237943
Probable space group: P 2/C
;
_chemical_formula_sum "Si O2"
_cell_formula_units_Z 24
_cell_length_a 13.775147
_cell_length_b 10.308634
_cell_length_c 18.169506
_cell_angle_alpha 90.000000
_cell_angle_beta 156.827795
_cell_angle_gamma 90.000000
_cell_volume 1015.268191
_symmetry_space_group_name_H-M "P 2/C"
_symmetry_group_IT_number 13
_symmetry_cell_setting 'monoclinic'
loop_
_space_group_symop_operation_xyz
x,y,z
-x,y,1/2-z
-x,-y,-z
x,-y,1/2+z
loop_
_atom_site_type_symbol
_atom_site_label
_atom_site_fract_x
_atom_site_fract_y
_atom_site_fract_z
Si Si1 0.390701 0.819595 0.383618
Si Si2 0.963153 0.015817 0.647227
Si Si3 0.937486 0.575178 0.293961
Si Si4 0.634466 0.736811 0.912508
Si Si5 0.731045 0.818317 0.370233
Si Si6 0.236091 0.307818 0.258629
O O1 0.245107 0.687251 0.304805
O O2 0.368762 0.843291 0.281206
O O3 0.654651 0.792079 0.604685
O O4 0.226519 0.933817 0.302715
O O5 0.809391 0.146654 0.560865
O O6 0.000000 0.942733 0.750000
O O7 0.816530 0.939256 0.481290
O O8 0.827006 0.441386 0.244748
O O9 0.000000 0.575090 0.250000
O O10 0.204561 0.619545 0.508881
O O11 0.500000 0.798051 0.750000
O O12 0.448202 0.688415 0.844688
O O13 0.500000 0.752506 0.250000
O O14 0.982934 0.737226 0.544121
#
# Coordination Sequence:
#
# PCOD9237943 Si02
#       6
#     4   4   4   4   4   4
#     4  11  24  49  75 106 143 193 250 303 368 442
#     4  11  23  48  76 104 147 194 249 305 372 435
#     4  11  24  44  74 109 147 191 245 303 368 444
#     4  11  23  45  75 107 147 197 249 300 366 447
#     4  12  31  45  68 108 150 190 252 313 363 433
#     4  12  26  46  76 107 148 199 242 305 370 438
#
# _framework density 23.639074999999998
#
# number of rings (size 3 to 8) (size 9 to 14) (size 15 to 20)
#    0.000    0.667    3.333    4.500    4.667    5.333 
#    0.000    0.000    0.000    0.000    0.000    0.000 
#    0.000    0.000    0.000    0.000    0.000    0.000 
#
# Total GULP energy -134158.987165 kJ/mol
# GULP energy per Si atom -5589.957799 kJ/mol
# Density = 2.358527 g / cm^3
# Si number density = 23.639075 Si / 1000 Ang^3
#
#
#
# Elastic Constant Matrix: (Units=GPa)
#
#
# Indices 1 2 3 4 5 6 
#
# 1 135.4962 28.5070 16.9399 0.0000 -8.0219 0.0000
# 2 28.5070 101.3887 9.7329 0.0000 15.2425 0.0000
# 3 16.9399 9.7329 109.5531 0.0000 -2.5044 0.0000
# 4 0.0000 0.0000 0.0000 4.6551 0.0000 -12.4939
# 5 -8.0219 15.2425 -2.5044 0.0000 58.7177 0.0000
# 6 0.0000 0.0000 0.0000 -12.4939 0.0000 8.7610
#
#
#
# Elastic Compliance Matrix: (Units=1/GPa)
#
#
# Indices 1 2 3 4 5 6 
#
# 1 0.008120 -0.002443 -0.001000 0.000000 0.001701 0.000000
# 2 -0.002443 0.011103 -0.000683 0.000000 -0.003245 0.000000
# 3 -0.001000 -0.000683 0.009353 0.000000 0.000440 0.000000
# 4 0.000000 0.000000 0.000000 -0.075975 0.000000 -0.108347
# 5 0.001701 -0.003245 0.000440 0.000000 0.018124 0.000000
# 6 0.000000 0.000000 0.000000 -0.108347 0.000000 -0.040369
#
#
# Mechanical properties :
#
#
# Convention : Reuss Voigt Hill
#
# Bulk Modulus (GPa) = 49.19856 50.75531 49.97693
# Shear Modulus (GPa) = -91.54523 33.84397 -28.85063
#
# Velocity S-wave (km/s) = -6.22979 3.78788 -3.49730
# Velocity P-wave (km/s) = 5.55783 6.37560 2.20893
#
# Compressibility (1/GPa) = 0.02032580
#
# Stress axis : x y z
#
# Youngs Moduli (GPa) = 123.15447 90.06350 106.91428
#
# Poissons Ratio (x) = 0.22000 0.10688
# Poissons Ratio (y) = 0.30084 0.07301
# Poissons Ratio (z) = 0.12311 0.06150
#
# Static dielectric constant tensor:
#      x y z
#    x 1.906080 0.000000 -0.025160 
#    y 0.000000 1.855030 0.000000 
#    z -0.025160 0.000000 1.951960 
# 
# From -- ./inp_files/80206.got.cif
#   From: 2010.05.17/outbox.cif.g08.bks.cpg/sg13_41_cif.got.tgz:80206.got - 2010.06.03 16:44:36.
