data_PCOD9237126
_publ_section_title
;
Structure prediction by ZEFSAII (Michael W. Deem and Ramdas Pophale) SiO2 
 PCOD9237126
Probable space group: P 2/C
;
_chemical_formula_sum "Si O2"
_cell_formula_units_Z 18
_cell_length_a 19.967401
_cell_length_b 4.271897
_cell_length_c 7.838661
_cell_angle_alpha 90.000000
_cell_angle_beta 118.111915
_cell_angle_gamma 90.000000
_cell_volume 589.748723
_symmetry_space_group_name_H-M "P 2/C"
_symmetry_group_IT_number 13
_symmetry_cell_setting 'monoclinic'
loop_
_space_group_symop_operation_xyz
x,y,z
-x,y,1/2-z
-x,-y,-z
x,-y,1/2+z
loop_
_atom_site_type_symbol
_atom_site_label
_atom_site_fract_x
_atom_site_fract_y
_atom_site_fract_z
Si Si1 0.615105 0.289715 0.391008
Si Si2 0.275601 0.269191 0.256043
Si Si3 0.831888 0.188303 0.648975
Si Si4 0.944577 0.787228 0.549751
Si Si5 0.500000 0.791929 0.250000
O O1 0.663345 0.120290 0.301158
O O2 0.673890 0.481591 0.580029
O O3 0.558808 0.545555 0.238314
O O4 0.559095 0.033505 0.407155
O O5 0.225610 0.036726 0.312883
O O6 0.216581 0.394032 0.041768
O O7 0.888890 0.992159 0.599731
O O8 0.886659 0.369138 0.846353
O O9 0.000000 0.612974 0.750000
O O10 0.000000 0.000000 0.500000
#
# Coordination Sequence:
#
# PCOD9237126 Si02
#       5
#     4   4   4   4   2
#     4  11  26  46  74 106 149 197 254 316 386 455
#     4  11  24  41  68 103 147 198 247 312 379 450
#     4   9  19  37  64 104 151 195 248 304 371 444
#     4   8  14  29  61 108 149 196 246 302 363 435
#     4  10  26  48  74 108 146 194 254 318 384 458
#
# _framework density 30.521476
#
# number of rings (size 3 to 8) (size 9 to 14) (size 15 to 20)
#    0.000    2.222    0.000    1.333    0.000   14.222 
#    0.000    0.000    0.000    0.000    0.000  289.333 
#    0.000    0.000    0.000    0.444    0.000    0.000 
#
# Total GULP energy -100618.474996 kJ/mol
# GULP energy per Si atom -5589.915278 kJ/mol
# Density = 3.045201 g / cm^3
# Si number density = 30.521476 Si / 1000 Ang^3
#
#
#
# Elastic Constant Matrix: (Units=GPa)
#
#
# Indices 1 2 3 4 5 6 
#
# 1 257.4277 91.7702 84.8087 0.0000 -2.1286 0.0000
# 2 91.7702 109.4011 62.1649 0.0000 13.7215 0.0000
# 3 84.8087 62.1649 259.1080 0.0000 48.8158 0.0000
# 4 0.0000 0.0000 0.0000 1.5690 0.0000 4.9982
# 5 -2.1286 13.7215 48.8158 0.0000 40.0744 0.0000
# 6 0.0000 0.0000 0.0000 4.9982 0.0000 104.9717
#
#
#
# Elastic Compliance Matrix: (Units=1/GPa)
#
#
# Indices 1 2 3 4 5 6 
#
# 1 0.006128 -0.004715 -0.001609 0.000000 0.003900 0.000000
# 2 -0.004715 0.014226 -0.001174 0.000000 -0.003691 0.000000
# 3 -0.001609 -0.001174 0.005981 0.000000 -0.006969 0.000000
# 4 0.000000 0.000000 0.000000 0.751330 0.000000 -0.035775
# 5 0.003900 -0.003691 -0.006969 0.000000 0.034913 0.000000
# 6 0.000000 0.000000 0.000000 -0.035775 0.000000 0.011230
#
#
# Mechanical properties :
#
#
# Convention : Reuss Voigt Hill
#
# Bulk Modulus (GPa) = 88.20535 122.60270 105.40402
# Shear Modulus (GPa) = 5.93412 55.13588 30.53500
#
# Velocity S-wave (km/s) = 1.39587 4.25486 3.16641
# Velocity P-wave (km/s) = 5.61784 8.02465 6.92658
#
# Compressibility (1/GPa) = 0.01133718
#
# Stress axis : x y z
#
# Youngs Moduli (GPa) = 163.18859 70.29304 167.20104
#
# Poissons Ratio (x) = 0.33144 0.26908
# Poissons Ratio (y) = 0.76944 0.19638
# Poissons Ratio (z) = 0.26262 0.08256
#
# Static dielectric constant tensor:
#      x y z
#    x 2.333960 0.000000 0.020690 
#    y 0.000000 2.277070 0.000000 
#    z 0.020690 0.000000 2.374230 
# 
# From -- ./inp_files/22315.got.cif
#   From: 2010.05.17/outbox.cif.g08.bks.cpg/sg13_12_cif.got.tgz:22315.got - 2010.06.03 16:44:36.
