data_PCOD9237022
_publ_section_title
;
Structure prediction by ZEFSAII (Michael W. Deem and Ramdas Pophale) SiO2 
 PCOD9237022
Probable space group: P 2/C
;
_chemical_formula_sum "Si O2"
_cell_formula_units_Z 20
_cell_length_a 16.325393
_cell_length_b 8.380291
_cell_length_c 7.780125
_cell_angle_alpha 90.000000
_cell_angle_beta 38.701646
_cell_angle_gamma 90.000000
_cell_volume 665.538971
_symmetry_space_group_name_H-M "P 2/C"
_symmetry_group_IT_number 13
_symmetry_cell_setting 'monoclinic'
loop_
_space_group_symop_operation_xyz
x,y,z
-x,y,1/2-z
-x,-y,-z
x,-y,1/2+z
loop_
_atom_site_type_symbol
_atom_site_label
_atom_site_fract_x
_atom_site_fract_y
_atom_site_fract_z
Si Si1 0.080090 0.681451 0.445768
Si Si2 0.000000 0.000000 0.500000
Si Si3 0.429484 0.830527 0.177945
Si Si4 0.252583 0.386091 0.157109
Si Si5 0.243602 0.879460 0.963848
Si Si6 0.500000 0.618678 0.750000
O O1 0.134617 0.507252 0.313972
O O2 0.209939 0.799367 0.204900
O O3 0.987458 0.804591 0.494010
O O4 0.000000 0.664918 0.750000
O O5 0.117966 0.996797 0.158965
O O6 0.500000 0.834975 0.250000
O O7 0.301271 0.721162 0.421734
O O8 0.367955 0.004658 0.239505
O O9 0.761433 0.733129 0.659145
O O10 0.376768 0.503913 0.979565
O O11 0.494140 0.732995 0.594047
#
# Coordination Sequence:
#
# PCOD9237022 Si02
#       6
#     4   2   4   4   4   2
#     4  10  25  49  83 123 172 231 296 380 457 555
#     4   8  24  50  82 124 170 228 300 380 452 552
#     4  12  30  55  88 131 183 247 310 382 464 554
#     4  12  27  52  83 128 179 241 299 386 465 546
#     4  10  27  50  86 126 183 234 310 383 459 555
#     4  12  30  56  86 132 184 234 318 378 460 570
#
# _framework density 30.050830999999999
#
# number of rings (size 3 to 8) (size 9 to 14) (size 15 to 20)
#    1.200    0.000    1.000    1.800    8.400    4.000 
#    1.800    1.000    0.000    0.000    0.000    0.000 
#    0.000    0.000    0.000    0.000    0.000    0.000 
#
# Total GULP energy -111541.880377 kJ/mol
# GULP energy per Si atom -5577.094019 kJ/mol
# Density = 2.998243 g / cm^3
# Si number density = 30.050831 Si / 1000 Ang^3
#
#
#
# Elastic Constant Matrix: (Units=GPa)
#
#
# Indices 1 2 3 4 5 6 
#
# 1 151.1779 108.0864 94.4291 0.0000 5.2108 0.0000
# 2 108.0864 309.4983 82.8312 0.0000 11.0790 0.0000
# 3 94.4291 82.8312 195.4298 0.0000 24.6956 0.0000
# 4 0.0000 0.0000 0.0000 26.1143 0.0000 -52.3127
# 5 5.2108 11.0790 24.6956 0.0000 63.0693 0.0000
# 6 0.0000 0.0000 0.0000 -52.3127 0.0000 -11.4561
#
#
#
# Elastic Compliance Matrix: (Units=1/GPa)
#
#
# Indices 1 2 3 4 5 6 
#
# 1 0.011379 -0.002826 -0.004466 0.000000 0.001305 0.000000
# 2 -0.002826 0.004346 -0.000431 0.000000 -0.000361 0.000000
# 3 -0.004466 -0.000431 0.007786 0.000000 -0.002604 0.000000
# 4 0.000000 0.000000 0.000000 0.003774 0.000000 -0.017232
# 5 0.001305 -0.000361 -0.002604 0.000000 0.016831 0.000000
# 6 0.000000 0.000000 0.000000 -0.017232 0.000000 -0.008602
#
#
# Mechanical properties :
#
#
# Convention : Reuss Voigt Hill
#
# Bulk Modulus (GPa) = 123.95835 136.31106 130.13471
# Shear Modulus (GPa) = 93.20022 40.26277 66.73149
#
# Velocity S-wave (km/s) = 5.57508 3.66433 4.71746
# Velocity P-wave (km/s) = 9.09841 7.96001 8.54818
#
# Compressibility (1/GPa) = 0.00806723
#
# Stress axis : x y z
#
# Youngs Moduli (GPa) = 87.87954 230.08988 128.42814
#
# Poissons Ratio (x) = 0.65013 0.57351
# Poissons Ratio (y) = 0.24831 0.05537
# Poissons Ratio (z) = 0.39243 0.09920
#
# Static dielectric constant tensor:
#      x y z
#    x 2.680180 0.000000 -0.282390 
#    y 0.000000 2.336410 0.000000 
#    z -0.282390 0.000000 2.602920 
# 
# From -- ./inp_files/41445.got.cif
#   From: 2010.05.17/outbox.cif.g08.bks.cpg/sg13_21_cif.got.tgz:41445.got - 2010.06.03 16:44:36.
