data_PCOD9237124
_publ_section_title
;
Structure prediction by ZEFSAII (Michael W. Deem and Ramdas Pophale) SiO2 
 PCOD9237124
Probable space group: P 2/C
;
_chemical_formula_sum "Si O2"
_cell_formula_units_Z 20
_cell_length_a 20.894510
_cell_length_b 4.269199
_cell_length_c 7.840456
_cell_angle_alpha 90.000000
_cell_angle_beta 110.504883
_cell_angle_gamma 90.000000
_cell_volume 655.079030
_symmetry_space_group_name_H-M "P 2/C"
_symmetry_group_IT_number 13
_symmetry_cell_setting 'monoclinic'
loop_
_space_group_symop_operation_xyz
x,y,z
-x,y,1/2-z
-x,-y,-z
x,-y,1/2+z
loop_
_atom_site_type_symbol
_atom_site_label
_atom_site_fract_x
_atom_site_fract_y
_atom_site_fract_z
Si Si1 0.396379 0.289612 0.150470
Si Si2 0.500000 0.208204 0.750000
Si Si3 0.000000 0.791893 0.750000
Si Si4 0.099876 0.786301 0.110347
Si Si5 0.701982 0.269204 0.163170
Si Si6 0.798723 0.811756 0.029413
O O1 0.447075 0.545411 0.282933
O O2 0.352949 0.120149 0.257630
O O3 0.446797 0.033377 0.114124
O O4 0.343492 0.481591 0.982624
O O5 0.950220 0.615186 0.570642
O O6 0.049937 0.000968 0.679630
O O7 0.152025 0.630514 0.293017
O O8 0.149976 0.992081 0.040400
O O9 0.755097 0.394112 0.356155
O O10 0.746978 0.036741 0.088307
#
# Coordination Sequence:
#
# PCOD9237124 Si02
#       6
#     4   2   2   4   4   4
#     4  11  26  46  74 106 144 189 242 306 372 445
#     4  10  26  48  74 108 146 184 240 306 376 440
#     4   8  12  22  46  94 144 194 244 298 360 426
#     4   8  14  26  52  89 146 191 244 300 360 426
#     4  11  24  41  68  98 138 189 244 298 368 439
#     4   9  19  37  60  93 141 195 244 302 364 435
#
# _framework density 30.530664000000002
#
# number of rings (size 3 to 8) (size 9 to 14) (size 15 to 20)
#    0.000    2.400    0.000    1.200    0.000   12.800 
#    0.000    0.000    0.000    0.000    0.000    0.000 
#    0.000 1131.200    0.000    0.000    0.000  425.000 
#
# Total GULP energy -111814.921348 kJ/mol
# GULP energy per Si atom -5590.746067 kJ/mol
# Density = 3.046118 g / cm^3
# Si number density = 30.530664 Si / 1000 Ang^3
#
#
#
# Elastic Constant Matrix: (Units=GPa)
#
#
# Indices 1 2 3 4 5 6 
#
# 1 253.7035 93.1424 103.2984 0.0000 -15.4538 0.0000
# 2 93.1424 104.4887 58.4425 0.0000 6.6434 0.0000
# 3 103.2984 58.4425 236.3251 0.0000 58.7439 0.0000
# 4 0.0000 0.0000 0.0000 -32.0107 0.0000 0.3924
# 5 -15.4538 6.6434 58.7439 0.0000 61.8963 0.0000
# 6 0.0000 0.0000 0.0000 0.3924 0.0000 92.7988
#
#
#
# Elastic Compliance Matrix: (Units=1/GPa)
#
#
# Indices 1 2 3 4 5 6 
#
# 1 0.007622 -0.005218 -0.003473 0.000000 0.005759 0.000000
# 2 -0.005218 0.014844 -0.000877 0.000000 -0.002064 0.000000
# 3 -0.003473 -0.000877 0.008060 0.000000 -0.008422 0.000000
# 4 0.000000 0.000000 0.000000 -0.031238 0.000000 0.000132
# 5 0.005759 -0.002064 -0.008422 0.000000 0.025809 0.000000
# 6 0.000000 0.000000 0.000000 0.000132 0.000000 0.010775
#
#
# Mechanical properties :
#
#
# Convention : Reuss Voigt Hill
#
# Bulk Modulus (GPa) = 87.79700 122.69820 105.24760
# Shear Modulus (GPa) = 85.02792 47.17916 66.10354
#
# Velocity S-wave (km/s) = 5.28304 3.93530 4.65817
# Velocity P-wave (km/s) = 8.12609 7.80542 7.96737
#
# Compressibility (1/GPa) = 0.01138991
#
# Stress axis : x y z
#
# Youngs Moduli (GPa) = 131.19642 67.36857 124.07300
#
# Poissons Ratio (x) = 0.35155 0.43087
# Poissons Ratio (y) = 0.68462 0.10879
# Poissons Ratio (z) = 0.45561 0.05907
#
# Static dielectric constant tensor:
#      x y z
#    x 2.335010 0.000000 0.027400 
#    y 0.000000 2.262310 0.000000 
#    z 0.027400 0.000000 2.366860 
# 
# From -- ./inp_files/22127.got.cif
#   From: 2010.05.17/outbox.cif.g08.bks.cpg/sg13_12_cif.got.tgz:22127.got - 2010.06.03 16:44:36.
