data_PCOD9237995
_publ_section_title
;
Structure prediction by ZEFSAII (Michael W. Deem and Ramdas Pophale) SiO2 
 PCOD9237995
Probable space group: P 2/C
;
_chemical_formula_sum "Si O2"
_cell_formula_units_Z 18
_cell_length_a 11.391714
_cell_length_b 6.770438
_cell_length_c 10.003854
_cell_angle_alpha 90.000000
_cell_angle_beta 97.133247
_cell_angle_gamma 90.000000
_cell_volume 765.594296
_symmetry_space_group_name_H-M "P 2/C"
_symmetry_group_IT_number 13
_symmetry_cell_setting 'monoclinic'
loop_
_space_group_symop_operation_xyz
x,y,z
-x,y,1/2-z
-x,-y,-z
x,-y,1/2+z
loop_
_atom_site_type_symbol
_atom_site_label
_atom_site_fract_x
_atom_site_fract_y
_atom_site_fract_z
Si Si1 0.609047 0.322831 0.181341
Si Si2 0.662109 0.669302 0.398595
Si Si3 0.793461 0.944290 0.837942
Si Si4 0.000000 0.803851 0.250000
Si Si5 0.125242 0.586503 0.471700
O O1 0.500000 0.232564 0.250000
O O2 0.629474 0.530682 0.266277
O O3 0.726349 0.188382 0.217550
O O4 0.579145 0.330040 0.019263
O O5 0.777377 0.570482 0.480833
O O6 0.699374 0.887962 0.362846
O O7 0.829039 0.787415 0.955060
O O8 0.917705 0.050463 0.823398
O O9 0.900947 0.654333 0.180837
O O10 0.000000 0.500000 0.500000
#
# Coordination Sequence:
#
# PCOD9237995 Si02
#       5
#     4   4   4   2   4
#     4  11  26  46  72  99 133 179 232 285 335 393
#     4  11  24  46  68 101 136 176 228 280 340 401
#     4  11  25  41  65 101 135 178 221 273 336 407
#     4  12  22  40  66  94 140 178 214 270 338 402
#     4  11  24  38  61  97 133 176 214 267 332 401
#
# _framework density 23.511146
#
# number of rings (size 3 to 8) (size 9 to 14) (size 15 to 20)
#    0.000    0.889    2.222    4.000    6.222    3.556 
#    0.000    0.000    0.000    0.000    0.000    0.000 
#    0.000    0.000    0.000    0.000    0.000    0.000 
#
# Total GULP energy -100430.250786 kJ/mol
# GULP energy per Si atom -5579.458377 kJ/mol
# Density = 2.345763 g / cm^3
# Si number density = 23.511146 Si / 1000 Ang^3
#
#
#
# Elastic Constant Matrix: (Units=GPa)
#
#
# Indices 1 2 3 4 5 6 
#
# 1 57.8697 14.0992 -11.7108 0.0000 -8.0999 0.0000
# 2 14.0992 129.0958 44.6958 0.0000 0.4366 0.0000
# 3 -11.7108 44.6958 69.2621 0.0000 -14.0774 0.0000
# 4 0.0000 0.0000 0.0000 18.6788 0.0000 7.7171
# 5 -8.0999 0.4366 -14.0774 0.0000 41.1734 0.0000
# 6 0.0000 0.0000 0.0000 7.7171 0.0000 19.8086
#
#
#
# Elastic Compliance Matrix: (Units=1/GPa)
#
#
# Indices 1 2 3 4 5 6 
#
# 1 0.021272 -0.005272 0.008448 0.000000 0.007129 0.000000
# 2 -0.005272 0.011523 -0.009202 0.000000 -0.004306 0.000000
# 3 0.008448 -0.009202 0.023817 0.000000 0.009903 0.000000
# 4 0.000000 0.000000 0.000000 0.063807 0.000000 -0.024858
# 5 0.007129 -0.004306 0.009903 0.000000 0.029121 0.000000
# 6 0.000000 0.000000 0.000000 -0.024858 0.000000 0.060167
#
#
# Mechanical properties :
#
#
# Convention : Reuss Voigt Hill
#
# Bulk Modulus (GPa) = 22.44220 38.93289 30.68754
# Shear Modulus (GPa) = 21.13152 29.87504 25.50328
#
# Velocity S-wave (km/s) = 3.00123 3.56852 3.29710
# Velocity P-wave (km/s) = 4.64499 5.79434 5.25121
#
# Compressibility (1/GPa) = 0.04455891
#
# Stress axis : x y z
#
# Youngs Moduli (GPa) = 47.00993 86.78631 41.98629
#
# Poissons Ratio (x) = 0.45755 -0.35469
# Poissons Ratio (y) = 0.24785 0.38637
# Poissons Ratio (z) = -0.39713 0.79863
#
# Static dielectric constant tensor:
#      x y z
#    x 2.032790 0.000000 0.047250 
#    y 0.000000 1.519900 0.000000 
#    z 0.047250 0.000000 2.172040 
# 
# From -- ./inp_files/31275.got.cif
#   From: 2010.05.17/outbox.cif.g08.bks.cpg/sg13_16_cif.got.tgz:31275.got - 2010.06.03 16:44:36.
