data_PCOD9237011
_publ_section_title
;
Structure prediction by ZEFSAII (Michael W. Deem and Ramdas Pophale) SiO2 
 PCOD9237011
Probable space group: P 2/C
;
_chemical_formula_sum "Si O2"
_cell_formula_units_Z 16
_cell_length_a 9.432125
_cell_length_b 5.152149
_cell_length_c 22.777912
_cell_angle_alpha 90.000000
_cell_angle_beta 35.862027
_cell_angle_gamma 90.000000
_cell_volume 648.466375
_symmetry_space_group_name_H-M "P 2/C"
_symmetry_group_IT_number 13
_symmetry_cell_setting 'monoclinic'
loop_
_space_group_symop_operation_xyz
x,y,z
-x,y,1/2-z
-x,-y,-z
x,-y,1/2+z
loop_
_atom_site_type_symbol
_atom_site_label
_atom_site_fract_x
_atom_site_fract_y
_atom_site_fract_z
Si Si1 0.000000 0.929305 0.750000
Si Si2 0.157615 0.748150 0.932478
Si Si3 0.500000 0.476904 0.750000
Si Si4 0.658474 0.746828 0.961421
Si Si5 0.492617 0.119303 0.636708
O O1 0.111305 0.765802 0.658393
O O2 0.222462 0.095471 0.701758
O O3 0.269976 0.668298 0.832238
O O4 0.401366 0.830735 0.886382
O O5 0.000000 0.500000 0.000000
O O6 0.000000 0.000000 0.000000
O O7 0.494443 0.288867 0.695323
O O8 0.671511 0.759926 0.027363
O O9 0.500000 0.500000 0.000000
O O10 0.500000 0.000000 0.000000
#
# Coordination Sequence:
#
# PCOD9237011 Si02
#       5
#     2   4   2   4   4
#     4  10  26  52  84 114 172 212 272 348 426 490
#     4  12  28  51  78 117 164 218 277 341 409 500
#     4  12  28  52  86 120 168 216 288 340 434 494
#     4  10  25  48  74 115 159 208 268 327 405 496
#     4  11  27  53  82 128 161 222 281 346 425 505
#
# _framework density 24.673601000000001
#
# number of rings (size 3 to 8) (size 9 to 14) (size 15 to 20)
#    0.000    1.000    2.500    0.750   10.500    4.000 
#    4.500    0.000    0.000    0.000    0.000    0.000 
#    0.000    0.000    0.000    0.000    0.000    0.000 
#
# Total GULP energy -89397.809261 kJ/mol
# GULP energy per Si atom -5587.363079 kJ/mol
# Density = 2.461744 g / cm^3
# Si number density = 24.673601 Si / 1000 Ang^3
#
#
#
# Elastic Constant Matrix: (Units=GPa)
#
#
# Indices 1 2 3 4 5 6 
#
# 1 135.4882 54.6534 64.3975 0.0000 15.2202 0.0000
# 2 54.6534 186.7329 78.7882 0.0000 6.1907 0.0000
# 3 64.3975 78.7882 263.6886 0.0000 26.5446 0.0000
# 4 0.0000 0.0000 0.0000 61.7575 0.0000 -7.2486
# 5 15.2202 6.1907 26.5446 0.0000 58.8153 0.0000
# 6 0.0000 0.0000 0.0000 -7.2486 0.0000 42.4544
#
#
#
# Elastic Compliance Matrix: (Units=1/GPa)
#
#
# Indices 1 2 3 4 5 6 
#
# 1 0.009042 -0.001978 -0.001469 0.000000 -0.001468 0.000000
# 2 -0.001978 0.006562 -0.001529 0.000000 0.000511 0.000000
# 3 -0.001469 -0.001529 0.004770 0.000000 -0.001612 0.000000
# 4 0.000000 0.000000 0.000000 0.016523 0.000000 0.002821
# 5 -0.001468 0.000511 -0.001612 0.000000 0.018056 0.000000
# 6 0.000000 0.000000 0.000000 0.002821 0.000000 0.024036
#
#
# Mechanical properties :
#
#
# Convention : Reuss Voigt Hill
#
# Bulk Modulus (GPa) = 95.95243 109.06531 102.50887
# Shear Modulus (GPa) = 54.10243 58.47681 56.28962
#
# Velocity S-wave (km/s) = 4.68773 4.87356 4.78155
# Velocity P-wave (km/s) = 8.26274 8.71596 8.49238
#
# Compressibility (1/GPa) = 0.01042183
#
# Stress axis : x y z
#
# Youngs Moduli (GPa) = 110.59651 152.38381 209.62617
#
# Poissons Ratio (x) = 0.30137 0.30803
# Poissons Ratio (y) = 0.21873 0.32057
# Poissons Ratio (z) = 0.16251 0.23303
#
# Static dielectric constant tensor:
#      x y z
#    x 2.136370 0.000000 0.013430 
#    y 0.000000 1.960870 0.000000 
#    z 0.013430 0.000000 2.043020 
# 
# From -- ./inp_files/74353.got.cif
#   From: 2010.05.17/outbox.cif.g08.bks.cpg/sg13_38_cif.got.tgz:74353.got - 2010.06.03 16:44:36.
