data_PCOD9237184
_publ_section_title
;
Structure prediction by ZEFSAII (Michael W. Deem and Ramdas Pophale) SiO2 
 PCOD9237184
Probable space group: P 2/C
;
_chemical_formula_sum "Si O2"
_cell_formula_units_Z 14
_cell_length_a 5.052289
_cell_length_b 11.459608
_cell_length_c 10.165137
_cell_angle_alpha 90.000000
_cell_angle_beta 101.685830
_cell_angle_gamma 90.000000
_cell_volume 576.334919
_symmetry_space_group_name_H-M "P 2/C"
_symmetry_group_IT_number 13
_symmetry_cell_setting 'monoclinic'
loop_
_space_group_symop_operation_xyz
x,y,z
-x,y,1/2-z
-x,-y,-z
x,-y,1/2+z
loop_
_atom_site_type_symbol
_atom_site_label
_atom_site_fract_x
_atom_site_fract_y
_atom_site_fract_z
Si Si1 0.000000 0.723109 0.250000
Si Si2 0.997626 0.861624 0.489902
Si Si3 0.723464 0.499220 0.161271
Si Si4 0.445040 0.261009 0.399953
O O1 0.838012 0.628165 0.144916
O O2 0.865128 0.808262 0.342768
O O3 0.303156 0.813737 0.522328
O O4 0.822633 0.808681 0.589686
O O5 0.000000 0.000000 0.500000
O O6 0.500000 0.519325 0.250000
O O7 0.609569 0.395779 0.058169
O O8 0.000000 0.443020 0.250000
O O9 0.500000 0.271736 0.250000
#
# Coordination Sequence:
#
# PCOD9237184 Si02
#       4
#     2   4   4   4
#     4  10  28  44  72 108 150 172 256 282 376 404
#     4  12  28  46  72 103 146 198 228 297 339 440
#     4   9  20  42  68 103 142 176 230 301 350 415
#     4  11  24  47  73 103 138 188 243 285 362 414
#
# _framework density 24.291430999999999
#
# number of rings (size 3 to 8) (size 9 to 14) (size 15 to 20)
#    0.857    0.571    0.000    5.143    8.000    2.286 
#    0.000    0.000    0.000    0.000    0.000    0.000 
#    0.000    0.000    0.000    0.000    0.000    0.000 
#
# Total GULP energy -78059.709258 kJ/mol
# GULP energy per Si atom -5575.693518 kJ/mol
# Density = 2.423614 g / cm^3
# Si number density = 24.291431 Si / 1000 Ang^3
#
#
#
# Elastic Constant Matrix: (Units=GPa)
#
#
# Indices 1 2 3 4 5 6 
#
# 1 104.0738 43.7358 -5.0070 0.0000 -2.2658 0.0000
# 2 43.7358 287.6495 42.5941 0.0000 -1.2664 0.0000
# 3 -5.0070 42.5941 50.3756 0.0000 2.5011 0.0000
# 4 0.0000 0.0000 0.0000 6.0792 0.0000 -15.5028
# 5 -2.2658 -1.2664 2.5011 0.0000 43.4810 0.0000
# 6 0.0000 0.0000 0.0000 -15.5028 0.0000 26.0065
#
#
#
# Elastic Compliance Matrix: (Units=1/GPa)
#
#
# Indices 1 2 3 4 5 6 
#
# 1 0.010595 -0.002015 0.002740 0.000000 0.000336 0.000000
# 2 -0.002015 0.004361 -0.003900 0.000000 0.000246 0.000000
# 3 0.002740 -0.003900 0.023487 0.000000 -0.001322 0.000000
# 4 0.000000 0.000000 0.000000 -0.316241 0.000000 -0.188515
# 5 0.000336 0.000246 -0.001322 0.000000 0.023099 0.000000
# 6 0.000000 0.000000 0.000000 -0.188515 0.000000 -0.073924
#
#
# Mechanical properties :
#
#
# Convention : Reuss Voigt Hill
#
# Bulk Modulus (GPa) = 31.16017 67.19385 49.17701
# Shear Modulus (GPa) = -16.04749 39.16508 11.55879
#
# Velocity S-wave (km/s) = -2.57305 4.01970 2.18374
# Velocity P-wave (km/s) = 2.00700 7.01895 5.16206
#
# Compressibility (1/GPa) = 0.03209225
#
# Stress axis : x y z
#
# Youngs Moduli (GPa) = 94.38820 229.28070 42.57741
#
# Poissons Ratio (x) = 0.46203 -0.11667
# Poissons Ratio (y) = 0.19020 0.16606
# Poissons Ratio (z) = -0.25864 0.89426
#
# Static dielectric constant tensor:
#      x y z
#    x 1.904210 0.000000 0.201500 
#    y 0.000000 1.938560 0.000000 
#    z 0.201500 0.000000 2.226630 
# 
# From -- ./inp_files/25537.got.cif
#   From: 2010.05.17/outbox.cif.g08.bks.cpg/sg13_13_cif.got.tgz:25537.got - 2010.06.03 16:44:36.
