data_PCOD9237845
_publ_section_title
;
Structure prediction by ZEFSAII (Michael W. Deem and Ramdas Pophale) SiO2 
 PCOD9237845
Probable space group: P 2/C
;
_chemical_formula_sum "Si O2"
_cell_formula_units_Z 20
_cell_length_a 8.336675
_cell_length_b 9.027236
_cell_length_c 12.469774
_cell_angle_alpha 90.000000
_cell_angle_beta 104.742108
_cell_angle_gamma 90.000000
_cell_volume 907.546948
_symmetry_space_group_name_H-M "P 2/C"
_symmetry_group_IT_number 13
_symmetry_cell_setting 'monoclinic'
loop_
_space_group_symop_operation_xyz
x,y,z
-x,y,1/2-z
-x,-y,-z
x,-y,1/2+z
loop_
_atom_site_type_symbol
_atom_site_label
_atom_site_fract_x
_atom_site_fract_y
_atom_site_fract_z
Si Si1 0.000000 0.655165 0.750000
Si Si2 0.722822 0.752654 0.553728
Si Si3 0.168352 0.063173 0.978364
Si Si4 0.189419 0.564541 0.138115
Si Si5 0.592020 0.707995 0.868300
Si Si6 0.000000 0.213735 0.750000
O O1 0.153683 0.745901 0.822771
O O2 0.052452 0.552842 0.658078
O O3 0.798185 0.652804 0.471267
O O4 0.545124 0.695054 0.562112
O O5 0.712285 0.922219 0.514497
O O6 0.102853 0.124586 0.854963
O O7 0.257399 0.191841 0.061728
O O8 0.000000 0.000000 0.000000
O O9 0.344236 0.453009 0.158175
O O10 0.144591 0.690898 0.216205
O O11 0.500000 0.778655 0.750000
#
# Coordination Sequence:
#
# PCOD9237845 Si02
#       6
#     2   4   4   4   4   2
#     4  11  23  42  76 103 145 194 254 299 367 444
#     4  12  25  46  73 108 150 196 248 311 374 449
#     4  12  27  50  78 111 146 198 252 308 376 457
#     4  11  25  44  71 106 146 196 250 307 363 444
#     4  12  28  47  72 111 153 194 244 314 383 438
#     4  11  27  46  80 113 147 198 262 303 373 448
#
# _framework density 22.037427000000001
#
# number of rings (size 3 to 8) (size 9 to 14) (size 15 to 20)
#    0.000    0.400    4.000    3.600    8.400    1.600 
#    0.000    1.000    0.000    0.000    0.000    0.000 
#    0.000    0.000    0.000    0.000    0.000    0.000 
#
# Total GULP energy -111559.320229 kJ/mol
# GULP energy per Si atom -5577.966011 kJ/mol
# Density = 2.198727 g / cm^3
# Si number density = 22.037427 Si / 1000 Ang^3
#
#
#
# Elastic Constant Matrix: (Units=GPa)
#
#
# Indices 1 2 3 4 5 6 
#
# 1 122.9287 48.5488 64.1035 0.0000 -26.9816 0.0000
# 2 48.5488 90.7972 59.3951 0.0000 -1.6186 0.0000
# 3 64.1035 59.3951 133.7202 0.0000 -1.1621 0.0000
# 4 0.0000 0.0000 0.0000 -125.2431 0.0000 11.8098
# 5 -26.9816 -1.6186 -1.1621 0.0000 48.9571 0.0000
# 6 0.0000 0.0000 0.0000 11.8098 0.0000 76.7215
#
#
#
# Elastic Compliance Matrix: (Units=1/GPa)
#
#
# Indices 1 2 3 4 5 6 
#
# 1 0.013881 -0.004200 -0.004725 0.000000 0.007399 0.000000
# 2 -0.004200 0.016801 -0.005466 0.000000 -0.001889 0.000000
# 3 -0.004725 -0.005466 0.012149 0.000000 -0.002496 0.000000
# 4 0.000000 0.000000 0.000000 -0.007870 0.000000 0.001211
# 5 0.007399 -0.001889 -0.002496 0.000000 0.024382 0.000000
# 6 0.000000 0.000000 0.000000 0.001211 0.000000 0.012848
#
#
# Mechanical properties :
#
#
# Convention : Reuss Voigt Hill
#
# Bulk Modulus (GPa) = 71.16824 76.83787 74.00306
# Shear Modulus (GPa) = 47.32381 11.78034 29.55207
#
# Velocity S-wave (km/s) = 4.63906 2.31456 3.66593
# Velocity P-wave (km/s) = 7.81402 6.48734 7.18138
#
# Compressibility (1/GPa) = 0.01405121
#
# Stress axis : x y z
#
# Youngs Moduli (GPa) = 72.03937 59.52115 82.30916
#
# Poissons Ratio (x) = 0.24997 0.38890
# Poissons Ratio (y) = 0.30254 0.44987
# Poissons Ratio (z) = 0.34037 0.32532
#
# Static dielectric constant tensor:
#      x y z
#    x 1.814430 0.000000 -0.015230 
#    y 0.000000 1.811920 0.000000 
#    z -0.015230 0.000000 1.819840 
# 
# From -- ./inp_files/28286.got.cif
#   From: 2010.05.17/outbox.cif.g08.bks.cpg/sg13_15_cif.got.tgz:28286.got - 2010.06.03 16:44:36.
