data_PCOD9237688
_publ_section_title
;
Structure prediction by ZEFSAII (Michael W. Deem and Ramdas Pophale) SiO2 
 PCOD9237688
Probable space group: P 2/C
;
_chemical_formula_sum "Si O2"
_cell_formula_units_Z 14
_cell_length_a 13.571586
_cell_length_b 8.092600
_cell_length_c 10.328137
_cell_angle_alpha 90.000000
_cell_angle_beta 32.596096
_cell_angle_gamma 90.000000
_cell_volume 611.080508
_symmetry_space_group_name_H-M "P 2/C"
_symmetry_group_IT_number 13
_symmetry_cell_setting 'monoclinic'
loop_
_space_group_symop_operation_xyz
x,y,z
-x,y,1/2-z
-x,-y,-z
x,-y,1/2+z
loop_
_atom_site_type_symbol
_atom_site_label
_atom_site_fract_x
_atom_site_fract_y
_atom_site_fract_z
Si Si1 0.375500 0.489516 0.763187
Si Si2 0.000000 0.901405 0.750000
Si Si3 0.283438 0.828902 0.971858
Si Si4 0.921808 0.681834 0.050036
O O1 0.500000 0.460569 0.750000
O O2 0.500000 0.500000 0.500000
O O3 0.277253 0.665143 0.890811
O O4 0.227507 0.353242 0.896728
O O5 0.949467 0.802650 0.673921
O O6 0.171348 0.022695 0.534475
O O7 0.500000 0.863981 0.750000
O O8 0.180265 0.769551 0.217550
O O9 0.000000 0.500000 0.000000
#
# Coordination Sequence:
#
# PCOD9237688 Si02
#       4
#     4   2   4   4
#     4  11  22  45  77 108 145 198 254 307 360 448
#     4  12  28  44  72 112 152 200 238 328 388 438
#     4  11  24  47  71 108 155 194 249 312 375 446
#     4  12  25  48  75 106 150 199 258 311 375 455
#
# _framework density 22.910239000000001
#
# number of rings (size 3 to 8) (size 9 to 14) (size 15 to 20)
#    0.000    0.571    5.714    4.286    0.000    2.286 
#    0.000    0.000    0.000    0.000    0.000    0.000 
#    0.000    0.000    0.000    0.000    0.000    0.000 
#
# Total GULP energy -78279.540616 kJ/mol
# GULP energy per Si atom -5591.395758 kJ/mol
# Density = 2.285809 g / cm^3
# Si number density = 22.910239 Si / 1000 Ang^3
#
#
#
# Elastic Constant Matrix: (Units=GPa)
#
#
# Indices 1 2 3 4 5 6 
#
# 1 87.0699 34.9930 23.9042 0.0000 18.7700 0.0000
# 2 34.9930 81.1421 22.7460 0.0000 18.3990 0.0000
# 3 23.9042 22.7460 121.0430 0.0000 35.1337 0.0000
# 4 0.0000 0.0000 0.0000 40.7695 0.0000 2.9399
# 5 18.7700 18.3990 35.1337 0.0000 44.5310 0.0000
# 6 0.0000 0.0000 0.0000 2.9399 0.0000 40.9389
#
#
#
# Elastic Compliance Matrix: (Units=1/GPa)
#
#
# Indices 1 2 3 4 5 6 
#
# 1 0.014562 -0.005287 -0.000953 0.000000 -0.003202 0.000000
# 2 -0.005287 0.015653 -0.000865 0.000000 -0.003556 0.000000
# 3 -0.000953 -0.000865 0.010885 0.000000 -0.007828 0.000000
# 4 0.000000 0.000000 0.000000 0.024656 0.000000 -0.001771
# 5 -0.003202 -0.003556 -0.007828 0.000000 0.031452 0.000000
# 6 0.000000 0.000000 0.000000 -0.001771 0.000000 0.024554
#
#
# Mechanical properties :
#
#
# Convention : Reuss Voigt Hill
#
# Bulk Modulus (GPa) = 37.18916 50.28237 43.73577
# Shear Modulus (GPa) = 34.49874 39.08867 36.79371
#
# Velocity S-wave (km/s) = 3.88470 4.13506 4.01183
# Velocity P-wave (km/s) = 6.03233 6.69279 6.37113
#
# Compressibility (1/GPa) = 0.02688955
#
# Stress axis : x y z
#
# Youngs Moduli (GPa) = 68.67420 63.88591 91.87316
#
# Poissons Ratio (x) = 0.33774 0.08755
# Poissons Ratio (y) = 0.36306 0.07948
# Poissons Ratio (z) = 0.06544 0.05527
#
# Static dielectric constant tensor:
#      x y z
#    x 1.870990 0.000000 -0.041430 
#    y 0.000000 1.597920 0.000000 
#    z -0.041430 0.000000 1.887890 
# 
# From -- ./inp_files/10716.got.cif
#   From: 2010.05.17/outbox.cif.g08.bks.cpg/sg13_6_cif.got.tgz:10716.got - 2010.06.03 16:44:36.
