data_PCOD9237708
_publ_section_title
;
Structure prediction by ZEFSAII (Michael W. Deem and Ramdas Pophale) SiO2 
 PCOD9237708
Probable space group: P 2/C
;
_chemical_formula_sum "Si O2"
_cell_formula_units_Z 24
_cell_length_a 17.642562
_cell_length_b 11.952650
_cell_length_c 9.611700
_cell_angle_alpha 90.000000
_cell_angle_beta 36.689421
_cell_angle_gamma 90.000000
_cell_volume 1211.008873
_symmetry_space_group_name_H-M "P 2/C"
_symmetry_group_IT_number 13
_symmetry_cell_setting 'monoclinic'
loop_
_space_group_symop_operation_xyz
x,y,z
-x,y,1/2-z
-x,-y,-z
x,-y,1/2+z
loop_
_atom_site_type_symbol
_atom_site_label
_atom_site_fract_x
_atom_site_fract_y
_atom_site_fract_z
Si Si1 0.784069 0.195800 0.804896
Si Si2 0.160227 0.925471 0.007842
Si Si3 0.066931 0.873195 0.846810
Si Si4 0.407646 0.993488 0.006698
Si Si5 0.832872 0.430606 0.630499
Si Si6 0.866645 0.622423 0.774800
O O1 0.917196 0.153226 0.535542
O O2 0.764699 0.325308 0.801432
O O3 0.814713 0.174336 0.921363
O O4 0.663859 0.121440 0.934885
O O5 0.067432 0.905690 0.011811
O O6 0.288161 0.936325 0.731129
O O7 0.132965 0.034218 0.148922
O O8 0.140192 0.755994 0.724906
O O9 0.500000 0.033355 0.750000
O O10 0.500000 0.000000 0.000000
O O11 0.811516 0.551194 0.729111
O O12 0.808683 0.423016 0.502845
O O13 0.982576 0.403753 0.435610
#
# Coordination Sequence:
#
# PCOD9237708 Si02
#       6
#     4   4   4   4   4   4
#     4  11  23  37  61  87 127 163 202 258 317 374
#     4  12  23  38  59  89 126 161 203 251 320 383
#     4  11  24  36  60  94 130 161 198 253 322 389
#     4  12  24  40  57  82 120 166 213 254 301 360
#     4   9  19  35  56  81 118 161 201 246 301 364
#     4   9  19  35  54  83 122 158 202 242 299 377
#
# _framework density 19.818186000000001
#
# number of rings (size 3 to 8) (size 9 to 14) (size 15 to 20)
#    0.000    1.333    3.333    2.000    4.667    1.333 
#    0.000    0.000    0.000    0.000    0.000   11.667 
#    0.000    0.000    0.000    0.000    0.000    0.000 
#
# Total GULP energy -133733.410988 kJ/mol
# GULP energy per Si atom -5572.225458 kJ/mol
# Density = 1.977308 g / cm^3
# Si number density = 19.818186 Si / 1000 Ang^3
#
#
#
# Elastic Constant Matrix: (Units=GPa)
#
#
# Indices 1 2 3 4 5 6 
#
# 1 81.7003 9.9274 21.6154 0.0000 13.4244 0.0000
# 2 9.9274 70.4478 38.6744 0.0000 16.3375 0.0000
# 3 21.6154 38.6744 86.3488 0.0000 23.3056 0.0000
# 4 0.0000 0.0000 0.0000 23.0925 0.0000 9.1980
# 5 13.4244 16.3375 23.3056 0.0000 46.8848 0.0000
# 6 0.0000 0.0000 0.0000 9.1980 0.0000 19.4592
#
#
#
# Elastic Compliance Matrix: (Units=1/GPa)
#
#
# Indices 1 2 3 4 5 6 
#
# 1 0.013359 0.000219 -0.002759 0.000000 -0.002530 0.000000
# 2 0.000219 0.019135 -0.007864 0.000000 -0.002822 0.000000
# 3 -0.002759 -0.007864 0.017141 0.000000 -0.004990 0.000000
# 4 0.000000 0.000000 0.000000 0.053348 0.000000 -0.025216
# 5 -0.002530 -0.002822 -0.004990 0.000000 0.025517 0.000000
# 6 0.000000 0.000000 0.000000 -0.025216 0.000000 0.063309
#
#
# Mechanical properties :
#
#
# Convention : Reuss Voigt Hill
#
# Bulk Modulus (GPa) = 34.69013 42.10350 38.39682
# Shear Modulus (GPa) = 22.49965 29.10595 25.80280
#
# Velocity S-wave (km/s) = 3.37308 3.83645 3.61220
# Velocity P-wave (km/s) = 5.71948 6.39652 6.06745
#
# Compressibility (1/GPa) = 0.02882664
#
# Stress axis : x y z
#
# Youngs Moduli (GPa) = 74.85609 52.25901 58.34120
#
# Poissons Ratio (x) = -0.01144 0.16099
# Poissons Ratio (y) = -0.01639 0.45878
# Poissons Ratio (z) = 0.20656 0.41095
#
# Static dielectric constant tensor:
#      x y z
#    x 1.903480 0.000000 -0.037690 
#    y 0.000000 1.720760 0.000000 
#    z -0.037690 0.000000 1.747870 
# 
# From -- ./inp_files/18366.got.cif
#   From: 2010.05.17/outbox.cif.g08.bks.cpg/sg13_10_cif.got.tgz:18366.got - 2010.06.03 16:44:36.
