data_PCOD9237204
_publ_section_title
;
Structure prediction by ZEFSAII (Michael W. Deem and Ramdas Pophale) SiO2 
 PCOD9237204
Probable space group: P 2/C
;
_chemical_formula_sum "Si O2"
_cell_formula_units_Z 28
_cell_length_a 12.191793
_cell_length_b 9.525136
_cell_length_c 14.121758
_cell_angle_alpha 90.000000
_cell_angle_beta 58.026751
_cell_angle_gamma 90.000000
_cell_volume 1391.152217
_symmetry_space_group_name_H-M "P 2/C"
_symmetry_group_IT_number 13
_symmetry_cell_setting 'monoclinic'
loop_
_space_group_symop_operation_xyz
x,y,z
-x,y,1/2-z
-x,-y,-z
x,-y,1/2+z
loop_
_atom_site_type_symbol
_atom_site_label
_atom_site_fract_x
_atom_site_fract_y
_atom_site_fract_z
Si Si1 0.614079 0.190037 0.128872
Si Si2 0.943046 0.560529 0.674242
Si Si3 0.015079 0.960693 0.131957
Si Si4 0.715865 0.112400 0.548100
Si Si5 0.789591 0.814213 0.705146
Si Si6 0.443198 0.149975 0.052392
Si Si7 0.901708 0.704871 0.069112
O O1 0.500000 0.237386 0.250000
O O2 0.745071 0.236389 0.120908
O O3 0.563676 0.229694 0.047259
O O4 0.632608 0.020407 0.121438
O O5 0.835740 0.678422 0.740226
O O6 0.890619 0.424058 0.645606
O O7 0.000000 0.523936 0.750000
O O8 0.038596 0.640005 0.555455
O O9 0.989689 0.823571 0.079962
O O10 0.000000 0.927996 0.250000
O O11 0.901764 0.070434 0.155821
O O12 0.153366 0.037100 0.053222
O O13 0.634517 0.194542 0.505518
O O14 0.769317 0.216487 0.602873
O O15 0.664712 0.870942 0.817161
O O16 0.500000 0.000000 0.000000
#
# Coordination Sequence:
#
# PCOD9237204 Si02
#       7
#     4   4   4   4   4   4   4
#     4   9  19  32  52  81 111 147 194 242 285 341
#     4  11  23  39  55  83 122 166 195 237 303 375
#     4  12  21  33  58  95 121 149 191 252 307 361
#     4  11  18  33  55  82 120 149 188 242 308 352
#     4  11  18  35  58  82 116 152 194 239 302 358
#     4   9  19  32  53  89 113 148 192 249 292 347
#     4  11  23  36  56  86 125 156 197 242 301 372
#
# _framework density 20.127200999999999
#
# number of rings (size 3 to 8) (size 9 to 14) (size 15 to 20)
#    0.000    1.429    4.286    3.000    0.000    0.000 
#    0.000    0.000    0.000    3.429    0.000    0.000 
#    0.000    0.000    0.000    0.000    0.000    0.000 
#
# Total GULP energy -156012.565879 kJ/mol
# GULP energy per Si atom -5571.877353 kJ/mol
# Density = 2.008139 g / cm^3
# Si number density = 20.127201 Si / 1000 Ang^3
#
#
#
# Elastic Constant Matrix: (Units=GPa)
#
#
# Indices 1 2 3 4 5 6 
#
# 1 91.0211 4.4457 17.8157 0.0000 17.7721 0.0000
# 2 4.4457 63.6543 13.4336 0.0000 1.1201 0.0000
# 3 17.8157 13.4336 59.8089 0.0000 11.8508 0.0000
# 4 0.0000 0.0000 0.0000 16.0183 0.0000 6.9926
# 5 17.7721 1.1201 11.8508 0.0000 38.6766 0.0000
# 6 0.0000 0.0000 0.0000 6.9926 0.0000 21.7067
#
#
#
# Elastic Compliance Matrix: (Units=1/GPa)
#
#
# Indices 1 2 3 4 5 6 
#
# 1 0.012482 -0.000216 -0.002698 0.000000 -0.004903 0.000000
# 2 -0.000216 0.016513 -0.003800 0.000000 0.000785 0.000000
# 3 -0.002698 -0.003800 0.019280 0.000000 -0.004558 0.000000
# 4 0.000000 0.000000 0.000000 0.072644 0.000000 -0.023402
# 5 -0.004903 0.000785 -0.004558 0.000000 0.029482 0.000000
# 6 0.000000 0.000000 0.000000 -0.023402 0.000000 0.053607
#
#
# Mechanical properties :
#
#
# Convention : Reuss Voigt Hill
#
# Bulk Modulus (GPa) = 28.69713 31.76380 30.23047
# Shear Modulus (GPa) = 21.82891 27.19963 24.51427
#
# Velocity S-wave (km/s) = 3.29682 3.68011 3.49372
# Velocity P-wave (km/s) = 5.36478 5.82009 5.59706
#
# Compressibility (1/GPa) = 0.03484669
#
# Stress axis : x y z
#
# Youngs Moduli (GPa) = 80.11274 60.55784 51.86634
#
# Poissons Ratio (x) = 0.01308 0.13995
# Poissons Ratio (y) = 0.01731 0.19711
# Poissons Ratio (z) = 0.21616 0.23014
#
# Static dielectric constant tensor:
#      x y z
#    x 1.826330 0.000000 0.035070 
#    y 0.000000 1.679460 0.000000 
#    z 0.035070 0.000000 1.767930 
# 
# From -- ./inp_files/49990.got.cif
#   From: 2010.05.17/outbox.cif.g08.bks.cpg/sg13_25_cif.got.tgz:49990.got - 2010.06.03 16:44:36.
