data_PCOD9237651
_publ_section_title
;
Structure prediction by ZEFSAII (Michael W. Deem and Ramdas Pophale) SiO2 
 PCOD9237651
Probable space group: P 2/C
;
_chemical_formula_sum "Si O2"
_cell_formula_units_Z 26
_cell_length_a 18.845540
_cell_length_b 6.731332
_cell_length_c 27.752898
_cell_angle_alpha 90.000000
_cell_angle_beta 19.256815
_cell_angle_gamma 90.000000
_cell_volume 1161.107567
_symmetry_space_group_name_H-M "P 2/C"
_symmetry_group_IT_number 13
_symmetry_cell_setting 'monoclinic'
loop_
_space_group_symop_operation_xyz
x,y,z
-x,y,1/2-z
-x,-y,-z
x,-y,1/2+z
loop_
_atom_site_type_symbol
_atom_site_label
_atom_site_fract_x
_atom_site_fract_y
_atom_site_fract_z
Si Si1 0.514100 0.460549 0.620274
Si Si2 0.383717 0.831113 0.526270
Si Si3 0.032544 0.964898 0.557728
Si Si4 0.242614 0.791162 0.998776
Si Si5 0.000000 0.895931 0.250000
Si Si6 0.341486 0.080297 0.775780
Si Si7 0.324104 0.784066 0.668833
O O1 0.639725 0.321275 0.502101
O O2 0.649749 0.577293 0.572915
O O3 0.362663 0.305272 0.744151
O O4 0.407848 0.630804 0.655017
O O5 0.175197 0.967605 0.663293
O O6 0.400213 0.723035 0.566831
O O7 0.573731 0.991117 0.394241
O O8 0.246478 0.922013 0.390454
O O9 0.931664 0.805806 0.659440
O O10 0.081577 0.155945 0.559135
O O11 0.842033 0.984227 0.640631
O O12 0.434285 0.958128 0.873705
O O13 0.124689 0.789687 0.126498
#
# Coordination Sequence:
#
# PCOD9237651 Si02
#       7
#     4   4   4   4   2   4   4
#     4  12  22  44  69 103 141 175 231 305 338 402
#     4  11  23  41  65 100 142 183 224 284 350 415
#     4  11  23  48  76  93 137 195 230 277 362 417
#     4  12  25  46  70 104 142 182 232 290 352 418
#     4  12  20  42  66  90 140 186 214 276 360 414
#     4  11  25  49  69 101 142 179 234 301 342 411
#     4  11  22  43  69  97 141 184 228 286 350 417
#
# _framework density 22.392413999999999
#
# number of rings (size 3 to 8) (size 9 to 14) (size 15 to 20)
#    0.000    0.615    7.692    0.923    0.000    1.231 
#    8.308    1.538    0.000    0.000    0.000    0.000 
#    0.000    0.000    0.000    0.000    0.000    0.000 
#
# Total GULP energy -145119.034314 kJ/mol
# GULP energy per Si atom -5581.501320 kJ/mol
# Density = 2.234145 g / cm^3
# Si number density = 22.392414 Si / 1000 Ang^3
#
#
#
# Elastic Constant Matrix: (Units=GPa)
#
#
# Indices 1 2 3 4 5 6 
#
# 1 47.9876 -1.5345 7.7479 0.0000 13.4563 0.0000
# 2 -1.5345 64.0586 14.4078 0.0000 11.0680 0.0000
# 3 7.7479 14.4078 109.8978 0.0000 25.6526 0.0000
# 4 0.0000 0.0000 0.0000 14.0890 0.0000 3.8314
# 5 13.4563 11.0680 25.6526 0.0000 39.9994 0.0000
# 6 0.0000 0.0000 0.0000 3.8314 0.0000 15.9761
#
#
#
# Elastic Compliance Matrix: (Units=1/GPa)
#
#
# Indices 1 2 3 4 5 6 
#
# 1 0.023252 0.001997 0.000063 0.000000 -0.008415 0.000000
# 2 0.001997 0.016721 -0.001289 0.000000 -0.004472 0.000000
# 3 0.000063 -0.001289 0.010803 0.000000 -0.006593 0.000000
# 4 0.000000 0.000000 0.000000 0.075929 0.000000 -0.018210
# 5 -0.008415 -0.004472 -0.006593 0.000000 0.033297 0.000000
# 6 0.000000 0.000000 0.000000 -0.018210 0.000000 0.066961
#
#
# Mechanical properties :
#
#
# Convention : Reuss Voigt Hill
#
# Bulk Modulus (GPa) = 19.11391 29.24292 24.17842
# Shear Modulus (GPa) = 20.58799 27.43443 24.01121
#
# Velocity S-wave (km/s) = 3.03548 3.50403 3.27814
# Velocity P-wave (km/s) = 4.56508 5.42758 5.01491
#
# Compressibility (1/GPa) = 0.05231791
#
# Stress axis : x y z
#
# Youngs Moduli (GPa) = 43.00682 59.80458 92.56875
#
# Poissons Ratio (x) = -0.11942 -0.00586
# Poissons Ratio (y) = -0.08588 0.11933
# Poissons Ratio (z) = -0.00272 0.07710
#
# Static dielectric constant tensor:
#      x y z
#    x 1.891210 0.000000 -0.007330 
#    y 0.000000 1.796420 0.000000 
#    z -0.007330 0.000000 1.913570 
# 
# From -- ./inp_files/97441.got.cif
#   From: 2010.05.17/outbox.cif.g08.bks.cpg/sg13_49_cif.got.tgz:97441.got - 2010.06.03 16:44:36.
