data_PCOD9237093
_publ_section_title
;
Structure prediction by ZEFSAII (Michael W. Deem and Ramdas Pophale) SiO2 
 PCOD9237093
Probable space group: P 2/C
;
_chemical_formula_sum "Si O2"
_cell_formula_units_Z 26
_cell_length_a 15.816816
_cell_length_b 6.095586
_cell_length_c 13.125124
_cell_angle_alpha 90.000000
_cell_angle_beta 115.087385
_cell_angle_gamma 90.000000
_cell_volume 1146.051595
_symmetry_space_group_name_H-M "P 2/C"
_symmetry_group_IT_number 13
_symmetry_cell_setting 'monoclinic'
loop_
_space_group_symop_operation_xyz
x,y,z
-x,y,1/2-z
-x,-y,-z
x,-y,1/2+z
loop_
_atom_site_type_symbol
_atom_site_label
_atom_site_fract_x
_atom_site_fract_y
_atom_site_fract_z
Si Si1 0.306104 0.027582 0.466592
Si Si2 0.854570 0.388816 0.090761
Si Si3 0.407723 0.630773 0.582092
Si Si4 0.745704 0.519263 0.360311
Si Si5 0.160442 0.233775 0.759271
Si Si6 0.000000 0.080541 0.250000
Si Si7 0.612843 0.357756 0.130075
O O1 0.232595 0.218928 0.457441
O O2 0.383439 0.140086 0.435437
O O3 0.357958 0.867032 0.571752
O O4 0.242067 0.873403 0.365803
O O5 0.861569 0.537362 0.194939
O O6 0.944751 0.235293 0.142111
O O7 0.825995 0.549066 0.982342
O O8 0.351157 0.464801 0.625579
O O9 0.390977 0.551154 0.456301
O O10 0.518632 0.636960 0.646951
O O11 0.796531 0.720108 0.329324
O O12 0.705785 0.373621 0.246257
O O13 0.072389 0.073884 0.726298
#
# Coordination Sequence:
#
# PCOD9237093 Si02
#       7
#     4   4   4   4   4   2   4
#     4  11  19  43  67  92 132 192 217 271 337 405
#     4  11  23  45  70  97 138 170 228 283 348 414
#     4  11  23  41  63  97 141 181 227 276 327 394
#     4  12  21  43  69  99 135 179 216 283 336 390
#     4  11  23  45  70  97 138 170 228 283 348 414
#     4  10  26  46  74  94 134 182 220 282 356 420
#     4  11  23  41  63  97 141 181 227 276 327 394
#
# _framework density 22.686588
#
# number of rings (size 3 to 8) (size 9 to 14) (size 15 to 20)
#    0.000    0.923    6.154    1.385    0.000    1.846 
#    0.000    3.077    0.000    0.000    0.000    0.000 
#    0.000    0.000    0.000    0.000    0.000    0.000 
#
# Total GULP energy -144865.789567 kJ/mol
# GULP energy per Si atom -5571.761137 kJ/mol
# Density = 2.263495 g / cm^3
# Si number density = 22.686588 Si / 1000 Ang^3
#
#
#
# Elastic Constant Matrix: (Units=GPa)
#
#
# Indices 1 2 3 4 5 6 
#
# 1 101.5121 47.5021 37.0713 0.0000 20.5685 0.0000
# 2 47.5021 76.1974 17.9953 0.0000 15.0935 0.0000
# 3 37.0713 17.9953 84.3269 0.0000 13.4186 0.0000
# 4 0.0000 0.0000 0.0000 11.3179 0.0000 14.3757
# 5 20.5685 15.0935 13.4186 0.0000 34.3890 0.0000
# 6 0.0000 0.0000 0.0000 14.3757 0.0000 38.3940
#
#
#
# Elastic Compliance Matrix: (Units=1/GPa)
#
#
# Indices 1 2 3 4 5 6 
#
# 1 0.016275 -0.008178 -0.004725 0.000000 -0.004301 0.000000
# 2 -0.008178 0.018876 0.000114 0.000000 -0.003438 0.000000
# 3 -0.004725 0.000114 0.014361 0.000000 -0.002828 0.000000
# 4 0.000000 0.000000 0.000000 0.168486 0.000000 -0.063086
# 5 -0.004301 -0.003438 -0.002828 0.000000 0.034264 0.000000
# 6 0.000000 0.000000 0.000000 -0.063086 0.000000 0.049667
#
#
# Mechanical properties :
#
#
# Convention : Reuss Voigt Hill
#
# Bulk Modulus (GPa) = 41.78076 51.90820 46.84448
# Shear Modulus (GPa) = 14.90378 27.45137 21.17757
#
# Velocity S-wave (km/s) = 2.56587 3.48232 3.05861
# Velocity P-wave (km/s) = 5.21869 6.25291 5.75907
#
# Compressibility (1/GPa) = 0.02393446
#
# Stress axis : x y z
#
# Youngs Moduli (GPa) = 61.44398 52.97699 69.63086
#
# Poissons Ratio (x) = 0.43325 0.32901
# Poissons Ratio (y) = 0.50249 -0.00794
# Poissons Ratio (z) = 0.29033 -0.00604
#
# Static dielectric constant tensor:
#      x y z
#    x 1.869380 0.000000 -0.062300 
#    y 0.000000 1.929290 0.000000 
#    z -0.062300 0.000000 1.926820 
# 
# From -- ./inp_files/54526.got.cif
#   From: 2010.05.17/outbox.cif.g08.bks.cpg/sg13_28_cif.got.tgz:54526.got - 2010.06.03 16:44:36.
