data_PCOD9237315
_publ_section_title
;
Structure prediction by ZEFSAII (Michael W. Deem and Ramdas Pophale) SiO2 
 PCOD9237315
Probable space group: P 2/C
;
_chemical_formula_sum "Si O2"
_cell_formula_units_Z 30
_cell_length_a 14.494884
_cell_length_b 8.353011
_cell_length_c 24.138464
_cell_angle_alpha 90.000000
_cell_angle_beta 149.100401
_cell_angle_gamma 90.000000
_cell_volume 1500.851369
_symmetry_space_group_name_H-M "P 2/C"
_symmetry_group_IT_number 13
_symmetry_cell_setting 'monoclinic'
loop_
_space_group_symop_operation_xyz
x,y,z
-x,y,1/2-z
-x,-y,-z
x,-y,1/2+z
loop_
_atom_site_type_symbol
_atom_site_label
_atom_site_fract_x
_atom_site_fract_y
_atom_site_fract_z
Si Si1 0.681877 0.596675 0.591644
Si Si2 0.180135 0.778663 0.944997
Si Si3 0.250451 0.421824 0.582499
Si Si4 0.000000 0.346485 0.750000
Si Si5 0.775501 0.659952 0.752322
Si Si6 0.109078 0.365005 0.627886
Si Si7 0.867702 0.153304 0.572918
Si Si8 0.471944 0.265642 0.174885
O O1 0.500000 0.500000 0.500000
O O2 0.725247 0.694783 0.558655
O O3 0.679378 0.702035 0.645555
O O4 0.839765 0.467800 0.681810
O O5 0.977874 0.714100 0.847411
O O6 0.159150 0.967422 0.928765
O O7 0.272675 0.717775 0.049038
O O8 0.220232 0.353041 0.628409
O O9 0.403910 0.553118 0.651858
O O10 0.067246 0.524433 0.475954
O O11 0.076015 0.244933 0.841323
O O12 0.780104 0.471941 0.771324
O O13 0.664421 0.738108 0.744586
O O14 0.027473 0.204674 0.612616
O O15 0.682742 0.203869 0.446501
O O16 0.500000 0.188437 0.250000
#
# Coordination Sequence:
#
# PCOD9237315 Si02
#       8
#     4   4   4   2   4   4   4   4
#     4  12  23  43  72  97 129 180 240 294 328 412
#     4  11  24  42  63  97 140 179 225 276 362 414
#     4   9  18  36  63  87 119 166 225 274 318 402
#     4  12  22  44  68  98 134 174 236 284 334 410
#     4  11  20  39  66  94 123 178 229 287 337 403
#     4   9  17  36  62  88 117 168 223 267 327 395
#     4  11  25  41  63  99 146 177 216 287 361 418
#     4  11  22  42  68  99 132 175 240 292 338 406
#
# _framework density 19.988654
#
# number of rings (size 3 to 8) (size 9 to 14) (size 15 to 20)
#    0.000    1.333    4.000    3.200    3.733    0.533 
#    2.400    2.000    0.000    0.000    0.000    0.000 
#    0.000    0.000    0.000    0.000    0.000    0.000 
#
# Total GULP energy -167230.123875 kJ/mol
# GULP energy per Si atom -5574.337463 kJ/mol
# Density = 1.994316 g / cm^3
# Si number density = 19.988654 Si / 1000 Ang^3
#
#
#
# Elastic Constant Matrix: (Units=GPa)
#
#
# Indices 1 2 3 4 5 6 
#
# 1 170.0316 47.0251 36.7103 0.0000 -18.5674 0.0000
# 2 47.0251 87.7287 18.0967 0.0000 -17.2158 0.0000
# 3 36.7103 18.0967 69.6920 0.0000 -9.6332 0.0000
# 4 0.0000 0.0000 0.0000 10.2674 0.0000 2.3906
# 5 -18.5674 -17.2158 -9.6332 0.0000 38.9688 0.0000
# 6 0.0000 0.0000 0.0000 2.3906 0.0000 7.1834
#
#
#
# Elastic Compliance Matrix: (Units=1/GPa)
#
#
# Indices 1 2 3 4 5 6 
#
# 1 0.007551 -0.003148 -0.002956 0.000000 0.001476 0.000000
# 2 -0.003148 0.014253 -0.001428 0.000000 0.004444 0.000000
# 3 -0.002956 -0.001428 0.016561 0.000000 0.002054 0.000000
# 4 0.000000 0.000000 0.000000 0.105576 0.000000 -0.035136
# 5 0.001476 0.004444 0.002054 0.000000 0.028836 0.000000
# 6 0.000000 0.000000 0.000000 -0.035136 0.000000 0.150904
#
#
# Mechanical properties :
#
#
# Convention : Reuss Voigt Hill
#
# Bulk Modulus (GPa) = 42.91925 59.01293 50.96609
# Shear Modulus (GPa) = 14.42944 26.32526 20.37735
#
# Velocity S-wave (km/s) = 2.68970 3.63300 3.19634
# Velocity P-wave (km/s) = 5.58251 6.86918 6.25899
#
# Compressibility (1/GPa) = 0.02329957
#
# Stress axis : x y z
#
# Youngs Moduli (GPa) = 132.42534 70.16064 60.38325
#
# Poissons Ratio (x) = 0.22088 0.17850
# Poissons Ratio (y) = 0.41691 0.08626
# Poissons Ratio (z) = 0.39147 0.10022
#
# Static dielectric constant tensor:
#      x y z
#    x 1.745530 0.000000 0.011690 
#    y 0.000000 1.705590 0.000000 
#    z 0.011690 0.000000 1.901200 
# 
# From -- ./inp_files/87316.got.cif
#   From: 2010.05.17/outbox.cif.g08.bks.cpg/sg13_44_cif.got.tgz:87316.got - 2010.06.03 16:44:36.
