data_PCOD9237879
_publ_section_title
;
Structure prediction by ZEFSAII (Michael W. Deem and Ramdas Pophale) SiO2 
 PCOD9237879
Probable space group: P 2/C
;
_chemical_formula_sum "Si O2"
_cell_formula_units_Z 14
_cell_length_a 5.604859
_cell_length_b 8.925170
_cell_length_c 14.494582
_cell_angle_alpha 90.000000
_cell_angle_beta 114.299492
_cell_angle_gamma 90.000000
_cell_volume 660.844391
_symmetry_space_group_name_H-M "P 2/C"
_symmetry_group_IT_number 13
_symmetry_cell_setting 'monoclinic'
loop_
_space_group_symop_operation_xyz
x,y,z
-x,y,1/2-z
-x,-y,-z
x,-y,1/2+z
loop_
_atom_site_type_symbol
_atom_site_label
_atom_site_fract_x
_atom_site_fract_y
_atom_site_fract_z
Si Si1 0.804224 0.958656 0.555076
Si Si2 0.753630 0.609450 0.539100
Si Si3 0.000000 0.833728 0.250000
Si Si4 0.770892 0.574887 0.323833
O O1 0.781699 0.781880 0.572604
O O2 0.500000 0.000000 0.500000
O O3 0.000000 0.000000 0.500000
O O4 0.903404 0.060464 0.654101
O O5 0.500000 0.500000 0.500000
O O6 0.788050 0.621713 0.433741
O O7 0.971905 0.527451 0.635956
O O8 0.792452 0.718986 0.261588
O O9 0.500000 0.497357 0.250000
#
# Coordination Sequence:
#
# PCOD9237879 Si02
#       4
#     4   4   2   4
#     4  12  27  49  76 113 154 199 259 324 390 460
#     4  11  25  46  74 106 150 197 255 323 380 462
#     4  12  26  46  74 106 154 202 252 314 400 462
#     4  11  23  43  73 105 145 193 252 311 382 461
#
# _framework density 21.185019
#
# number of rings (size 3 to 8) (size 9 to 14) (size 15 to 20)
#    0.000    0.571    2.857    5.143    4.000    3.429 
#    0.000    0.000    0.000    0.000    0.000    0.000 
#    0.000    0.000    0.000    0.000    0.000    0.000 
#
# Total GULP energy -77998.338283 kJ/mol
# GULP energy per Si atom -5571.309877 kJ/mol
# Density = 2.113680 g / cm^3
# Si number density = 21.185019 Si / 1000 Ang^3
#
#
#
# Elastic Constant Matrix: (Units=GPa)
#
#
# Indices 1 2 3 4 5 6 
#
# 1 130.6318 74.2827 70.1158 0.0000 15.5322 0.0000
# 2 74.2827 193.4612 59.5406 0.0000 14.7560 0.0000
# 3 70.1158 59.5406 154.3957 0.0000 17.9627 0.0000
# 4 0.0000 0.0000 0.0000 41.4214 0.0000 -1.5174
# 5 15.5322 14.7560 17.9627 0.0000 58.3114 0.0000
# 6 0.0000 0.0000 0.0000 -1.5174 0.0000 15.6608
#
#
#
# Elastic Compliance Matrix: (Units=1/GPa)
#
#
# Indices 1 2 3 4 5 6 
#
# 1 0.011735 -0.003201 -0.003967 0.000000 -0.001094 0.000000
# 2 -0.003201 0.006776 -0.001098 0.000000 -0.000524 0.000000
# 3 -0.003967 -0.001098 0.008865 0.000000 -0.001396 0.000000
# 4 0.000000 0.000000 0.000000 0.024228 0.000000 0.002348
# 5 -0.001094 -0.000524 -0.001396 0.000000 0.018003 0.000000
# 6 0.000000 0.000000 0.000000 0.002348 0.000000 0.064081
#
#
# Mechanical properties :
#
#
# Convention : Reuss Voigt Hill
#
# Bulk Modulus (GPa) = 92.23906 98.48524 95.36215
# Shear Modulus (GPa) = 32.50202 41.38203 36.94203
#
# Velocity S-wave (km/s) = 3.92113 4.42448 4.18039
# Velocity P-wave (km/s) = 8.00841 8.52587 8.27119
#
# Compressibility (1/GPa) = 0.01084139
#
# Stress axis : x y z
#
# Youngs Moduli (GPa) = 85.21440 147.57492 112.80843
#
# Poissons Ratio (x) = 0.47245 0.44756
# Poissons Ratio (y) = 0.27281 0.12390
# Poissons Ratio (z) = 0.33808 0.16209
#
# Static dielectric constant tensor:
#      x y z
#    x 1.430800 0.000000 -0.270230 
#    y 0.000000 1.828100 0.000000 
#    z -0.270230 0.000000 1.587410 
# 
# From -- ./inp_files/25249.got.cif
#   From: 2010.05.17/outbox.cif.g08.bks.cpg/sg13_13_cif.got.tgz:25249.got - 2010.06.03 16:44:36.
