data_PCOD9237163
_publ_section_title
;
Structure prediction by ZEFSAII (Michael W. Deem and Ramdas Pophale) SiO2 
 PCOD9237163
Probable space group: P 2/C
;
_chemical_formula_sum "Si O2"
_cell_formula_units_Z 26
_cell_length_a 22.354954
_cell_length_b 11.810240
_cell_length_c 8.822358
_cell_angle_alpha 90.000000
_cell_angle_beta 149.265710
_cell_angle_gamma 90.000000
_cell_volume 1190.383458
_symmetry_space_group_name_H-M "P 2/C"
_symmetry_group_IT_number 13
_symmetry_cell_setting 'monoclinic'
loop_
_space_group_symop_operation_xyz
x,y,z
-x,y,1/2-z
-x,-y,-z
x,-y,1/2+z
loop_
_atom_site_type_symbol
_atom_site_label
_atom_site_fract_x
_atom_site_fract_y
_atom_site_fract_z
Si Si1 0.500000 0.652915 0.750000
Si Si2 0.366544 0.219000 0.222908
Si Si3 0.705241 0.397423 0.899119
Si Si4 0.000000 0.273990 0.750000
Si Si5 0.167140 0.841791 0.819052
Si Si6 0.230085 0.600794 0.631866
Si Si7 0.743818 0.032867 0.701219
Si Si8 0.500000 0.075101 0.750000
O O1 0.580050 0.726978 0.811908
O O2 0.415088 0.587027 0.452163
O O3 0.301913 0.311435 0.185113
O O4 0.468388 0.155611 0.539398
O O5 0.273015 0.125568 0.966445
O O6 0.791773 0.487157 0.010176
O O7 0.751072 0.268982 0.982315
O O8 0.695680 0.423438 0.054963
O O9 0.957216 0.202134 0.511547
O O10 0.889617 0.346548 0.565193
O O11 0.211263 0.918056 0.775671
O O12 0.178263 0.915668 0.994840
O O13 0.613340 0.002705 0.474497
#
# Coordination Sequence:
#
# PCOD9237163 Si02
#       8
#     2   4   4   2   4   4   4   2
#     4  12  23  41  72 108 154 189 225 278 358 440
#     4  12  24  41  68 106 150 190 235 282 356 437
#     4  11  25  44  72 106 147 183 238 288 355 439
#     4  10  26  52  78 100 140 186 248 312 370 402
#     4  11  25  45  70 103 141 186 242 302 347 426
#     4  11  26  49  73 103 142 186 243 309 354 426
#     4  12  24  41  68 105 146 188 237 290 348 440
#     4  12  23  39  66 104 150 199 229 288 362 428
#
# _framework density 21.841702000000002
#
# number of rings (size 3 to 8) (size 9 to 14) (size 15 to 20)
#    0.000    0.615    3.077    5.538    0.000    6.154 
#    0.000    0.000    0.000    0.000    0.000    0.000 
#    0.000    0.000    0.000    0.000    0.000    0.000 
#
# Total GULP energy -145486.668117 kJ/mol
# GULP energy per Si atom -5595.641081 kJ/mol
# Density = 2.179199 g / cm^3
# Si number density = 21.841702 Si / 1000 Ang^3
#
#
#
# Elastic Constant Matrix: (Units=GPa)
#
#
# Indices 1 2 3 4 5 6 
#
# 1 98.0208 55.5707 46.5394 0.0000 -25.2668 0.0000
# 2 55.5707 104.2209 55.3817 0.0000 -20.4196 0.0000
# 3 46.5394 55.3817 82.4492 0.0000 -10.2819 0.0000
# 4 0.0000 0.0000 0.0000 17.5009 0.0000 -9.6156
# 5 -25.2668 -20.4196 -10.2819 0.0000 28.5239 0.0000
# 6 0.0000 0.0000 0.0000 -9.6156 0.0000 37.9054
#
#
#
# Elastic Compliance Matrix: (Units=1/GPa)
#
#
# Indices 1 2 3 4 5 6 
#
# 1 0.018421 -0.004476 -0.006027 0.000000 0.010941 0.000000
# 2 -0.004476 0.017666 -0.008646 0.000000 0.005566 0.000000
# 3 -0.006027 -0.008646 0.020838 0.000000 -0.004017 0.000000
# 4 0.000000 0.000000 0.000000 0.066394 0.000000 0.016842
# 5 0.010941 0.005566 -0.004017 0.000000 0.047286 0.000000
# 6 0.000000 0.000000 0.000000 0.016842 0.000000 0.030654
#
#
# Mechanical properties :
#
#
# Convention : Reuss Voigt Hill
#
# Bulk Modulus (GPa) = 53.68615 66.63049 60.15832
# Shear Modulus (GPa) = 20.34450 25.26598 22.80524
#
# Velocity S-wave (km/s) = 3.05528 3.40483 3.23478
# Velocity P-wave (km/s) = 6.08928 6.78450 6.44627
#
# Compressibility (1/GPa) = 0.01862678
#
# Stress axis : x y z
#
# Youngs Moduli (GPa) = 54.28484 56.60447 47.99025
#
# Poissons Ratio (x) = 0.25335 0.28925
# Poissons Ratio (y) = 0.24297 0.41493
# Poissons Ratio (z) = 0.32719 0.48941
#
# Static dielectric constant tensor:
#      x y z
#    x 1.784840 0.000000 -0.002190 
#    y 0.000000 1.822290 0.000000 
#    z -0.002190 0.000000 1.807140 
# 
# From -- ./inp_files/24180.got.cif
#   From: 2010.05.17/outbox.cif.g08.bks.cpg/sg13_13_cif.got.tgz:24180.got - 2010.06.03 16:44:36.
