data_PCOD9237350
_publ_section_title
;
Structure prediction by ZEFSAII (Michael W. Deem and Ramdas Pophale) SiO2 
 PCOD9237350
Probable space group: P 2/C
;
_chemical_formula_sum "Si O2"
_cell_formula_units_Z 26
_cell_length_a 26.902610
_cell_length_b 6.437935
_cell_length_c 23.269248
_cell_angle_alpha 90.000000
_cell_angle_beta 159.252619
_cell_angle_gamma 90.000000
_cell_volume 1427.680794
_symmetry_space_group_name_H-M "P 2/C"
_symmetry_group_IT_number 13
_symmetry_cell_setting 'monoclinic'
loop_
_space_group_symop_operation_xyz
x,y,z
-x,y,1/2-z
-x,-y,-z
x,-y,1/2+z
loop_
_atom_site_type_symbol
_atom_site_label
_atom_site_fract_x
_atom_site_fract_y
_atom_site_fract_z
Si Si1 0.814658 0.497339 0.240076
Si Si2 0.563645 0.306884 0.533917
Si Si3 0.688079 0.997745 0.263319
Si Si4 0.614482 0.876688 0.306265
Si Si5 0.330953 0.361719 0.523255
Si Si6 0.062031 0.192531 0.031310
Si Si7 0.500000 0.257356 0.250000
O O1 0.669196 0.608518 0.100010
O O2 0.852426 0.336728 0.331515
O O3 0.937237 0.667362 0.371259
O O4 0.791260 0.379006 0.155007
O O5 0.500000 0.500000 0.500000
O O6 0.438558 0.165109 0.374323
O O7 0.651235 0.166214 0.673384
O O8 0.831861 0.108785 0.401780
O O9 0.689007 0.887964 0.325981
O O10 0.695121 0.761345 0.445513
O O11 0.465830 0.754921 0.141209
O O12 0.573934 0.105691 0.284479
O O13 0.385391 0.590527 0.598456
O O14 0.000000 0.000000 0.000000
#
# Coordination Sequence:
#
# PCOD9237350 Si02
#       7
#     4   4   4   4   4   4   2
#     4  11  22  39  60  85 119 159 199 239 300 356
#     4  11  21  34  59  93 120 149 193 250 297 348
#     4  11  22  36  58  92 121 154 194 246 301 348
#     4   9  19  33  56  88 119 148 191 248 300 346
#     4   9  19  35  56  87 117 148 196 246 298 350
#     4  11  24  40  56  85 120 163 195 239 297 360
#     4   8  16  34  56  86 112 154 184 240 310 344
#
# _framework density 18.211352000000002
#
# number of rings (size 3 to 8) (size 9 to 14) (size 15 to 20)
#    0.000    2.154    3.077    1.846    2.154    3.692 
#    0.000    0.000    0.000    5.538    0.000    2.154 
#    0.000    0.000    0.000    0.000    0.000    0.000 
#
# Total GULP energy -145148.527263 kJ/mol
# GULP energy per Si atom -5582.635664 kJ/mol
# Density = 1.816990 g / cm^3
# Si number density = 18.211352 Si / 1000 Ang^3
#
#
#
# Elastic Constant Matrix: (Units=GPa)
#
#
# Indices 1 2 3 4 5 6 
#
# 1 118.3822 30.6879 48.4858 0.0000 -5.7273 0.0000
# 2 30.6879 88.4298 22.5225 0.0000 0.3822 0.0000
# 3 48.4858 22.5225 62.8324 0.0000 -4.5267 0.0000
# 4 0.0000 0.0000 0.0000 14.9621 0.0000 7.9018
# 5 -5.7273 0.3822 -4.5267 0.0000 24.8294 0.0000
# 6 0.0000 0.0000 0.0000 7.9018 0.0000 18.8670
#
#
#
# Elastic Compliance Matrix: (Units=1/GPa)
#
#
# Indices 1 2 3 4 5 6 
#
# 1 0.012740 -0.002143 -0.008966 0.000000 0.001337 0.000000
# 2 -0.002143 0.012831 -0.003035 0.000000 -0.001245 0.000000
# 3 -0.008966 -0.003035 0.024093 0.000000 0.002371 0.000000
# 4 0.000000 0.000000 0.000000 0.085817 0.000000 -0.035942
# 5 0.001337 -0.001245 0.002371 0.000000 0.041035 0.000000
# 6 0.000000 0.000000 0.000000 -0.035942 0.000000 0.068055
#
#
# Mechanical properties :
#
#
# Convention : Reuss Voigt Hill
#
# Bulk Modulus (GPa) = 46.78508 52.55964 49.67236
# Shear Modulus (GPa) = 17.85812 22.92826 20.39319
#
# Velocity S-wave (km/s) = 3.13486 3.55210 3.34998
# Velocity P-wave (km/s) = 6.23289 6.76364 6.50368
#
# Compressibility (1/GPa) = 0.02137434
#
# Stress axis : x y z
#
# Youngs Moduli (GPa) = 78.49403 77.93899 41.50558
#
# Poissons Ratio (x) = 0.16704 0.37215
# Poissons Ratio (y) = 0.16823 0.12597
# Poissons Ratio (z) = 0.70381 0.23655
#
# Static dielectric constant tensor:
#      x y z
#    x 1.623010 0.000000 -0.015990 
#    y 0.000000 1.635280 0.000000 
#    z -0.015990 0.000000 1.623380 
# 
# From -- ./inp_files/89444.got.cif
#   From: 2010.05.17/outbox.cif.g08.bks.cpg/sg13_45_cif.got.tgz:89444.got - 2010.06.03 16:44:36.
