data_PCOD9237157
_publ_section_title
;
Structure prediction by ZEFSAII (Michael W. Deem and Ramdas Pophale) SiO2 
 PCOD9237157
Probable space group: P 2/C
;
_chemical_formula_sum "Si O2"
_cell_formula_units_Z 22
_cell_length_a 28.219610
_cell_length_b 5.422979
_cell_length_c 17.292672
_cell_angle_alpha 90.000000
_cell_angle_beta 160.382403
_cell_angle_gamma 90.000000
_cell_volume 888.495563
_symmetry_space_group_name_H-M "P 2/C"
_symmetry_group_IT_number 13
_symmetry_cell_setting 'monoclinic'
loop_
_space_group_symop_operation_xyz
x,y,z
-x,y,1/2-z
-x,-y,-z
x,-y,1/2+z
loop_
_atom_site_type_symbol
_atom_site_label
_atom_site_fract_x
_atom_site_fract_y
_atom_site_fract_z
Si Si1 0.259895 0.230192 0.062541
Si Si2 0.379095 0.319108 0.400645
Si Si3 0.835583 0.535583 0.232779
Si Si4 0.386097 0.847300 0.135027
Si Si5 0.220602 0.186838 0.705110
Si Si6 0.000000 0.979422 0.750000
O O1 0.194081 0.427364 0.903200
O O2 0.380187 0.296769 0.309321
O O3 0.127249 0.133403 0.908164
O O4 0.321560 0.030767 0.098115
O O5 0.520285 0.337388 0.668052
O O6 0.291319 0.564951 0.281956
O O7 0.307467 0.058993 0.317462
O O8 0.794670 0.760420 0.226976
O O9 0.000000 0.500000 0.500000
O O10 0.733718 0.305898 0.094026
O O11 0.500000 0.958388 0.250000
O O12 0.071941 0.165432 0.431482
#
# Coordination Sequence:
#
# PCOD9237157 Si02
#       6
#     4   4   4   4   4   2
#     4  11  28  48  80 112 160 211 267 331 395 476
#     4  11  27  49  81 113 155 203 270 324 400 464
#     4  12  29  45  78 115 162 211 268 323 401 476
#     4  12  26  50  77 118 156 213 262 335 397 478
#     4  11  26  49  78 115 155 212 258 331 390 477
#     4  10  26  50  80 110 162 210 266 326 402 474
#
# _framework density 24.760954999999999
#
# number of rings (size 3 to 8) (size 9 to 14) (size 15 to 20)
#    0.000    0.727    1.818    2.727   15.273    3.636 
#    0.000    0.000    0.000    0.000    0.000    0.000 
#    0.000    0.000    0.000    0.000    0.000    0.000 
#
# Total GULP energy -123151.323787 kJ/mol
# GULP energy per Si atom -5597.787445 kJ/mol
# Density = 2.470460 g / cm^3
# Si number density = 24.760955 Si / 1000 Ang^3
#
#
#
# Elastic Constant Matrix: (Units=GPa)
#
#
# Indices 1 2 3 4 5 6 
#
# 1 149.5405 33.1276 25.0927 0.0000 -7.6152 0.0000
# 2 33.1276 109.2628 28.1321 0.0000 6.7659 0.0000
# 3 25.0927 28.1321 128.0647 0.0000 -4.9979 0.0000
# 4 0.0000 0.0000 0.0000 31.8038 0.0000 -0.4453
# 5 -7.6152 6.7659 -4.9979 0.0000 55.7382 0.0000
# 6 0.0000 0.0000 0.0000 -0.4453 0.0000 41.3119
#
#
#
# Elastic Compliance Matrix: (Units=1/GPa)
#
#
# Indices 1 2 3 4 5 6 
#
# 1 0.007362 -0.002062 -0.000944 0.000000 0.001171 0.000000
# 2 -0.002062 0.010384 -0.001944 0.000000 -0.001716 0.000000
# 3 -0.000944 -0.001944 0.008454 0.000000 0.000865 0.000000
# 4 0.000000 0.000000 0.000000 0.031448 0.000000 0.000339
# 5 0.001171 -0.001716 0.000865 0.000000 0.018387 0.000000
# 6 0.000000 0.000000 0.000000 0.000339 0.000000 0.024210
#
#
# Mechanical properties :
#
#
# Convention : Reuss Voigt Hill
#
# Bulk Modulus (GPa) = 61.34537 62.17476 61.76006
# Shear Modulus (GPa) = 43.26100 45.80517 44.53308
#
# Velocity S-wave (km/s) = 4.18442 4.30571 4.24550
# Velocity P-wave (km/s) = 6.94080 7.06281 7.00207
#
# Compressibility (1/GPa) = 0.01630115
#
# Stress axis : x y z
#
# Youngs Moduli (GPa) = 135.83468 96.30058 118.28253
#
# Poissons Ratio (x) = 0.19853 0.11165
# Poissons Ratio (y) = 0.28003 0.22996
# Poissons Ratio (z) = 0.12821 0.18722
#
# Static dielectric constant tensor:
#      x y z
#    x 2.008230 0.000000 -0.011570 
#    y 0.000000 1.973280 0.000000 
#    z -0.011570 0.000000 2.008710 
# 
# From -- ./inp_files/72169.got.cif
#   From: 2010.05.17/outbox.cif.g08.bks.cpg/sg13_37_cif.got.tgz:72169.got - 2010.06.03 16:44:36.
