data_PCOD9237685
_publ_section_title
;
Structure prediction by ZEFSAII (Michael W. Deem and Ramdas Pophale) SiO2 
 PCOD9237685
Probable space group: P 2/C
;
_chemical_formula_sum "Si O2"
_cell_formula_units_Z 24
_cell_length_a 12.932573
_cell_length_b 5.756128
_cell_length_c 25.039850
_cell_angle_alpha 90.000000
_cell_angle_beta 149.525384
_cell_angle_gamma 90.000000
_cell_volume 945.342473
_symmetry_space_group_name_H-M "P 2/C"
_symmetry_group_IT_number 13
_symmetry_cell_setting 'monoclinic'
loop_
_space_group_symop_operation_xyz
x,y,z
-x,y,1/2-z
-x,-y,-z
x,-y,1/2+z
loop_
_atom_site_type_symbol
_atom_site_label
_atom_site_fract_x
_atom_site_fract_y
_atom_site_fract_z
Si Si1 0.614149 0.748400 0.551708
Si Si2 0.097679 0.174972 0.002984
Si Si3 0.828142 0.812662 0.290224
Si Si4 0.201566 0.324834 0.250603
Si Si5 0.569721 0.513179 0.834863
Si Si6 0.657349 0.164159 0.953172
O O1 0.500000 0.500000 0.500000
O O2 0.734294 0.739863 0.660506
O O3 0.709995 0.758627 0.535737
O O4 0.500000 0.000000 0.500000
O O5 0.905886 0.264129 0.883377
O O6 0.268806 0.301302 0.114189
O O7 0.243111 0.073245 0.020698
O O8 0.000000 0.000000 0.000000
O O9 0.899572 0.583217 0.289267
O O10 0.587521 0.838801 0.167621
O O11 0.894203 0.082473 0.312681
O O12 0.390375 0.383649 0.293149
O O13 0.500000 0.385829 0.750000
O O14 0.718313 0.361034 0.938372
#
# Coordination Sequence:
#
# PCOD9237685 Si02
#       6
#     4   4   4   4   4   4
#     4  12  20  42  78 111 138 193 244 298 371 441
#     4  12  28  44  72 104 152 196 250 307 375 446
#     4  11  24  44  72 104 145 184 247 294 372 432
#     4  11  22  45  73 105 141 192 234 305 361 439
#     4  11  24  43  71 102 142 190 245 299 370 443
#     4  11  26  45  72 105 149 191 252 302 377 439
#
# _framework density 25.387623999999999
#
# number of rings (size 3 to 8) (size 9 to 14) (size 15 to 20)
#    0.000    0.667    6.667    1.000    7.000    0.667 
#    0.000    0.833    0.000    0.000    0.000    0.000 
#    0.000    0.000    0.000    0.000    0.000    0.000 
#
# Total GULP energy -133602.928141 kJ/mol
# GULP energy per Si atom -5566.788673 kJ/mol
# Density = 2.532984 g / cm^3
# Si number density = 25.387624 Si / 1000 Ang^3
#
#
#
# Elastic Constant Matrix: (Units=GPa)
#
#
# Indices 1 2 3 4 5 6 
#
# 1 94.5157 17.2240 37.7968 0.0000 -21.2136 0.0000
# 2 17.2240 143.4032 1.5111 0.0000 12.6168 0.0000
# 3 37.7968 1.5111 76.9104 0.0000 -15.2441 0.0000
# 4 0.0000 0.0000 0.0000 44.2492 0.0000 -8.9706
# 5 -21.2136 12.6168 -15.2441 0.0000 50.8812 0.0000
# 6 0.0000 0.0000 0.0000 -8.9706 0.0000 43.0341
#
#
#
# Elastic Compliance Matrix: (Units=1/GPa)
#
#
# Indices 1 2 3 4 5 6 
#
# 1 0.014473 -0.002088 -0.006137 0.000000 0.004713 0.000000
# 2 -0.002088 0.007450 0.000363 0.000000 -0.002609 0.000000
# 3 -0.006137 0.000363 0.016464 0.000000 0.002284 0.000000
# 4 0.000000 0.000000 0.000000 0.023596 0.000000 0.004919
# 5 0.004713 -0.002609 0.002284 0.000000 0.022950 0.000000
# 6 0.000000 0.000000 0.000000 0.004919 0.000000 0.024263
#
#
# Mechanical properties :
#
#
# Convention : Reuss Voigt Hill
#
# Bulk Modulus (GPa) = 44.12913 47.54370 45.83642
# Shear Modulus (GPa) = 37.74283 44.85273 41.29778
#
# Velocity S-wave (km/s) = 3.85991 4.20779 4.03760
# Velocity P-wave (km/s) = 6.10615 6.50962 6.31111
#
# Compressibility (1/GPa) = 0.02266077
#
# Stress axis : x y z
#
# Youngs Moduli (GPa) = 69.09404 134.22962 60.73917
#
# Poissons Ratio (x) = 0.28032 0.37278
# Poissons Ratio (y) = 0.14429 -0.02203
# Poissons Ratio (z) = 0.42406 -0.04869
#
# Static dielectric constant tensor:
#      x y z
#    x 1.581920 0.000000 0.424040 
#    y 0.000000 2.289720 0.000000 
#    z 0.424040 0.000000 1.820640 
# 
# From -- ./inp_files/92676.got.cif
#   From: 2010.05.17/outbox.cif.g08.bks.cpg/sg13_47_cif.got.tgz:92676.got - 2010.06.03 16:44:36.
