data_PCOD9237835
_publ_section_title
;
Structure prediction by ZEFSAII (Michael W. Deem and Ramdas Pophale) SiO2 
 PCOD9237835
Probable space group: P 2/C
;
_chemical_formula_sum "Si O2"
_cell_formula_units_Z 20
_cell_length_a 13.121187
_cell_length_b 7.165846
_cell_length_c 22.000379
_cell_angle_alpha 90.000000
_cell_angle_beta 156.972555
_cell_angle_gamma 90.000000
_cell_volume 809.167685
_symmetry_space_group_name_H-M "P 2/C"
_symmetry_group_IT_number 13
_symmetry_cell_setting 'monoclinic'
loop_
_space_group_symop_operation_xyz
x,y,z
-x,y,1/2-z
-x,-y,-z
x,-y,1/2+z
loop_
_atom_site_type_symbol
_atom_site_label
_atom_site_fract_x
_atom_site_fract_y
_atom_site_fract_z
Si Si1 0.753934 0.411135 0.394221
Si Si2 0.119350 0.400853 0.893340
Si Si3 0.689544 0.117269 0.673874
Si Si4 0.353846 0.695440 0.891343
Si Si5 0.708959 0.013005 0.317199
O O1 0.500000 0.536686 0.250000
O O2 0.816074 0.391533 0.499672
O O3 0.679799 0.239136 0.306880
O O4 0.000000 0.500000 0.500000
O O5 0.387235 0.388462 0.000961
O O6 0.903413 0.565032 0.759744
O O7 0.951476 0.212221 0.792894
O O8 0.696684 0.898388 0.663994
O O9 0.675492 0.107173 0.738536
O O10 0.456341 0.233704 0.514267
O O11 0.500000 0.945131 0.250000
O O12 0.000000 0.000000 0.500000
#
# Coordination Sequence:
#
# PCOD9237835 Si02
#       5
#     4   4   4   4   4
#     4  11  23  42  70 111 152 198 250 318 398 473
#     4  12  24  50  78 113 163 203 268 332 398 483
#     4  11  25  47  76 112 157 205 263 323 396 481
#     4  11  27  49  80 115 154 212 269 327 401 472
#     4  11  23  45  73 107 150 194 255 319 391 466
#
# _framework density 24.716754000000002
#
# number of rings (size 3 to 8) (size 9 to 14) (size 15 to 20)
#    0.000    0.800    2.000    6.000    0.000    2.400 
#    3.600    4.000    0.000    0.000    0.000    0.000 
#    0.000    0.000    0.000    0.000    0.000    0.000 
#
# Total GULP energy -111555.765754 kJ/mol
# GULP energy per Si atom -5577.788288 kJ/mol
# Density = 2.466050 g / cm^3
# Si number density = 24.716754 Si / 1000 Ang^3
#
#
#
# Elastic Constant Matrix: (Units=GPa)
#
#
# Indices 1 2 3 4 5 6 
#
# 1 184.3971 45.2732 102.1314 0.0000 -3.4724 0.0000
# 2 45.2732 172.7784 60.3178 0.0000 23.6586 0.0000
# 3 102.1314 60.3178 183.2922 0.0000 17.9390 0.0000
# 4 0.0000 0.0000 0.0000 35.8243 0.0000 -1.2362
# 5 -3.4724 23.6586 17.9390 0.0000 56.1262 0.0000
# 6 0.0000 0.0000 0.0000 -1.2362 0.0000 26.8859
#
#
#
# Elastic Compliance Matrix: (Units=1/GPa)
#
#
# Indices 1 2 3 4 5 6 
#
# 1 0.008170 -0.000892 -0.004485 0.000000 0.002315 0.000000
# 2 -0.000892 0.006894 -0.001530 0.000000 -0.002472 0.000000
# 3 -0.004485 -0.001530 0.008695 0.000000 -0.002412 0.000000
# 4 0.000000 0.000000 0.000000 0.027958 0.000000 0.001286
# 5 0.002315 -0.002472 -0.002412 0.000000 0.019773 0.000000
# 6 0.000000 0.000000 0.000000 0.001286 0.000000 0.037253
#
#
# Mechanical properties :
#
#
# Convention : Reuss Voigt Hill
#
# Bulk Modulus (GPa) = 100.55943 106.21248 103.38595
# Shear Modulus (GPa) = 39.72279 45.95029 42.83654
#
# Velocity S-wave (km/s) = 4.01324 4.31638 4.16756
# Velocity P-wave (km/s) = 7.88973 8.24055 8.06705
#
# Compressibility (1/GPa) = 0.00994437
#
# Stress axis : x y z
#
# Youngs Moduli (GPa) = 122.39929 145.05288 115.01505
#
# Poissons Ratio (x) = 0.12937 0.51589
# Poissons Ratio (y) = 0.10917 0.17595
# Poissons Ratio (z) = 0.54901 0.22190
#
# Static dielectric constant tensor:
#      x y z
#    x 2.122250 0.000000 0.045450 
#    y 0.000000 1.954180 0.000000 
#    z 0.045450 0.000000 2.044130 
# 
# From -- ./inp_files/87205.got.cif
#   From: 2010.05.17/outbox.cif.g08.bks.cpg/sg13_44_cif.got.tgz:87205.got - 2010.06.03 16:44:36.
