data_PCOD9237970
_publ_section_title
;
Structure prediction by ZEFSAII (Michael W. Deem and Ramdas Pophale) SiO2 
 PCOD9237970
Probable space group: P 2/C
;
_chemical_formula_sum "Si O2"
_cell_formula_units_Z 16
_cell_length_a 10.936027
_cell_length_b 5.037547
_cell_length_c 11.810698
_cell_angle_alpha 90.000000
_cell_angle_beta 105.369221
_cell_angle_gamma 90.000000
_cell_volume 627.391249
_symmetry_space_group_name_H-M "P 2/C"
_symmetry_group_IT_number 13
_symmetry_cell_setting 'monoclinic'
loop_
_space_group_symop_operation_xyz
x,y,z
-x,y,1/2-z
-x,-y,-z
x,-y,1/2+z
loop_
_atom_site_type_symbol
_atom_site_label
_atom_site_fract_x
_atom_site_fract_y
_atom_site_fract_z
Si Si1 0.307356 0.703127 0.922422
Si Si2 0.116693 0.496728 0.693187
Si Si3 0.438209 0.701778 0.626698
Si Si4 0.192106 0.982746 0.578467
O O1 0.353662 0.491625 0.028300
O O2 0.210446 0.913219 0.954818
O O3 0.236233 0.561636 0.802546
O O4 0.440531 0.813444 0.909895
O O5 0.135082 0.215032 0.639603
O O6 0.000000 0.506596 0.750000
O O7 0.115699 0.719159 0.593637
O O8 0.500000 0.559660 0.750000
O O9 0.339702 0.923239 0.643550
#
# Coordination Sequence:
#
# PCOD9237970 Si02
#       4
#     4   4   4   4
#     4  11  25  46  78 109 147 194 236 302 375 429
#     4  12  29  50  74 106 150 196 247 299 351 435
#     4  11  23  46  75 111 148 185 239 301 372 436
#     4  12  25  49  71 110 143 190 248 297 361 429
#
# _framework density 25.502428999999999
#
# number of rings (size 3 to 8) (size 9 to 14) (size 15 to 20)
#    0.000    0.500    5.000    1.500    3.500    7.000 
#    0.000    0.000    0.000    0.000    0.000    0.000 
#    0.000    0.000    0.000    0.000    0.000    0.000 
#
# Total GULP energy -89603.850001 kJ/mol
# GULP energy per Si atom -5600.240625 kJ/mol
# Density = 2.544438 g / cm^3
# Si number density = 25.502429 Si / 1000 Ang^3
#
#
#
# Elastic Constant Matrix: (Units=GPa)
#
#
# Indices 1 2 3 4 5 6 
#
# 1 168.9726 41.7440 12.2801 0.0000 -52.6404 0.0000
# 2 41.7440 104.5689 15.0411 0.0000 -20.4457 0.0000
# 3 12.2801 15.0411 70.5423 0.0000 -1.5146 0.0000
# 4 0.0000 0.0000 0.0000 -18.7848 0.0000 1.1659
# 5 -52.6404 -20.4457 -1.5146 0.0000 68.3101 0.0000
# 6 0.0000 0.0000 0.0000 1.1659 0.0000 20.3925
#
#
#
# Elastic Compliance Matrix: (Units=1/GPa)
#
#
# Indices 1 2 3 4 5 6 
#
# 1 0.008280 -0.002055 -0.000880 0.000000 0.005746 0.000000
# 2 -0.002055 0.010989 -0.001950 0.000000 0.001662 0.000000
# 3 -0.000880 -0.001950 0.014725 0.000000 -0.000935 0.000000
# 4 0.000000 0.000000 0.000000 -0.053046 0.000000 0.003033
# 5 0.005746 0.001662 -0.000935 0.000000 0.019544 0.000000
# 6 0.000000 0.000000 0.000000 0.003033 0.000000 0.048864
#
#
# Mechanical properties :
#
#
# Convention : Reuss Voigt Hill
#
# Bulk Modulus (GPa) = 41.28125 53.57936 47.43030
# Shear Modulus (GPa) = 74.40587 32.31814 53.36201
#
# Velocity S-wave (km/s) = 5.40734 3.56372 4.57927
# Velocity P-wave (km/s) = 7.43022 6.16349 6.82630
#
# Compressibility (1/GPa) = 0.02422407
#
# Stress axis : x y z
#
# Youngs Moduli (GPa) = 120.77560 91.00051 67.91332
#
# Poissons Ratio (x) = 0.18704 0.05975
# Poissons Ratio (y) = 0.24823 0.13240
# Poissons Ratio (z) = 0.10625 0.17741
#
# Static dielectric constant tensor:
#      x y z
#    x 1.986110 0.000000 -0.028160 
#    y 0.000000 2.022850 0.000000 
#    z -0.028160 0.000000 2.048630 
# 
# From -- ./inp_files/31252.got.cif
#   From: 2010.05.17/outbox.cif.g08.bks.cpg/sg13_16_cif.got.tgz:31252.got - 2010.06.03 16:44:36.
