data_PCOD9237253
_publ_section_title
;
Structure prediction by ZEFSAII (Michael W. Deem and Ramdas Pophale) SiO2 
 PCOD9237253
Probable space group: P 2/C
;
_chemical_formula_sum "Si O2"
_cell_formula_units_Z 26
_cell_length_a 14.862767
_cell_length_b 11.550996
_cell_length_c 15.572391
_cell_angle_alpha 90.000000
_cell_angle_beta 27.286291
_cell_angle_gamma 90.000000
_cell_volume 1225.614789
_symmetry_space_group_name_H-M "P 2/C"
_symmetry_group_IT_number 13
_symmetry_cell_setting 'monoclinic'
loop_
_space_group_symop_operation_xyz
x,y,z
-x,y,1/2-z
-x,-y,-z
x,-y,1/2+z
loop_
_atom_site_type_symbol
_atom_site_label
_atom_site_fract_x
_atom_site_fract_y
_atom_site_fract_z
Si Si1 0.000000 0.354430 0.250000
Si Si2 0.764532 0.872651 0.452312
Si Si3 0.906426 0.468825 0.672546
Si Si4 0.500000 0.927536 0.250000
Si Si5 0.748760 0.669084 0.588536
Si Si6 0.428260 0.271350 0.924695
Si Si7 0.500000 0.523905 0.250000
Si Si8 0.446211 0.308227 0.494510
O O1 0.037838 0.433823 0.303545
O O2 0.796611 0.280111 0.421021
O O3 0.716371 0.790166 0.573350
O O4 0.673383 0.798077 0.449949
O O5 0.000000 0.885978 0.250000
O O6 0.658482 0.991683 0.567992
O O7 0.687036 0.420255 0.868874
O O8 0.000000 0.500000 0.500000
O O9 0.025292 0.351946 0.592329
O O10 0.449376 0.834950 0.218510
O O11 0.677986 0.564433 0.587267
O O12 0.618397 0.656581 0.783039
O O13 0.524083 0.390246 0.808682
O O14 0.446291 0.267027 0.010627
#
# Coordination Sequence:
#
# PCOD9237253 Si02
#       8
#     2   4   4   2   4   4   2   4
#     4  12  24  46  66 104 152 194 232 282 352 438
#     4  12  24  47  76 101 129 184 243 297 356 419
#     4  12  25  40  70 107 152 189 231 280 353 440
#     4  11  27  52  72  92 137 189 234 300 372 407
#     4  12  21  41  70 103 143 181 225 284 351 416
#     4  11  27  43  69 100 145 186 231 287 354 418
#     4  11  19  40  64  94 143 191 212 268 350 413
#     4  12  24  44  70 109 140 181 242 291 345 423
#
# _framework density 21.213843000000001
#
# number of rings (size 3 to 8) (size 9 to 14) (size 15 to 20)
#    0.000    0.308    6.154    3.692    3.231    2.462 
#    0.000    0.769    0.000    0.000    0.000    0.000 
#    0.000    0.000    0.000    0.000    0.000    0.000 
#
# Total GULP energy -144988.752915 kJ/mol
# GULP energy per Si atom -5576.490497 kJ/mol
# Density = 2.116556 g / cm^3
# Si number density = 21.213843 Si / 1000 Ang^3
#
#
#
# Elastic Constant Matrix: (Units=GPa)
#
#
# Indices 1 2 3 4 5 6 
#
# 1 98.2690 24.8926 38.1481 0.0000 15.8285 0.0000
# 2 24.8926 105.4829 35.8044 0.0000 11.2116 0.0000
# 3 38.1481 35.8044 118.2746 0.0000 -3.0420 0.0000
# 4 0.0000 0.0000 0.0000 42.0345 0.0000 10.3226
# 5 15.8285 11.2116 -3.0420 0.0000 40.6406 0.0000
# 6 0.0000 0.0000 0.0000 10.3226 0.0000 5.9951
#
#
#
# Elastic Compliance Matrix: (Units=1/GPa)
#
#
# Indices 1 2 3 4 5 6 
#
# 1 0.012781 -0.001168 -0.003896 0.000000 -0.004948 0.000000
# 2 -0.001168 0.011094 -0.003055 0.000000 -0.002834 0.000000
# 3 -0.003896 -0.003055 0.010718 0.000000 0.003162 0.000000
# 4 0.000000 0.000000 0.000000 0.041219 0.000000 -0.070974
# 5 -0.004948 -0.002834 0.003162 0.000000 0.027551 0.000000
# 6 0.000000 0.000000 0.000000 -0.070974 0.000000 0.289010
#
#
# Mechanical properties :
#
#
# Convention : Reuss Voigt Hill
#
# Bulk Modulus (GPa) = 54.47941 57.74632 56.11287
# Shear Modulus (GPa) = 12.05606 32.61278 22.33442
#
# Velocity S-wave (km/s) = 2.38651 3.92514 3.24824
# Velocity P-wave (km/s) = 5.77328 6.91538 6.36998
#
# Compressibility (1/GPa) = 0.01835556
#
# Stress axis : x y z
#
# Youngs Moduli (GPa) = 78.23863 90.13967 93.30439
#
# Poissons Ratio (x) = 0.10527 0.36353
# Poissons Ratio (y) = 0.09137 0.28501
# Poissons Ratio (z) = 0.30483 0.27534
#
# Static dielectric constant tensor:
#      x y z
#    x 1.893030 0.000000 -0.044190 
#    y 0.000000 1.754880 0.000000 
#    z -0.044190 0.000000 1.840360 
# 
# From -- ./inp_files/53674.got.cif
#   From: 2010.05.17/outbox.cif.g08.bks.cpg/sg13_27_cif.got.tgz:53674.got - 2010.06.03 16:44:36.
