data_PCOD9237800
_publ_section_title
;
Structure prediction by ZEFSAII (Michael W. Deem and Ramdas Pophale) SiO2 
 PCOD9237800
Probable space group: P 2/C
;
_chemical_formula_sum "Si O2"
_cell_formula_units_Z 20
_cell_length_a 19.945544
_cell_length_b 8.586402
_cell_length_c 15.054114
_cell_angle_alpha 90.000000
_cell_angle_beta 158.759124
_cell_angle_gamma 90.000000
_cell_volume 934.045842
_symmetry_space_group_name_H-M "P 2/C"
_symmetry_group_IT_number 13
_symmetry_cell_setting 'monoclinic'
loop_
_space_group_symop_operation_xyz
x,y,z
-x,y,1/2-z
-x,-y,-z
x,-y,1/2+z
loop_
_atom_site_type_symbol
_atom_site_label
_atom_site_fract_x
_atom_site_fract_y
_atom_site_fract_z
Si Si1 0.000000 0.195293 0.250000
Si Si2 0.500000 0.155915 0.750000
Si Si3 0.859591 0.071393 0.445459
Si Si4 0.466152 0.716277 0.877305
Si Si5 0.367484 0.634563 0.229056
Si Si6 0.752896 0.088625 0.628554
O O1 0.173176 0.309482 0.449160
O O2 0.077157 0.079524 0.420841
O O3 0.486963 0.267931 0.649716
O O4 0.328245 0.037028 0.540665
O O5 0.701172 0.169965 0.298961
O O6 0.054558 0.159132 0.668124
O O7 0.790378 0.008712 0.265160
O O8 0.390803 0.549722 0.753604
O O9 0.594317 0.684833 0.122272
O O10 0.595652 0.791203 0.962608
#
# Coordination Sequence:
#
# PCOD9237800 Si02
#       6
#     2   2   4   4   4   4
#     4  12  22  44  68  96 138 176 230 280 334 406
#     4  12  22  44  68  96 138 176 230 280 334 406
#     4  11  23  41  71 102 130 175 235 277 326 409
#     4  11  24  47  68  96 140 186 222 284 347 402
#     4  11  25  44  68  98 141 179 222 288 350 398
#     4  11  23  41  71 102 130 175 235 277 326 409
#
# _framework density 21.412224999999999
#
# number of rings (size 3 to 8) (size 9 to 14) (size 15 to 20)
#    0.000    0.800    6.000    1.800    0.000    1.600 
#    3.600    2.000    0.000    0.000    0.000    0.000 
#    0.000    0.000    0.000    0.000    0.000    0.000 
#
# Total GULP energy -111733.390222 kJ/mol
# GULP energy per Si atom -5586.669511 kJ/mol
# Density = 2.136349 g / cm^3
# Si number density = 21.412225 Si / 1000 Ang^3
#
#
#
# Elastic Constant Matrix: (Units=GPa)
#
#
# Indices 1 2 3 4 5 6 
#
# 1 52.1405 35.7979 17.5621 0.0000 16.5794 0.0000
# 2 35.7979 115.7257 59.6055 0.0000 17.0106 0.0000
# 3 17.5621 59.6055 94.0026 0.0000 21.0691 0.0000
# 4 0.0000 0.0000 0.0000 20.8556 0.0000 -11.4650
# 5 16.5794 17.0106 21.0691 0.0000 52.4870 0.0000
# 6 0.0000 0.0000 0.0000 -11.4650 0.0000 26.1189
#
#
#
# Elastic Compliance Matrix: (Units=1/GPa)
#
#
# Indices 1 2 3 4 5 6 
#
# 1 0.026122 -0.007971 0.001587 0.000000 -0.006305 0.000000
# 2 -0.007971 0.015310 -0.008429 0.000000 0.000940 0.000000
# 3 0.001587 -0.008429 0.016688 0.000000 -0.004468 0.000000
# 4 0.000000 0.000000 0.000000 0.063199 0.000000 0.027742
# 5 -0.006305 0.000940 -0.004468 0.000000 0.022533 0.000000
# 6 0.000000 0.000000 0.000000 0.027742 0.000000 0.050464
#
#
# Mechanical properties :
#
#
# Convention : Reuss Voigt Hill
#
# Bulk Modulus (GPa) = 35.09556 54.19998 44.64777
# Shear Modulus (GPa) = 21.41867 29.81918 25.61892
#
# Velocity S-wave (km/s) = 3.16618 3.73584 3.46274
# Velocity P-wave (km/s) = 5.45823 6.63146 6.07324
#
# Compressibility (1/GPa) = 0.02849363
#
# Stress axis : x y z
#
# Youngs Moduli (GPa) = 38.28203 65.31493 59.92354
#
# Poissons Ratio (x) = 0.52064 -0.09512
# Poissons Ratio (y) = 0.30515 0.50512
# Poissons Ratio (z) = -0.06077 0.55057
#
# Static dielectric constant tensor:
#      x y z
#    x 1.820130 0.000000 0.019590 
#    y 0.000000 1.727600 0.000000 
#    z 0.019590 0.000000 1.835220 
# 
# From -- ./inp_files/57417.got.cif
#   From: 2010.05.17/outbox.cif.g08.bks.cpg/sg13_29_cif.got.tgz:57417.got - 2010.06.03 16:44:36.
