data_PCOD9237307
_publ_section_title
;
Structure prediction by ZEFSAII (Michael W. Deem and Ramdas Pophale) SiO2 
 PCOD9237307
Probable space group: P 2/C
;
_chemical_formula_sum "Si O2"
_cell_formula_units_Z 26
_cell_length_a 20.620796
_cell_length_b 9.399351
_cell_length_c 9.106911
_cell_angle_alpha 90.000000
_cell_angle_beta 42.349501
_cell_angle_gamma 90.000000
_cell_volume 1189.075742
_symmetry_space_group_name_H-M "P 2/C"
_symmetry_group_IT_number 13
_symmetry_cell_setting 'monoclinic'
loop_
_space_group_symop_operation_xyz
x,y,z
-x,y,1/2-z
-x,-y,-z
x,-y,1/2+z
loop_
_atom_site_type_symbol
_atom_site_label
_atom_site_fract_x
_atom_site_fract_y
_atom_site_fract_z
Si Si1 0.773107 0.271107 0.740696
Si Si2 0.099487 0.535297 0.915283
Si Si3 0.666683 0.094890 0.347354
Si Si4 0.851029 0.954349 0.323017
Si Si5 0.232180 0.749865 0.572536
Si Si6 0.000000 0.780240 0.250000
Si Si7 0.597107 0.826161 0.663680
O O1 0.852078 0.394619 0.602310
O O2 0.827559 0.134015 0.715501
O O3 0.726734 0.246890 0.659487
O O4 0.683206 0.288027 0.000667
O O5 0.179174 0.601407 0.676827
O O6 0.078216 0.666793 0.059515
O O7 0.000000 0.500000 0.000000
O O8 0.695473 0.215716 0.416928
O O9 0.591053 0.133558 0.345704
O O10 0.631035 0.965214 0.510838
O O11 0.763156 0.069231 0.086520
O O12 0.946403 0.884300 0.227621
O O13 0.846225 0.121043 0.296465
O O14 0.500000 0.776940 0.750000
#
# Coordination Sequence:
#
# PCOD9237307 Si02
#       7
#     4   4   4   4   4   2   4
#     4  11  24  42  65  94 136 177 221 275 344 395
#     4  12  26  42  63  94 138 186 229 270 331 408
#     4  11  20  38  66  98 133 170 213 280 343 390
#     4  11  22  41  64  96 134 172 223 282 329 387
#     4  12  23  42  67  95 132 180 224 273 342 397
#     4  12  24  40  62  96 134 180 238 274 320 402
#     4  11  22  40  69 101 133 171 225 280 342 406
#
# _framework density 21.865724
#
# number of rings (size 3 to 8) (size 9 to 14) (size 15 to 20)
#    0.000    0.615    7.692    1.385    0.000    1.846 
#    0.000    0.000    0.000    4.615    0.000    0.000 
#    0.000    0.000    0.000    0.000    0.000    0.000 
#
# Total GULP energy -145118.095047 kJ/mol
# GULP energy per Si atom -5581.465194 kJ/mol
# Density = 2.181596 g / cm^3
# Si number density = 21.865724 Si / 1000 Ang^3
#
#
#
# Elastic Constant Matrix: (Units=GPa)
#
#
# Indices 1 2 3 4 5 6 
#
# 1 141.0808 15.7934 11.0656 0.0000 19.0277 0.0000
# 2 15.7934 56.1450 -0.8685 0.0000 6.4580 0.0000
# 3 11.0656 -0.8685 26.2848 0.0000 19.4243 0.0000
# 4 0.0000 0.0000 0.0000 27.8569 0.0000 -2.7684
# 5 19.0277 6.4580 19.4243 0.0000 43.4010 0.0000
# 6 0.0000 0.0000 0.0000 -2.7684 0.0000 17.6216
#
#
#
# Elastic Compliance Matrix: (Units=1/GPa)
#
#
# Indices 1 2 3 4 5 6 
#
# 1 0.007751 -0.001925 -0.001535 0.000000 -0.002425 0.000000
# 2 -0.001925 0.018867 0.004310 0.000000 -0.003892 0.000000
# 3 -0.001535 0.004310 0.057989 0.000000 -0.025922 0.000000
# 4 0.000000 0.000000 0.000000 0.036467 0.000000 0.005729
# 5 -0.002425 -0.003892 -0.025922 0.000000 0.036285 0.000000
# 6 0.000000 0.000000 0.000000 0.005729 0.000000 0.057648
#
#
# Mechanical properties :
#
#
# Convention : Reuss Voigt Hill
#
# Bulk Modulus (GPa) = 11.58637 30.61017 21.09827
# Shear Modulus (GPa) = 20.65465 30.94394 25.79929
#
# Velocity S-wave (km/s) = 3.07679 3.76597 3.43869
# Velocity P-wave (km/s) = 4.23469 5.73930 5.04342
#
# Compressibility (1/GPa) = 0.08630833
#
# Stress axis : x y z
#
# Youngs Moduli (GPa) = 129.01452 53.00269 17.24452
#
# Poissons Ratio (x) = 0.10204 0.02647
# Poissons Ratio (y) = 0.24837 -0.07433
# Poissons Ratio (z) = 0.19801 -0.22846
#
# Static dielectric constant tensor:
#      x y z
#    x 1.832530 0.000000 0.013740 
#    y 0.000000 1.808420 0.000000 
#    z 0.013740 0.000000 1.894560 
# 
# From -- ./inp_files/22732.got.cif
#   From: 2010.05.17/outbox.cif.g08.bks.cpg/sg13_12_cif.got.tgz:22732.got - 2010.06.03 16:44:36.
