data_PCOD9237544
_publ_section_title
;
Structure prediction by ZEFSAII (Michael W. Deem and Ramdas Pophale) SiO2 
 PCOD9237544
Probable space group: P 2/C
;
_chemical_formula_sum "Si O2"
_cell_formula_units_Z 22
_cell_length_a 15.403482
_cell_length_b 9.294231
_cell_length_c 10.791002
_cell_angle_alpha 90.000000
_cell_angle_beta 38.021203
_cell_angle_gamma 90.000000
_cell_volume 951.572205
_symmetry_space_group_name_H-M "P 2/C"
_symmetry_group_IT_number 13
_symmetry_cell_setting 'monoclinic'
loop_
_space_group_symop_operation_xyz
x,y,z
-x,y,1/2-z
-x,-y,-z
x,-y,1/2+z
loop_
_atom_site_type_symbol
_atom_site_label
_atom_site_fract_x
_atom_site_fract_y
_atom_site_fract_z
Si Si1 0.913000 0.060782 0.975085
Si Si2 0.976245 0.416416 0.402074
Si Si3 0.762695 0.248358 0.321807
Si Si4 0.500000 0.316560 0.750000
Si Si5 0.413093 0.962779 0.971421
Si Si6 0.719894 0.786914 0.202421
O O1 0.000000 0.080905 0.750000
O O2 0.829296 0.206302 0.112074
O O3 0.801959 0.932939 0.075760
O O4 0.000000 0.000000 0.000000
O O5 0.825026 0.344953 0.580427
O O6 0.000000 0.503996 0.250000
O O7 0.000000 0.500000 0.500000
O O8 0.098519 0.294554 0.259852
O O9 0.636855 0.359619 0.504723
O O10 0.592916 0.242808 0.752120
O O11 0.693800 0.093981 0.428902
O O12 0.334139 0.817666 0.098613
O O13 0.500000 0.943426 0.750000
O O14 0.500000 0.000000 0.000000
#
# Coordination Sequence:
#
# PCOD9237544 Si02
#       6
#     4   4   4   2   4   4
#     4  11  22  38  65 108 147 182 228 283 348 426
#     4  12  27  51  75  95 132 186 250 301 345 401
#     4  11  22  40  69 101 138 179 223 275 348 420
#     4  12  20  42  72  98 134 190 218 270 346 436
#     4  11  22  39  68 110 148 180 217 271 353 440
#     4  11  23  42  71 102 144 186 230 280 354 422
#
# _framework density 23.119634000000001
#
# number of rings (size 3 to 8) (size 9 to 14) (size 15 to 20)
#    0.000    0.727    6.364    1.636    0.000    5.091 
#    3.273    0.909    2.000    0.000    0.000    0.000 
#    0.000    0.000    0.000    0.000    0.000    0.000 
#
# Total GULP energy -122479.657997 kJ/mol
# GULP energy per Si atom -5567.257182 kJ/mol
# Density = 2.306701 g / cm^3
# Si number density = 23.119634 Si / 1000 Ang^3
#
#
#
# Elastic Constant Matrix: (Units=GPa)
#
#
# Indices 1 2 3 4 5 6 
#
# 1 129.2008 19.0299 54.4866 0.0000 -0.6963 0.0000
# 2 19.0299 16.2941 21.5052 0.0000 12.3159 0.0000
# 3 54.4866 21.5052 226.7932 0.0000 32.7843 0.0000
# 4 0.0000 0.0000 0.0000 16.4735 0.0000 4.8412
# 5 -0.6963 12.3159 32.7843 0.0000 53.9146 0.0000
# 6 0.0000 0.0000 0.0000 4.8412 0.0000 12.4830
#
#
#
# Elastic Compliance Matrix: (Units=1/GPa)
#
#
# Indices 1 2 3 4 5 6 
#
# 1 0.010469 -0.012923 -0.001903 0.000000 0.004245 0.000000
# 2 -0.012923 0.095754 -0.003058 0.000000 -0.020181 0.000000
# 3 -0.001903 -0.003058 0.005547 0.000000 -0.002699 0.000000
# 4 0.000000 0.000000 0.000000 0.068512 0.000000 -0.026570
# 5 0.004245 -0.020181 -0.002699 0.000000 0.024854 0.000000
# 6 0.000000 0.000000 0.000000 -0.026570 0.000000 0.090413
#
#
# Mechanical properties :
#
#
# Convention : Reuss Voigt Hill
#
# Bulk Modulus (GPa) = 13.15758 62.48130 37.81944
# Shear Modulus (GPa) = 14.01935 35.05865 24.53900
#
# Velocity S-wave (km/s) = 2.46516 3.89832 3.26144
# Velocity P-wave (km/s) = 3.71566 6.88088 5.52958
#
# Compressibility (1/GPa) = 0.07600182
#
# Stress axis : x y z
#
# Youngs Moduli (GPa) = 95.52171 10.44342 180.28882
#
# Poissons Ratio (x) = 0.13496 0.34315
# Poissons Ratio (y) = 1.23441 0.55127
# Poissons Ratio (z) = 0.18181 0.03193
#
# Static dielectric constant tensor:
#      x y z
#    x 1.916610 0.000000 -0.003240 
#    y 0.000000 1.901930 0.000000 
#    z -0.003240 0.000000 2.064870 
# 
# From -- ./inp_files/40592.got.cif
#   From: 2010.05.17/outbox.cif.g08.bks.cpg/sg13_21_cif.got.tgz:40592.got - 2010.06.03 16:44:36.
