data_PCOD9237930
_publ_section_title
;
Structure prediction by ZEFSAII (Michael W. Deem and Ramdas Pophale) SiO2 
 PCOD9237930
Probable space group: P 2/C
;
_chemical_formula_sum "Si O2"
_cell_formula_units_Z 22
_cell_length_a 24.386729
_cell_length_b 8.828680
_cell_length_c 8.700569
_cell_angle_alpha 90.000000
_cell_angle_beta 27.233138
_cell_angle_gamma 90.000000
_cell_volume 857.224618
_symmetry_space_group_name_H-M "P 2/C"
_symmetry_group_IT_number 13
_symmetry_cell_setting 'monoclinic'
loop_
_space_group_symop_operation_xyz
x,y,z
-x,y,1/2-z
-x,-y,-z
x,-y,1/2+z
loop_
_atom_site_type_symbol
_atom_site_label
_atom_site_fract_x
_atom_site_fract_y
_atom_site_fract_z
Si Si1 0.754136 0.935967 0.711007
Si Si2 0.912494 0.486925 0.859414
Si Si3 0.393005 0.717444 0.237343
Si Si4 0.803730 0.221777 0.790594
Si Si5 0.654838 0.430865 0.346932
Si Si6 0.500000 0.056522 0.250000
O O1 0.834569 0.865535 0.374237
O O2 0.793957 0.093112 0.686087
O O3 0.722948 0.817970 0.925390
O O4 0.621955 0.964769 0.966952
O O5 0.000000 0.387084 0.750000
O O6 0.000000 0.500000 0.500000
O O7 0.881566 0.641182 0.029292
O O8 0.783973 0.441918 0.112801
O O9 0.368525 0.593532 0.167866
O O10 0.426984 0.626743 0.307966
O O11 0.483845 0.837347 0.939102
O O12 0.682651 0.310872 0.143185
#
# Coordination Sequence:
#
# PCOD9237930 Si02
#       6
#     4   4   4   4   4   2
#     4  11  25  45  72  96 142 192 226 281 341 416
#     4  12  23  43  76 103 133 172 227 278 345 417
#     4  11  24  42  70  99 140 185 229 290 338 409
#     4  11  24  45  73 101 137 184 227 279 356 402
#     4  11  23  45  70 101 138 180 226 287 358 396
#     4  12  24  44  70 100 134 190 246 272 342 398
#
# _framework density 25.664218000000002
#
# number of rings (size 3 to 8) (size 9 to 14) (size 15 to 20)
#    0.000    0.727    5.455    1.636    0.000    0.727 
#    0.000    0.909    0.000    0.000    0.000    0.000 
#    0.000    0.000    0.000    0.000    0.000    0.000 
#
# Total GULP energy -122969.148242 kJ/mol
# GULP energy per Si atom -5589.506738 kJ/mol
# Density = 2.560581 g / cm^3
# Si number density = 25.664218 Si / 1000 Ang^3
#
#
#
# Elastic Constant Matrix: (Units=GPa)
#
#
# Indices 1 2 3 4 5 6 
#
# 1 68.0686 22.2403 22.7062 0.0000 17.9118 0.0000
# 2 22.2403 137.3240 42.3441 0.0000 9.2459 0.0000
# 3 22.7062 42.3441 134.7234 0.0000 36.4072 0.0000
# 4 0.0000 0.0000 0.0000 47.9107 0.0000 32.5776
# 5 17.9118 9.2459 36.4072 0.0000 32.0647 0.0000
# 6 0.0000 0.0000 0.0000 32.5776 0.0000 49.3737
#
#
#
# Elastic Compliance Matrix: (Units=1/GPa)
#
#
# Indices 1 2 3 4 5 6 
#
# 1 0.017900 -0.002352 0.000348 0.000000 -0.009716 0.000000
# 2 -0.002352 0.008387 -0.002800 0.000000 0.002075 0.000000
# 3 0.000348 -0.002800 0.011654 0.000000 -0.012620 0.000000
# 4 0.000000 0.000000 0.000000 0.037857 0.000000 -0.024978
# 5 -0.009716 0.002075 -0.012620 0.000000 0.050345 0.000000
# 6 0.000000 0.000000 0.000000 -0.024978 0.000000 0.036735
#
#
# Mechanical properties :
#
#
# Convention : Reuss Voigt Hill
#
# Bulk Modulus (GPa) = 35.29503 57.18856 46.24180
# Shear Modulus (GPa) = 27.48294 42.72484 35.10389
#
# Velocity S-wave (km/s) = 3.27596 4.08458 3.70241
# Velocity P-wave (km/s) = 5.30016 6.67658 6.02779
#
# Compressibility (1/GPa) = 0.02833260
#
# Stress axis : x y z
#
# Youngs Moduli (GPa) = 55.86506 119.23534 85.80420
#
# Poissons Ratio (x) = 0.28046 -0.02987
# Poissons Ratio (y) = 0.13141 0.24028
# Poissons Ratio (z) = -0.01945 0.33390
#
# Static dielectric constant tensor:
#      x y z
#    x 2.104700 0.000000 -0.050710 
#    y 0.000000 2.052970 0.000000 
#    z -0.050710 0.000000 2.003320 
# 
# From -- ./inp_files/24399.got.cif
#   From: 2010.05.17/outbox.cif.g08.bks.cpg/sg13_13_cif.got.tgz:24399.got - 2010.06.03 16:44:36.
