data_PCOD9237867
_publ_section_title
;
Structure prediction by ZEFSAII (Michael W. Deem and Ramdas Pophale) SiO2 
 PCOD9237867
Probable space group: P 2/C
;
_chemical_formula_sum "Si O2"
_cell_formula_units_Z 16
_cell_length_a 5.260139
_cell_length_b 10.035748
_cell_length_c 16.858882
_cell_angle_alpha 90.000000
_cell_angle_beta 132.931265
_cell_angle_gamma 90.000000
_cell_volume 651.611082
_symmetry_space_group_name_H-M "P 2/C"
_symmetry_group_IT_number 13
_symmetry_cell_setting 'monoclinic'
loop_
_space_group_symop_operation_xyz
x,y,z
-x,y,1/2-z
-x,-y,-z
x,-y,1/2+z
loop_
_atom_site_type_symbol
_atom_site_label
_atom_site_fract_x
_atom_site_fract_y
_atom_site_fract_z
Si Si1 0.072012 0.549730 0.848738
Si Si2 0.915164 0.903583 0.324304
Si Si3 0.861204 0.180282 0.362417
Si Si4 0.842912 0.666972 0.023402
O O1 0.943804 0.458106 0.894622
O O2 0.000000 0.479845 0.750000
O O3 0.900643 0.693812 0.813330
O O4 0.470653 0.596686 0.937502
O O5 0.500000 0.870908 0.250000
O O6 0.000000 0.921946 0.250000
O O7 0.131473 0.779202 0.404025
O O8 0.053393 0.039188 0.397111
O O9 0.500000 0.128319 0.250000
O O10 0.915207 0.251262 0.458553
#
# Coordination Sequence:
#
# PCOD9237867 Si02
#       4
#     4   4   4   4
#     4  11  23  43  69 100 142 180 243 290 358 418
#     4  11  27  47  72 108 146 186 237 294 353 422
#     4  11  23  43  69 100 139 188 234 293 354 424
#     4  11  25  43  70 102 136 194 231 295 356 423
#
# _framework density 24.554525000000002
#
# number of rings (size 3 to 8) (size 9 to 14) (size 15 to 20)
#    0.000    1.000    2.500    3.000    7.000    2.000 
#    0.000    0.000    0.000    0.000    0.000    0.000 
#    0.000    0.000    0.000    0.000    0.000    0.000 
#
# Total GULP energy -89118.558095 kJ/mol
# GULP energy per Si atom -5569.909881 kJ/mol
# Density = 2.449864 g / cm^3
# Si number density = 24.554525 Si / 1000 Ang^3
#
#
#
# Elastic Constant Matrix: (Units=GPa)
#
#
# Indices 1 2 3 4 5 6 
#
# 1 79.3382 19.1138 32.4711 0.0000 -24.2156 0.0000
# 2 19.1138 157.3387 56.0464 0.0000 -28.2030 0.0000
# 3 32.4711 56.0464 89.5230 0.0000 -26.3037 0.0000
# 4 0.0000 0.0000 0.0000 -112.0993 0.0000 -215.5975
# 5 -24.2156 -28.2030 -26.3037 0.0000 36.7126 0.0000
# 6 0.0000 0.0000 0.0000 -215.5975 0.0000 -211.3794
#
#
#
# Elastic Compliance Matrix: (Units=1/GPa)
#
#
# Indices 1 2 3 4 5 6 
#
# 1 0.016752 0.001020 -0.004101 0.000000 0.008895 0.000000
# 2 0.001020 0.008573 -0.004566 0.000000 0.003988 0.000000
# 3 -0.004101 -0.004566 0.017341 0.000000 0.006212 0.000000
# 4 0.000000 0.000000 0.000000 0.009276 0.000000 -0.009462
# 5 0.008895 0.003988 0.006212 0.000000 0.040620 0.000000
# 6 0.000000 0.000000 0.000000 -0.009462 0.000000 0.004919
#
#
# Mechanical properties :
#
#
# Convention : Reuss Voigt Hill
#
# Bulk Modulus (GPa) = 36.53227 60.16248 48.34737
# Shear Modulus (GPa) = 41.01733 -42.78198 -0.88233
#
# Velocity S-wave (km/s) = 4.09156 -4.17865 -0.60009
# Velocity P-wave (km/s) = 6.10176 1.12842 4.38776
#
# Compressibility (1/GPa) = 0.02737306
#
# Stress axis : x y z
#
# Youngs Moduli (GPa) = 59.69452 116.64715 57.66521
#
# Poissons Ratio (x) = -0.11902 0.23651
# Poissons Ratio (y) = -0.06091 0.26327
# Poissons Ratio (z) = 0.24483 0.53255
#
# Static dielectric constant tensor:
#      x y z
#    x 2.055360 0.000000 -0.086150 
#    y 0.000000 2.004160 0.000000 
#    z -0.086150 0.000000 1.706010 
# 
# From -- ./inp_files/25534.got.cif
#   From: 2010.05.17/outbox.cif.g08.bks.cpg/sg13_13_cif.got.tgz:25534.got - 2010.06.03 16:44:36.
