data_PCOD9237951
_publ_section_title
;
Structure prediction by ZEFSAII (Michael W. Deem and Ramdas Pophale) SiO2 
 PCOD9237951
Probable space group: P 2/C
;
_chemical_formula_sum "Si O2"
_cell_formula_units_Z 30
_cell_length_a 11.266625
_cell_length_b 8.630708
_cell_length_c 14.595183
_cell_angle_alpha 90.000000
_cell_angle_beta 82.975788
_cell_angle_gamma 90.000000
_cell_volume 1408.568410
_symmetry_space_group_name_H-M "P 2/C"
_symmetry_group_IT_number 13
_symmetry_cell_setting 'monoclinic'
loop_
_space_group_symop_operation_xyz
x,y,z
-x,y,1/2-z
-x,-y,-z
x,-y,1/2+z
loop_
_atom_site_type_symbol
_atom_site_label
_atom_site_fract_x
_atom_site_fract_y
_atom_site_fract_z
Si Si1 0.137745 0.247385 0.206621
Si Si2 0.000000 0.680813 0.250000
Si Si3 0.437637 0.856334 0.058989
Si Si4 0.380427 0.570035 0.711724
Si Si5 0.650088 0.703496 0.147513
Si Si6 0.776481 0.099642 0.776589
Si Si7 0.923452 0.490197 0.418471
Si Si8 0.334265 0.545681 0.017176
O O1 0.252782 0.342886 0.235386
O O2 0.123935 0.320068 0.106058
O O3 0.000000 0.264581 0.250000
O O4 0.173144 0.072739 0.222076
O O5 0.886759 0.785585 0.280771
O O6 0.008195 0.566482 0.334588
O O7 0.535235 0.787938 0.118794
O O8 0.325245 0.896088 0.135016
O O9 0.398006 0.711739 0.997862
O O10 0.500000 0.000000 0.000000
O O11 0.500000 0.639289 0.750000
O O12 0.365788 0.405142 0.762522
O O13 0.393849 0.536142 0.601530
O O14 0.730576 0.842610 0.180823
O O15 0.678161 0.576443 0.064966
O O16 0.800977 0.583407 0.441035
O O17 0.000000 0.500000 0.500000
#
# Coordination Sequence:
#
# PCOD9237951 Si02
#       8
#     4   2   4   4   4   4   4   4
#     4  11  26  45  72 113 150 192 256 323 387 468
#     4  12  22  48  76  98 148 204 250 314 374 456
#     4  12  27  46  70 110 158 194 248 326 392 450
#     4  11  23  45  79 106 147 201 258 321 381 471
#     4  12  25  47  78 106 146 209 252 314 392 466
#     4  12  25  49  72 105 153 204 245 316 404 451
#     4  11  24  44  78 108 145 200 267 316 379 470
#     4  11  24  45  74 116 148 191 271 318 374 482
#
# _framework density 21.298220000000001
#
# number of rings (size 3 to 8) (size 9 to 14) (size 15 to 20)
#    0.000    0.533    5.333    2.400    5.600    2.133 
#    0.000    0.667    0.000    0.000    0.000    0.000 
#    0.000    0.000    0.000    0.000    0.000    0.000 
#
# Total GULP energy -167217.498850 kJ/mol
# GULP energy per Si atom -5573.916628 kJ/mol
# Density = 2.124974 g / cm^3
# Si number density = 21.298220 Si / 1000 Ang^3
#
#
#
# Elastic Constant Matrix: (Units=GPa)
#
#
# Indices 1 2 3 4 5 6 
#
# 1 140.1583 79.3414 48.5252 0.0000 2.8922 0.0000
# 2 79.3414 167.1641 73.0719 0.0000 3.3991 0.0000
# 3 48.5252 73.0719 122.7037 0.0000 11.2235 0.0000
# 4 0.0000 0.0000 0.0000 29.5810 0.0000 3.5952
# 5 2.8922 3.3991 11.2235 0.0000 41.3087 0.0000
# 6 0.0000 0.0000 0.0000 3.5952 0.0000 26.0125
#
#
#
# Elastic Compliance Matrix: (Units=1/GPa)
#
#
# Indices 1 2 3 4 5 6 
#
# 1 0.009961 -0.004062 -0.001525 0.000000 0.000051 0.000000
# 2 -0.004062 0.009762 -0.004265 0.000000 0.000640 0.000000
# 3 -0.001525 -0.004265 0.011538 0.000000 -0.002677 0.000000
# 4 0.000000 0.000000 0.000000 0.034383 0.000000 -0.004752
# 5 0.000051 0.000640 -0.002677 0.000000 0.024879 0.000000
# 6 0.000000 0.000000 0.000000 -0.004752 0.000000 0.039100
#
#
# Mechanical properties :
#
#
# Convention : Reuss Voigt Hill
#
# Bulk Modulus (GPa) = 86.53752 92.43367 89.48560
# Shear Modulus (GPa) = 32.64140 34.65293 33.64717
#
# Velocity S-wave (km/s) = 3.91908 4.03803 3.97900
# Velocity P-wave (km/s) = 7.82294 8.07681 7.95089
#
# Compressibility (1/GPa) = 0.01155568
#
# Stress axis : x y z
#
# Youngs Moduli (GPa) = 100.38790 102.44043 86.67319
#
# Poissons Ratio (x) = 0.41616 0.13216
# Poissons Ratio (y) = 0.40783 0.36968
# Poissons Ratio (z) = 0.15307 0.43693
#
# Static dielectric constant tensor:
#      x y z
#    x 3.548250 0.000000 1.308400 
#    y 0.000000 1.819650 0.000000 
#    z 1.308400 0.000000 2.892640 
# 
# From -- ./inp_files/50023.got.cif
#   From: 2010.05.17/outbox.cif.g08.bks.cpg/sg13_26_cif.got.tgz:50023.got - 2010.06.03 16:44:36.
