data_PCOD9237466
_publ_section_title
;
Structure prediction by ZEFSAII (Michael W. Deem and Ramdas Pophale) SiO2 
 PCOD9237466
Probable space group: P 2/C
;
_chemical_formula_sum "Si O2"
_cell_formula_units_Z 22
_cell_length_a 5.242677
_cell_length_b 12.506335
_cell_length_c 16.456589
_cell_angle_alpha 90.000000
_cell_angle_beta 81.933965
_cell_angle_gamma 90.000000
_cell_volume 1068.329246
_symmetry_space_group_name_H-M "P 2/C"
_symmetry_group_IT_number 13
_symmetry_cell_setting 'monoclinic'
loop_
_space_group_symop_operation_xyz
x,y,z
-x,y,1/2-z
-x,-y,-z
x,-y,1/2+z
loop_
_atom_site_type_symbol
_atom_site_label
_atom_site_fract_x
_atom_site_fract_y
_atom_site_fract_z
Si Si1 0.193032 0.653911 0.047906
Si Si2 0.500000 0.637882 0.250000
Si Si3 0.804712 0.476819 0.333352
Si Si4 0.258856 0.069753 0.982204
Si Si5 0.097788 0.812872 0.329558
Si Si6 0.739186 0.298907 0.449606
O O1 0.099947 0.544424 0.093667
O O2 0.132395 0.753514 0.111312
O O3 0.490374 0.657050 0.009261
O O4 0.008784 0.672386 0.979802
O O5 0.577195 0.556002 0.316794
O O6 0.275695 0.715476 0.290452
O O7 0.730439 0.358839 0.364181
O O8 0.000000 0.475568 0.250000
O O9 0.248568 0.116945 0.889986
O O10 0.265886 0.171594 0.042047
O O11 0.500000 0.000000 0.000000
O O12 0.000000 0.000000 0.000000
O O13 0.000000 0.866687 0.250000
#
# Coordination Sequence:
#
# PCOD9237466 Si02
#       6
#     4   2   4   4   4   4
#     4  11  21  42  64 102 133 176 219 271 340 422
#     4  12  22  40  68 102 146 170 224 274 350 412
#     4  12  24  38  62 100 142 180 214 267 342 424
#     4  11  25  47  71  97 132 181 240 294 343 396
#     4  11  23  40  73 103 136 176 235 296 343 406
#     4  11  26  41  69  93 137 178 226 277 343 407
#
# _framework density 20.5929
#
# number of rings (size 3 to 8) (size 9 to 14) (size 15 to 20)
#    0.000    0.727    3.636    5.455    5.091    0.000 
#    0.000    0.909    0.000    0.000    0.000    0.000 
#    0.000    0.000    0.000    0.000    0.000    0.000 
#
# Total GULP energy -122840.414226 kJ/mol
# GULP energy per Si atom -5583.655192 kJ/mol
# Density = 2.054603 g / cm^3
# Si number density = 20.592900 Si / 1000 Ang^3
#
#
#
# Elastic Constant Matrix: (Units=GPa)
#
#
# Indices 1 2 3 4 5 6 
#
# 1 85.5936 39.7588 28.2483 0.0000 5.5242 0.0000
# 2 39.7588 142.6023 47.8154 0.0000 15.4127 0.0000
# 3 28.2483 47.8154 60.4892 0.0000 9.1375 0.0000
# 4 0.0000 0.0000 0.0000 29.6834 0.0000 14.3470
# 5 5.5242 15.4127 9.1375 0.0000 32.6892 0.0000
# 6 0.0000 0.0000 0.0000 14.3470 0.0000 18.8211
#
#
#
# Elastic Compliance Matrix: (Units=1/GPa)
#
#
# Indices 1 2 3 4 5 6 
#
# 1 0.014388 -0.002397 -0.004832 0.000000 0.000049 0.000000
# 2 -0.002397 0.010140 -0.006510 0.000000 -0.002556 0.000000
# 3 -0.004832 -0.006510 0.024377 0.000000 -0.002928 0.000000
# 4 0.000000 0.000000 0.000000 0.053342 0.000000 -0.040662
# 5 0.000049 -0.002556 -0.002928 0.000000 0.032606 0.000000
# 6 0.000000 0.000000 0.000000 -0.040662 0.000000 0.084128
#
#
# Mechanical properties :
#
#
# Convention : Reuss Voigt Hill
#
# Bulk Modulus (GPa) = 46.66979 57.81446 52.24212
# Shear Modulus (GPa) = 19.71606 27.76290 23.73948
#
# Velocity S-wave (km/s) = 3.09758 3.67574 3.39897
# Velocity P-wave (km/s) = 5.95865 6.79343 6.38969
#
# Compressibility (1/GPa) = 0.02142714
#
# Stress axis : x y z
#
# Youngs Moduli (GPa) = 69.50292 98.62142 41.02272
#
# Poissons Ratio (x) = 0.23635 0.19823
# Poissons Ratio (y) = 0.16657 0.26706
# Poissons Ratio (z) = 0.33585 0.64202
#
# Static dielectric constant tensor:
#      x y z
#    x 1.820810 0.000000 0.085050 
#    y 0.000000 1.738630 0.000000 
#    z 0.085050 0.000000 1.839710 
# 
# From -- ./inp_files/43624.got.cif
#   From: 2010.05.17/outbox.cif.g08.bks.cpg/sg13_22_cif.got.tgz:43624.got - 2010.06.03 16:44:36.
