data_PCOD9237487
_publ_section_title
;
Structure prediction by ZEFSAII (Michael W. Deem and Ramdas Pophale) SiO2 
 PCOD9237487
Probable space group: P 2/C
;
_chemical_formula_sum "Si O2"
_cell_formula_units_Z 26
_cell_length_a 16.062507
_cell_length_b 9.872165
_cell_length_c 21.331506
_cell_angle_alpha 90.000000
_cell_angle_beta 157.280197
_cell_angle_gamma 90.000000
_cell_volume 1306.434056
_symmetry_space_group_name_H-M "P 2/C"
_symmetry_group_IT_number 13
_symmetry_cell_setting 'monoclinic'
loop_
_space_group_symop_operation_xyz
x,y,z
-x,y,1/2-z
-x,-y,-z
x,-y,1/2+z
loop_
_atom_site_type_symbol
_atom_site_label
_atom_site_fract_x
_atom_site_fract_y
_atom_site_fract_z
Si Si1 0.554890 0.900286 0.981871
Si Si2 0.558955 0.405596 0.483393
Si Si3 0.788519 0.583662 0.868553
Si Si4 0.877051 0.864492 0.892274
Si Si5 0.000000 0.021660 0.250000
Si Si6 0.500000 0.610924 0.250000
Si Si7 0.000000 0.533935 0.750000
Si Si8 0.104847 0.753439 0.924647
O O1 0.565481 0.746887 0.012584
O O2 0.359978 0.906669 0.796643
O O3 0.500000 0.000000 0.000000
O O4 0.787261 0.936957 0.116357
O O5 0.500000 0.500000 0.500000
O O6 0.372430 0.413285 0.302153
O O7 0.783159 0.447270 0.606351
O O8 0.847644 0.741546 0.921898
O O9 0.667913 0.492458 0.835566
O O10 0.000000 0.500000 0.000000
O O11 0.001708 0.791698 0.920306
O O12 0.000000 0.000000 0.000000
O O13 0.939666 0.117613 0.149744
O O14 0.646040 0.709344 0.394240
O O15 0.995516 0.629079 0.684871
#
# Coordination Sequence:
#
# PCOD9237487 Si02
#       8
#     4   4   4   4   2   2   2   4
#     4  11  24  45  65  97 139 174 226 278 338 402
#     4  11  25  41  70  98 129 176 225 279 336 400
#     4  11  24  44  67  96 137 177 224 281 336 404
#     4  11  25  47  66  99 137 182 228 278 345 413
#     4  11  25  44  68 100 138 180 224 282 342 408
#     4  12  24  44  70 102 138 178 226 284 344 402
#     4  11  21  44  68 100 132 170 230 286 336 396
#     4  11  24  43  71  99 135 178 226 280 345 408
#
# _framework density 19.901503000000002
#
# number of rings (size 3 to 8) (size 9 to 14) (size 15 to 20)
#    0.000    0.923    4.615    2.308    4.308    1.231 
#    5.538    0.000    0.000    0.000    0.000    0.000 
#    0.000    0.000    0.000    0.000    0.000    0.000 
#
# Total GULP energy -145211.486806 kJ/mol
# GULP energy per Si atom -5585.057185 kJ/mol
# Density = 1.985621 g / cm^3
# Si number density = 19.901503 Si / 1000 Ang^3
#
#
#
# Elastic Constant Matrix: (Units=GPa)
#
#
# Indices 1 2 3 4 5 6 
#
# 1 64.3091 36.2179 24.8588 0.0000 26.4331 0.0000
# 2 36.2179 155.7133 76.5376 0.0000 11.1392 0.0000
# 3 24.8588 76.5376 130.8275 0.0000 28.8935 0.0000
# 4 0.0000 0.0000 0.0000 40.2129 0.0000 5.2948
# 5 26.4331 11.1392 28.8935 0.0000 36.9866 0.0000
# 6 0.0000 0.0000 0.0000 5.2948 0.0000 24.7886
#
#
#
# Elastic Compliance Matrix: (Units=1/GPa)
#
#
# Indices 1 2 3 4 5 6 
#
# 1 0.025459 -0.005937 0.002731 0.000000 -0.018539 0.000000
# 2 -0.005937 0.010488 -0.006341 0.000000 0.006038 0.000000
# 3 0.002731 -0.006341 0.013105 0.000000 -0.010279 0.000000
# 4 0.000000 0.000000 0.000000 0.025587 0.000000 -0.005465
# 5 -0.018539 0.006038 -0.010279 0.000000 0.046497 0.000000
# 6 0.000000 0.000000 0.000000 -0.005465 0.000000 0.041508
#
#
# Mechanical properties :
#
#
# Convention : Reuss Voigt Hill
#
# Bulk Modulus (GPa) = 33.38318 69.56428 51.47373
# Shear Modulus (GPa) = 26.07899 34.61334 30.34617
#
# Velocity S-wave (km/s) = 3.62388 4.17494 3.90913
# Velocity P-wave (km/s) = 5.85838 7.63350 6.80407
#
# Compressibility (1/GPa) = 0.02995521
#
# Stress axis : x y z
#
# Youngs Moduli (GPa) = 39.27961 95.34770 76.30881
#
# Poissons Ratio (x) = 0.56611 -0.20836
# Poissons Ratio (y) = 0.23322 0.48388
# Poissons Ratio (z) = -0.10725 0.60461
#
# Static dielectric constant tensor:
#      x y z
#    x 1.667120 0.000000 -0.112420 
#    y 0.000000 2.680960 0.000000 
#    z -0.112420 0.000000 1.485990 
# 
# From -- ./inp_files/75952.got.cif
#   From: 2010.05.17/outbox.cif.g08.bks.cpg/sg13_38_cif.got.tgz:75952.got - 2010.06.03 16:44:36.
