data_PCOD9237974
_publ_section_title
;
Structure prediction by ZEFSAII (Michael W. Deem and Ramdas Pophale) SiO2 
 PCOD9237974
Probable space group: P 2/C
;
_chemical_formula_sum "Si O2"
_cell_formula_units_Z 18
_cell_length_a 6.456576
_cell_length_b 10.730256
_cell_length_c 12.224518
_cell_angle_alpha 90.000000
_cell_angle_beta 87.644663
_cell_angle_gamma 90.000000
_cell_volume 846.207821
_symmetry_space_group_name_H-M "P 2/C"
_symmetry_group_IT_number 13
_symmetry_cell_setting 'monoclinic'
loop_
_space_group_symop_operation_xyz
x,y,z
-x,y,1/2-z
-x,-y,-z
x,-y,1/2+z
loop_
_atom_site_type_symbol
_atom_site_label
_atom_site_fract_x
_atom_site_fract_y
_atom_site_fract_z
Si Si1 0.790296 0.011486 0.077506
Si Si2 0.180853 0.650280 0.566999
Si Si3 0.483174 0.796103 0.054820
Si Si4 0.000000 0.162804 0.250000
Si Si5 0.123771 0.631363 0.135243
O O1 0.842182 0.072975 0.191636
O O2 0.668899 0.882034 0.096508
O O3 0.646290 0.108582 0.016569
O O4 0.000000 0.000000 0.000000
O O5 0.404498 0.690955 0.519350
O O6 0.106422 0.749540 0.658161
O O7 0.186652 0.512940 0.617852
O O8 0.020497 0.656263 0.468309
O O9 0.319024 0.724172 0.132877
O O10 0.000000 0.644890 0.250000
#
# Coordination Sequence:
#
# PCOD9237974 Si02
#       5
#     4   4   4   2   4
#     4  11  24  47  69 100 146 188 238 297 353 418
#     4  11  24  46  72 105 143 189 239 295 365 433
#     4  11  23  47  68 107 140 186 247 287 354 445
#     4  12  22  48  72 100 144 198 232 294 360 434
#     4  11  24  46  72 106 149 185 233 306 368 422
#
# _framework density 21.271370999999998
#
# number of rings (size 3 to 8) (size 9 to 14) (size 15 to 20)
#    0.000    0.889    5.556    0.667    0.000    1.778 
#   12.000    2.222    0.000    0.000    0.000    0.000 
#    0.000    0.000    0.000    0.000    0.000    0.000 
#
# Total GULP energy -100712.008548 kJ/mol
# GULP energy per Si atom -5595.111586 kJ/mol
# Density = 2.122296 g / cm^3
# Si number density = 21.271371 Si / 1000 Ang^3
#
#
#
# Elastic Constant Matrix: (Units=GPa)
#
#
# Indices 1 2 3 4 5 6 
#
# 1 113.9171 85.1018 58.0188 0.0000 -27.3561 0.0000
# 2 85.1018 146.3788 82.6874 0.0000 -14.9418 0.0000
# 3 58.0188 82.6874 134.7874 0.0000 -23.1653 0.0000
# 4 0.0000 0.0000 0.0000 35.8260 0.0000 6.1389
# 5 -27.3561 -14.9418 -23.1653 0.0000 38.5161 0.0000
# 6 0.0000 0.0000 0.0000 6.1389 0.0000 25.1258
#
#
#
# Elastic Compliance Matrix: (Units=1/GPa)
#
#
# Indices 1 2 3 4 5 6 
#
# 1 0.018201 -0.009352 -0.000557 0.000000 0.008965 0.000000
# 2 -0.009352 0.015262 -0.006090 0.000000 -0.004385 0.000000
# 3 -0.000557 -0.006090 0.012180 0.000000 0.004568 0.000000
# 4 0.000000 0.000000 0.000000 0.029132 0.000000 -0.007118
# 5 0.008965 -0.004385 0.004568 0.000000 0.033376 0.000000
# 6 0.000000 0.000000 0.000000 -0.007118 0.000000 0.041539
#
#
# Mechanical properties :
#
#
# Convention : Reuss Voigt Hill
#
# Bulk Modulus (GPa) = 73.29213 94.07770 83.68492
# Shear Modulus (GPa) = 26.84747 31.17858 29.01303
#
# Velocity S-wave (km/s) = 3.55652 3.83267 3.69717
# Velocity P-wave (km/s) = 7.16908 7.99432 7.59292
#
# Compressibility (1/GPa) = 0.01364403
#
# Stress axis : x y z
#
# Youngs Moduli (GPa) = 54.94134 65.52362 82.10196
#
# Poissons Ratio (x) = 0.61280 0.04570
# Poissons Ratio (y) = 0.51383 0.50004
# Poissons Ratio (z) = 0.03058 0.39907
#
# Static dielectric constant tensor:
#      x y z
#    x 1.800400 0.000000 -0.002970 
#    y 0.000000 1.758010 0.000000 
#    z -0.002970 0.000000 1.762730 
# 
# From -- ./inp_files/25670.got.cif
#   From: 2010.05.17/outbox.cif.g08.bks.cpg/sg13_13_cif.got.tgz:25670.got - 2010.06.03 16:44:36.
