data_PCOD9237916
_publ_section_title
;
Structure prediction by ZEFSAII (Michael W. Deem and Ramdas Pophale) SiO2 
 PCOD9237916
Probable space group: P 2/C
;
_chemical_formula_sum "Si O2"
_cell_formula_units_Z 28
_cell_length_a 20.525948
_cell_length_b 5.780876
_cell_length_c 17.689502
_cell_angle_alpha 90.000000
_cell_angle_beta 35.179971
_cell_angle_gamma 90.000000
_cell_volume 1209.331905
_symmetry_space_group_name_H-M "P 2/C"
_symmetry_group_IT_number 13
_symmetry_cell_setting 'monoclinic'
loop_
_space_group_symop_operation_xyz
x,y,z
-x,y,1/2-z
-x,-y,-z
x,-y,1/2+z
loop_
_atom_site_type_symbol
_atom_site_label
_atom_site_fract_x
_atom_site_fract_y
_atom_site_fract_z
Si Si1 0.178381 0.284113 0.952570
Si Si2 0.546194 0.646574 0.124195
Si Si3 0.321409 0.978776 0.922625
Si Si4 0.251147 0.677194 0.116122
Si Si5 0.751260 0.966239 0.755014
Si Si6 0.057798 0.384068 0.371112
Si Si7 0.354306 0.351435 0.252644
O O1 0.232115 0.531420 0.881405
O O2 0.247410 0.185501 0.957852
O O3 0.206417 0.112134 0.856951
O O4 0.044432 0.300211 0.084579
O O5 0.500000 0.562333 0.250000
O O6 0.442598 0.563816 0.170090
O O7 0.587969 0.903771 0.106422
O O8 0.654665 0.514604 0.990013
O O9 0.370543 0.829179 0.806356
O O10 0.241826 0.816036 0.047332
O O11 0.136024 0.568294 0.254763
O O12 0.290848 0.855131 0.142806
O O13 0.857411 0.821365 0.685971
O O14 0.655937 0.790944 0.814852
O O15 0.000000 0.500000 0.500000
#
# Coordination Sequence:
#
# PCOD9237916 Si02
#       7
#     4   4   4   4   4   4   4
#     4  11  23  44  76 105 142 194 244 292 369 438
#     4  12  25  46  74 100 146 193 238 302 366 442
#     4  11  25  44  72 107 144 193 244 298 375 434
#     4  12  26  45  70 110 144 187 252 303 367 435
#     4  11  24  44  75 110 140 190 245 300 365 433
#     4  12  24  47  76 102 149 193 241 303 363 441
#     4  11  24  45  76 106 140 193 244 298 367 438
#
# _framework density 23.153276999999999
#
# number of rings (size 3 to 8) (size 9 to 14) (size 15 to 20)
#    0.000    0.571    5.714    1.286    2.000    0.571 
#    0.000   15.714    0.000    0.000    0.000    0.000 
#    0.000    0.000    0.000    0.000    0.000    0.000 
#
# Total GULP energy -156635.869897 kJ/mol
# GULP energy per Si atom -5594.138211 kJ/mol
# Density = 2.310058 g / cm^3
# Si number density = 23.153277 Si / 1000 Ang^3
#
#
#
# Elastic Constant Matrix: (Units=GPa)
#
#
# Indices 1 2 3 4 5 6 
#
# 1 77.6395 41.6184 22.0004 0.0000 -17.3205 0.0000
# 2 41.6184 92.6476 23.6196 0.0000 -5.1873 0.0000
# 3 22.0004 23.6196 99.9411 0.0000 -2.1785 0.0000
# 4 0.0000 0.0000 0.0000 32.5584 0.0000 13.4989
# 5 -17.3205 -5.1873 -2.1785 0.0000 23.4131 0.0000
# 6 0.0000 0.0000 0.0000 13.4989 0.0000 43.2149
#
#
#
# Elastic Compliance Matrix: (Units=1/GPa)
#
#
# Indices 1 2 3 4 5 6 
#
# 1 0.020844 -0.007999 -0.002406 0.000000 0.013424 0.000000
# 2 -0.007999 0.014680 -0.001770 0.000000 -0.002830 0.000000
# 3 -0.002406 -0.001770 0.010929 0.000000 -0.001155 0.000000
# 4 0.000000 0.000000 0.000000 0.035284 0.000000 -0.011021
# 5 0.013424 -0.002830 -0.001155 0.000000 0.051908 0.000000
# 6 0.000000 0.000000 0.000000 -0.011021 0.000000 0.026583
#
#
# Mechanical properties :
#
#
# Convention : Reuss Voigt Hill
#
# Bulk Modulus (GPa) = 45.24145 49.41166 47.32656
# Shear Modulus (GPa) = 26.04945 32.03660 29.04303
#
# Velocity S-wave (km/s) = 3.35787 3.72381 3.54557
# Velocity P-wave (km/s) = 5.88355 6.31478 6.10298
#
# Compressibility (1/GPa) = 0.02210362
#
# Stress axis : x y z
#
# Youngs Moduli (GPa) = 47.97535 68.12218 91.50290
#
# Poissons Ratio (x) = 0.54488 0.22011
# Poissons Ratio (y) = 0.38373 0.16198
# Poissons Ratio (z) = 0.11541 0.12059
#
# Static dielectric constant tensor:
#      x y z
#    x 1.898800 0.000000 0.001920 
#    y 0.000000 1.892290 0.000000 
#    z 0.001920 0.000000 1.820070 
# 
# From -- ./inp_files/70246.got.cif
#   From: 2010.05.17/outbox.cif.g08.bks.cpg/sg13_36_cif.got.tgz:70246.got - 2010.06.03 16:44:36.
