data_PCOD9237145
_publ_section_title
;
Structure prediction by ZEFSAII (Michael W. Deem and Ramdas Pophale) SiO2 
 PCOD9237145
Probable space group: P 2/C
;
_chemical_formula_sum "Si O2"
_cell_formula_units_Z 22
_cell_length_a 22.964876
_cell_length_b 6.050793
_cell_length_c 21.950251
_cell_angle_alpha 90.000000
_cell_angle_beta 19.680502
_cell_angle_gamma 90.000000
_cell_volume 1027.201266
_symmetry_space_group_name_H-M "P 2/C"
_symmetry_group_IT_number 13
_symmetry_cell_setting 'monoclinic'
loop_
_space_group_symop_operation_xyz
x,y,z
-x,y,1/2-z
-x,-y,-z
x,-y,1/2+z
loop_
_atom_site_type_symbol
_atom_site_label
_atom_site_fract_x
_atom_site_fract_y
_atom_site_fract_z
Si Si1 0.820151 0.301945 0.836242
Si Si2 0.491533 0.036622 0.121610
Si Si3 0.440342 0.255532 0.041503
Si Si4 0.000000 0.611037 0.750000
Si Si5 0.881650 0.061416 0.470992
Si Si6 0.076899 0.358906 0.370295
O O1 0.840801 0.471120 0.759554
O O2 0.859356 0.454175 0.855923
O O3 0.644799 0.157471 0.006566
O O4 0.976329 0.128051 0.677280
O O5 0.501405 0.132474 0.043054
O O6 0.306605 0.045422 0.335649
O O7 0.509845 0.784930 0.078984
O O8 0.234178 0.220008 0.242685
O O9 0.500000 0.500000 0.000000
O O10 0.095325 0.768471 0.607473
O O11 0.937258 0.203718 0.475404
O O12 0.000000 0.500000 0.500000
#
# Coordination Sequence:
#
# PCOD9237145 Si02
#       6
#     4   4   4   2   4   4
#     4  11  23  46  68  95 132 177 228 284 338 403
#     4  11  24  39  70  99 136 177 217 274 338 412
#     4  11  21  38  60 105 146 171 213 262 332 423
#     4  10  26  50  70  88 134 178 240 298 338 400
#     4  11  24  45  68  97 131 178 230 282 341 399
#     4  11  22  37  66 100 143 180 212 271 340 409
#
# _framework density 21.417418000000001
#
# number of rings (size 3 to 8) (size 9 to 14) (size 15 to 20)
#    0.000    1.091    3.636    2.727    2.545    2.909 
#    0.000    5.455    0.000    0.000    0.000    0.000 
#    0.000    0.000    0.000    0.000    0.000    0.000 
#
# Total GULP energy -122723.130825 kJ/mol
# GULP energy per Si atom -5578.324128 kJ/mol
# Density = 2.136867 g / cm^3
# Si number density = 21.417418 Si / 1000 Ang^3
#
#
#
# Elastic Constant Matrix: (Units=GPa)
#
#
# Indices 1 2 3 4 5 6 
#
# 1 79.5888 26.0363 24.5487 0.0000 -14.9985 0.0000
# 2 26.0363 60.7927 26.8486 0.0000 -11.4695 0.0000
# 3 24.5487 26.8486 135.0204 0.0000 -33.4294 0.0000
# 4 0.0000 0.0000 0.0000 31.9226 0.0000 -19.4140
# 5 -14.9985 -11.4695 -33.4294 0.0000 20.7607 0.0000
# 6 0.0000 0.0000 0.0000 -19.4140 0.0000 26.4000
#
#
#
# Elastic Compliance Matrix: (Units=1/GPa)
#
#
# Indices 1 2 3 4 5 6 
#
# 1 0.015898 -0.005254 0.000464 0.000000 0.009331 0.000000
# 2 -0.005254 0.020396 -0.002079 0.000000 0.004124 0.000000
# 3 0.000464 -0.002079 0.012529 0.000000 0.019361 0.000000
# 4 0.000000 0.000000 0.000000 0.056670 0.000000 0.041674
# 5 0.009331 0.004124 0.019361 0.000000 0.088363 0.000000
# 6 0.000000 0.000000 0.000000 0.041674 0.000000 0.068525
#
#
# Mechanical properties :
#
#
# Convention : Reuss Voigt Hill
#
# Bulk Modulus (GPa) = 28.50152 47.80766 38.15459
# Shear Modulus (GPa) = 17.37234 29.01456 23.19345
#
# Velocity S-wave (km/s) = 2.85113 3.68464 3.29435
# Velocity P-wave (km/s) = 4.91682 6.36179 5.68540
#
# Compressibility (1/GPa) = 0.03508585
#
# Stress axis : x y z
#
# Youngs Moduli (GPa) = 62.89929 49.02976 79.81546
#
# Poissons Ratio (x) = 0.25758 -0.03706
# Poissons Ratio (y) = 0.33045 0.16597
# Poissons Ratio (z) = -0.02921 0.10195
#
# Static dielectric constant tensor:
#      x y z
#    x 1.806070 0.000000 0.019970 
#    y 0.000000 -13.452030 0.000000 
#    z 0.019970 0.000000 1.764440 
# 
# From -- ./inp_files/88690.got.cif
#   From: 2010.05.17/outbox.cif.g08.bks.cpg/sg13_45_cif.got.tgz:88690.got - 2010.06.03 16:44:36.
