data_PCOD9237152
_publ_section_title
;
Structure prediction by ZEFSAII (Michael W. Deem and Ramdas Pophale) SiO2 
 PCOD9237152
Probable space group: P 2/C
;
_chemical_formula_sum "Si O2"
_cell_formula_units_Z 20
_cell_length_a 13.353010
_cell_length_b 10.122301
_cell_length_c 8.559524
_cell_angle_alpha 90.000000
_cell_angle_beta 44.669259
_cell_angle_gamma 90.000000
_cell_volume 813.338887
_symmetry_space_group_name_H-M "P 2/C"
_symmetry_group_IT_number 13
_symmetry_cell_setting 'monoclinic'
loop_
_space_group_symop_operation_xyz
x,y,z
-x,y,1/2-z
-x,-y,-z
x,-y,1/2+z
loop_
_atom_site_type_symbol
_atom_site_label
_atom_site_fract_x
_atom_site_fract_y
_atom_site_fract_z
Si Si1 0.889246 0.160844 0.069167
Si Si2 0.424896 0.752144 0.669914
Si Si3 0.000000 0.924023 0.750000
Si Si4 0.500000 0.267088 0.750000
Si Si5 0.894644 0.604472 0.195007
Si Si6 0.301336 0.473710 0.847887
O O1 0.739467 0.205324 0.165519
O O2 0.894531 0.154398 0.252577
O O3 0.023078 0.257637 0.886791
O O4 0.915776 0.019255 0.960945
O O5 0.500000 0.793388 0.750000
O O6 0.494833 0.798829 0.427358
O O7 0.411430 0.591940 0.690281
O O8 0.366095 0.366240 0.891626
O O9 0.832673 0.544349 0.421644
O O10 0.755940 0.605480 0.237976
O O11 0.000000 0.500000 0.000000
#
# Coordination Sequence:
#
# PCOD9237152 Si02
#       6
#     4   4   2   2   4   4
#     4  11  25  49  73 106 138 189 248 311 367 427
#     4  12  25  44  70 103 150 198 235 294 365 445
#     4  10  26  50  76  98 138 184 250 322 366 408
#     4  12  24  42  60 102 156 204 228 270 368 468
#     4  12  24  36  69 110 142 179 235 300 372 443
#     4  12  22  39  60 103 154 190 229 279 366 452
#
# _framework density 24.589997
#
# number of rings (size 3 to 8) (size 9 to 14) (size 15 to 20)
#    0.000    0.400    5.000    3.600    5.600    0.000 
#    3.600    1.000    0.000    0.000    0.000    0.000 
#    0.000    0.000    0.000    0.000    0.000    0.000 
#
# Total GULP energy -111830.961748 kJ/mol
# GULP energy per Si atom -5591.548087 kJ/mol
# Density = 2.453403 g / cm^3
# Si number density = 24.589997 Si / 1000 Ang^3
#
#
#
# Elastic Constant Matrix: (Units=GPa)
#
#
# Indices 1 2 3 4 5 6 
#
# 1 250.2291 34.1096 42.9420 0.0000 31.3809 0.0000
# 2 34.1096 36.0436 9.5219 0.0000 -4.5986 0.0000
# 3 42.9420 9.5219 100.7262 0.0000 16.8968 0.0000
# 4 0.0000 0.0000 0.0000 20.2255 0.0000 4.8438
# 5 31.3809 -4.5986 16.8968 0.0000 49.9953 0.0000
# 6 0.0000 0.0000 0.0000 4.8438 0.0000 22.5320
#
#
#
# Elastic Compliance Matrix: (Units=1/GPa)
#
#
# Indices 1 2 3 4 5 6 
#
# 1 0.005337 -0.005166 -0.001214 0.000000 -0.003415 0.000000
# 2 -0.005166 0.034129 -0.002220 0.000000 0.007132 0.000000
# 3 -0.001214 -0.002220 0.011197 0.000000 -0.003226 0.000000
# 4 0.000000 0.000000 0.000000 0.052126 0.000000 -0.011206
# 5 -0.003415 0.007132 -0.003226 0.000000 0.023892 0.000000
# 6 0.000000 0.000000 0.000000 -0.011206 0.000000 0.046790
#
#
# Mechanical properties :
#
#
# Convention : Reuss Voigt Hill
#
# Bulk Modulus (GPa) = 29.88433 62.23842 46.06137
# Shear Modulus (GPa) = 24.77382 38.57890 31.67636
#
# Velocity S-wave (km/s) = 3.17752 3.96521 3.59302
# Velocity P-wave (km/s) = 5.06375 6.80656 5.99879
#
# Compressibility (1/GPa) = 0.03346235
#
# Stress axis : x y z
#
# Youngs Moduli (GPa) = 187.36799 29.30040 89.31244
#
# Poissons Ratio (x) = 0.15136 0.10844
# Poissons Ratio (y) = 0.96787 0.19832
# Poissons Ratio (z) = 0.22750 0.06506
#
# Static dielectric constant tensor:
#      x y z
#    x 2.090630 0.000000 0.050180 
#    y 0.000000 1.921320 0.000000 
#    z 0.050180 0.000000 2.010310 
# 
# From -- ./inp_files/15752.got.cif
#   From: 2010.05.17/outbox.cif.g08.bks.cpg/sg13_8_cif.got.tgz:15752.got - 2010.06.03 16:44:36.
