data_PCOD9237788
_publ_section_title
;
Structure prediction by ZEFSAII (Michael W. Deem and Ramdas Pophale) SiO2 
 PCOD9237788
Probable space group: P 2/C
;
_chemical_formula_sum "Si O2"
_cell_formula_units_Z 26
_cell_length_a 8.515310
_cell_length_b 13.388058
_cell_length_c 12.947584
_cell_angle_alpha 90.000000
_cell_angle_beta 59.688331
_cell_angle_gamma 90.000000
_cell_volume 1274.280080
_symmetry_space_group_name_H-M "P 2/C"
_symmetry_group_IT_number 13
_symmetry_cell_setting 'monoclinic'
loop_
_space_group_symop_operation_xyz
x,y,z
-x,y,1/2-z
-x,-y,-z
x,-y,1/2+z
loop_
_atom_site_type_symbol
_atom_site_label
_atom_site_fract_x
_atom_site_fract_y
_atom_site_fract_z
Si Si1 0.619753 0.636256 0.556743
Si Si2 0.272223 0.155708 0.943579
Si Si3 0.500000 0.308088 0.750000
Si Si4 0.067744 0.729916 0.907469
Si Si5 0.000000 0.598855 0.750000
Si Si6 0.500000 0.995603 0.750000
Si Si7 0.337158 0.462599 0.678662
Si Si8 0.650401 0.172416 0.345268
O O1 0.797619 0.665830 0.564341
O O2 0.507188 0.538942 0.632131
O O3 0.661076 0.601658 0.426993
O O4 0.489506 0.733818 0.602831
O O5 0.420871 0.240100 0.866067
O O6 0.338634 0.064047 0.850688
O O7 0.283321 0.141373 0.062996
O O8 0.071236 0.198028 0.986950
O O9 0.341048 0.380876 0.766045
O O10 0.193109 0.790814 0.785144
O O11 0.947875 0.662633 0.868420
O O12 0.835239 0.532407 0.767743
O O13 0.438549 0.923248 0.678620
#
# Coordination Sequence:
#
# PCOD9237788 Si02
#       8
#     4   4   2   4   2   2   4   4
#     4  11  23  41  67  96 135 179 224 267 329 395
#     4  11  25  45  66 101 128 172 225 279 342 391
#     4  11  24  43  64  88 148 177 214 277 330 390
#     4  12  23  41  69  96 137 174 222 282 323 395
#     4  12  24  38  64 100 136 180 230 264 320 388
#     4  11  26  43  78  94 126 175 224 279 350 412
#     4  11  24  40  63  99 135 184 225 263 321 398
#     4  12  21  47  68  95 130 171 220 278 341 398
#
# _framework density 20.403677999999999
#
# number of rings (size 3 to 8) (size 9 to 14) (size 15 to 20)
#    0.000    0.615    6.154    1.385    4.308    1.231 
#    0.000    0.000    0.000    0.000    0.000    0.000 
#    0.000    0.000    0.000    0.000    0.000    0.000 
#
# Total GULP energy -145208.952621 kJ/mol
# GULP energy per Si atom -5584.959716 kJ/mol
# Density = 2.035724 g / cm^3
# Si number density = 20.403678 Si / 1000 Ang^3
#
#
#
# Elastic Constant Matrix: (Units=GPa)
#
#
# Indices 1 2 3 4 5 6 
#
# 1 79.9153 32.2060 23.5956 0.0000 6.9858 0.0000
# 2 32.2060 107.0326 42.1979 0.0000 4.8700 0.0000
# 3 23.5956 42.1979 77.6404 0.0000 3.7143 0.0000
# 4 0.0000 0.0000 0.0000 11.0669 0.0000 24.4399
# 5 6.9858 4.8700 3.7143 0.0000 24.7284 0.0000
# 6 0.0000 0.0000 0.0000 24.4399 0.0000 -0.6119
#
#
#
# Elastic Compliance Matrix: (Units=1/GPa)
#
#
# Indices 1 2 3 4 5 6 
#
# 1 0.014887 -0.003324 -0.002566 0.000000 -0.003166 0.000000
# 2 -0.003324 0.012680 -0.005849 0.000000 -0.000680 0.000000
# 3 -0.002566 -0.005849 0.016870 0.000000 -0.000657 0.000000
# 4 0.000000 0.000000 0.000000 0.001013 0.000000 0.040458
# 5 -0.003166 -0.000680 -0.000657 0.000000 0.041566 0.000000
# 6 0.000000 0.000000 0.000000 0.040458 0.000000 -0.018320
#
#
# Mechanical properties :
#
#
# Convention : Reuss Voigt Hill
#
# Bulk Modulus (GPa) = 47.71196 51.17637 49.44416
# Shear Modulus (GPa) = 50.42307 18.14259 34.28283
#
# Velocity S-wave (km/s) = 4.97658 2.98515 4.10351
# Velocity P-wave (km/s) = 7.51376 6.08423 6.83646
#
# Compressibility (1/GPa) = 0.02095911
#
# Stress axis : x y z
#
# Youngs Moduli (GPa) = 67.17183 78.86466 59.27587
#
# Poissons Ratio (x) = 0.26212 0.15213
# Poissons Ratio (y) = 0.22326 0.34671
# Poissons Ratio (z) = 0.17240 0.46128
#
# Static dielectric constant tensor:
#      x y z
#    x 1.745270 0.000000 0.007040 
#    y 0.000000 1.727440 0.000000 
#    z 0.007040 0.000000 1.713810 
# 
# From -- ./inp_files/46841.got.cif
#   From: 2010.05.17/outbox.cif.g08.bks.cpg/sg13_24_cif.got.tgz:46841.got - 2010.06.03 16:44:36.
