data_PCOD9237372
_publ_section_title
;
Structure prediction by ZEFSAII (Michael W. Deem and Ramdas Pophale) SiO2 
 PCOD9237372
Probable space group: P 2/C
;
_chemical_formula_sum "Si O2"
_cell_formula_units_Z 24
_cell_length_a 22.841890
_cell_length_b 10.610676
_cell_length_c 23.628108
_cell_angle_alpha 90.000000
_cell_angle_beta 12.330783
_cell_angle_gamma 90.000000
_cell_volume 1222.965950
_symmetry_space_group_name_H-M "P 2/C"
_symmetry_group_IT_number 13
_symmetry_cell_setting 'monoclinic'
loop_
_space_group_symop_operation_xyz
x,y,z
-x,y,1/2-z
-x,-y,-z
x,-y,1/2+z
loop_
_atom_site_type_symbol
_atom_site_label
_atom_site_fract_x
_atom_site_fract_y
_atom_site_fract_z
Si Si1 0.308340 0.398980 0.481267
Si Si2 0.455230 0.694094 0.357337
Si Si3 0.446634 0.688139 0.640539
Si Si4 0.093176 0.462761 0.849060
Si Si5 0.940699 0.268990 0.173382
Si Si6 0.248926 0.909561 0.749677
O O1 0.500000 0.351044 0.250000
O O2 0.402172 0.543040 0.405857
O O3 0.353096 0.315180 0.494700
O O4 0.000000 0.403823 0.750000
O O5 0.500000 0.733202 0.250000
O O6 0.204165 0.752747 0.629423
O O7 0.732612 0.727996 0.128522
O O8 0.630070 0.618216 0.419000
O O9 0.337136 0.816171 0.716979
O O10 0.175205 0.613545 0.917250
O O11 0.137181 0.589750 0.772567
O O12 0.000000 0.500000 0.000000
O O13 0.836119 0.175112 0.223954
O O14 0.500000 0.000000 0.500000
O O15 0.000000 0.000000 0.000000
#
# Coordination Sequence:
#
# PCOD9237372 Si02
#       6
#     4   4   4   4   4   4
#     4  11  21  36  59  96 135 165 194 246 320 400
#     4  11  22  37  61 100 137 167 200 250 328 406
#     4  12  24  40  65  93 134 167 209 264 325 395
#     4  12  22  36  61 102 129 164 200 258 346 398
#     4  12  22  40  66  92 136 166 208 265 327 393
#     4  12  28  46  65  91 126 176 229 274 319 368
#
# _framework density 19.624421999999999
#
# number of rings (size 3 to 8) (size 9 to 14) (size 15 to 20)
#    0.000    0.333    5.000    6.000    2.333    0.000 
#    0.000    0.000    0.000   10.000    0.000    0.000 
#    0.000    0.000    0.000    0.000    0.000    0.000 
#
# Total GULP energy -134163.421851 kJ/mol
# GULP energy per Si atom -5590.142577 kJ/mol
# Density = 1.957976 g / cm^3
# Si number density = 19.624422 Si / 1000 Ang^3
#
#
#
# Elastic Constant Matrix: (Units=GPa)
#
#
# Indices 1 2 3 4 5 6 
#
# 1 118.0354 48.6281 38.4515 0.0000 -0.7266 0.0000
# 2 48.6281 97.6124 55.3799 0.0000 -10.2663 0.0000
# 3 38.4515 55.3799 151.1606 0.0000 -4.2607 0.0000
# 4 0.0000 0.0000 0.0000 13.1282 0.0000 -10.2931
# 5 -0.7266 -10.2663 -4.2607 0.0000 46.7918 0.0000
# 6 0.0000 0.0000 0.0000 -10.2931 0.0000 11.7283
#
#
#
# Elastic Compliance Matrix: (Units=1/GPa)
#
#
# Indices 1 2 3 4 5 6 
#
# 1 0.010819 -0.004946 -0.000968 0.000000 -0.001005 0.000000
# 2 -0.004946 0.015471 -0.004328 0.000000 0.002924 0.000000
# 3 -0.000968 -0.004328 0.008442 0.000000 -0.000196 0.000000
# 4 0.000000 0.000000 0.000000 0.244216 0.000000 0.214331
# 5 -0.001005 0.002924 -0.000196 0.000000 0.021979 0.000000
# 6 0.000000 0.000000 0.000000 0.214331 0.000000 0.273368
#
#
# Mechanical properties :
#
#
# Convention : Reuss Voigt Hill
#
# Bulk Modulus (GPa) = 70.18514 72.41416 71.29965
# Shear Modulus (GPa) = 8.33989 29.28626 18.81307
#
# Velocity S-wave (km/s) = 2.06373 3.86727 3.09958
# Velocity P-wave (km/s) = 6.44364 7.54461 7.01575
#
# Compressibility (1/GPa) = 0.01424803
#
# Stress axis : x y z
#
# Youngs Moduli (GPa) = 92.43003 64.63553 118.45882
#
# Poissons Ratio (x) = 0.31970 0.11471
# Poissons Ratio (y) = 0.45717 0.51264
# Poissons Ratio (z) = 0.08950 0.27972
#
# Static dielectric constant tensor:
#      x y z
#    x 1.746140 0.000000 0.015780 
#    y 0.000000 1.660100 0.000000 
#    z 0.015780 0.000000 1.712420 
# 
# From -- ./inp_files/89066.got.cif
#   From: 2010.05.17/outbox.cif.g08.bks.cpg/sg13_45_cif.got.tgz:89066.got - 2010.06.03 16:44:36.
