data_PCOD9237762
_publ_section_title
;
Structure prediction by ZEFSAII (Michael W. Deem and Ramdas Pophale) SiO2 
 PCOD9237762
Probable space group: P 2/C
;
_chemical_formula_sum "Si O2"
_cell_formula_units_Z 22
_cell_length_a 13.059181
_cell_length_b 5.379141
_cell_length_c 16.925200
_cell_angle_alpha 90.000000
_cell_angle_beta 110.958638
_cell_angle_gamma 90.000000
_cell_volume 1110.285416
_symmetry_space_group_name_H-M "P 2/C"
_symmetry_group_IT_number 13
_symmetry_cell_setting 'monoclinic'
loop_
_space_group_symop_operation_xyz
x,y,z
-x,y,1/2-z
-x,-y,-z
x,-y,1/2+z
loop_
_atom_site_type_symbol
_atom_site_label
_atom_site_fract_x
_atom_site_fract_y
_atom_site_fract_z
Si Si1 0.495478 0.750372 0.048991
Si Si2 0.675676 0.129866 0.876599
Si Si3 0.914894 0.998850 0.404641
Si Si4 0.335515 0.432378 0.786071
Si Si5 0.911864 0.496445 0.296216
Si Si6 0.500000 0.219264 0.250000
O O1 0.379625 0.746904 0.063288
O O2 0.601080 0.747900 0.136653
O O3 0.500000 0.500000 0.000000
O O4 0.500000 0.000000 0.000000
O O5 0.795155 0.013161 0.912619
O O6 0.679163 0.319151 0.804940
O O7 0.586550 0.932275 0.824279
O O8 0.925600 0.750706 0.352213
O O9 0.923091 0.249598 0.354047
O O10 0.000000 0.000000 0.500000
O O11 0.212289 0.507507 0.774207
O O12 0.426762 0.638369 0.793978
O O13 0.000000 0.493707 0.250000
#
# Coordination Sequence:
#
# PCOD9237762 Si02
#       6
#     4   4   4   4   4   2
#     4  12  26  38  59  99 138 164 206 280 349 372
#     4  11  23  40  68  93 126 181 225 262 319 417
#     4  11  25  44  69  98 131 177 229 278 336 399
#     4  11  23  40  68  93 126 181 226 263 320 418
#     4  11  25  44  69  98 131 177 229 279 337 396
#     4  12  16  40  72  90 124 162 244 256 308 392
#
# _framework density 19.814726
#
# number of rings (size 3 to 8) (size 9 to 14) (size 15 to 20)
#    0.000    0.727    5.455    2.182    0.000    2.909 
#    0.000    0.000    0.000    0.000    0.000    0.000 
#    0.000    0.000    0.000    0.000    0.000    0.000 
#
# Total GULP energy -122808.349513 kJ/mol
# GULP energy per Si atom -5582.197705 kJ/mol
# Density = 1.976963 g / cm^3
# Si number density = 19.814726 Si / 1000 Ang^3
#
#
#
# Elastic Constant Matrix: (Units=GPa)
#
#
# Indices 1 2 3 4 5 6 
#
# 1 223.1009 65.3210 76.5584 0.0000 -4.5604 0.0000
# 2 65.3210 128.5912 45.8683 0.0000 -11.6377 0.0000
# 3 76.5584 45.8683 75.2003 0.0000 -16.3073 0.0000
# 4 0.0000 0.0000 0.0000 52.0089 0.0000 1.1763
# 5 -4.5604 -11.6377 -16.3073 0.0000 28.6016 0.0000
# 6 0.0000 0.0000 0.0000 1.1763 0.0000 36.3959
#
#
#
# Elastic Compliance Matrix: (Units=1/GPa)
#
#
# Indices 1 2 3 4 5 6 
#
# 1 0.007374 -0.001426 -0.007426 0.000000 -0.003639 0.000000
# 2 -0.001426 0.010226 -0.004487 0.000000 0.001375 0.000000
# 3 -0.007426 -0.004487 0.026179 0.000000 0.011916 0.000000
# 4 0.000000 0.000000 0.000000 0.019242 0.000000 -0.000622
# 5 -0.003639 0.001375 0.011916 0.000000 0.041736 0.000000
# 6 0.000000 0.000000 0.000000 -0.000622 0.000000 0.027496
#
#
# Mechanical properties :
#
#
# Convention : Reuss Voigt Hill
#
# Bulk Modulus (GPa) = 58.48005 89.15419 73.81712
# Shear Modulus (GPa) = 30.37081 39.34426 34.85753
#
# Velocity S-wave (km/s) = 3.91927 4.46085 4.19880
# Velocity P-wave (km/s) = 7.07520 8.46309 7.80007
#
# Compressibility (1/GPa) = 0.01709985
#
# Stress axis : x y z
#
# Youngs Moduli (GPa) = 135.61620 97.78926 38.19834
#
# Poissons Ratio (x) = 0.13946 0.28366
# Poissons Ratio (y) = 0.19340 0.17141
# Poissons Ratio (z) = 1.00710 0.43882
#
# Static dielectric constant tensor:
#      x y z
#    x 1.998370 0.000000 -0.263980 
#    y 0.000000 1.770750 0.000000 
#    z -0.263980 0.000000 2.030510 
# 
# From -- ./inp_files/48876.got.cif
#   From: 2010.05.17/outbox.cif.g08.bks.cpg/sg13_25_cif.got.tgz:48876.got - 2010.06.03 16:44:36.
