data_PCOD9237288
_publ_section_title
;
Structure prediction by ZEFSAII (Michael W. Deem and Ramdas Pophale) SiO2 
 PCOD9237288
Probable space group: P 2/C
;
_chemical_formula_sum "Si O2"
_cell_formula_units_Z 20
_cell_length_a 5.928864
_cell_length_b 16.665438
_cell_length_c 9.222863
_cell_angle_alpha 90.000000
_cell_angle_beta 94.801282
_cell_angle_gamma 90.000000
_cell_volume 908.086779
_symmetry_space_group_name_H-M "P 2/C"
_symmetry_group_IT_number 13
_symmetry_cell_setting 'monoclinic'
loop_
_space_group_symop_operation_xyz
x,y,z
-x,y,1/2-z
-x,-y,-z
x,-y,1/2+z
loop_
_atom_site_type_symbol
_atom_site_label
_atom_site_fract_x
_atom_site_fract_y
_atom_site_fract_z
Si Si1 0.745706 0.898608 0.720064
Si Si2 0.000000 0.476670 0.750000
Si Si3 0.700945 0.936943 0.379233
Si Si4 0.312499 0.670145 0.362866
Si Si5 0.000000 0.809093 0.250000
Si Si6 0.633021 0.437787 0.404497
O O1 0.500000 0.858936 0.750000
O O2 0.687398 0.931730 0.553527
O O3 0.000000 0.859143 0.750000
O O4 0.773424 0.974796 0.830625
O O5 0.824055 0.412488 0.674776
O O6 0.878402 0.530787 0.864503
O O7 0.500000 0.918770 0.250000
O O8 0.877936 0.867385 0.353933
O O9 0.500000 0.675578 0.250000
O O10 0.165180 0.748945 0.342644
O O11 0.391880 0.649975 0.526984
O O12 0.500000 0.437647 0.250000
O O13 0.500000 0.500000 0.500000
#
# Coordination Sequence:
#
# PCOD9237288 Si02
#       6
#     4   2   4   4   2   4
#     4  11  23  40  73 109 142 172 230 305 342 399
#     4  11  20  36  68  92 121 152 202 272 335 386
#     4  11  23  42  70 103 137 177 233 284 345 400
#     4  11  23  42  62  91 127 167 217 263 328 411
#     4  11  26  40  70  82 137 184 226 254 341 422
#     4  12  22  37  65  97 124 154 211 278 336 389
#
# _framework density 22.024325000000001
#
# number of rings (size 3 to 8) (size 9 to 14) (size 15 to 20)
#    0.000    0.800    5.000    4.200    2.800    0.000 
#    0.000    0.000   11.000    0.000    0.000    0.000 
#    0.000    0.000    0.000    0.000    0.000    0.000 
#
# Total GULP energy -111437.787715 kJ/mol
# GULP energy per Si atom -5571.889386 kJ/mol
# Density = 2.197420 g / cm^3
# Si number density = 22.024325 Si / 1000 Ang^3
#
#
#
# Elastic Constant Matrix: (Units=GPa)
#
#
# Indices 1 2 3 4 5 6 
#
# 1 128.3825 20.7991 27.6480 0.0000 -12.3682 0.0000
# 2 20.7991 54.7297 0.0508 0.0000 -16.4990 0.0000
# 3 27.6480 0.0508 133.0111 0.0000 -5.8122 0.0000
# 4 0.0000 0.0000 0.0000 18.1463 0.0000 -45.5303
# 5 -12.3682 -16.4990 -5.8122 0.0000 33.9842 0.0000
# 6 0.0000 0.0000 0.0000 -45.5303 0.0000 64.0268
#
#
#
# Elastic Compliance Matrix: (Units=1/GPa)
#
#
# Indices 1 2 3 4 5 6 
#
# 1 0.008779 -0.002884 -0.001758 0.000000 0.001494 0.000000
# 2 -0.002884 0.022379 0.001028 0.000000 0.009991 0.000000
# 3 -0.001758 0.001028 0.007936 0.000000 0.001216 0.000000
# 4 0.000000 0.000000 0.000000 -0.070270 0.000000 -0.049970
# 5 0.001494 0.009991 0.001216 0.000000 0.035027 0.000000
# 6 0.000000 0.000000 0.000000 -0.049970 0.000000 -0.019916
#
#
# Mechanical properties :
#
#
# Convention : Reuss Voigt Hill
#
# Bulk Modulus (GPa) = 31.38374 45.90214 38.64294
# Shear Modulus (GPa) = 2796.46544 41.07317 1418.76931
#
# Velocity S-wave (km/s) = 35.67174 4.32313 25.40829
# Velocity P-wave (km/s) = 41.36317 6.76802 29.63712
#
# Compressibility (1/GPa) = 0.03186364
#
# Stress axis : x y z
#
# Youngs Moduli (GPa) = 113.90634 44.68563 126.00106
#
# Poissons Ratio (x) = 0.12889 0.22157
# Poissons Ratio (y) = 0.32854 -0.12947
# Poissons Ratio (z) = 0.20030 -0.04592
#
# Static dielectric constant tensor:
#      x y z
#    x 2.058440 0.000000 0.156280 
#    y 0.000000 1.752050 0.000000 
#    z 0.156280 0.000000 2.007080 
# 
# From -- ./inp_files/9518.got.cif
#   From: 2010.05.17/outbox.cif.g08.bks.cpg/sg13_5_cif.got.tgz:9518.got - 2010.06.03 16:44:36.
