data_PCOD9237432
_publ_section_title
;
Structure prediction by ZEFSAII (Michael W. Deem and Ramdas Pophale) SiO2 
 PCOD9237432
Probable space group: P 2/C
;
_chemical_formula_sum "Si O2"
_cell_formula_units_Z 32
_cell_length_a 30.713398
_cell_length_b 5.670419
_cell_length_c 18.496322
_cell_angle_alpha 90.000000
_cell_angle_beta 151.910243
_cell_angle_gamma 90.000000
_cell_volume 1516.752848
_symmetry_space_group_name_H-M "P 2/C"
_symmetry_group_IT_number 13
_symmetry_cell_setting 'monoclinic'
loop_
_space_group_symop_operation_xyz
x,y,z
-x,y,1/2-z
-x,-y,-z
x,-y,1/2+z
loop_
_atom_site_type_symbol
_atom_site_label
_atom_site_fract_x
_atom_site_fract_y
_atom_site_fract_z
Si Si1 0.878927 0.812009 0.473338
Si Si2 0.778456 0.792019 0.069180
Si Si3 0.547790 0.709496 0.521426
Si Si4 0.633859 0.934260 0.267744
Si Si5 0.158780 0.483754 0.218955
Si Si6 0.261037 0.222191 0.253668
Si Si7 0.208387 0.443996 0.541996
Si Si8 0.950491 0.885099 0.857909
O O1 0.877945 0.629681 0.403921
O O2 0.875154 0.707311 0.548107
O O3 0.976177 0.930122 0.598598
O O4 0.784784 0.967053 0.329784
O O5 0.773851 0.648625 0.136419
O O6 0.857324 0.984351 0.197806
O O7 0.807446 0.604774 0.050124
O O8 0.686559 0.915268 0.904907
O O9 0.500000 0.500000 0.500000
O O10 0.461461 0.812115 0.351216
O O11 0.632335 0.694139 0.589178
O O12 0.597994 0.890856 0.651408
O O13 0.705479 0.731502 0.346927
O O14 0.215426 0.278027 0.263662
O O15 0.083255 0.371337 0.162376
O O16 0.227258 0.383170 0.137124
O O17 0.000000 0.000000 0.000000
#
# Coordination Sequence:
#
# PCOD9237432 Si02
#       8
#     4   4   4   4   4   4   4   4
#     4  11  23  42  68  99 133 177 239 286 351 418
#     4  12  24  42  65  97 143 181 228 285 355 406
#     4  11  21  39  73 102 130 177 233 277 351 428
#     4  11  22  40  66 101 136 174 222 283 349 416
#     4  11  24  40  71  92 133 183 234 283 349 418
#     4  11  21  41  68 103 130 172 232 292 338 422
#     4  11  22  41  66  96 138 176 222 291 358 403
#     4  12  24  44  69  97 130 187 243 281 343 433
#
# _framework density 21.0977
#
# number of rings (size 3 to 8) (size 9 to 14) (size 15 to 20)
#    0.000    0.750    6.250    1.125    0.000    0.000 
#    0.000    9.375    0.000   21.000    0.000    0.000 
#    0.000    0.000    0.000    0.000    0.000    0.000 
#
# Total GULP energy -178275.275625 kJ/mol
# GULP energy per Si atom -5571.102363 kJ/mol
# Density = 2.104968 g / cm^3
# Si number density = 21.097700 Si / 1000 Ang^3
#
#
#
# Elastic Constant Matrix: (Units=GPa)
#
#
# Indices 1 2 3 4 5 6 
#
# 1 57.9200 8.3345 12.8729 0.0000 14.8321 0.0000
# 2 8.3345 66.1877 19.4964 0.0000 2.0555 0.0000
# 3 12.8729 19.4964 101.1291 0.0000 -2.5285 0.0000
# 4 0.0000 0.0000 0.0000 36.6309 0.0000 -8.7933
# 5 14.8321 2.0555 -2.5285 0.0000 28.6600 0.0000
# 6 0.0000 0.0000 0.0000 -8.7933 0.0000 39.4102
#
#
#
# Elastic Compliance Matrix: (Units=1/GPa)
#
#
# Indices 1 2 3 4 5 6 
#
# 1 0.020866 -0.001511 -0.002638 0.000000 -0.010923 0.000000
# 2 -0.001511 0.016186 -0.002944 0.000000 -0.000639 0.000000
# 3 -0.002638 -0.002944 0.010855 0.000000 0.002534 0.000000
# 4 0.000000 0.000000 0.000000 0.028844 0.000000 0.006436
# 5 -0.010923 -0.000639 0.002534 0.000000 0.040814 0.000000
# 6 0.000000 0.000000 0.000000 0.006436 0.000000 0.026810
#
#
# Mechanical properties :
#
#
# Convention : Reuss Voigt Hill
#
# Bulk Modulus (GPa) = 29.65536 34.07162 31.86349
# Shear Modulus (GPa) = 29.44609 33.24243 31.34426
#
# Velocity S-wave (km/s) = 3.73996 3.97374 3.85862
# Velocity P-wave (km/s) = 5.72158 6.10235 5.91503
#
# Compressibility (1/GPa) = 0.03372072
#
# Stress axis : x y z
#
# Youngs Moduli (GPa) = 47.92476 61.78226 92.12302
#
# Poissons Ratio (x) = 0.09337 0.24301
# Poissons Ratio (y) = 0.07243 0.27121
# Poissons Ratio (z) = 0.12642 0.18189
#
# Static dielectric constant tensor:
#      x y z
#    x 1.809650 0.000000 0.079450 
#    y 0.000000 2.061440 0.000000 
#    z 0.079450 0.000000 1.802150 
# 
# From -- ./inp_files/72225.got.cif
#   From: 2010.05.17/outbox.cif.g08.bks.cpg/sg13_37_cif.got.tgz:72225.got - 2010.06.03 16:44:36.
