data_PCOD9237181
_publ_section_title
;
Structure prediction by ZEFSAII (Michael W. Deem and Ramdas Pophale) SiO2 
 PCOD9237181
Probable space group: P 2/C
;
_chemical_formula_sum "Si O2"
_cell_formula_units_Z 26
_cell_length_a 17.582464
_cell_length_b 7.246628
_cell_length_c 13.914346
_cell_angle_alpha 90.000000
_cell_angle_beta 34.051268
_cell_angle_gamma 90.000000
_cell_volume 992.694759
_symmetry_space_group_name_H-M "P 2/C"
_symmetry_group_IT_number 13
_symmetry_cell_setting 'monoclinic'
loop_
_space_group_symop_operation_xyz
x,y,z
-x,y,1/2-z
-x,-y,-z
x,-y,1/2+z
loop_
_atom_site_type_symbol
_atom_site_label
_atom_site_fract_x
_atom_site_fract_y
_atom_site_fract_z
Si Si1 0.257198 0.898645 0.360934
Si Si2 0.028836 0.013679 0.855836
Si Si3 0.000000 0.674205 0.250000
Si Si4 0.528092 0.083021 0.106847
Si Si5 0.276268 0.762724 0.546953
Si Si6 0.633993 0.462181 0.919884
Si Si7 0.122851 0.470677 0.945548
O O1 0.124317 0.015536 0.525413
O O2 0.386148 0.025303 0.204854
O O3 0.391726 0.750066 0.025067
O O4 0.086618 0.459846 0.589259
O O5 0.078639 0.199854 0.749128
O O6 0.123449 0.838915 0.729145
O O7 0.814452 0.736131 0.125239
O O8 0.000000 0.000000 0.000000
O O9 0.500000 0.124036 0.250000
O O10 0.302987 0.789033 0.407006
O O11 0.626146 0.907013 0.002462
O O12 0.325932 0.562299 0.523566
O O13 0.252250 0.567549 0.764534
O O14 0.500000 0.500000 0.000000
O O15 0.000000 0.500000 0.000000
#
# Coordination Sequence:
#
# PCOD9237181 Si02
#       7
#     4   4   2   4   4   4   4
#     4  11  25  50  75 109 161 215 279 343 427 510
#     4  12  26  46  78 116 159 218 288 351 428 519
#     4  12  28  48  80 118 174 222 288 360 440 516
#     4  10  27  49  78 111 156 217 276 342 426 511
#     4  11  25  49  76 110 155 213 273 348 418 510
#     4  12  29  48  76 118 163 211 277 353 431 517
#     4  12  30  48  78 123 163 220 284 356 431 523
#
# _framework density 26.191331999999999
#
# number of rings (size 3 to 8) (size 9 to 14) (size 15 to 20)
#    0.000    0.615    1.538    3.692   12.923    4.308 
#    0.000    0.000    0.000    0.000    0.000    0.000 
#    0.000    0.000    0.000    0.000    0.000    0.000 
#
# Total GULP energy -145175.080050 kJ/mol
# GULP energy per Si atom -5583.656925 kJ/mol
# Density = 2.613172 g / cm^3
# Si number density = 26.191332 Si / 1000 Ang^3
#
#
#
# Elastic Constant Matrix: (Units=GPa)
#
#
# Indices 1 2 3 4 5 6 
#
# 1 147.4863 51.5724 79.2036 0.0000 -20.7010 0.0000
# 2 51.5724 137.6958 47.2331 0.0000 -9.6248 0.0000
# 3 79.2036 47.2331 133.1977 0.0000 0.3914 0.0000
# 4 0.0000 0.0000 0.0000 24.4214 0.0000 0.5533
# 5 -20.7010 -9.6248 0.3914 0.0000 58.6277 0.0000
# 6 0.0000 0.0000 0.0000 0.5533 0.0000 50.5630
#
#
#
# Elastic Compliance Matrix: (Units=1/GPa)
#
#
# Indices 1 2 3 4 5 6 
#
# 1 0.011165 -0.001871 -0.005986 0.000000 0.003675 0.000000
# 2 -0.001871 0.008694 -0.001973 0.000000 0.000780 0.000000
# 3 -0.005986 -0.001973 0.011774 0.000000 -0.002516 0.000000
# 4 0.000000 0.000000 0.000000 0.040958 0.000000 -0.000448
# 5 0.003675 0.000780 -0.002516 0.000000 0.018499 0.000000
# 6 0.000000 0.000000 0.000000 -0.000448 0.000000 0.019782
#
#
# Mechanical properties :
#
#
# Convention : Reuss Voigt Hill
#
# Bulk Modulus (GPa) = 83.52063 86.04423 84.78243
# Shear Modulus (GPa) = 37.16766 42.74713 39.95739
#
# Velocity S-wave (km/s) = 3.77116 4.04432 3.91013
# Velocity P-wave (km/s) = 7.13583 7.39812 7.26816
#
# Compressibility (1/GPa) = 0.01197309
#
# Stress axis : x y z
#
# Youngs Moduli (GPa) = 89.56227 115.01556 84.93093
#
# Poissons Ratio (x) = 0.21525 0.50844
# Poissons Ratio (y) = 0.16761 0.16753
# Poissons Ratio (z) = 0.53616 0.22688
#
# Static dielectric constant tensor:
#      x y z
#    x 2.097580 0.000000 -0.113240 
#    y 0.000000 2.166400 0.000000 
#    z -0.113240 0.000000 2.277130 
# 
# From -- ./inp_files/58504.got.cif
#   From: 2010.05.17/outbox.cif.g08.bks.cpg/sg13_30_cif.got.tgz:58504.got - 2010.06.03 16:44:36.
