data_PCOD9237960
_publ_section_title
;
Structure prediction by ZEFSAII (Michael W. Deem and Ramdas Pophale) SiO2 
 PCOD9237960
Probable space group: P 2/C
;
_chemical_formula_sum "Si O2"
_cell_formula_units_Z 20
_cell_length_a 12.011355
_cell_length_b 7.766542
_cell_length_c 18.806414
_cell_angle_alpha 90.000000
_cell_angle_beta 149.830705
_cell_angle_gamma 90.000000
_cell_volume 881.679541
_symmetry_space_group_name_H-M "P 2/C"
_symmetry_group_IT_number 13
_symmetry_cell_setting 'monoclinic'
loop_
_space_group_symop_operation_xyz
x,y,z
-x,y,1/2-z
-x,-y,-z
x,-y,1/2+z
loop_
_atom_site_type_symbol
_atom_site_label
_atom_site_fract_x
_atom_site_fract_y
_atom_site_fract_z
Si Si1 0.611266 0.752839 0.888480
Si Si2 0.949272 0.453671 0.053916
Si Si3 0.332000 0.611414 0.862101
Si Si4 0.233184 0.035380 0.341471
Si Si5 0.955457 0.955883 0.557419
O O1 0.500000 0.764453 0.750000
O O2 0.450949 0.718724 0.865163
O O3 0.753484 0.578790 0.966519
O O4 0.756445 0.924677 0.975170
O O5 0.148613 0.495168 0.218231
O O6 0.909755 0.248510 0.037718
O O7 0.000000 0.500000 0.000000
O O8 0.227811 0.759602 0.852985
O O9 0.500000 0.500000 0.000000
O O10 0.000000 0.966200 0.250000
O O11 0.500000 0.000000 0.500000
O O12 0.166573 0.999094 0.222708
O O13 0.000000 0.000000 0.500000
#
# Coordination Sequence:
#
# PCOD9237960 Si02
#       5
#     4   4   4   4   4
#     4  12  24  46  73 107 149 196 255 315 381 458
#     4  11  23  46  72 106 145 186 247 312 376 458
#     4  11  27  44  70 106 147 198 253 311 385 453
#     4  11  26  49  72 110 154 198 253 312 382 460
#     4  11  24  44  75 107 145 191 255 313 384 453
#
# _framework density 22.683978
#
# number of rings (size 3 to 8) (size 9 to 14) (size 15 to 20)
#    0.000    0.800    4.000    2.400    8.400    0.800 
#    0.000    0.000    0.000    0.000    0.000    0.000 
#    0.000    0.000    0.000    0.000    0.000    0.000 
#
# Total GULP energy -111597.030312 kJ/mol
# GULP energy per Si atom -5579.851516 kJ/mol
# Density = 2.263235 g / cm^3
# Si number density = 22.683978 Si / 1000 Ang^3
#
#
#
# Elastic Constant Matrix: (Units=GPa)
#
#
# Indices 1 2 3 4 5 6 
#
# 1 90.4516 19.1840 44.6561 0.0000 14.9293 0.0000
# 2 19.1840 94.1860 59.8764 0.0000 5.8738 0.0000
# 3 44.6561 59.8764 223.5868 0.0000 -11.8417 0.0000
# 4 0.0000 0.0000 0.0000 53.3767 0.0000 18.8369
# 5 14.9293 5.8738 -11.8417 0.0000 43.6113 0.0000
# 6 0.0000 0.0000 0.0000 18.8369 0.0000 36.6529
#
#
#
# Elastic Compliance Matrix: (Units=1/GPa)
#
#
# Indices 1 2 3 4 5 6 
#
# 1 0.013440 -0.000632 -0.002794 0.000000 -0.005274 0.000000
# 2 -0.000632 0.013145 -0.003527 0.000000 -0.002512 0.000000
# 3 -0.002794 -0.003527 0.006139 0.000000 0.003099 0.000000
# 4 0.000000 0.000000 0.000000 0.022885 0.000000 -0.011761
# 5 -0.005274 -0.002512 0.003099 0.000000 0.025915 0.000000
# 6 0.000000 0.000000 0.000000 -0.011761 0.000000 0.033327
#
#
# Mechanical properties :
#
#
# Convention : Reuss Voigt Hill
#
# Bulk Modulus (GPa) = 53.14299 72.85083 62.99691
# Shear Modulus (GPa) = 37.02852 45.69538 41.36195
#
# Velocity S-wave (km/s) = 4.04464 4.49311 4.27476
# Velocity P-wave (km/s) = 6.72982 7.68783 7.22472
#
# Compressibility (1/GPa) = 0.01881716
#
# Stress axis : x y z
#
# Youngs Moduli (GPa) = 74.40565 76.07538 162.88562
#
# Poissons Ratio (x) = 0.04808 0.45516
# Poissons Ratio (y) = 0.04703 0.57449
# Poissons Ratio (z) = 0.20792 0.26832
#
# Static dielectric constant tensor:
#      x y z
#    x 1.969130 0.000000 -0.033180 
#    y 0.000000 1.721310 0.000000 
#    z -0.033180 0.000000 1.852630 
# 
# From -- ./inp_files/66338.got.cif
#   From: 2010.05.17/outbox.cif.g08.bks.cpg/sg13_34_cif.got.tgz:66338.got - 2010.06.03 16:44:36.
