data_PCOD9237268
_publ_section_title
;
Structure prediction by ZEFSAII (Michael W. Deem and Ramdas Pophale) SiO2 
 PCOD9237268
Probable space group: P 2/C
;
_chemical_formula_sum "Si O2"
_cell_formula_units_Z 28
_cell_length_a 13.280569
_cell_length_b 9.847122
_cell_length_c 13.543538
_cell_angle_alpha 90.000000
_cell_angle_beta 121.966088
_cell_angle_gamma 90.000000
_cell_volume 1502.585285
_symmetry_space_group_name_H-M "P 2/C"
_symmetry_group_IT_number 13
_symmetry_cell_setting 'monoclinic'
loop_
_space_group_symop_operation_xyz
x,y,z
-x,y,1/2-z
-x,-y,-z
x,-y,1/2+z
loop_
_atom_site_type_symbol
_atom_site_label
_atom_site_fract_x
_atom_site_fract_y
_atom_site_fract_z
Si Si1 0.631419 0.057232 0.079683
Si Si2 0.876620 0.325036 0.419698
Si Si3 0.632657 0.805772 0.791414
Si Si4 0.942205 0.422038 0.821238
Si Si5 0.005755 0.075765 0.137772
Si Si6 0.198429 0.841544 0.239570
Si Si7 0.735970 0.920958 0.434120
O O1 0.639741 0.152903 0.179633
O O2 0.715405 0.926638 0.144501
O O3 0.675040 0.130190 0.002575
O O4 0.500000 0.000000 0.000000
O O5 0.739561 0.295454 0.370845
O O6 0.888307 0.453795 0.353976
O O7 0.932084 0.194222 0.392803
O O8 0.956073 0.356288 0.556523
O O9 0.500000 0.761986 0.750000
O O10 0.664771 0.944080 0.866551
O O11 0.846998 0.303905 0.750195
O O12 0.000000 0.470490 0.750000
O O13 0.000000 0.114991 0.250000
O O14 0.084813 0.940953 0.170717
O O15 0.872673 0.049691 0.032124
O O16 0.258111 0.831369 0.161970
#
# Coordination Sequence:
#
# PCOD9237268 Si02
#       7
#     4   4   4   4   4   4   4
#     4  11  22  35  58  91 121 157 197 245 301 349
#     4  11  23  42  58  89 122 162 197 244 305 361
#     4  11  22  38  62  85 120 163 203 242 294 362
#     4  11  25  39  62  88 125 155 198 250 309 355
#     4  12  19  33  61  89 118 151 194 242 303 359
#     4  11  22  34  59  91 116 154 193 248 299 354
#     4  11  20  34  55  89 123 146 192 250 293 352
#
# _framework density 18.634550999999998
#
# number of rings (size 3 to 8) (size 9 to 14) (size 15 to 20)
#    0.000    0.857    7.143    2.143    2.000    0.000 
#    0.000    0.000    3.143    1.714    0.000    0.000 
#    0.000    0.000    0.000    0.000    0.000    0.000 
#
# Total GULP energy -156459.650168 kJ/mol
# GULP energy per Si atom -5587.844649 kJ/mol
# Density = 1.859214 g / cm^3
# Si number density = 18.634551 Si / 1000 Ang^3
#
#
#
# Elastic Constant Matrix: (Units=GPa)
#
#
# Indices 1 2 3 4 5 6 
#
# 1 98.8885 8.5204 14.8422 0.0000 7.9598 0.0000
# 2 8.5204 43.9435 -10.9568 0.0000 9.3201 0.0000
# 3 14.8422 -10.9568 32.5147 0.0000 -6.8023 0.0000
# 4 0.0000 0.0000 0.0000 12.7055 0.0000 3.5135
# 5 7.9598 9.3201 -6.8023 0.0000 38.8272 0.0000
# 6 0.0000 0.0000 0.0000 3.5135 0.0000 15.7081
#
#
#
# Elastic Compliance Matrix: (Units=1/GPa)
#
#
# Indices 1 2 3 4 5 6 
#
# 1 0.011699 -0.003439 -0.007088 0.000000 -0.002815 0.000000
# 2 -0.003439 0.026697 0.009730 0.000000 -0.003999 0.000000
# 3 -0.007088 0.009730 0.038496 0.000000 0.005862 0.000000
# 4 0.000000 0.000000 0.000000 0.083895 0.000000 -0.018765
# 5 -0.002815 -0.003999 0.005862 0.000000 0.028319 0.000000
# 6 0.000000 0.000000 0.000000 -0.018765 0.000000 0.067859
#
#
# Mechanical properties :
#
#
# Convention : Reuss Voigt Hill
#
# Bulk Modulus (GPa) = 13.28057 22.23979 17.76018
# Shear Modulus (GPa) = 17.62681 24.31089 20.96885
#
# Velocity S-wave (km/s) = 3.07892 3.61586 3.35814
# Velocity P-wave (km/s) = 4.44769 5.42155 4.95859
#
# Compressibility (1/GPa) = 0.07529796
#
# Stress axis : x y z
#
# Youngs Moduli (GPa) = 85.47674 37.45693 25.97683
#
# Poissons Ratio (x) = 0.12880 0.18412
# Poissons Ratio (y) = 0.29393 -0.25274
# Poissons Ratio (z) = 0.60586 -0.36444
#
# Static dielectric constant tensor:
#      x y z
#    x 1.668660 0.000000 -0.026080 
#    y 0.000000 1.613070 0.000000 
#    z -0.026080 0.000000 1.667200 
# 
# From -- ./inp_files/50462.got.cif
#   From: 2010.05.17/outbox.cif.g08.bks.cpg/sg13_26_cif.got.tgz:50462.got - 2010.06.03 16:44:36.
