data_PCOD9237360
_publ_section_title
;
Structure prediction by ZEFSAII (Michael W. Deem and Ramdas Pophale) SiO2 
 PCOD9237360
Probable space group: P 2/C
;
_chemical_formula_sum "Si O2"
_cell_formula_units_Z 22
_cell_length_a 11.299512
_cell_length_b 5.497554
_cell_length_c 16.544880
_cell_angle_alpha 90.000000
_cell_angle_beta 53.269760
_cell_angle_gamma 90.000000
_cell_volume 823.710737
_symmetry_space_group_name_H-M "P 2/C"
_symmetry_group_IT_number 13
_symmetry_cell_setting 'monoclinic'
loop_
_space_group_symop_operation_xyz
x,y,z
-x,y,1/2-z
-x,-y,-z
x,-y,1/2+z
loop_
_atom_site_type_symbol
_atom_site_label
_atom_site_fract_x
_atom_site_fract_y
_atom_site_fract_z
Si Si1 0.074321 0.046832 0.343338
Si Si2 0.410122 0.494615 0.705243
Si Si3 0.000000 0.553487 0.750000
Si Si4 0.781386 0.743168 0.431729
Si Si5 0.164035 0.602527 0.923531
Si Si6 0.378543 0.006343 0.631015
O O1 0.142276 0.119719 0.401341
O O2 0.017042 0.288883 0.322916
O O3 0.209645 0.977409 0.232204
O O4 0.933632 0.876726 0.394920
O O5 0.500000 0.549855 0.750000
O O6 0.249551 0.472838 0.815276
O O7 0.452163 0.239958 0.645246
O O8 0.417162 0.732300 0.644230
O O9 0.155777 0.424506 0.665911
O O10 0.748013 0.598665 0.527802
O O11 0.651923 0.919304 0.450851
O O12 0.000000 0.500000 0.000000
#
# Coordination Sequence:
#
# PCOD9237360 Si02
#       6
#     4   4   2   4   4   4
#     4  11  21  35  58  94 136 171 202 260 330 389
#     4  11  26  48  68  91 128 176 220 264 327 393
#     4  12  18  34  56  86 144 170 204 248 334 384
#     4  12  21  34  58  97 131 167 211 267 322 384
#     4  11  23  38  63  97 133 164 215 272 323 372
#     4  11  22  41  69  91 124 177 222 257 321 395
#
# _framework density 26.708404000000002
#
# number of rings (size 3 to 8) (size 9 to 14) (size 15 to 20)
#    0.000    0.727    5.455    4.364    0.000    1.455 
#    0.000    1.818    0.000    0.000    0.000    0.000 
#    0.000    0.000    0.000    0.000    0.000    0.000 
#
# Total GULP energy -122909.870777 kJ/mol
# GULP energy per Si atom -5586.812308 kJ/mol
# Density = 2.664761 g / cm^3
# Si number density = 26.708404 Si / 1000 Ang^3
#
#
#
# Elastic Constant Matrix: (Units=GPa)
#
#
# Indices 1 2 3 4 5 6 
#
# 1 63.4423 10.2410 -18.1333 0.0000 21.1456 0.0000
# 2 10.2410 122.6189 21.2962 0.0000 14.1358 0.0000
# 3 -18.1333 21.2962 95.2725 0.0000 19.4019 0.0000
# 4 0.0000 0.0000 0.0000 34.6635 0.0000 12.4073
# 5 21.1456 14.1358 19.4019 0.0000 36.7143 0.0000
# 6 0.0000 0.0000 0.0000 12.4073 0.0000 39.1352
#
#
#
# Elastic Compliance Matrix: (Units=1/GPa)
#
#
# Indices 1 2 3 4 5 6 
#
# 1 0.024540 -0.001466 0.008698 0.000000 -0.018166 0.000000
# 2 -0.001466 0.008789 -0.001935 0.000000 -0.001517 0.000000
# 3 0.008698 -0.001935 0.015075 0.000000 -0.012231 0.000000
# 4 0.000000 0.000000 0.000000 0.032542 0.000000 -0.010317
# 5 -0.018166 -0.001517 -0.012231 0.000000 0.044748 0.000000
# 6 0.000000 0.000000 0.000000 -0.010317 0.000000 0.028823
#
#
# Mechanical properties :
#
#
# Convention : Reuss Voigt Hill
#
# Bulk Modulus (GPa) = 16.94984 34.23793 25.59388
# Shear Modulus (GPa) = 30.56472 39.96458 35.26465
#
# Velocity S-wave (km/s) = 3.38655 3.87244 3.63761
# Velocity P-wave (km/s) = 4.65313 5.73074 5.21982
#
# Compressibility (1/GPa) = 0.05899761
#
# Stress axis : x y z
#
# Youngs Moduli (GPa) = 40.75031 113.78270 66.33540
#
# Poissons Ratio (x) = 0.16680 -0.57697
# Poissons Ratio (y) = 0.05974 0.12833
# Poissons Ratio (z) = -0.35443 0.22012
#
# Static dielectric constant tensor:
#      x y z
#    x 2.246260 0.000000 0.000220 
#    y 0.000000 2.152880 0.000000 
#    z 0.000220 0.000000 2.199830 
# 
# From -- ./inp_files/65131.got.cif
#   From: 2010.05.17/outbox.cif.g08.bks.cpg/sg13_33_cif.got.tgz:65131.got - 2010.06.03 16:44:36.
