data_PCOD9237385
_publ_section_title
;
Structure prediction by ZEFSAII (Michael W. Deem and Ramdas Pophale) SiO2 
 PCOD9237385
Probable space group: P 2/C
;
_chemical_formula_sum "Si O2"
_cell_formula_units_Z 22
_cell_length_a 12.568589
_cell_length_b 8.858558
_cell_length_c 10.500897
_cell_angle_alpha 90.000000
_cell_angle_beta 100.970766
_cell_angle_gamma 90.000000
_cell_volume 1147.798220
_symmetry_space_group_name_H-M "P 2/C"
_symmetry_group_IT_number 13
_symmetry_cell_setting 'monoclinic'
loop_
_space_group_symop_operation_xyz
x,y,z
-x,y,1/2-z
-x,-y,-z
x,-y,1/2+z
loop_
_atom_site_type_symbol
_atom_site_label
_atom_site_fract_x
_atom_site_fract_y
_atom_site_fract_z
Si Si1 0.898363 0.578012 0.417569
Si Si2 0.000000 0.813991 0.250000
Si Si3 0.572291 0.471756 0.892330
Si Si4 0.753345 0.309686 0.329163
Si Si5 0.124012 0.953651 0.486470
Si Si6 0.736567 0.242343 0.036207
O O1 0.829342 0.455834 0.324709
O O2 0.830340 0.640256 0.520007
O O3 0.000000 0.500000 0.500000
O O4 0.941950 0.710625 0.340217
O O5 0.096310 0.907444 0.335794
O O6 0.500000 0.456540 0.750000
O O7 0.653980 0.613660 0.884795
O O8 0.500000 0.500000 0.000000
O O9 0.636969 0.316496 0.936985
O O10 0.824145 0.185374 0.422444
O O11 0.717992 0.245116 0.183769
O O12 0.213365 0.085461 0.502107
O O13 0.000000 0.000000 0.500000
#
# Coordination Sequence:
#
# PCOD9237385 Si02
#       6
#     4   2   4   4   4   4
#     4  11  21  37  60  94 128 179 225 270 320 399
#     4  12  22  36  62  90 144 184 224 262 334 394
#     4  11  24  49  76 100 128 171 236 305 346 393
#     4  11  24  41  68  97 134 174 232 278 341 407
#     4  12  24  42  62 101 148 183 215 270 336 425
#     4  11  24  41  66  96 130 182 220 277 352 405
#
# _framework density 19.167133
#
# number of rings (size 3 to 8) (size 9 to 14) (size 15 to 20)
#    0.000    0.727    5.455    2.182    2.545    1.455 
#    0.000    1.818    0.000    0.000    0.000    0.000 
#    0.000    0.000    0.000    0.000    0.000    0.000 
#
# Total GULP energy -122667.744118 kJ/mol
# GULP energy per Si atom -5575.806551 kJ/mol
# Density = 1.912351 g / cm^3
# Si number density = 19.167133 Si / 1000 Ang^3
#
#
#
# Elastic Constant Matrix: (Units=GPa)
#
#
# Indices 1 2 3 4 5 6 
#
# 1 112.1748 46.8412 50.0467 0.0000 1.3091 0.0000
# 2 46.8412 108.2424 41.5318 0.0000 8.8039 0.0000
# 3 50.0467 41.5318 115.3698 0.0000 3.9597 0.0000
# 4 0.0000 0.0000 0.0000 36.4437 0.0000 6.1767
# 5 1.3091 8.8039 3.9597 0.0000 30.7684 0.0000
# 6 0.0000 0.0000 0.0000 6.1767 0.0000 38.7916
#
#
#
# Elastic Compliance Matrix: (Units=1/GPa)
#
#
# Indices 1 2 3 4 5 6 
#
# 1 0.012297 -0.003887 -0.003973 0.000000 0.001100 0.000000
# 2 -0.003887 0.012156 -0.002588 0.000000 -0.002980 0.000000
# 3 -0.003973 -0.002588 0.011342 0.000000 -0.000550 0.000000
# 4 0.000000 0.000000 0.000000 0.028201 0.000000 -0.004490
# 5 0.001100 -0.002980 -0.000550 0.000000 0.033377 0.000000
# 6 0.000000 0.000000 0.000000 -0.004490 0.000000 0.026494
#
#
# Mechanical properties :
#
#
# Convention : Reuss Voigt Hill
#
# Bulk Modulus (GPa) = 67.11441 68.06961 67.59201
# Shear Modulus (GPa) = 33.39387 34.35856 33.87622
#
# Velocity S-wave (km/s) = 4.17855 4.23848 4.20862
# Velocity P-wave (km/s) = 7.64014 7.71646 7.67839
#
# Compressibility (1/GPa) = 0.01489993
#
# Stress axis : x y z
#
# Youngs Moduli (GPa) = 81.31802 82.26618 88.17021
#
# Poissons Ratio (x) = 0.31974 0.35031
# Poissons Ratio (y) = 0.31605 0.22815
# Poissons Ratio (z) = 0.32309 0.21287
#
# Static dielectric constant tensor:
#      x y z
#    x 1.686070 0.000000 -0.016810 
#    y 0.000000 1.072450 0.000000 
#    z -0.016810 0.000000 1.701320 
# 
# From -- ./inp_files/32692.got.cif
#   From: 2010.05.17/outbox.cif.g08.bks.cpg/sg13_17_cif.got.tgz:32692.got - 2010.06.03 16:44:36.
