data_PCOD9237106
_publ_section_title
;
Structure prediction by ZEFSAII (Michael W. Deem and Ramdas Pophale) SiO2 
 PCOD9237106
Probable space group: P 2/C
;
_chemical_formula_sum "Si O2"
_cell_formula_units_Z 18
_cell_length_a 7.767028
_cell_length_b 5.152792
_cell_length_c 19.176042
_cell_angle_alpha 90.000000
_cell_angle_beta 114.814197
_cell_angle_gamma 90.000000
_cell_volume 696.604249
_symmetry_space_group_name_H-M "P 2/C"
_symmetry_group_IT_number 13
_symmetry_cell_setting 'monoclinic'
loop_
_space_group_symop_operation_xyz
x,y,z
-x,y,1/2-z
-x,-y,-z
x,-y,1/2+z
loop_
_atom_site_type_symbol
_atom_site_label
_atom_site_fract_x
_atom_site_fract_y
_atom_site_fract_z
Si Si1 0.910341 0.711914 0.634458
Si Si2 0.500000 0.504491 0.750000
Si Si3 0.476423 0.701837 0.597312
Si Si4 0.248917 0.202184 0.536182
Si Si5 0.132588 0.208729 0.677766
O O1 0.695824 0.759930 0.621613
O O2 0.903252 0.740481 0.549157
O O3 0.974708 0.425490 0.665325
O O4 0.058800 0.926829 0.685514
O O5 0.443719 0.680271 0.675045
O O6 0.327485 0.317019 0.742766
O O7 0.409744 0.423319 0.557859
O O8 0.344975 0.923514 0.543056
O O9 0.168607 0.214074 0.600482
#
# Coordination Sequence:
#
# PCOD9237106 Si02
#       5
#     4   2   4   4   4
#     4  12  23  41  68 102 123 160 215 269 315 364
#     4  10  26  48  60  88 128 182 214 246 324 376
#     4  11  24  42  68  92 132 169 207 260 312 384
#     4  11  22  42  67  98 130 165 202 259 330 379
#     4  11  24  41  66  91 131 167 209 263 310 381
#
# _framework density 25.839638000000001
#
# number of rings (size 3 to 8) (size 9 to 14) (size 15 to 20)
#    0.000    0.889    0.000    8.000    0.000    8.889 
#    0.000    4.444    0.000    0.000    0.000    0.000 
#    0.000    0.000    0.000    0.000    0.000    0.000 
#
# Total GULP energy -101095.221428 kJ/mol
# GULP energy per Si atom -5616.401190 kJ/mol
# Density = 2.578083 g / cm^3
# Si number density = 25.839638 Si / 1000 Ang^3
#
#
#
# Elastic Constant Matrix: (Units=GPa)
#
#
# Indices 1 2 3 4 5 6 
#
# 1 91.1358 19.2373 -2.3154 0.0000 2.5707 0.0000
# 2 19.2373 105.6307 -4.7146 0.0000 7.5936 0.0000
# 3 -2.3154 -4.7146 76.8878 0.0000 -3.5737 0.0000
# 4 0.0000 0.0000 0.0000 25.3704 0.0000 23.0648
# 5 2.5707 7.5936 -3.5737 0.0000 42.3253 0.0000
# 6 0.0000 0.0000 0.0000 23.0648 0.0000 32.9306
#
#
#
# Elastic Compliance Matrix: (Units=1/GPa)
#
#
# Indices 1 2 3 4 5 6 
#
# 1 0.011419 -0.002048 0.000204 0.000000 -0.000309 0.000000
# 2 -0.002048 0.009978 0.000475 0.000000 -0.001626 0.000000
# 3 0.000204 0.000475 0.013088 0.000000 0.001008 0.000000
# 4 0.000000 0.000000 0.000000 0.108512 0.000000 -0.076002
# 5 -0.000309 -0.001626 0.001008 0.000000 0.024022 0.000000
# 6 0.000000 0.000000 0.000000 -0.076002 0.000000 0.083599
#
#
# Mechanical properties :
#
#
# Convention : Reuss Voigt Hill
#
# Bulk Modulus (GPa) = 31.50065 33.11878 32.30971
# Shear Modulus (GPa) = 18.94375 37.55506 28.24940
#
# Velocity S-wave (km/s) = 2.71057 3.81647 3.31003
# Velocity P-wave (km/s) = 4.69186 5.68027 5.20956
#
# Compressibility (1/GPa) = 0.03174538
#
# Stress axis : x y z
#
# Youngs Moduli (GPa) = 87.57420 100.22025 76.40564
#
# Poissons Ratio (x) = 0.20528 -0.01558
# Poissons Ratio (y) = 0.17938 -0.03626
# Poissons Ratio (z) = -0.01786 -0.04756
#
# Static dielectric constant tensor:
#      x y z
#    x 2.021980 0.000000 -0.058620 
#    y 0.000000 1.969420 0.000000 
#    z -0.058620 0.000000 2.071820 
# 
# From -- ./inp_files/62076.got.cif
#   From: 2010.05.17/outbox.cif.g08.bks.cpg/sg13_32_cif.got.tgz:62076.got - 2010.06.03 16:44:36.
