data_PCOD9237146
_publ_section_title
;
Structure prediction by ZEFSAII (Michael W. Deem and Ramdas Pophale) SiO2 
 PCOD9237146
Probable space group: P 2/C
;
_chemical_formula_sum "Si O2"
_cell_formula_units_Z 32
_cell_length_a 15.221868
_cell_length_b 22.171902
_cell_length_c 9.082612
_cell_angle_alpha 90.000000
_cell_angle_beta 146.632564
_cell_angle_gamma 90.000000
_cell_volume 1685.967592
_symmetry_space_group_name_H-M "P 2/C"
_symmetry_group_IT_number 13
_symmetry_cell_setting 'monoclinic'
loop_
_space_group_symop_operation_xyz
x,y,z
-x,y,1/2-z
-x,-y,-z
x,-y,1/2+z
loop_
_atom_site_type_symbol
_atom_site_label
_atom_site_fract_x
_atom_site_fract_y
_atom_site_fract_z
Si Si1 0.096610 0.546994 0.235177
Si Si2 0.347909 0.250565 0.945122
Si Si3 0.635868 0.957722 0.258053
Si Si4 0.520188 0.828660 0.439440
Si Si5 0.836188 0.634861 0.427481
Si Si6 0.610636 0.464201 0.768917
Si Si7 0.826367 0.836794 0.066442
Si Si8 0.164013 0.036305 0.746146
O O1 0.122569 0.605200 0.172141
O O2 0.262231 0.513820 0.499589
O O3 0.000000 0.558001 0.250000
O O4 0.000000 0.500000 0.000000
O O5 0.425156 0.208087 0.929738
O O6 0.246318 0.301905 0.723462
O O7 0.242933 0.209693 0.909384
O O8 0.500000 0.276138 0.250000
O O9 0.561134 0.893641 0.186610
O O10 0.771394 0.948602 0.324646
O O11 0.711559 0.991320 0.502129
O O12 0.500000 0.000000 0.000000
O O13 0.500000 0.799645 0.250000
O O14 0.698738 0.837255 0.753684
O O15 0.712759 0.589626 0.337705
O O16 0.000000 0.639267 0.750000
O O17 0.500000 0.443270 0.750000
O O18 0.500000 0.500000 0.500000
O O19 0.841740 0.903090 0.163152
O O20 0.000000 0.819192 0.250000
O O21 0.000000 0.000000 0.500000
#
# Coordination Sequence:
#
# PCOD9237146 Si02
#       8
#     4   4   4   4   4   4   4   4
#     4  12  21  42  67  98 140 180 214 267 339 394
#     4  10  26  50  71  92 131 185 229 269 324 396
#     4  12  23  39  66  96 131 168 215 272 341 402
#     4  11  24  45  70  97 128 175 223 277 334 398
#     4  12  26  45  68 102 139 178 226 272 326 399
#     4  12  23  38  67 104 138 176 217 273 330 387
#     4  11  24  46  69  94 134 174 221 277 335 395
#     4  12  25  41  60 100 135 168 215 277 337 404
#
# _framework density 18.980197
#
# number of rings (size 3 to 8) (size 9 to 14) (size 15 to 20)
#    0.000    0.500    6.250    2.250    3.500    2.000 
#    0.000    2.500    0.000    0.000    0.000    0.000 
#    0.000    0.000    0.000    0.000    0.000    0.000 
#
# Total GULP energy -178914.531815 kJ/mol
# GULP energy per Si atom -5591.079119 kJ/mol
# Density = 1.893700 g / cm^3
# Si number density = 18.980197 Si / 1000 Ang^3
#
#
#
# Elastic Constant Matrix: (Units=GPa)
#
#
# Indices 1 2 3 4 5 6 
#
# 1 152.4420 26.9888 53.6319 0.0000 6.2400 0.0000
# 2 26.9888 86.6936 66.2774 0.0000 4.5816 0.0000
# 3 53.6319 66.2774 158.3749 0.0000 7.9599 0.0000
# 4 0.0000 0.0000 0.0000 37.1873 0.0000 -0.1284
# 5 6.2400 4.5816 7.9599 0.0000 32.0796 0.0000
# 6 0.0000 0.0000 0.0000 -0.1284 0.0000 17.7082
#
#
#
# Elastic Compliance Matrix: (Units=1/GPa)
#
#
# Indices 1 2 3 4 5 6 
#
# 1 0.007488 -0.000560 -0.002260 0.000000 -0.000816 0.000000
# 2 -0.000560 0.017017 -0.006901 0.000000 -0.000609 0.000000
# 3 -0.002260 -0.006901 0.010021 0.000000 -0.001061 0.000000
# 4 0.000000 0.000000 0.000000 0.026892 0.000000 0.000195
# 5 -0.000816 -0.000609 -0.001061 0.000000 0.031681 0.000000
# 6 0.000000 0.000000 0.000000 0.000195 0.000000 0.056472
#
#
# Mechanical properties :
#
#
# Convention : Reuss Voigt Hill
#
# Bulk Modulus (GPa) = 66.29969 76.81187 71.55578
# Shear Modulus (GPa) = 28.72869 34.10252 31.41560
#
# Velocity S-wave (km/s) = 3.89474 4.24340 4.07280
# Velocity P-wave (km/s) = 7.43183 8.03529 7.73945
#
# Compressibility (1/GPa) = 0.01508303
#
# Stress axis : x y z
#
# Youngs Moduli (GPa) = 133.55421 58.76327 99.79058
#
# Poissons Ratio (x) = 0.03290 0.22556
# Poissons Ratio (y) = 0.07477 0.68869
# Poissons Ratio (z) = 0.30187 0.40554
#
# Static dielectric constant tensor:
#      x y z
#    x 1.691410 0.000000 -0.012910 
#    y 0.000000 1.634520 0.000000 
#    z -0.012910 0.000000 1.608030 
# 
# From -- ./inp_files/20233.got.cif
#   From: 2010.05.17/outbox.cif.g08.bks.cpg/sg13_11_cif.got.tgz:20233.got - 2010.06.03 16:44:36.
