data_PCOD9237019
_publ_section_title
;
Structure prediction by ZEFSAII (Michael W. Deem and Ramdas Pophale) SiO2 
 PCOD9237019
Probable space group: P 2/C
;
_chemical_formula_sum "Si O2"
_cell_formula_units_Z 20
_cell_length_a 10.328913
_cell_length_b 4.901930
_cell_length_c 23.024407
_cell_angle_alpha 90.000000
_cell_angle_beta 42.420895
_cell_angle_gamma 90.000000
_cell_volume 786.390506
_symmetry_space_group_name_H-M "P 2/C"
_symmetry_group_IT_number 13
_symmetry_cell_setting 'monoclinic'
loop_
_space_group_symop_operation_xyz
x,y,z
-x,y,1/2-z
-x,-y,-z
x,-y,1/2+z
loop_
_atom_site_type_symbol
_atom_site_label
_atom_site_fract_x
_atom_site_fract_y
_atom_site_fract_z
Si Si1 0.229351 0.030360 0.933930
Si Si2 0.574302 0.356519 0.820528
Si Si3 0.841905 0.078658 0.914706
Si Si4 0.302839 0.429792 0.096881
Si Si5 0.263230 0.848417 0.794741
O O1 0.342207 0.321778 0.900307
O O2 0.306335 0.910549 0.847724
O O3 0.261797 0.909681 0.987936
O O4 0.000000 0.000000 0.000000
O O5 0.666096 0.478873 0.847968
O O6 0.666666 0.544989 0.740756
O O7 0.642440 0.051629 0.783575
O O8 0.736875 0.884750 0.903046
O O9 0.040443 0.923896 0.860521
O O10 0.854108 0.376232 0.882475
O O11 0.500000 0.500000 0.000000
#
# Coordination Sequence:
#
# PCOD9237019 Si02
#       5
#     4   4   4   4   4
#     4  10  25  49  75 105 148 196 247 300 364 449
#     4  12  26  46  73 107 148 193 244 308 370 428
#     4  11  25  47  75 106 145 196 245 299 368 439
#     4  12  25  44  75 106 146 189 249 302 361 446
#     4  11  27  47  72 109 148 191 244 306 371 436
#
# _framework density 25.432655
#
# number of rings (size 3 to 8) (size 9 to 14) (size 15 to 20)
#    0.000    0.800    2.000    3.600    2.800    9.600 
#    0.000    9.000    0.000    0.000    0.000    0.000 
#    0.000    0.000    0.000    0.000    0.000    0.000 
#
# Total GULP energy -111872.871798 kJ/mol
# GULP energy per Si atom -5593.643590 kJ/mol
# Density = 2.537477 g / cm^3
# Si number density = 25.432655 Si / 1000 Ang^3
#
#
#
# Elastic Constant Matrix: (Units=GPa)
#
#
# Indices 1 2 3 4 5 6 
#
# 1 127.7742 24.2230 49.0678 0.0000 28.9605 0.0000
# 2 24.2230 94.4616 11.0034 0.0000 4.4551 0.0000
# 3 49.0678 11.0034 94.6748 0.0000 23.9204 0.0000
# 4 0.0000 0.0000 0.0000 44.2112 0.0000 0.8226
# 5 28.9605 4.4551 23.9204 0.0000 52.1978 0.0000
# 6 0.0000 0.0000 0.0000 0.8226 0.0000 32.2597
#
#
#
# Elastic Compliance Matrix: (Units=1/GPa)
#
#
# Indices 1 2 3 4 5 6 
#
# 1 0.010758 -0.002070 -0.004379 0.000000 -0.003786 0.000000
# 2 -0.002070 0.011137 -0.000307 0.000000 0.000339 0.000000
# 3 -0.004379 -0.000307 0.013851 0.000000 -0.003892 0.000000
# 4 0.000000 0.000000 0.000000 0.022629 0.000000 -0.000577
# 5 -0.003786 0.000339 -0.003892 0.000000 0.023013 0.000000
# 6 0.000000 0.000000 0.000000 -0.000577 0.000000 0.031013
#
#
# Mechanical properties :
#
#
# Convention : Reuss Voigt Hill
#
# Bulk Modulus (GPa) = 44.97564 53.94433 49.45998
# Shear Modulus (GPa) = 37.50244 41.24151 39.37198
#
# Velocity S-wave (km/s) = 3.84419 4.03127 3.93884
# Velocity P-wave (km/s) = 6.11771 6.55171 6.33842
#
# Compressibility (1/GPa) = 0.02223426
#
# Stress axis : x y z
#
# Youngs Moduli (GPa) = 92.95144 89.79113 72.19792
#
# Poissons Ratio (x) = 0.18588 0.31613
# Poissons Ratio (y) = 0.19243 0.02217
# Poissons Ratio (z) = 0.40701 0.02757
#
# Static dielectric constant tensor:
#      x y z
#    x 2.086460 0.000000 -0.075510 
#    y 0.000000 1.284340 0.000000 
#    z -0.075510 0.000000 2.061680 
# 
# From -- ./inp_files/85493.got.cif
#   From: 2010.05.17/outbox.cif.g08.bks.cpg/sg13_43_cif.got.tgz:85493.got - 2010.06.03 16:44:36.
