data_PCOD9237637
_publ_section_title
;
Structure prediction by ZEFSAII (Michael W. Deem and Ramdas Pophale) SiO2 
 PCOD9237637
Probable space group: P 2/C
;
_chemical_formula_sum "Si O2"
_cell_formula_units_Z 28
_cell_length_a 14.919119
_cell_length_b 9.591982
_cell_length_c 13.694681
_cell_angle_alpha 90.000000
_cell_angle_beta 41.967231
_cell_angle_gamma 90.000000
_cell_volume 1310.503940
_symmetry_space_group_name_H-M "P 2/C"
_symmetry_group_IT_number 13
_symmetry_cell_setting 'monoclinic'
loop_
_space_group_symop_operation_xyz
x,y,z
-x,y,1/2-z
-x,-y,-z
x,-y,1/2+z
loop_
_atom_site_type_symbol
_atom_site_label
_atom_site_fract_x
_atom_site_fract_y
_atom_site_fract_z
Si Si1 0.500000 0.870411 0.750000
Si Si2 0.000000 0.025392 0.250000
Si Si3 0.778497 0.257490 0.489958
Si Si4 0.301543 0.408029 0.130646
Si Si5 0.371058 0.894209 0.216720
Si Si6 0.001436 0.365100 0.061795
Si Si7 0.908151 0.897899 0.133243
Si Si8 0.558950 0.301811 0.018151
O O1 0.423093 0.770066 0.890233
O O2 0.567057 0.977801 0.773287
O O3 0.125040 0.126047 0.118245
O O4 0.053706 0.922514 0.288036
O O5 0.686236 0.324065 0.481323
O O6 0.683414 0.209950 0.655400
O O7 0.891037 0.365284 0.437762
O O8 0.152114 0.356207 0.279552
O O9 0.410264 0.367347 0.125006
O O10 0.332755 0.573095 0.086858
O O11 0.240807 0.947553 0.265750
O O12 0.439775 0.808603 0.073165
O O13 0.000000 0.500000 0.000000
O O14 0.057292 0.247812 0.943546
O O15 0.000000 0.000000 0.000000
#
# Coordination Sequence:
#
# PCOD9237637 Si02
#       8
#     2   2   4   4   4   4   4   4
#     4  12  28  44  70 104 132 186 244 288 342 418
#     4  12  22  40  66 112 128 182 224 272 374 402
#     4  11  22  42  73 100 138 182 226 288 366 411
#     4  11  23  46  70  94 144 180 231 287 338 431
#     4  11  25  46  66 101 142 176 228 294 346 419
#     4  11  23  44  68 105 140 182 229 291 355 417
#     4  11  23  42  70 101 139 178 222 289 357 413
#     4  11  28  45  68  99 132 192 232 282 351 412
#
# _framework density 21.365828
#
# number of rings (size 3 to 8) (size 9 to 14) (size 15 to 20)
#    0.000    0.857    4.286    3.000    6.000    3.429 
#    5.143    0.000    0.000    0.000    0.000    0.000 
#    0.000    0.000    0.000    0.000    0.000    0.000 
#
# Total GULP energy -156061.071318 kJ/mol
# GULP energy per Si atom -5573.609690 kJ/mol
# Density = 2.131720 g / cm^3
# Si number density = 21.365828 Si / 1000 Ang^3
#
#
#
# Elastic Constant Matrix: (Units=GPa)
#
#
# Indices 1 2 3 4 5 6 
#
# 1 119.2274 23.8609 12.6548 0.0000 11.9649 0.0000
# 2 23.8609 70.1527 6.4043 0.0000 6.8810 0.0000
# 3 12.6548 6.4043 62.5650 0.0000 15.4277 0.0000
# 4 0.0000 0.0000 0.0000 29.5308 0.0000 2.0723
# 5 11.9649 6.8810 15.4277 0.0000 39.2315 0.0000
# 6 0.0000 0.0000 0.0000 2.0723 0.0000 42.4968
#
#
#
# Elastic Compliance Matrix: (Units=1/GPa)
#
#
# Indices 1 2 3 4 5 6 
#
# 1 0.009269 -0.002866 -0.001117 0.000000 -0.001885 0.000000
# 2 -0.002866 0.015441 -0.000608 0.000000 -0.001595 0.000000
# 3 -0.001117 -0.000608 0.017897 0.000000 -0.006591 0.000000
# 4 0.000000 0.000000 0.000000 0.033979 0.000000 -0.001657
# 5 -0.001885 -0.001595 -0.006591 0.000000 0.028936 0.000000
# 6 0.000000 0.000000 0.000000 -0.001657 0.000000 0.023612
#
#
# Mechanical properties :
#
#
# Convention : Reuss Voigt Hill
#
# Bulk Modulus (GPa) = 29.91609 37.53167 33.72388
# Shear Modulus (GPa) = 33.45474 36.18683 34.82079
#
# Velocity S-wave (km/s) = 3.96132 4.11990 4.04139
# Velocity P-wave (km/s) = 5.91227 6.34317 6.13151
#
# Compressibility (1/GPa) = 0.03342682
#
# Stress axis : x y z
#
# Youngs Moduli (GPa) = 107.89219 64.76152 55.87654
#
# Poissons Ratio (x) = 0.18558 0.06239
# Poissons Ratio (y) = 0.30918 0.03395
# Poissons Ratio (z) = 0.12047 0.03935
#
# Static dielectric constant tensor:
#      x y z
#    x 1.665520 0.000000 0.201570 
#    y 0.000000 1.759770 0.000000 
#    z 0.201570 0.000000 1.177460 
# 
# From -- ./inp_files/53331.got.cif
#   From: 2010.05.17/outbox.cif.g08.bks.cpg/sg13_27_cif.got.tgz:53331.got - 2010.06.03 16:44:36.
