data_PCOD9237413
_publ_section_title
;
Structure prediction by ZEFSAII (Michael W. Deem and Ramdas Pophale) SiO2 
 PCOD9237413
Probable space group: P 2/C
;
_chemical_formula_sum "Si O2"
_cell_formula_units_Z 28
_cell_length_a 25.487148
_cell_length_b 9.567904
_cell_length_c 9.016646
_cell_angle_alpha 90.000000
_cell_angle_beta 36.214957
_cell_angle_gamma 90.000000
_cell_volume 1299.078935
_symmetry_space_group_name_H-M "P 2/C"
_symmetry_group_IT_number 13
_symmetry_cell_setting 'monoclinic'
loop_
_space_group_symop_operation_xyz
x,y,z
-x,y,1/2-z
-x,-y,-z
x,-y,1/2+z
loop_
_atom_site_type_symbol
_atom_site_label
_atom_site_fract_x
_atom_site_fract_y
_atom_site_fract_z
Si Si1 0.993710 0.349085 0.587108
Si Si2 0.259067 0.100820 0.790825
Si Si3 0.559881 0.592274 0.255444
Si Si4 0.682100 0.154884 0.510584
Si Si5 0.200727 0.642671 0.959096
Si Si6 0.943539 0.104932 0.230152
Si Si7 0.733381 0.406522 0.865522
O O1 0.000000 0.350453 0.750000
O O2 0.000000 0.500000 0.500000
O O3 0.063024 0.245864 0.352335
O O4 0.894187 0.297489 0.778408
O O5 0.269153 0.252194 0.693406
O O6 0.324630 0.988896 0.565443
O O7 0.279077 0.116317 0.918530
O O8 0.156018 0.056015 0.005676
O O9 0.500000 0.621058 0.250000
O O10 0.500000 0.500000 0.500000
O O11 0.598382 0.741035 0.223050
O O12 0.644589 0.493109 0.030533
O O13 0.748463 0.247966 0.259354
O O14 0.190741 0.501622 0.883984
O O15 0.252426 0.603451 0.990997
O O16 0.000000 0.130324 0.250000
O O17 0.000000 0.000000 0.000000
#
# Coordination Sequence:
#
# PCOD9237413 Si02
#       7
#     4   4   4   4   4   4   4
#     4  12  23  37  57  87 124 166 214 270 313 350
#     4  12  23  42  62  92 127 167 213 254 306 374
#     4  11  23  44  69  96 122 153 199 253 312 382
#     4  11  24  41  65  91 125 166 204 254 311 375
#     4  11  21  39  59  90 123 166 216 256 306 373
#     4  12  24  40  61  89 125 171 215 263 309 354
#     4  11  22  39  66  91 123 165 204 256 314 374
#
# _framework density 21.553733000000001
#
# number of rings (size 3 to 8) (size 9 to 14) (size 15 to 20)
#    0.000    0.571    0.000   11.143    0.000    0.000 
#    0.000    3.571    0.000    0.000    0.000    0.000 
#    0.000    0.000    0.000    0.000    0.000    0.000 
#
# Total GULP energy -156648.468548 kJ/mol
# GULP energy per Si atom -5594.588162 kJ/mol
# Density = 2.150468 g / cm^3
# Si number density = 21.553733 Si / 1000 Ang^3
#
#
#
# Elastic Constant Matrix: (Units=GPa)
#
#
# Indices 1 2 3 4 5 6 
#
# 1 133.2721 14.8649 22.8245 0.0000 23.4226 0.0000
# 2 14.8649 126.5536 20.5997 0.0000 17.9684 0.0000
# 3 22.8245 20.5997 64.9165 0.0000 8.5016 0.0000
# 4 0.0000 0.0000 0.0000 46.8023 0.0000 9.0839
# 5 23.4226 17.9684 8.5016 0.0000 51.4886 0.0000
# 6 0.0000 0.0000 0.0000 9.0839 0.0000 24.0777
#
#
#
# Elastic Compliance Matrix: (Units=1/GPa)
#
#
# Indices 1 2 3 4 5 6 
#
# 1 0.008551 -0.000106 -0.002523 0.000000 -0.003437 0.000000
# 2 -0.000106 0.008668 -0.002375 0.000000 -0.002585 0.000000
# 3 -0.002523 -0.002375 0.017157 0.000000 -0.000856 0.000000
# 4 0.000000 0.000000 0.000000 0.023055 0.000000 -0.008698
# 5 -0.003437 -0.002585 -0.000856 0.000000 0.022028 0.000000
# 6 0.000000 0.000000 0.000000 -0.008698 0.000000 0.044814
#
#
# Mechanical properties :
#
#
# Convention : Reuss Voigt Hill
#
# Bulk Modulus (GPa) = 41.03565 49.03559 45.03562
# Shear Modulus (GPa) = 35.11152 42.23726 38.67439
#
# Velocity S-wave (km/s) = 4.04049 4.43157 4.24054
# Velocity P-wave (km/s) = 6.39121 6.99892 6.70196
#
# Compressibility (1/GPa) = 0.02436906
#
# Stress axis : x y z
#
# Youngs Moduli (GPa) = 116.94106 115.37032 58.28452
#
# Poissons Ratio (x) = 0.01221 0.14705
# Poissons Ratio (y) = 0.01238 0.13841
# Poissons Ratio (z) = 0.29504 0.27398
#
# Static dielectric constant tensor:
#      x y z
#    x 1.759370 0.000000 -0.036780 
#    y 0.000000 1.762950 0.000000 
#    z -0.036780 0.000000 1.805040 
# 
# From -- ./inp_files/24544.got.cif
#   From: 2010.05.17/outbox.cif.g08.bks.cpg/sg13_13_cif.got.tgz:24544.got - 2010.06.03 16:44:36.
