data_PCOD9237696
_publ_section_title
;
Structure prediction by ZEFSAII (Michael W. Deem and Ramdas Pophale) SiO2 
 PCOD9237696
Probable space group: P 2/C
;
_chemical_formula_sum "Si O2"
_cell_formula_units_Z 14
_cell_length_a 6.618449
_cell_length_b 8.185449
_cell_length_c 13.972955
_cell_angle_alpha 90.000000
_cell_angle_beta 124.130382
_cell_angle_gamma 90.000000
_cell_volume 626.603718
_symmetry_space_group_name_H-M "P 2/C"
_symmetry_group_IT_number 13
_symmetry_cell_setting 'monoclinic'
loop_
_space_group_symop_operation_xyz
x,y,z
-x,y,1/2-z
-x,-y,-z
x,-y,1/2+z
loop_
_atom_site_type_symbol
_atom_site_label
_atom_site_fract_x
_atom_site_fract_y
_atom_site_fract_z
Si Si1 0.847470 0.766232 0.467329
Si Si2 0.267631 0.183246 0.358916
Si Si3 0.500000 0.031044 0.750000
Si Si4 0.639105 0.404225 0.388802
O O1 0.773335 0.867887 0.542517
O O2 0.728349 0.861516 0.347526
O O3 0.731661 0.585248 0.433241
O O4 0.134609 0.723357 0.547206
O O5 0.438116 0.341382 0.408641
O O6 0.000000 0.226672 0.250000
O O7 0.394697 0.068636 0.313291
O O8 0.500000 0.401396 0.250000
#
# Coordination Sequence:
#
# PCOD9237696 Si02
#       4
#     4   4   2   4
#     4  11  25  44  73  98 134 175 224 281 330 393
#     4  12  24  44  68  98 138 179 217 276 334 396
#     4  12  26  42  66 104 140 174 220 268 340 406
#     4  11  22  47  71  98 131 173 230 281 326 389
#
# _framework density 22.342670999999999
#
# number of rings (size 3 to 8) (size 9 to 14) (size 15 to 20)
#    0.000    0.571    5.714    1.714    0.000    6.857 
#    0.000    1.429    0.000    0.000    0.000    0.000 
#    0.000    0.000    0.000    0.000    0.000    0.000 
#
# Total GULP energy -78216.142667 kJ/mol
# GULP energy per Si atom -5586.867333 kJ/mol
# Density = 2.229182 g / cm^3
# Si number density = 22.342671 Si / 1000 Ang^3
#
#
#
# Elastic Constant Matrix: (Units=GPa)
#
#
# Indices 1 2 3 4 5 6 
#
# 1 94.3637 52.6980 68.8007 0.0000 19.7558 0.0000
# 2 52.6980 93.1241 46.8202 0.0000 12.2874 0.0000
# 3 68.8007 46.8202 160.4876 0.0000 17.8787 0.0000
# 4 0.0000 0.0000 0.0000 37.9998 0.0000 11.4559
# 5 19.7558 12.2874 17.8787 0.0000 45.9284 0.0000
# 6 0.0000 0.0000 0.0000 11.4559 0.0000 8.7711
#
#
#
# Elastic Compliance Matrix: (Units=1/GPa)
#
#
# Indices 1 2 3 4 5 6 
#
# 1 0.020192 -0.007909 -0.005872 0.000000 -0.004284 0.000000
# 2 -0.007909 0.015865 -0.001196 0.000000 -0.000377 0.000000
# 3 -0.005872 -0.001196 0.009178 0.000000 -0.000727 0.000000
# 4 0.000000 0.000000 0.000000 0.043408 0.000000 -0.056694
# 5 -0.004284 -0.000377 -0.000727 0.000000 0.024000 0.000000
# 6 0.000000 0.000000 0.000000 -0.056694 0.000000 0.188058
#
#
# Mechanical properties :
#
#
# Convention : Reuss Voigt Hill
#
# Bulk Modulus (GPa) = 65.43688 76.06814 70.75251
# Shear Modulus (GPa) = 14.89212 30.51698 22.70455
#
# Velocity S-wave (km/s) = 2.58453 3.69977 3.19124
# Velocity P-wave (km/s) = 6.18529 7.23678 6.73160
#
# Compressibility (1/GPa) = 0.01528190
#
# Stress axis : x y z
#
# Youngs Moduli (GPa) = 49.52426 63.03178 108.95552
#
# Poissons Ratio (x) = 0.49853 0.63975
# Poissons Ratio (y) = 0.39170 0.13029
# Poissons Ratio (z) = 0.29079 0.07537
#
# Static dielectric constant tensor:
#      x y z
#    x 1.845040 0.000000 -0.037760 
#    y 0.000000 1.837480 0.000000 
#    z -0.037760 0.000000 1.830060 
# 
# From -- ./inp_files/25236.got.cif
#   From: 2010.05.17/outbox.cif.g08.bks.cpg/sg13_13_cif.got.tgz:25236.got - 2010.06.03 16:44:36.
