data_PCOD9237604
_publ_section_title
;
Structure prediction by ZEFSAII (Michael W. Deem and Ramdas Pophale) SiO2 
 PCOD9237604
Probable space group: P 2/C
;
_chemical_formula_sum "Si O2"
_cell_formula_units_Z 28
_cell_length_a 22.503397
_cell_length_b 11.341541
_cell_length_c 27.131341
_cell_angle_alpha 90.000000
_cell_angle_beta 168.358133
_cell_angle_gamma 90.000000
_cell_volume 1397.329814
_symmetry_space_group_name_H-M "P 2/C"
_symmetry_group_IT_number 13
_symmetry_cell_setting 'monoclinic'
loop_
_space_group_symop_operation_xyz
x,y,z
-x,y,1/2-z
-x,-y,-z
x,-y,1/2+z
loop_
_atom_site_type_symbol
_atom_site_label
_atom_site_fract_x
_atom_site_fract_y
_atom_site_fract_z
Si Si1 0.246907 0.205683 0.085365
Si Si2 0.318368 0.444328 0.775575
Si Si3 0.192323 0.067777 0.528562
Si Si4 0.292277 0.789544 0.197449
Si Si5 0.331521 0.349957 0.899074
Si Si6 0.246285 0.017160 0.411681
Si Si7 0.297322 0.189762 0.234139
O O1 0.500000 0.212721 0.250000
O O2 0.326826 0.253403 0.204797
O O3 0.193675 0.065431 0.052248
O O4 0.966004 0.274577 0.835673
O O5 0.368121 0.341013 0.776343
O O6 0.312024 0.388900 0.825936
O O7 0.000000 0.500000 0.500000
O O8 0.586869 0.537070 0.000532
O O9 0.500000 0.078620 0.750000
O O10 0.151652 0.178884 0.530844
O O11 0.925997 0.061200 0.275152
O O12 0.577658 0.871228 0.425633
O O13 0.047635 0.835233 0.037811
O O14 0.595489 0.265670 0.132005
O O15 0.000000 0.971817 0.250000
O O16 0.484425 0.919873 0.591310
#
# Coordination Sequence:
#
# PCOD9237604 Si02
#       7
#     4   4   4   4   4   4   4
#     4  11  22  41  66  99 142 177 216 280 350 412
#     4  11  24  46  67  93 132 177 228 288 335 385
#     4  11  23  40  64 100 143 180 211 265 352 417
#     4  12  25  40  70  98 135 173 228 281 321 410
#     4  11  23  41  72  93 131 178 224 278 352 387
#     4  12  24  42  67  99 144 181 208 268 358 415
#     4  12  24  40  66 109 130 166 229 283 334 403
#
# _framework density 20.038218000000001
#
# number of rings (size 3 to 8) (size 9 to 14) (size 15 to 20)
#    0.000    0.571    7.143    1.286    2.000    0.571 
#    0.000    0.000    6.286    0.857    0.000    0.000 
#    0.000    0.000    0.000    0.000    0.000    0.000 
#
# Total GULP energy -156034.975896 kJ/mol
# GULP energy per Si atom -5572.677711 kJ/mol
# Density = 1.999261 g / cm^3
# Si number density = 20.038218 Si / 1000 Ang^3
#
#
#
# Elastic Constant Matrix: (Units=GPa)
#
#
# Indices 1 2 3 4 5 6 
#
# 1 92.2182 28.1886 30.8327 0.0000 -24.4265 0.0000
# 2 28.1886 98.8106 25.6811 0.0000 -2.9566 0.0000
# 3 30.8327 25.6811 76.2129 0.0000 -12.8790 0.0000
# 4 0.0000 0.0000 0.0000 29.7026 0.0000 -28.8712
# 5 -24.4265 -2.9566 -12.8790 0.0000 39.1145 0.0000
# 6 0.0000 0.0000 0.0000 -28.8712 0.0000 49.5370
#
#
#
# Elastic Compliance Matrix: (Units=1/GPa)
#
#
# Indices 1 2 3 4 5 6 
#
# 1 0.015165 -0.003117 -0.003732 0.000000 0.008006 0.000000
# 2 -0.003117 0.011739 -0.003043 0.000000 -0.002061 0.000000
# 3 -0.003732 -0.003043 0.016121 0.000000 0.002747 0.000000
# 4 0.000000 0.000000 0.000000 0.077664 0.000000 0.045264
# 5 0.008006 -0.002061 0.002747 0.000000 0.031314 0.000000
# 6 0.000000 0.000000 0.000000 0.045264 0.000000 0.046568
#
#
# Mechanical properties :
#
#
# Convention : Reuss Voigt Hill
#
# Bulk Modulus (GPa) = 43.02756 48.51628 45.77192
# Shear Modulus (GPa) = 22.11403 35.84011 28.97707
#
# Velocity S-wave (km/s) = 3.32564 4.23376 3.80687
# Velocity P-wave (km/s) = 6.02212 6.94003 6.49730
#
# Compressibility (1/GPa) = 0.02324092
#
# Stress axis : x y z
#
# Youngs Moduli (GPa) = 65.94172 85.18839 62.03255
#
# Poissons Ratio (x) = 0.26551 0.23151
# Poissons Ratio (y) = 0.20552 0.18876
# Poissons Ratio (z) = 0.24609 0.25922
#
# Static dielectric constant tensor:
#      x y z
#    x 1.688340 0.000000 0.091760 
#    y 0.000000 1.765690 0.000000 
#    z 0.091760 0.000000 1.559990 
# 
# From -- ./inp_files/97727.got.cif
#   From: 2010.05.17/outbox.cif.g08.bks.cpg/sg13_49_cif.got.tgz:97727.got - 2010.06.03 16:44:36.
