data_PCOD9237520
_publ_section_title
;
Structure prediction by ZEFSAII (Michael W. Deem and Ramdas Pophale) SiO2 
 PCOD9237520
Probable space group: P 2/C
;
_chemical_formula_sum "Si O2"
_cell_formula_units_Z 28
_cell_length_a 6.949851
_cell_length_b 11.583960
_cell_length_c 24.040072
_cell_angle_alpha 90.000000
_cell_angle_beta 50.667469
_cell_angle_gamma 90.000000
_cell_volume 1496.985723
_symmetry_space_group_name_H-M "P 2/C"
_symmetry_group_IT_number 13
_symmetry_cell_setting 'monoclinic'
loop_
_space_group_symop_operation_xyz
x,y,z
-x,y,1/2-z
-x,-y,-z
x,-y,1/2+z
loop_
_atom_site_type_symbol
_atom_site_label
_atom_site_fract_x
_atom_site_fract_y
_atom_site_fract_z
Si Si1 0.000000 0.144219 0.750000
Si Si2 0.817300 0.434131 0.992163
Si Si3 0.309399 0.165787 0.018146
Si Si4 0.000000 0.469810 0.250000
Si Si5 0.400591 0.336533 0.705929
Si Si6 0.853774 0.932716 0.395760
Si Si7 0.870012 0.782072 0.069363
Si Si8 0.247296 0.404954 0.096191
O O1 0.783261 0.227903 0.767217
O O2 0.909320 0.074364 0.820203
O O3 0.848467 0.492537 0.926129
O O4 0.894730 0.301740 0.977476
O O5 0.528175 0.441072 0.060757
O O6 0.000000 0.500000 0.000000
O O7 0.266086 0.288599 0.056073
O O8 0.197758 0.062335 0.075045
O O9 0.600216 0.138579 0.954525
O O10 0.182549 0.163670 0.980803
O O11 0.764504 0.553519 0.280943
O O12 0.924253 0.397575 0.318215
O O13 0.500000 0.350539 0.750000
O O14 0.638951 0.302207 0.625605
O O15 0.071065 0.873695 0.392964
#
# Coordination Sequence:
#
# PCOD9237520 Si02
#       8
#     2   4   4   2   4   4   4   4
#     4  11  22  39  62  92 126 163 205 258 322 366
#     4  11  22  37  65  91 123 162 210 261 312 372
#     4  11  24  42  64  91 129 170 215 255 307 380
#     4  11  26  39  60  94 134 165 205 252 324 388
#     4  11  22  37  62  94 128 156 201 269 319 368
#     4  11  24  41  64  95 127 166 214 264 312 370
#     4  12  21  39  67  96 123 160 216 267 312 365
#     4  11  24  41  61  92 127 170 208 254 317 382
#
# _framework density 18.704253999999999
#
# number of rings (size 3 to 8) (size 9 to 14) (size 15 to 20)
#    0.000    0.857    5.714    2.143    4.000    0.571 
#    0.000    0.000    0.000    0.000    0.000    0.000 
#    0.000    0.000    0.000    0.000    0.000    0.000 
#
# Total GULP energy -156420.165596 kJ/mol
# GULP energy per Si atom -5586.434486 kJ/mol
# Density = 1.866168 g / cm^3
# Si number density = 18.704254 Si / 1000 Ang^3
#
#
#
# Elastic Constant Matrix: (Units=GPa)
#
#
# Indices 1 2 3 4 5 6 
#
# 1 107.5595 28.2812 26.0759 0.0000 13.0842 0.0000
# 2 28.2812 48.2857 22.8636 0.0000 19.0218 0.0000
# 3 26.0759 22.8636 111.6630 0.0000 18.1766 0.0000
# 4 0.0000 0.0000 0.0000 24.0993 0.0000 4.8543
# 5 13.0842 19.0218 18.1766 0.0000 23.8637 0.0000
# 6 0.0000 0.0000 0.0000 4.8543 0.0000 12.5047
#
#
#
# Elastic Compliance Matrix: (Units=1/GPa)
#
#
# Indices 1 2 3 4 5 6 
#
# 1 0.011191 -0.005688 -0.001356 0.000000 -0.000569 0.000000
# 2 -0.005688 0.033750 -0.001953 0.000000 -0.022296 0.000000
# 3 -0.001356 -0.001953 0.010614 0.000000 -0.005784 0.000000
# 4 0.000000 0.000000 0.000000 0.045015 0.000000 -0.017475
# 5 -0.000569 -0.022296 -0.005784 0.000000 0.064394 0.000000
# 6 0.000000 0.000000 0.000000 -0.017475 0.000000 0.086754
#
#
# Mechanical properties :
#
#
# Convention : Reuss Voigt Hill
#
# Bulk Modulus (GPa) = 26.62426 46.88330 36.75378
# Shear Modulus (GPa) = 17.71597 24.77937 21.24767
#
# Velocity S-wave (km/s) = 3.08094 3.64373 3.37409
# Velocity P-wave (km/s) = 5.18859 6.54388 5.90524
#
# Compressibility (1/GPa) = 0.03755972
#
# Stress axis : x y z
#
# Youngs Moduli (GPa) = 89.35931 29.62993 94.21911
#
# Poissons Ratio (x) = 0.16855 0.12776
# Poissons Ratio (y) = 0.50831 0.18398
# Poissons Ratio (z) = 0.12117 0.05786
#
# Static dielectric constant tensor:
#      x y z
#    x 1.657180 0.000000 -0.005970 
#    y 0.000000 1.640210 0.000000 
#    z -0.005970 0.000000 1.659190 
# 
# From -- ./inp_files/73557.got.cif
#   From: 2010.05.17/outbox.cif.g08.bks.cpg/sg13_37_cif.got.tgz:73557.got - 2010.06.03 16:44:36.
