data_PCOD9237882
_publ_section_title
;
Structure prediction by ZEFSAII (Michael W. Deem and Ramdas Pophale) SiO2 
 PCOD9237882
Probable space group: P 2/C
;
_chemical_formula_sum "Si O2"
_cell_formula_units_Z 14
_cell_length_a 10.857683
_cell_length_b 8.045570
_cell_length_c 11.438065
_cell_angle_alpha 90.000000
_cell_angle_beta 41.833725
_cell_angle_gamma 90.000000
_cell_volume 666.428537
_symmetry_space_group_name_H-M "P 2/C"
_symmetry_group_IT_number 13
_symmetry_cell_setting 'monoclinic'
loop_
_space_group_symop_operation_xyz
x,y,z
-x,y,1/2-z
-x,-y,-z
x,-y,1/2+z
loop_
_atom_site_type_symbol
_atom_site_label
_atom_site_fract_x
_atom_site_fract_y
_atom_site_fract_z
Si Si1 0.500000 0.155685 0.750000
Si Si2 0.782893 0.744328 0.871091
Si Si3 0.807135 0.054802 0.696233
Si Si4 0.898711 0.567439 0.191507
O O1 0.641360 0.265952 0.576358
O O2 0.636314 0.044978 0.729763
O O3 0.754373 0.582212 0.812685
O O4 0.000000 0.742682 0.750000
O O5 0.761330 0.924457 0.829335
O O6 0.827484 0.247185 0.717957
O O7 0.000000 0.000000 0.500000
O O8 0.000000 0.581681 0.250000
O O9 0.000000 0.500000 0.000000
#
# Coordination Sequence:
#
# PCOD9237882 Si02
#       4
#     2   4   4   4
#     4  12  26  44  70 108 144 194 250 300 368 440
#     4  11  23  45  70 100 146 184 242 306 362 435
#     4  12  23  44  72 100 146 193 241 309 362 433
#     4  11  23  43  76 108 141 197 245 298 375 436
#
# _framework density 21.007504000000001
#
# number of rings (size 3 to 8) (size 9 to 14) (size 15 to 20)
#    0.000    0.571    5.714    3.429    0.000    1.143 
#    0.000    2.857    0.000    0.000    0.000    0.000 
#    0.000    0.000    0.000    0.000    0.000    0.000 
#
# Total GULP energy -78005.635081 kJ/mol
# GULP energy per Si atom -5571.831077 kJ/mol
# Density = 2.095969 g / cm^3
# Si number density = 21.007504 Si / 1000 Ang^3
#
#
#
# Elastic Constant Matrix: (Units=GPa)
#
#
# Indices 1 2 3 4 5 6 
#
# 1 122.5839 38.0757 29.4892 0.0000 -8.0007 0.0000
# 2 38.0757 191.3806 47.0138 0.0000 10.5228 0.0000
# 3 29.4892 47.0138 173.4586 0.0000 2.1113 0.0000
# 4 0.0000 0.0000 0.0000 -188.6394 0.0000 39.9645
# 5 -8.0007 10.5228 2.1113 0.0000 32.9181 0.0000
# 6 0.0000 0.0000 0.0000 39.9645 0.0000 -2.3661
#
#
#
# Elastic Compliance Matrix: (Units=1/GPa)
#
#
# Indices 1 2 3 4 5 6 
#
# 1 0.009142 -0.001697 -0.001129 0.000000 0.002837 0.000000
# 2 -0.001697 0.006009 -0.001313 0.000000 -0.002249 0.000000
# 3 -0.001129 -0.001313 0.006316 0.000000 -0.000260 0.000000
# 4 0.000000 0.000000 0.000000 0.002056 0.000000 0.034727
# 5 0.002837 -0.002249 -0.000260 0.000000 0.031804 0.000000
# 6 0.000000 0.000000 0.000000 0.034727 0.000000 0.163918
#
#
# Mechanical properties :
#
#
# Convention : Reuss Voigt Hill
#
# Bulk Modulus (GPa) = 75.82096 79.62004 77.72050
# Shear Modulus (GPa) = 21.55938 -6.76121 7.39908
#
# Velocity S-wave (km/s) = 3.20702 -1.79596 1.87877
# Velocity P-wave (km/s) = 7.06286 5.80366 6.46399
#
# Compressibility (1/GPa) = 0.01318897
#
# Stress axis : x y z
#
# Youngs Moduli (GPa) = 109.39024 166.41538 158.33080
#
# Poissons Ratio (x) = 0.28249 0.17869
# Poissons Ratio (y) = 0.18569 0.20784
# Poissons Ratio (z) = 0.12346 0.21846
#
# Static dielectric constant tensor:
#      x y z
#    x 1.892670 0.000000 0.049410 
#    y 0.000000 1.780380 0.000000 
#    z 0.049410 0.000000 1.746670 
# 
# From -- ./inp_files/27226.got.cif
#   From: 2010.05.17/outbox.cif.g08.bks.cpg/sg13_14_cif.got.tgz:27226.got - 2010.06.03 16:44:36.
