data_PCOD9237641
_publ_section_title
;
Structure prediction by ZEFSAII (Michael W. Deem and Ramdas Pophale) SiO2 
 PCOD9237641
Probable space group: P 2/C
;
_chemical_formula_sum "Si O2"
_cell_formula_units_Z 16
_cell_length_a 8.197445
_cell_length_b 10.798345
_cell_length_c 10.253315
_cell_angle_alpha 90.000000
_cell_angle_beta 39.395983
_cell_angle_gamma 90.000000
_cell_volume 576.039567
_symmetry_space_group_name_H-M "P 2/C"
_symmetry_group_IT_number 13
_symmetry_cell_setting 'monoclinic'
loop_
_space_group_symop_operation_xyz
x,y,z
-x,y,1/2-z
-x,-y,-z
x,-y,1/2+z
loop_
_atom_site_type_symbol
_atom_site_label
_atom_site_fract_x
_atom_site_fract_y
_atom_site_fract_z
Si Si1 0.025238 0.703811 0.368373
Si Si2 0.244605 0.905667 0.815924
Si Si3 0.590637 0.792092 0.054742
Si Si4 0.678911 0.472136 0.515764
O O1 0.870631 0.772978 0.573750
O O2 0.902206 0.569961 0.418842
O O3 0.000000 0.781620 0.250000
O O4 0.326427 0.718991 0.191629
O O5 0.500000 0.914078 0.750000
O O6 0.321849 0.885942 0.613883
O O7 0.000000 0.000000 0.000000
O O8 0.500000 0.849035 0.250000
O O9 0.768124 0.671005 0.959374
O O10 0.500000 0.486406 0.750000
O O11 0.500000 0.500000 0.500000
#
# Coordination Sequence:
#
# PCOD9237641 Si02
#       4
#     4   4   4   4
#     4  12  24  49  83 120 177 233 283 355 444 518
#     4  12  28  58  93 121 173 240 307 374 439 523
#     4  11  27  52  81 132 175 225 296 361 443 530
#     4  11  22  42  77 120 174 225 277 344 430 530
#
# _framework density 27.775867000000002
#
# number of rings (size 3 to 8) (size 9 to 14) (size 15 to 20)
#    0.000    0.500    5.000    2.250    0.000    7.000 
#   13.500    1.250    5.500    0.000    0.000    0.000 
#    0.000    0.000    0.000    0.000    0.000    0.000 
#
# Total GULP energy -89161.562136 kJ/mol
# GULP energy per Si atom -5572.597633 kJ/mol
# Density = 2.771265 g / cm^3
# Si number density = 27.775867 Si / 1000 Ang^3
#
#
#
# Elastic Constant Matrix: (Units=GPa)
#
#
# Indices 1 2 3 4 5 6 
#
# 1 181.0943 66.8496 93.7654 0.0000 -1.1874 0.0000
# 2 66.8496 189.8628 75.7048 0.0000 -11.4783 0.0000
# 3 93.7654 75.7048 234.9291 0.0000 18.5031 0.0000
# 4 0.0000 0.0000 0.0000 30.2475 0.0000 -0.1367
# 5 -1.1874 -11.4783 18.5031 0.0000 82.0852 0.0000
# 6 0.0000 0.0000 0.0000 -0.1367 0.0000 -11.9938
#
#
#
# Elastic Compliance Matrix: (Units=1/GPa)
#
#
# Indices 1 2 3 4 5 6 
#
# 1 0.007392 -0.001590 -0.002473 0.000000 0.000442 0.000000
# 2 -0.001590 0.006527 -0.001566 0.000000 0.001243 0.000000
# 3 -0.002473 -0.001566 0.005873 0.000000 -0.001579 0.000000
# 4 0.000000 0.000000 0.000000 0.033059 0.000000 -0.000377
# 5 0.000442 0.001243 -0.001579 0.000000 0.012718 0.000000
# 6 0.000000 0.000000 0.000000 -0.000377 0.000000 -0.083372
#
#
# Mechanical properties :
#
#
# Convention : Reuss Voigt Hill
#
# Bulk Modulus (GPa) = 117.19400 119.83620 118.51510
# Shear Modulus (GPa) = -1351.17146 44.70553 -653.23297
#
# Velocity S-wave (km/s) = -22.07966 4.01622 -15.35222
# Velocity P-wave (km/s) = 24.65219 8.04639 16.47705
#
# Compressibility (1/GPa) = 0.00853286
#
# Stress axis : x y z
#
# Youngs Moduli (GPa) = 135.27804 153.22135 170.28079
#
# Poissons Ratio (x) = 0.24363 0.42107
# Poissons Ratio (y) = 0.21510 0.26673
# Poissons Ratio (z) = 0.33452 0.24001
#
# Static dielectric constant tensor:
#      x y z
#    x 2.262120 0.000000 0.157300 
#    y 0.000000 2.236370 0.000000 
#    z 0.157300 0.000000 2.074070 
# 
# From -- ./inp_files/28845.got.cif
#   From: 2010.05.17/outbox.cif.g08.bks.cpg/sg13_15_cif.got.tgz:28845.got - 2010.06.03 16:44:36.
