data_PCOD9237170
_publ_section_title
;
Structure prediction by ZEFSAII (Michael W. Deem and Ramdas Pophale) SiO2 
 PCOD9237170
Probable space group: P 2/C
;
_chemical_formula_sum "Si O2"
_cell_formula_units_Z 18
_cell_length_a 5.913870
_cell_length_b 8.592361
_cell_length_c 15.045549
_cell_angle_alpha 90.000000
_cell_angle_beta 65.801058
_cell_angle_gamma 90.000000
_cell_volume 697.345441
_symmetry_space_group_name_H-M "P 2/C"
_symmetry_group_IT_number 13
_symmetry_cell_setting 'monoclinic'
loop_
_space_group_symop_operation_xyz
x,y,z
-x,y,1/2-z
-x,-y,-z
x,-y,1/2+z
loop_
_atom_site_type_symbol
_atom_site_label
_atom_site_fract_x
_atom_site_fract_y
_atom_site_fract_z
Si Si1 0.500000 0.179017 0.250000
Si Si2 0.295058 0.970896 0.609349
Si Si3 0.000000 0.581267 0.250000
Si Si4 0.063041 0.155107 0.929959
Si Si5 0.013082 0.333251 0.396087
Si Si6 0.500000 0.261310 0.750000
O O1 0.623971 0.072479 0.304874
O O2 0.707532 0.286272 0.173179
O O3 0.158797 0.810080 0.606406
O O4 0.500000 0.000000 0.500000
O O5 0.106884 0.115224 0.627572
O O6 0.936996 0.475466 0.346867
O O7 0.732501 0.652895 0.261402
O O8 0.342408 0.175120 0.852792
O O9 0.000765 0.310289 0.995339
O O10 0.000000 0.000000 0.000000
#
# Coordination Sequence:
#
# PCOD9237170 Si02
#       6
#     2   4   2   4   4   2
#     4  12  21  43  76 120 164 216 282 332 428 500
#     4  11  23  42  75 121 163 213 279 349 420 511
#     4  12  28  54  88 118 170 228 296 334 404 528
#     4  10  26  53  78 121 166 214 275 356 432 499
#     4  11  24  47  79 118 155 231 273 338 422 502
#     4  12  31  57  80 126 166 222 286 360 410 494
#
# _framework density 25.812169999999998
#
# number of rings (size 3 to 8) (size 9 to 14) (size 15 to 20)
#    0.000    0.889    4.444    0.667    0.000    8.889 
#   16.000    0.000    0.000    0.000    0.000    0.000 
#    0.000    0.000    0.000    0.000    0.000    0.000 
#
# Total GULP energy -100553.796671 kJ/mol
# GULP energy per Si atom -5586.322037 kJ/mol
# Density = 2.575342 g / cm^3
# Si number density = 25.812170 Si / 1000 Ang^3
#
#
#
# Elastic Constant Matrix: (Units=GPa)
#
#
# Indices 1 2 3 4 5 6 
#
# 1 163.0788 60.2936 48.8261 0.0000 6.5812 0.0000
# 2 60.2936 71.0331 42.8806 0.0000 4.9900 0.0000
# 3 48.8261 42.8806 151.7893 0.0000 -12.2297 0.0000
# 4 0.0000 0.0000 0.0000 51.4099 0.0000 13.5342
# 5 6.5812 4.9900 -12.2297 0.0000 80.4186 0.0000
# 6 0.0000 0.0000 0.0000 13.5342 0.0000 54.7338
#
#
#
# Elastic Compliance Matrix: (Units=1/GPa)
#
#
# Indices 1 2 3 4 5 6 
#
# 1 0.009051 -0.007079 -0.000947 0.000000 -0.000446 0.000000
# 2 -0.007079 0.022772 -0.004275 0.000000 -0.001484 0.000000
# 3 -0.000947 -0.004275 0.008229 0.000000 0.001594 0.000000
# 4 0.000000 0.000000 0.000000 0.020806 0.000000 -0.005145
# 5 -0.000446 -0.001484 0.001594 0.000000 0.012806 0.000000
# 6 0.000000 0.000000 0.000000 -0.005145 0.000000 0.019542
#
#
# Mechanical properties :
#
#
# Convention : Reuss Voigt Hill
#
# Bulk Modulus (GPa) = 64.73417 76.65573 70.69495
# Shear Modulus (GPa) = 40.66348 52.90586 46.78467
#
# Velocity S-wave (km/s) = 3.97339 4.53222 4.26197
# Velocity P-wave (km/s) = 6.79587 7.55976 7.18797
#
# Compressibility (1/GPa) = 0.01544779
#
# Stress axis : x y z
#
# Youngs Moduli (GPa) = 110.48458 43.91315 121.51971
#
# Poissons Ratio (x) = 0.31088 0.11513
# Poissons Ratio (y) = 0.78216 0.51956
# Poissons Ratio (z) = 0.10467 0.18775
#
# Static dielectric constant tensor:
#      x y z
#    x 2.311400 0.000000 -0.074400 
#    y 0.000000 2.140670 0.000000 
#    z -0.074400 0.000000 -0.691310 
# 
# From -- ./inp_files/60561.got.cif
#   From: 2010.05.17/outbox.cif.g08.bks.cpg/sg13_31_cif.got.tgz:60561.got - 2010.06.03 16:44:36.
