data_PCOD9237592
_publ_section_title
;
Structure prediction by ZEFSAII (Michael W. Deem and Ramdas Pophale) SiO2 
 PCOD9237592
Probable space group: P 2/C
;
_chemical_formula_sum "Si O2"
_cell_formula_units_Z 26
_cell_length_a 15.543535
_cell_length_b 7.743365
_cell_length_c 15.054578
_cell_angle_alpha 90.000000
_cell_angle_beta 140.761317
_cell_angle_gamma 90.000000
_cell_volume 1146.158270
_symmetry_space_group_name_H-M "P 2/C"
_symmetry_group_IT_number 13
_symmetry_cell_setting 'monoclinic'
loop_
_space_group_symop_operation_xyz
x,y,z
-x,y,1/2-z
-x,-y,-z
x,-y,1/2+z
loop_
_atom_site_type_symbol
_atom_site_label
_atom_site_fract_x
_atom_site_fract_y
_atom_site_fract_z
Si Si1 0.270576 0.604480 0.518690
Si Si2 0.461908 0.614069 0.053278
Si Si3 0.652419 0.033736 0.344158
Si Si4 0.752594 0.310805 0.863404
Si Si5 0.078296 0.121281 0.633554
Si Si6 0.648918 0.080919 0.134548
Si Si7 0.000000 0.279208 0.750000
O O1 0.395022 0.505958 0.573304
O O2 0.308860 0.802900 0.565502
O O3 0.234984 0.490580 0.576285
O O4 0.135945 0.608423 0.351543
O O5 0.602519 0.694541 0.199773
O O6 0.500000 0.500000 0.000000
O O7 0.355478 0.753985 0.932298
O O8 0.500000 0.981343 0.250000
O O9 0.656263 0.107634 0.246532
O O10 0.746114 0.862104 0.419874
O O11 0.867269 0.281810 0.881330
O O12 0.993914 0.172334 0.653089
O O13 0.218270 0.032080 0.778842
O O14 0.000000 0.000000 0.500000
O O15 0.500000 0.000000 0.000000
#
# Coordination Sequence:
#
# PCOD9237592 Si02
#       7
#     4   4   4   4   4   4   2
#     4  12  27  43  67 105 140 197 244 298 371 443
#     4  12  23  41  68 106 146 179 243 314 372 434
#     4  11  22  40  70 100 142 179 228 301 369 425
#     4  11  24  44  69 101 142 185 241 308 365 434
#     4  11  26  48  75 107 151 198 246 303 378 451
#     4  11  23  42  72 106 137 188 242 302 362 428
#     4  12  28  46  70 102 150 202 250 298 374 470
#
# _framework density 22.684477000000001
#
# number of rings (size 3 to 8) (size 9 to 14) (size 15 to 20)
#    0.000    0.615    3.077    6.923    2.154    3.077 
#    0.000    0.769    0.000    0.000    0.000    0.000 
#    0.000    0.000    0.000    0.000    0.000    0.000 
#
# Total GULP energy -145432.193015 kJ/mol
# GULP energy per Si atom -5593.545885 kJ/mol
# Density = 2.263285 g / cm^3
# Si number density = 22.684477 Si / 1000 Ang^3
#
#
#
# Elastic Constant Matrix: (Units=GPa)
#
#
# Indices 1 2 3 4 5 6 
#
# 1 117.3461 11.7833 -1.2206 0.0000 0.4944 0.0000
# 2 11.7833 69.6888 6.9459 0.0000 -2.8808 0.0000
# 3 -1.2206 6.9459 56.3794 0.0000 6.9535 0.0000
# 4 0.0000 0.0000 0.0000 40.2490 0.0000 -7.0310
# 5 0.4944 -2.8808 6.9535 0.0000 31.6584 0.0000
# 6 0.0000 0.0000 0.0000 -7.0310 0.0000 40.8140
#
#
#
# Elastic Compliance Matrix: (Units=1/GPa)
#
#
# Indices 1 2 3 4 5 6 
#
# 1 0.008681 -0.001525 0.000421 0.000000 -0.000367 0.000000
# 2 -0.001525 0.014892 -0.002095 0.000000 0.001839 0.000000
# 3 0.000421 -0.002095 0.018530 0.000000 -0.004267 0.000000
# 4 0.000000 0.000000 0.000000 0.025616 0.000000 0.004413
# 5 -0.000367 0.001839 -0.004267 0.000000 0.032697 0.000000
# 6 0.000000 0.000000 0.000000 0.004413 0.000000 0.025262
#
#
# Mechanical properties :
#
#
# Convention : Reuss Voigt Hill
#
# Bulk Modulus (GPa) = 28.00601 30.93683 29.47142
# Shear Modulus (GPa) = 34.72760 37.60466 36.16613
#
# Velocity S-wave (km/s) = 3.91691 4.07594 3.99722
# Velocity P-wave (km/s) = 5.72966 5.98486 5.85865
#
# Compressibility (1/GPa) = 0.03570662
#
# Stress axis : x y z
#
# Youngs Moduli (GPa) = 115.19605 67.14960 53.96527
#
# Poissons Ratio (x) = 0.10240 -0.02272
# Poissons Ratio (y) = 0.17567 0.11303
# Poissons Ratio (z) = -0.04850 0.14065
#
# Static dielectric constant tensor:
#      x y z
#    x 1.857530 0.000000 -0.013990 
#    y 0.000000 1.659380 0.000000 
#    z -0.013990 0.000000 1.857430 
# 
# From -- ./inp_files/53375.got.cif
#   From: 2010.05.17/outbox.cif.g08.bks.cpg/sg13_27_cif.got.tgz:53375.got - 2010.06.03 16:44:36.
