data_PCOD9237997
_publ_section_title
;
Structure prediction by ZEFSAII (Michael W. Deem and Ramdas Pophale) SiO2 
 PCOD9237997
Probable space group: P 2/C
;
_chemical_formula_sum "Si O2"
_cell_formula_units_Z 20
_cell_length_a 7.302676
_cell_length_b 25.973056
_cell_length_c 5.169913
_cell_angle_alpha 90.000000
_cell_angle_beta 65.068155
_cell_angle_gamma 90.000000
_cell_volume 889.210442
_symmetry_space_group_name_H-M "P 2/C"
_symmetry_group_IT_number 13
_symmetry_cell_setting 'monoclinic'
loop_
_space_group_symop_operation_xyz
x,y,z
-x,y,1/2-z
-x,-y,-z
x,-y,1/2+z
loop_
_atom_site_type_symbol
_atom_site_label
_atom_site_fract_x
_atom_site_fract_y
_atom_site_fract_z
Si Si1 0.366590 0.614057 0.586136
Si Si2 0.284758 0.129100 0.517241
Si Si3 0.000000 0.964268 0.250000
Si Si4 0.000000 0.535963 0.750000
Si Si5 0.786282 0.728323 0.728979
Si Si6 0.500000 0.795761 0.250000
Si Si7 0.000000 0.792650 0.250000
O O1 0.500000 0.596512 0.750000
O O2 0.193958 0.572849 0.634084
O O3 0.270616 0.668867 0.723609
O O4 0.500000 0.621424 0.250000
O O5 0.192945 0.073747 0.629663
O O6 0.332673 0.165255 0.734478
O O7 0.105950 0.163726 0.496946
O O8 0.500000 0.125557 0.250000
O O9 0.000000 0.000000 0.500000
O O10 0.000000 0.500000 0.500000
O O11 0.826462 0.749353 0.416274
O O12 0.000000 0.736880 0.750000
O O13 0.613162 0.760991 0.972667
#
# Coordination Sequence:
#
# PCOD9237997 Si02
#       7
#     4   4   2   2   4   2   2
#     4  12  29  48  75 114 154 199 257 310 375 462
#     4  11  25  43  71 101 140 182 243 294 363 436
#     4  11  30  52  72 100 138 186 242 309 368 424
#     4  12  28  53  82 108 144 199 260 330 390 428
#     4  12  25  41  68 103 157 199 238 292 370 448
#     4  12  24  42  70 110 142 192 238 292 366 446
#     4  11  24  39  64 104 146 193 234 293 350 446
#
# _framework density 22.491864
#
# number of rings (size 3 to 8) (size 9 to 14) (size 15 to 20)
#    0.000    0.400    6.000    1.200    8.400    4.000 
#    0.000    0.000    0.000    0.000    0.000    0.000 
#    0.000    0.000    0.000    0.000    0.000    0.000 
#
# Total GULP energy -111614.387934 kJ/mol
# GULP energy per Si atom -5580.719397 kJ/mol
# Density = 2.244067 g / cm^3
# Si number density = 22.491864 Si / 1000 Ang^3
#
#
#
# Elastic Constant Matrix: (Units=GPa)
#
#
# Indices 1 2 3 4 5 6 
#
# 1 139.0662 65.1572 50.9568 0.0000 -17.6093 0.0000
# 2 65.1572 210.0232 94.5686 0.0000 -16.2987 0.0000
# 3 50.9568 94.5686 176.3171 0.0000 -29.8192 0.0000
# 4 0.0000 0.0000 0.0000 22.0971 0.0000 25.6441
# 5 -17.6093 -16.2987 -29.8192 0.0000 48.5657 0.0000
# 6 0.0000 0.0000 0.0000 25.6441 0.0000 136.3632
#
#
#
# Elastic Compliance Matrix: (Units=1/GPa)
#
#
# Indices 1 2 3 4 5 6 
#
# 1 0.008808 -0.002088 -0.001120 0.000000 0.001805 0.000000
# 2 -0.002088 0.006773 -0.003094 0.000000 -0.000384 0.000000
# 3 -0.001120 -0.003094 0.008269 0.000000 0.003633 0.000000
# 4 0.000000 0.000000 0.000000 0.057889 0.000000 -0.010886
# 5 0.001805 -0.000384 0.003633 0.000000 0.023347 0.000000
# 6 0.000000 0.000000 0.000000 -0.010886 0.000000 0.009381
#
#
# Mechanical properties :
#
#
# Convention : Reuss Voigt Hill
#
# Bulk Modulus (GPa) = 88.92729 105.19687 97.06208
# Shear Modulus (GPa) = 38.22063 62.38679 50.30371
#
# Velocity S-wave (km/s) = 4.12674 5.27235 4.73433
# Velocity P-wave (km/s) = 7.89494 9.16167 8.55179
#
# Compressibility (1/GPa) = 0.01124514
#
# Stress axis : x y z
#
# Youngs Moduli (GPa) = 113.52976 147.65565 120.93033
#
# Poissons Ratio (x) = 0.30832 0.13549
# Poissons Ratio (y) = 0.23706 0.37415
# Poissons Ratio (z) = 0.12720 0.45684
#
# Static dielectric constant tensor:
#      x y z
#    x -2.740460 0.000000 -0.699450 
#    y 0.000000 1.771200 0.000000 
#    z -0.699450 0.000000 1.724860 
# 
# From -- ./inp_files/2383.got.cif
#   From: 2010.05.17/outbox.cif.g08.bks.cpg/sg13_2_cif.got.tgz:2383.got - 2010.06.03 16:44:36.
