data_PCOD9237008
_publ_section_title
;
Structure prediction by ZEFSAII (Michael W. Deem and Ramdas Pophale) SiO2 
 PCOD9237008
Probable space group: P 2/C
;
_chemical_formula_sum "Si O2"
_cell_formula_units_Z 12
_cell_length_a 13.327981
_cell_length_b 5.122197
_cell_length_c 15.760862
_cell_angle_alpha 90.000000
_cell_angle_beta 24.245947
_cell_angle_gamma 90.000000
_cell_volume 441.852221
_symmetry_space_group_name_H-M "P 2/C"
_symmetry_group_IT_number 13
_symmetry_cell_setting 'monoclinic'
loop_
_space_group_symop_operation_xyz
x,y,z
-x,y,1/2-z
-x,-y,-z
x,-y,1/2+z
loop_
_atom_site_type_symbol
_atom_site_label
_atom_site_fract_x
_atom_site_fract_y
_atom_site_fract_z
Si Si1 0.899982 0.913925 0.706631
Si Si2 0.357077 0.258668 0.933172
Si Si3 0.212266 0.676527 0.876472
O O1 0.764864 0.873946 0.721814
O O2 0.072312 0.164241 0.558873
O O3 0.099443 0.695475 0.583806
O O4 0.714144 0.895448 0.927788
O O5 0.537688 0.505658 0.809221
O O6 0.500000 0.099253 0.750000
O O7 0.000000 0.500000 0.000000
#
# Coordination Sequence:
#
# PCOD9237008 Si02
#       3
#     4   4   4
#     4  10  25  48  73 115 158 205 264 322 384 468
#     4  11  23  48  74 115 157 205 259 323 389 461
#     4  11  23  48  75 112 158 207 264 320 393 463
#
# _framework density 27.1584
#
# number of rings (size 3 to 8) (size 9 to 14) (size 15 to 20)
#    0.000    1.333    3.333    1.000    0.000    2.667 
#   18.000    0.000    0.000    0.000    0.000    0.000 
#    0.000    0.000    0.000    0.000    0.000    0.000 
#
# Total GULP energy -66869.094208 kJ/mol
# GULP energy per Si atom -5572.424517 kJ/mol
# Density = 2.709659 g / cm^3
# Si number density = 27.158400 Si / 1000 Ang^3
#
#
#
# Elastic Constant Matrix: (Units=GPa)
#
#
# Indices 1 2 3 4 5 6 
#
# 1 134.4074 61.1336 103.3130 0.0000 55.2983 0.0000
# 2 61.1336 160.1335 106.5499 0.0000 1.8572 0.0000
# 3 103.3130 106.5499 231.6073 0.0000 8.3331 0.0000
# 4 0.0000 0.0000 0.0000 26.1310 0.0000 3.3263
# 5 55.2983 1.8572 8.3331 0.0000 85.7429 0.0000
# 6 0.0000 0.0000 0.0000 3.3263 0.0000 24.1935
#
#
#
# Elastic Compliance Matrix: (Units=1/GPa)
#
#
# Indices 1 2 3 4 5 6 
#
# 1 0.018112 -0.002413 -0.006574 0.000000 -0.010990 0.000000
# 2 -0.002413 0.009325 -0.003274 0.000000 0.001672 0.000000
# 3 -0.006574 -0.003274 0.008631 0.000000 0.003472 0.000000
# 4 0.000000 0.000000 0.000000 0.038950 0.000000 -0.005355
# 5 -0.010990 0.001672 0.003472 0.000000 0.018377 0.000000
# 6 0.000000 0.000000 0.000000 -0.005355 0.000000 0.042070
#
#
# Mechanical properties :
#
#
# Convention : Reuss Voigt Hill
#
# Bulk Modulus (GPa) = 86.60138 118.68235 102.64187
# Shear Modulus (GPa) = 30.51854 44.22358 37.37106
#
# Velocity S-wave (km/s) = 3.35584 4.03967 3.71353
# Velocity P-wave (km/s) = 6.85363 8.09651 7.50086
#
# Compressibility (1/GPa) = 0.01154716
#
# Stress axis : x y z
#
# Youngs Moduli (GPa) = 55.21192 107.24054 115.86035
#
# Poissons Ratio (x) = 0.25878 0.76163
# Poissons Ratio (y) = 0.13323 0.37928
# Poissons Ratio (z) = 0.36295 0.35106
#
# Static dielectric constant tensor:
#      x y z
#    x 2.212790 0.000000 0.014530 
#    y 0.000000 2.307270 0.000000 
#    z 0.014530 0.000000 2.281040 
# 
# From -- ./inp_files/27062.got.cif
#   From: 2010.05.17/outbox.cif.g08.bks.cpg/sg13_14_cif.got.tgz:27062.got - 2010.06.03 16:44:36.
