data_PCOD9237343
_publ_section_title
;
Structure prediction by ZEFSAII (Michael W. Deem and Ramdas Pophale) SiO2 
 PCOD9237343
Probable space group: P 2/C
;
_chemical_formula_sum "Si O2"
_cell_formula_units_Z 20
_cell_length_a 14.698235
_cell_length_b 7.306959
_cell_length_c 17.353371
_cell_angle_alpha 90.000000
_cell_angle_beta 33.422598
_cell_angle_gamma 90.000000
_cell_volume 1026.567477
_symmetry_space_group_name_H-M "P 2/C"
_symmetry_group_IT_number 13
_symmetry_cell_setting 'monoclinic'
loop_
_space_group_symop_operation_xyz
x,y,z
-x,y,1/2-z
-x,-y,-z
x,-y,1/2+z
loop_
_atom_site_type_symbol
_atom_site_label
_atom_site_fract_x
_atom_site_fract_y
_atom_site_fract_z
Si Si1 0.187233 0.997019 0.049986
Si Si2 0.500000 0.146730 0.750000
Si Si3 0.000000 0.341448 0.250000
Si Si4 0.599898 0.657607 0.333481
Si Si5 0.730940 0.656712 0.829405
Si Si6 0.833389 0.927072 0.260746
O O1 0.120257 0.201685 0.118750
O O2 0.212904 0.906587 0.115745
O O3 0.352433 0.021217 0.886111
O O4 0.031471 0.905598 0.117744
O O5 0.434961 0.274891 0.727308
O O6 0.119448 0.436637 0.227088
O O7 0.428762 0.665002 0.502296
O O8 0.678156 0.458531 0.292621
O O9 0.727474 0.796061 0.283217
O O10 0.788252 0.862730 0.772107
#
# Coordination Sequence:
#
# PCOD9237343 Si02
#       6
#     4   2   2   4   4   4
#     4   8  18  33  58  81 114 144 185 226 288 311
#     4  12  20  34  54  90 118 148 172 254 282 316
#     4   8  14  36  54  76 108 148 180 228 264 340
#     4  11  21  33  61  83 112 144 195 223 283 325
#     4   9  19  35  59  84 102 152 190 225 267 347
#     4   9  18  39  59  80 108 155 187 226 262 359
#
# _framework density 19.482403000000001
#
# number of rings (size 3 to 8) (size 9 to 14) (size 15 to 20)
#    0.000    3.200    4.000    0.600    0.000    2.400 
#    0.000    5.000    0.000    0.000    0.000    0.000 
#    0.000    0.000    0.000    0.000    0.000    0.000 
#
# Total GULP energy -111484.480117 kJ/mol
# GULP energy per Si atom -5574.224006 kJ/mol
# Density = 1.943806 g / cm^3
# Si number density = 19.482403 Si / 1000 Ang^3
#
#
#
# Elastic Constant Matrix: (Units=GPa)
#
#
# Indices 1 2 3 4 5 6 
#
# 1 152.1976 39.3732 46.7456 0.0000 -15.0075 0.0000
# 2 39.3732 42.5222 14.5110 0.0000 -4.5061 0.0000
# 3 46.7456 14.5110 122.5939 0.0000 -10.4740 0.0000
# 4 0.0000 0.0000 0.0000-1230.3991 0.0000-2904.8793
# 5 -15.0075 -4.5061 -10.4740 0.0000 21.1235 0.0000
# 6 0.0000 0.0000 0.0000-2904.8793 0.0000-6843.2761
#
#
#
# Elastic Compliance Matrix: (Units=1/GPa)
#
#
# Indices 1 2 3 4 5 6 
#
# 1 0.009722 -0.007739 -0.002446 0.000000 0.004044 0.000000
# 2 -0.007739 0.030989 -0.000649 0.000000 0.000790 0.000000
# 3 -0.002446 -0.000649 0.009405 0.000000 0.002787 0.000000
# 4 0.000000 0.000000 0.000000 0.372673 0.000000 -0.158195
# 5 0.004044 0.000790 0.002787 0.000000 0.051764 0.000000
# 6 0.000000 0.000000 0.000000 -0.158195 0.000000 0.067005
#
#
# Mechanical properties :
#
#
# Convention : Reuss Voigt Hill
#
# Bulk Modulus (GPa) = 35.15343 57.61926 46.38634
# Shear Modulus (GPa) = 8.73043 -1596.06474 -793.66716
#
# Velocity S-wave (km/s) = 2.11918 -28.65332 -20.20546
# Velocity P-wave (km/s) = 4.90619 32.63501 22.81418
#
# Compressibility (1/GPa) = 0.02844673
#
# Stress axis : x y z
#
# Youngs Moduli (GPa) = 102.85477 32.26988 106.33153
#
# Poissons Ratio (x) = 0.24975 0.26005
# Poissons Ratio (y) = 0.79603 0.06906
# Poissons Ratio (z) = 0.25155 0.02096
#
# Static dielectric constant tensor:
#      x y z
#    x 1.708820 0.000000 -0.020800 
#    y 0.000000 1.697530 0.000000 
#    z -0.020800 0.000000 1.684670 
# 
# From -- ./inp_files/59278.got.cif
#   From: 2010.05.17/outbox.cif.g08.bks.cpg/sg13_30_cif.got.tgz:59278.got - 2010.06.03 16:44:36.
