data_PCOD9237770
_publ_section_title
;
Structure prediction by ZEFSAII (Michael W. Deem and Ramdas Pophale) SiO2 
 PCOD9237770
Probable space group: P 2/C
;
_chemical_formula_sum "Si O2"
_cell_formula_units_Z 18
_cell_length_a 8.938108
_cell_length_b 8.960009
_cell_length_c 11.424396
_cell_angle_alpha 90.000000
_cell_angle_beta 128.288604
_cell_angle_gamma 90.000000
_cell_volume 718.127264
_symmetry_space_group_name_H-M "P 2/C"
_symmetry_group_IT_number 13
_symmetry_cell_setting 'monoclinic'
loop_
_space_group_symop_operation_xyz
x,y,z
-x,y,1/2-z
-x,-y,-z
x,-y,1/2+z
loop_
_atom_site_type_symbol
_atom_site_label
_atom_site_fract_x
_atom_site_fract_y
_atom_site_fract_z
Si Si1 0.500000 0.531258 0.750000
Si Si2 0.257514 0.076289 0.959701
Si Si3 0.000000 0.813252 0.750000
Si Si4 0.500000 0.058520 0.750000
Si Si5 0.734630 0.298938 0.749137
Si Si6 0.893722 0.298636 0.448097
O O1 0.569052 0.421802 0.678858
O O2 0.311882 0.625922 0.632963
O O3 0.459215 0.038511 0.116218
O O4 0.131379 0.134491 0.007049
O O5 0.254385 0.211709 0.866658
O O6 0.170479 0.927506 0.863103
O O7 0.947086 0.717707 0.838335
O O8 0.675268 0.168858 0.811652
O O9 0.932402 0.366271 0.891887
#
# Coordination Sequence:
#
# PCOD9237770 Si02
#       6
#     2   4   2   2   4   4
#     4  11  29  50  72 110 147 207 266 290 364 449
#     4  12  23  45  77 113 150 188 245 314 382 441
#     4  12  24  46  82 110 150 194 238 312 392 440
#     4  11  23  40  74 122 147 183 250 304 390 443
#     4  11  24  48  75 107 155 198 246 314 365 443
#     4  12  25  50  73 111 151 200 250 308 371 444
#
# _framework density 25.065197999999999
#
# number of rings (size 3 to 8) (size 9 to 14) (size 15 to 20)
#    0.000    0.444    4.444    4.000    0.000    2.667 
#    8.000    0.000    0.000    0.000    0.000    0.000 
#    0.000    0.000    0.000    0.000    0.000    0.000 
#
# Total GULP energy -100797.203501 kJ/mol
# GULP energy per Si atom -5599.844639 kJ/mol
# Density = 2.500815 g / cm^3
# Si number density = 25.065198 Si / 1000 Ang^3
#
#
#
# Elastic Constant Matrix: (Units=GPa)
#
#
# Indices 1 2 3 4 5 6 
#
# 1 150.7276 64.6241 76.1099 0.0000 13.6981 0.0000
# 2 64.6241 101.7306 67.0164 0.0000 1.1232 0.0000
# 3 76.1099 67.0164 170.9433 0.0000 6.3571 0.0000
# 4 0.0000 0.0000 0.0000 23.4982 0.0000 -5.7604
# 5 13.6981 1.1232 6.3571 0.0000 41.0896 0.0000
# 6 0.0000 0.0000 0.0000 -5.7604 0.0000 51.0970
#
#
#
# Elastic Compliance Matrix: (Units=1/GPa)
#
#
# Indices 1 2 3 4 5 6 
#
# 1 0.010249 -0.004777 -0.002583 0.000000 -0.002887 0.000000
# 2 -0.004777 0.015487 -0.004011 0.000000 0.001790 0.000000
# 3 -0.002583 -0.004011 0.008586 0.000000 -0.000358 0.000000
# 4 0.000000 0.000000 0.000000 0.043766 0.000000 0.004934
# 5 -0.002887 0.001790 -0.000358 0.000000 0.025306 0.000000
# 6 0.000000 0.000000 0.000000 0.004934 0.000000 0.020127
#
#
# Mechanical properties :
#
#
# Convention : Reuss Voigt Hill
#
# Bulk Modulus (GPa) = 86.36124 93.21136 89.78630
# Shear Modulus (GPa) = 33.30570 37.51370 35.40970
#
# Velocity S-wave (km/s) = 3.64917 3.87285 3.76267
# Velocity P-wave (km/s) = 7.23082 7.56749 7.40107
#
# Compressibility (1/GPa) = 0.01157927
#
# Stress axis : x y z
#
# Youngs Moduli (GPa) = 97.56585 64.56880 116.47113
#
# Poissons Ratio (x) = 0.30847 0.30086
# Poissons Ratio (y) = 0.46611 0.46718
# Poissons Ratio (z) = 0.25203 0.25899
#
# Static dielectric constant tensor:
#      x y z
#    x 2.048370 0.000000 0.025710 
#    y 0.000000 2.028710 0.000000 
#    z 0.025710 0.000000 1.958700 
# 
# From -- ./inp_files/31896.got.cif
#   From: 2010.05.17/outbox.cif.g08.bks.cpg/sg13_16_cif.got.tgz:31896.got - 2010.06.03 16:44:36.
