data_PCOD9237579
_publ_section_title
;
Structure prediction by ZEFSAII (Michael W. Deem and Ramdas Pophale) SiO2 
 PCOD9237579
Probable space group: P 2/C
;
_chemical_formula_sum "Si O2"
_cell_formula_units_Z 30
_cell_length_a 19.142603
_cell_length_b 12.003123
_cell_length_c 16.741162
_cell_angle_alpha 90.000000
_cell_angle_beta 21.854274
_cell_angle_gamma 90.000000
_cell_volume 1431.898624
_symmetry_space_group_name_H-M "P 2/C"
_symmetry_group_IT_number 13
_symmetry_cell_setting 'monoclinic'
loop_
_space_group_symop_operation_xyz
x,y,z
-x,y,1/2-z
-x,-y,-z
x,-y,1/2+z
loop_
_atom_site_type_symbol
_atom_site_label
_atom_site_fract_x
_atom_site_fract_y
_atom_site_fract_z
Si Si1 0.095180 0.775931 0.948953
Si Si2 0.220296 0.384161 0.660757
Si Si3 0.287643 0.536796 0.738060
Si Si4 0.022494 0.437547 0.140457
Si Si5 0.298236 0.129742 0.929689
Si Si6 0.001743 0.800387 0.619611
Si Si7 0.500000 0.708668 0.750000
Si Si8 0.793793 0.118833 0.007820
O O1 0.233411 0.667398 0.792396
O O2 0.041097 0.839504 0.924739
O O3 0.181911 0.854629 0.924483
O O4 0.901556 0.723606 0.189134
O O5 0.198664 0.465006 0.760055
O O6 0.117358 0.458921 0.704319
O O7 0.421760 0.357762 0.409980
O O8 0.500000 0.500000 0.500000
O O9 0.209194 0.488702 0.904791
O O10 0.973117 0.332051 0.139023
O O11 0.000000 0.382197 0.250000
O O12 0.500000 0.169350 0.750000
O O13 0.149534 0.149676 0.158803
O O14 0.203764 0.182544 0.949268
O O15 0.305056 0.998890 0.902981
O O16 0.671794 0.784217 0.597242
O O17 0.000000 0.114472 0.750000
#
# Coordination Sequence:
#
# PCOD9237579 Si02
#       8
#     4   4   4   4   4   4   2   4
#     4  11  23  43  69  99 137 190 223 283 357 413
#     4  11  23  40  64  98 142 177 232 275 337 421
#     4  11  23  40  63  99 148 182 230 288 337 419
#     4  11  22  40  63  96 138 186 223 274 340 415
#     4  11  25  47  70  97 133 177 237 301 348 414
#     4  11  22  46  70  96 138 181 225 280 359 406
#     4  12  26  42  72 106 132 192 236 282 352 416
#     4  12  24  47  71  95 137 179 234 296 351 408
#
# _framework density 20.951201999999999
#
# number of rings (size 3 to 8) (size 9 to 14) (size 15 to 20)
#    0.000    0.800    7.333    1.600    5.600    1.600 
#    3.600    0.667    0.000    0.000    0.000    0.000 
#    0.000    0.000    0.000    0.000    0.000    0.000 
#
# Total GULP energy -167233.210189 kJ/mol
# GULP energy per Si atom -5574.440340 kJ/mol
# Density = 2.090352 g / cm^3
# Si number density = 20.951202 Si / 1000 Ang^3
#
#
#
# Elastic Constant Matrix: (Units=GPa)
#
#
# Indices 1 2 3 4 5 6 
#
# 1 129.1913 23.1711 24.5214 0.0000 -0.3874 0.0000
# 2 23.1711 62.4313 22.9344 0.0000 8.5741 0.0000
# 3 24.5214 22.9344 81.9642 0.0000 -3.6943 0.0000
# 4 0.0000 0.0000 0.0000 13.9098 0.0000 8.2822
# 5 -0.3874 8.5741 -3.6943 0.0000 25.5966 0.0000
# 6 0.0000 0.0000 0.0000 8.2822 0.0000 22.4248
#
#
#
# Elastic Compliance Matrix: (Units=1/GPa)
#
#
# Indices 1 2 3 4 5 6 
#
# 1 0.008553 -0.002619 -0.001792 0.000000 0.000748 0.000000
# 2 -0.002619 0.019892 -0.005118 0.000000 -0.007441 0.000000
# 3 -0.001792 -0.005118 0.014338 0.000000 0.003757 0.000000
# 4 0.000000 0.000000 0.000000 0.092158 0.000000 -0.034037
# 5 0.000748 -0.007441 0.003757 0.000000 0.042114 0.000000
# 6 0.000000 0.000000 0.000000 -0.034037 0.000000 0.057164
#
#
# Mechanical properties :
#
#
# Convention : Reuss Voigt Hill
#
# Bulk Modulus (GPa) = 42.15019 46.09341 44.12180
# Shear Modulus (GPa) = 19.14360 25.91689 22.53025
#
# Velocity S-wave (km/s) = 3.02606 3.52093 3.28284
# Velocity P-wave (km/s) = 5.68958 6.21107 5.95604
#
# Compressibility (1/GPa) = 0.02372468
#
# Stress axis : x y z
#
# Youngs Moduli (GPa) = 116.92429 50.27268 69.74481
#
# Poissons Ratio (x) = 0.13164 0.12500
# Poissons Ratio (y) = 0.30617 0.35694
# Poissons Ratio (z) = 0.20956 0.25729
#
# Static dielectric constant tensor:
#      x y z
#    x 2.015590 0.000000 -0.008760 
#    y 0.000000 1.748330 0.000000 
#    z -0.008760 0.000000 1.771350 
# 
# From -- ./inp_files/70685.got.cif
#   From: 2010.05.17/outbox.cif.g08.bks.cpg/sg13_36_cif.got.tgz:70685.got - 2010.06.03 16:44:36.
