data_PCOD9237208
_publ_section_title
;
Structure prediction by ZEFSAII (Michael W. Deem and Ramdas Pophale) SiO2 
 PCOD9237208
Probable space group: P 2/C
;
_chemical_formula_sum "Si O2"
_cell_formula_units_Z 26
_cell_length_a 20.875065
_cell_length_b 8.984807
_cell_length_c 8.571046
_cell_angle_alpha 90.000000
_cell_angle_beta 128.672096
_cell_angle_gamma 90.000000
_cell_volume 1255.087381
_symmetry_space_group_name_H-M "P 2/C"
_symmetry_group_IT_number 13
_symmetry_cell_setting 'monoclinic'
loop_
_space_group_symop_operation_xyz
x,y,z
-x,y,1/2-z
-x,-y,-z
x,-y,1/2+z
loop_
_atom_site_type_symbol
_atom_site_label
_atom_site_fract_x
_atom_site_fract_y
_atom_site_fract_z
Si Si1 0.231657 0.304147 0.951840
Si Si2 0.904590 0.794814 0.811461
Si Si3 0.443889 0.902324 0.295968
Si Si4 0.000000 0.596931 0.750000
Si Si5 0.834232 0.528679 0.882915
Si Si6 0.663693 0.880651 0.083649
Si Si7 0.834535 0.020554 0.463688
O O1 0.183079 0.380502 0.737550
O O2 0.315380 0.253092 0.001065
O O3 0.232845 0.423120 0.092893
O O4 0.188217 0.158228 0.957453
O O5 0.843610 0.666123 0.778917
O O6 0.901927 0.914909 0.945886
O O7 0.983299 0.703253 0.873436
O O8 0.870126 0.882829 0.611933
O O9 0.500000 0.819481 0.250000
O O10 0.380898 0.830444 0.324488
O O11 0.500000 0.000000 0.500000
O O12 0.390491 0.008724 0.102971
O O13 0.920791 0.495523 0.601517
O O14 0.749058 0.965774 0.256070
#
# Coordination Sequence:
#
# PCOD9237208 Si02
#       7
#     4   4   4   2   4   4   4
#     4  11  23  40  64  88 123 158 213 262 304 363
#     4  11  24  40  62  85 121 159 209 268 318 375
#     4   9  19  33  57  99 138 159 189 229 301 376
#     4  12  24  44  64  78 118 172 214 260 326 372
#     4  11  25  43  62  85 118 169 218 260 305 383
#     4  11  18  36  63  92 130 160 189 252 308 339
#     4  11  22  40  61  93 124 151 204 272 315 358
#
# _framework density 20.715689000000001
#
# number of rings (size 3 to 8) (size 9 to 14) (size 15 to 20)
#    0.000    1.231    4.615    1.385    0.000    0.615 
#    0.000    0.000    0.000    0.000    0.000   14.000 
#    0.000    0.000    0.000    0.000    0.000    0.000 
#
# Total GULP energy -144992.113851 kJ/mol
# GULP energy per Si atom -5576.619763 kJ/mol
# Density = 2.066854 g / cm^3
# Si number density = 20.715689 Si / 1000 Ang^3
#
#
#
# Elastic Constant Matrix: (Units=GPa)
#
#
# Indices 1 2 3 4 5 6 
#
# 1 152.8290 35.9521 -3.0226 0.0000 -44.8962 0.0000
# 2 35.9521 53.4990 49.2810 0.0000 -6.9720 0.0000
# 3 -3.0226 49.2810 14.7958 0.0000 -17.7113 0.0000
# 4 0.0000 0.0000 0.0000 21.0234 0.0000 -16.3773
# 5 -44.8962 -6.9720 -17.7113 0.0000 27.4442 0.0000
# 6 0.0000 0.0000 0.0000 -16.3773 0.0000 23.5724
#
#
#
# Elastic Compliance Matrix: (Units=1/GPa)
#
#
# Indices 1 2 3 4 5 6 
#
# 1 0.006765 0.005598 -0.010175 0.000000 0.005923 0.000000
# 2 0.005598 0.002795 0.016033 0.000000 0.020216 0.000000
# 3 -0.010175 0.016033 -0.012943 0.000000 -0.020925 0.000000
# 4 0.000000 0.000000 0.000000 0.103680 0.000000 0.072033
# 5 0.005923 0.020216 -0.020925 0.000000 0.037758 0.000000
# 6 0.000000 0.000000 0.000000 0.072033 0.000000 0.092469
#
#
# Mechanical properties :
#
#
# Convention : Reuss Voigt Hill
#
# Bulk Modulus (GPa) = 51.20176 42.83830 47.02003
# Shear Modulus (GPa) = 23.35137 23.66889 23.51013
#
# Velocity S-wave (km/s) = 3.36107 3.38384 3.37247
# Velocity P-wave (km/s) = 6.31130 5.99927 6.15726
#
# Compressibility (1/GPa) = 0.01953058
#
# Stress axis : x y z
#
# Youngs Moduli (GPa) = 147.82082 357.78706 -77.26069
#
# Poissons Ratio (x) = -2.00300 -0.78611
# Poissons Ratio (y) = -0.82755 1.23875
# Poissons Ratio (z) = 1.50405 -5.73655
#
# Static dielectric constant tensor:
#      x y z
#    x 1.825000 0.000000 -0.036490 
#    y 0.000000 1.733720 0.000000 
#    z -0.036490 0.000000 1.739410 
# 
# From -- ./inp_files/22992.got.cif
#   From: 2010.05.17/outbox.cif.g08.bks.cpg/sg13_12_cif.got.tgz:22992.got - 2010.06.03 16:44:36.
