data_PCOD9237141
_publ_section_title
;
Structure prediction by ZEFSAII (Michael W. Deem and Ramdas Pophale) SiO2 
 PCOD9237141
Probable space group: P 2/C
;
_chemical_formula_sum "Si O2"
_cell_formula_units_Z 20
_cell_length_a 5.070401
_cell_length_b 7.916919
_cell_length_c 21.510279
_cell_angle_alpha 90.000000
_cell_angle_beta 56.300821
_cell_angle_gamma 90.000000
_cell_volume 718.369823
_symmetry_space_group_name_H-M "P 2/C"
_symmetry_group_IT_number 13
_symmetry_cell_setting 'monoclinic'
loop_
_space_group_symop_operation_xyz
x,y,z
-x,y,1/2-z
-x,-y,-z
x,-y,1/2+z
loop_
_atom_site_type_symbol
_atom_site_label
_atom_site_fract_x
_atom_site_fract_y
_atom_site_fract_z
Si Si1 0.363962 0.385054 0.198960
Si Si2 0.591504 0.299046 0.886401
Si Si3 0.116528 0.507391 0.556125
Si Si4 0.470345 0.988241 0.828077
Si Si5 0.195404 0.127148 0.040980
O O1 0.500000 0.386841 0.250000
O O2 0.516830 0.534628 0.138373
O O3 0.396929 0.195284 0.168401
O O4 0.000000 0.431557 0.250000
O O5 0.886404 0.357434 0.891424
O O6 0.300468 0.218741 0.963542
O O7 0.662762 0.143639 0.831675
O O8 0.500000 0.500000 0.500000
O O9 0.084547 0.695877 0.589714
O O10 0.000000 0.500000 0.500000
O O11 0.500000 0.995694 0.750000
O O12 0.109134 0.982678 0.901343
O O13 0.500000 0.000000 0.000000
#
# Coordination Sequence:
#
# PCOD9237141 Si02
#       5
#     4   4   4   4   4
#     4  11  29  52  84 126 175 240 301 369 453 543
#     4  11  27  49  89 118 174 227 301 360 453 525
#     4  10  26  49  81 123 171 218 284 368 441 522
#     4  11  28  53  86 124 186 230 304 367 464 536
#     4  11  28  50  86 130 174 232 299 372 449 529
#
# _framework density 27.840810999999999
#
# number of rings (size 3 to 8) (size 9 to 14) (size 15 to 20)
#    0.000    1.200    0.000    1.200   14.000   12.000 
#    3.600    0.000    0.000    0.000    0.000    0.000 
#    0.000    0.000    0.000    0.000    0.000    0.000 
#
# Total GULP energy -111529.684747 kJ/mol
# GULP energy per Si atom -5576.484237 kJ/mol
# Density = 2.777744 g / cm^3
# Si number density = 27.840811 Si / 1000 Ang^3
#
#
#
# Elastic Constant Matrix: (Units=GPa)
#
#
# Indices 1 2 3 4 5 6 
#
# 1 131.8286 76.2064 82.2019 0.0000 49.1738 0.0000
# 2 76.2064 283.7251 100.6582 0.0000 47.2719 0.0000
# 3 82.2019 100.6582 154.8668 0.0000 1.9239 0.0000
# 4 0.0000 0.0000 0.0000 48.9403 0.0000 20.5512
# 5 49.1738 47.2719 1.9239 0.0000 53.0377 0.0000
# 6 0.0000 0.0000 0.0000 20.5512 0.0000 55.2834
#
#
#
# Elastic Compliance Matrix: (Units=1/GPa)
#
#
# Indices 1 2 3 4 5 6 
#
# 1 0.023568 0.002514 -0.013851 0.000000 -0.023589 0.000000
# 2 0.002514 0.005875 -0.005061 0.000000 -0.007384 0.000000
# 3 -0.013851 -0.005061 0.016891 0.000000 0.016740 0.000000
# 4 0.000000 0.000000 0.000000 0.024213 0.000000 -0.009001
# 5 -0.023589 -0.007384 0.016740 0.000000 0.046699 0.000000
# 6 0.000000 0.000000 0.000000 -0.009001 0.000000 0.021435
#
#
# Mechanical properties :
#
#
# Convention : Reuss Voigt Hill
#
# Bulk Modulus (GPa) = 73.86706 120.95038 97.40872
# Shear Modulus (GPa) = 28.41099 52.20923 40.31011
#
# Velocity S-wave (km/s) = 3.19796 4.33514 3.80923
# Velocity P-wave (km/s) = 6.34236 8.28226 7.37636
#
# Compressibility (1/GPa) = 0.01353783
#
# Stress axis : x y z
#
# Youngs Moduli (GPa) = 42.43041 170.20977 59.20466
#
# Poissons Ratio (x) = -0.42788 0.82002
# Poissons Ratio (y) = -0.10666 0.29965
# Poissons Ratio (z) = 0.58768 0.86147
#
# Static dielectric constant tensor:
#      x y z
#    x 3.132340 0.000000 -0.304090 
#    y 0.000000 2.702050 0.000000 
#    z -0.304090 0.000000 2.426350 
# 
# From -- ./inp_files/83200.got.cif
#   From: 2010.05.17/outbox.cif.g08.bks.cpg/sg13_42_cif.got.tgz:83200.got - 2010.06.03 16:44:36.
