data_PCOD9237177
_publ_section_title
;
Structure prediction by ZEFSAII (Michael W. Deem and Ramdas Pophale) SiO2 
 PCOD9237177
Probable space group: P 2/C
;
_chemical_formula_sum "Si O2"
_cell_formula_units_Z 22
_cell_length_a 13.624953
_cell_length_b 5.147611
_cell_length_c 17.794879
_cell_angle_alpha 90.000000
_cell_angle_beta 144.768667
_cell_angle_gamma 90.000000
_cell_volume 719.980236
_symmetry_space_group_name_H-M "P 2/C"
_symmetry_group_IT_number 13
_symmetry_cell_setting 'monoclinic'
loop_
_space_group_symop_operation_xyz
x,y,z
-x,y,1/2-z
-x,-y,-z
x,-y,1/2+z
loop_
_atom_site_type_symbol
_atom_site_label
_atom_site_fract_x
_atom_site_fract_y
_atom_site_fract_z
Si Si1 0.500000 0.371693 0.250000
Si Si2 0.749841 0.674686 0.640615
Si Si3 0.209753 0.838868 0.431209
Si Si4 0.196194 0.974313 0.101733
Si Si5 0.487239 0.199356 0.873251
Si Si6 0.977243 0.462748 0.074627
O O1 0.669233 0.202753 0.334254
O O2 0.478754 0.571465 0.165708
O O3 0.783173 0.408580 0.618294
O O4 0.550897 0.731662 0.496777
O O5 0.848286 0.643219 0.779929
O O6 0.833354 0.913776 0.647577
O O7 0.399557 0.942269 0.572597
O O8 0.169726 0.761345 0.017845
O O9 0.291637 0.857607 0.234892
O O10 0.086573 0.283389 0.918872
O O11 0.000000 0.000000 0.000000
O O12 0.000000 0.500000 0.000000
#
# Coordination Sequence:
#
# PCOD9237177 Si02
#       6
#     2   4   4   4   4   4
#     4  12  28  56 100 138 192 262 348 416 504 606
#     4  10  26  54  91 133 184 259 336 398 498 612
#     4  10  26  55  91 132 184 260 334 398 487 609
#     4  12  32  54  91 143 199 257 332 427 510 605
#     4  10  27  51  93 133 182 264 342 406 492 615
#     4  12  31  55  90 150 204 251 329 430 516 604
#
# _framework density 30.556394999999998
#
# number of rings (size 3 to 8) (size 9 to 14) (size 15 to 20)
#    1.091    0.000    0.000    2.182   10.182    8.727 
#    0.000    1.818    0.000    0.000    4.727    0.000 
#    0.000    0.000    0.000    0.000    0.000    0.000 
#
# Total GULP energy -122978.745060 kJ/mol
# GULP energy per Si atom -5589.942957 kJ/mol
# Density = 3.048685 g / cm^3
# Si number density = 30.556395 Si / 1000 Ang^3
#
#
#
# Elastic Constant Matrix: (Units=GPa)
#
#
# Indices 1 2 3 4 5 6 
#
# 1 185.1534 101.6021 89.9665 0.0000 6.7335 0.0000
# 2 101.6021 293.9186 76.2791 0.0000 8.7823 0.0000
# 3 89.9665 76.2791 341.3469 0.0000 -15.3450 0.0000
# 4 0.0000 0.0000 0.0000 430.1836 0.0000 44.9732
# 5 6.7335 8.7823 -15.3450 0.0000 46.7150 0.0000
# 6 0.0000 0.0000 0.0000 44.9732 0.0000 71.7782
#
#
#
# Elastic Compliance Matrix: (Units=1/GPa)
#
#
# Indices 1 2 3 4 5 6 
#
# 1 0.007336 -0.002108 -0.001514 0.000000 -0.001159 0.000000
# 2 -0.002108 0.004260 -0.000425 0.000000 -0.000637 0.000000
# 3 -0.001514 -0.000425 0.003489 0.000000 0.001444 0.000000
# 4 0.000000 0.000000 0.000000 0.002488 0.000000 -0.001559
# 5 -0.001159 -0.000637 0.001444 0.000000 0.022167 0.000000
# 6 0.000000 0.000000 0.000000 -0.001559 0.000000 0.014908
#
#
# Mechanical properties :
#
#
# Convention : Reuss Voigt Hill
#
# Bulk Modulus (GPa) = 143.07147 150.67936 146.87541
# Shear Modulus (GPa) = 76.83650 146.57344 111.70497
#
# Velocity S-wave (km/s) = 5.02000 6.93342 6.05280
# Velocity P-wave (km/s) = 8.97353 10.65436 9.84986
#
# Compressibility (1/GPa) = 0.00698951
#
# Stress axis : x y z
#
# Youngs Moduli (GPa) = 136.31814 234.72004 286.64681
#
# Poissons Ratio (x) = 0.49484 0.43410
# Poissons Ratio (y) = 0.28739 0.12183
# Poissons Ratio (z) = 0.20644 0.09976
#
# Static dielectric constant tensor:
#      x y z
#    x 2.240000 0.000000 -0.054150 
#    y 0.000000 2.878130 0.000000 
#    z -0.054150 0.000000 2.510120 
# 
# From -- ./inp_files/93687.got.cif
#   From: 2010.05.17/outbox.cif.g08.bks.cpg/sg13_47_cif.got.tgz:93687.got - 2010.06.03 16:44:36.
