data_PCOD9237351
_publ_section_title
;
Structure prediction by ZEFSAII (Michael W. Deem and Ramdas Pophale) SiO2 
 PCOD9237351
Probable space group: P 2/C
;
_chemical_formula_sum "Si O2"
_cell_formula_units_Z 20
_cell_length_a 7.811525
_cell_length_b 9.500471
_cell_length_c 17.356706
_cell_angle_alpha 90.000000
_cell_angle_beta 49.670084
_cell_angle_gamma 90.000000
_cell_volume 981.954977
_symmetry_space_group_name_H-M "P 2/C"
_symmetry_group_IT_number 13
_symmetry_cell_setting 'monoclinic'
loop_
_space_group_symop_operation_xyz
x,y,z
-x,y,1/2-z
-x,-y,-z
x,-y,1/2+z
loop_
_atom_site_type_symbol
_atom_site_label
_atom_site_fract_x
_atom_site_fract_y
_atom_site_fract_z
Si Si1 0.857720 0.701325 0.404310
Si Si2 0.500000 0.481162 0.750000
Si Si3 0.646010 0.240291 0.809988
Si Si4 0.005575 0.423916 0.415990
Si Si5 0.900083 0.149044 0.053331
Si Si6 0.500000 0.989691 0.750000
O O1 0.691274 0.753891 0.387075
O O2 0.820384 0.771505 0.498468
O O3 0.111108 0.742342 0.303482
O O4 0.861704 0.530597 0.406117
O O5 0.502163 0.372808 0.821584
O O6 0.731669 0.566476 0.685376
O O7 0.545115 0.095792 0.807836
O O8 0.942853 0.262316 0.448568
O O9 0.000000 0.500000 0.500000
O O10 0.705217 0.107757 0.168281
O O11 0.000000 0.000000 0.000000
#
# Coordination Sequence:
#
# PCOD9237351 Si02
#       6
#     4   2   4   4   4   2
#     4   9  18  37  58  83 114 147 193 237 272 334
#     4   9  17  34  58  82 110 144 190 234 274 328
#     4   9  18  33  61  84 110 153 190 229 284 336
#     4   9  19  34  57  80 106 147 188 229 279 330
#     4  11  21  36  58  83 115 152 184 234 286 341
#     4  11  21  34  60  86 116 156 188 228 298 352
#
# _framework density 20.367533000000002
#
# number of rings (size 3 to 8) (size 9 to 14) (size 15 to 20)
#    0.000    2.400    2.000    0.600    2.800    0.800 
#    0.000    4.000   22.000    0.000    0.000    0.000 
#    0.000    0.000    0.000    0.000    0.000    0.000 
#
# Total GULP energy -111526.670449 kJ/mol
# GULP energy per Si atom -5576.333522 kJ/mol
# Density = 2.032118 g / cm^3
# Si number density = 20.367533 Si / 1000 Ang^3
#
#
#
# Elastic Constant Matrix: (Units=GPa)
#
#
# Indices 1 2 3 4 5 6 
#
# 1 66.4020 30.4344 -7.4815 0.0000 22.2445 0.0000
# 2 30.4344 158.2549 17.8634 0.0000 6.7785 0.0000
# 3 -7.4815 17.8634 38.7366 0.0000 -1.8142 0.0000
# 4 0.0000 0.0000 0.0000 16.6138 0.0000 -5.2244
# 5 22.2445 6.7785 -1.8142 0.0000 25.8308 0.0000
# 6 0.0000 0.0000 0.0000 -5.2244 0.0000 10.6737
#
#
#
# Elastic Compliance Matrix: (Units=1/GPa)
#
#
# Indices 1 2 3 4 5 6 
#
# 1 0.024240 -0.004496 0.005852 0.000000 -0.019284 0.000000
# 2 -0.004496 0.007602 -0.004300 0.000000 0.001575 0.000000
# 3 0.005852 -0.004300 0.028840 0.000000 -0.001885 0.000000
# 4 0.000000 0.000000 0.000000 0.071141 0.000000 0.034821
# 5 -0.019284 0.001575 -0.001885 0.000000 0.054774 0.000000
# 6 0.000000 0.000000 0.000000 0.034821 0.000000 0.110732
#
#
# Mechanical properties :
#
#
# Convention : Reuss Voigt Hill
#
# Bulk Modulus (GPa) = 18.25052 38.33622 28.29337
# Shear Modulus (GPa) = 15.55302 25.46215 20.50758
#
# Velocity S-wave (km/s) = 2.76636 3.53956 3.17657
# Velocity P-wave (km/s) = 4.37992 5.96387 5.23218
#
# Compressibility (1/GPa) = 0.05479295
#
# Stress axis : x y z
#
# Youngs Moduli (GPa) = 41.25443 131.55289 34.67375
#
# Poissons Ratio (x) = 0.59149 -0.20291
# Poissons Ratio (y) = 0.18549 0.14910
# Poissons Ratio (z) = -0.24142 0.56568
#
# Static dielectric constant tensor:
#      x y z
#    x 1.846240 0.000000 -0.333560 
#    y 0.000000 1.746410 0.000000 
#    z -0.333560 0.000000 2.575050 
# 
# From -- ./inp_files/62814.got.cif
#   From: 2010.05.17/outbox.cif.g08.bks.cpg/sg13_32_cif.got.tgz:62814.got - 2010.06.03 16:44:36.
