data_PCOD9237885
_publ_section_title
;
Structure prediction by ZEFSAII (Michael W. Deem and Ramdas Pophale) SiO2 
 PCOD9237885
Probable space group: P 2/C
;
_chemical_formula_sum "Si O2"
_cell_formula_units_Z 20
_cell_length_a 17.035195
_cell_length_b 7.247833
_cell_length_c 17.413867
_cell_angle_alpha 90.000000
_cell_angle_beta 27.042477
_cell_angle_gamma 90.000000
_cell_volume 977.526633
_symmetry_space_group_name_H-M "P 2/C"
_symmetry_group_IT_number 13
_symmetry_cell_setting 'monoclinic'
loop_
_space_group_symop_operation_xyz
x,y,z
-x,y,1/2-z
-x,-y,-z
x,-y,1/2+z
loop_
_atom_site_type_symbol
_atom_site_label
_atom_site_fract_x
_atom_site_fract_y
_atom_site_fract_z
Si Si1 0.368900 0.096857 0.952923
Si Si2 0.910562 0.052305 0.697144
Si Si3 0.723755 0.434873 0.581219
Si Si4 0.000000 0.338821 0.750000
Si Si5 0.500000 0.756824 0.750000
Si Si6 0.235410 0.145802 0.839953
O O1 0.339738 0.261619 0.916978
O O2 0.560497 0.109927 0.823335
O O3 0.376956 0.899155 0.902004
O O4 0.213880 0.091979 0.149496
O O5 0.812408 0.120310 0.706668
O O6 0.939639 0.212941 0.732468
O O7 0.098177 0.979160 0.506786
O O8 0.854432 0.532731 0.411241
O O9 0.598574 0.604278 0.715215
O O10 0.795332 0.345993 0.596200
#
# Coordination Sequence:
#
# PCOD9237885 Si02
#       6
#     4   4   4   2   2   4
#     4  12  22  45  69  97 134 178 221 276 329 399
#     4  11  25  42  70  97 135 182 217 273 338 386
#     4  12  23  41  70  97 129 175 225 272 332 393
#     4  12  24  42  66 100 130 178 232 266 328 410
#     4  12  20  40  70  96 128 172 222 266 332 386
#     4  11  23  44  66 101 137 173 221 277 329 393
#
# _framework density 20.459800999999999
#
# number of rings (size 3 to 8) (size 9 to 14) (size 15 to 20)
#    0.000    0.400    6.000    4.200    0.000    0.800 
#    0.000    6.000    0.000    0.000    0.000    0.000 
#    0.000    0.000    0.000    0.000    0.000    0.000 
#
# Total GULP energy -111518.860843 kJ/mol
# GULP energy per Si atom -5575.943042 kJ/mol
# Density = 2.041323 g / cm^3
# Si number density = 20.459801 Si / 1000 Ang^3
#
#
#
# Elastic Constant Matrix: (Units=GPa)
#
#
# Indices 1 2 3 4 5 6 
#
# 1 75.1719 26.9623 35.6648 0.0000 2.7339 0.0000
# 2 26.9623 107.3223 33.3115 0.0000 1.6197 0.0000
# 3 35.6648 33.3115 96.9814 0.0000 10.1786 0.0000
# 4 0.0000 0.0000 0.0000 67.1014 0.0000 42.0769
# 5 2.7339 1.6197 10.1786 0.0000 33.0016 0.0000
# 6 0.0000 0.0000 0.0000 42.0769 0.0000 81.9910
#
#
#
# Elastic Compliance Matrix: (Units=1/GPa)
#
#
# Indices 1 2 3 4 5 6 
#
# 1 0.016727 -0.002559 -0.005312 0.000000 0.000378 0.000000
# 2 -0.002559 0.010833 -0.002838 0.000000 0.000556 0.000000
# 3 -0.005312 -0.002838 0.013620 0.000000 -0.003621 0.000000
# 4 0.000000 0.000000 0.000000 0.021974 0.000000 -0.011277
# 5 0.000378 0.000556 -0.003621 0.000000 0.031360 0.000000
# 6 0.000000 0.000000 0.000000 -0.011277 0.000000 0.017984
#
#
# Mechanical properties :
#
#
# Convention : Reuss Voigt Hill
#
# Bulk Modulus (GPa) = 50.60428 52.37253 51.48841
# Shear Modulus (GPa) = 35.58614 48.65459 42.12036
#
# Velocity S-wave (km/s) = 4.17504 4.88182 4.54220
# Velocity P-wave (km/s) = 6.93026 7.57823 7.26148
#
# Compressibility (1/GPa) = 0.01976117
#
# Stress axis : x y z
#
# Youngs Moduli (GPa) = 59.78241 92.30851 73.42294
#
# Poissons Ratio (x) = 0.23624 0.39003
# Poissons Ratio (y) = 0.15300 0.20839
# Poissons Ratio (z) = 0.31757 0.26199
#
# Static dielectric constant tensor:
#      x y z
#    x 1.744020 0.000000 -0.076400 
#    y 0.000000 1.737660 0.000000 
#    z -0.076400 0.000000 1.831230 
# 
# From -- ./inp_files/62347.got.cif
#   From: 2010.05.17/outbox.cif.g08.bks.cpg/sg13_32_cif.got.tgz:62347.got - 2010.06.03 16:44:36.
