data_PCOD9237678
_publ_section_title
;
Structure prediction by ZEFSAII (Michael W. Deem and Ramdas Pophale) SiO2 
 PCOD9237678
Probable space group: P 2/C
;
_chemical_formula_sum "Si O2"
_cell_formula_units_Z 22
_cell_length_a 11.357617
_cell_length_b 6.883919
_cell_length_c 14.266145
_cell_angle_alpha 90.000000
_cell_angle_beta 70.880470
_cell_angle_gamma 90.000000
_cell_volume 1053.869035
_symmetry_space_group_name_H-M "P 2/C"
_symmetry_group_IT_number 13
_symmetry_cell_setting 'monoclinic'
loop_
_space_group_symop_operation_xyz
x,y,z
-x,y,1/2-z
-x,-y,-z
x,-y,1/2+z
loop_
_atom_site_type_symbol
_atom_site_label
_atom_site_fract_x
_atom_site_fract_y
_atom_site_fract_z
Si Si1 0.579600 0.697629 0.987220
Si Si2 0.195116 0.200574 0.673679
Si Si3 0.188203 0.470999 0.517579
Si Si4 0.555431 0.989169 0.337289
Si Si5 0.000000 0.888235 0.750000
Si Si6 0.904663 0.463165 0.161161
O O1 0.722464 0.644174 0.973160
O O2 0.567053 0.814806 0.894156
O O3 0.500000 0.500000 0.000000
O O4 0.528011 0.836993 0.082104
O O5 0.238981 0.288170 0.563166
O O6 0.308129 0.106208 0.700101
O O7 0.140314 0.374034 0.753204
O O8 0.094280 0.036247 0.676261
O O9 0.182694 0.455092 0.407237
O O10 0.045155 0.490470 0.589193
O O11 0.500000 0.021816 0.250000
O O12 0.080390 0.745147 0.793829
#
# Coordination Sequence:
#
# PCOD9237678 Si02
#       6
#     4   4   4   4   2   4
#     4  11  24  46  68  95 137 175 223 278 329 395
#     4  12  23  44  65  96 138 168 223 275 324 401
#     4  11  22  45  66  94 132 172 215 272 331 390
#     4  11  26  44  69 101 132 178 229 275 332 395
#     4  12  22  40  64  98 132 168 214 272 332 390
#     4  11  24  42  67  96 132 170 217 270 335 395
#
# _framework density 20.875458999999999
#
# number of rings (size 3 to 8) (size 9 to 14) (size 15 to 20)
#    0.000    0.727    5.455    2.182    0.000    2.909 
#    3.273    0.000    0.000    0.000    0.000    0.000 
#    0.000    0.000    0.000    0.000    0.000    0.000 
#
# Total GULP energy -122987.281473 kJ/mol
# GULP energy per Si atom -5590.330976 kJ/mol
# Density = 2.082795 g / cm^3
# Si number density = 20.875459 Si / 1000 Ang^3
#
#
#
# Elastic Constant Matrix: (Units=GPa)
#
#
# Indices 1 2 3 4 5 6 
#
# 1 111.5973 55.9535 52.4708 0.0000 24.6667 0.0000
# 2 55.9535 145.3246 72.0406 0.0000 20.9358 0.0000
# 3 52.4708 72.0406 127.8729 0.0000 46.5777 0.0000
# 4 0.0000 0.0000 0.0000 8.1862 0.0000 -6.0459
# 5 24.6667 20.9358 46.5777 0.0000 41.2738 0.0000
# 6 0.0000 0.0000 0.0000 -6.0459 0.0000 42.9505
#
#
#
# Elastic Compliance Matrix: (Units=1/GPa)
#
#
# Indices 1 2 3 4 5 6 
#
# 1 0.012279 -0.003272 -0.001913 0.000000 -0.003520 0.000000
# 2 -0.003272 0.010526 -0.005697 0.000000 0.003045 0.000000
# 3 -0.001913 -0.005697 0.017566 0.000000 -0.015791 0.000000
# 4 0.000000 0.000000 0.000000 0.136329 0.000000 0.019190
# 5 -0.003520 0.003045 -0.015791 0.000000 0.042608 0.000000
# 6 0.000000 0.000000 0.000000 0.019190 0.000000 0.025984
#
#
# Mechanical properties :
#
#
# Convention : Reuss Voigt Hill
#
# Bulk Modulus (GPa) = 53.74048 82.85831 68.29939
# Shear Modulus (GPa) = 18.29766 32.10410 25.20088
#
# Velocity S-wave (km/s) = 2.96381 3.92584 3.47825
# Velocity P-wave (km/s) = 6.12466 7.76708 6.99425
#
# Compressibility (1/GPa) = 0.01860795
#
# Stress axis : x y z
#
# Youngs Moduli (GPa) = 81.44075 94.99928 56.92682
#
# Poissons Ratio (x) = 0.31087 0.10889
# Poissons Ratio (y) = 0.26650 0.32429
# Poissons Ratio (z) = 0.15578 0.54118
#
# Static dielectric constant tensor:
#      x y z
#    x 1.796160 0.000000 -0.027060 
#    y 0.000000 1.736330 0.000000 
#    z -0.027060 0.000000 1.732860 
# 
# From -- ./inp_files/48847.got.cif
#   From: 2010.05.17/outbox.cif.g08.bks.cpg/sg13_25_cif.got.tgz:48847.got - 2010.06.03 16:44:36.
