data_PCOD9237396
_publ_section_title
;
Structure prediction by ZEFSAII (Michael W. Deem and Ramdas Pophale) SiO2 
 PCOD9237396
Probable space group: P 2/C
;
_chemical_formula_sum "Si O2"
_cell_formula_units_Z 16
_cell_length_a 13.525992
_cell_length_b 7.177926
_cell_length_c 19.810113
_cell_angle_alpha 90.000000
_cell_angle_beta 160.241537
_cell_angle_gamma 90.000000
_cell_volume 650.194604
_symmetry_space_group_name_H-M "P 2/C"
_symmetry_group_IT_number 13
_symmetry_cell_setting 'monoclinic'
loop_
_space_group_symop_operation_xyz
x,y,z
-x,y,1/2-z
-x,-y,-z
x,-y,1/2+z
loop_
_atom_site_type_symbol
_atom_site_label
_atom_site_fract_x
_atom_site_fract_y
_atom_site_fract_z
Si Si1 0.305478 0.818825 0.428299
Si Si2 0.823673 0.276583 0.438294
Si Si3 0.878179 0.386096 0.317901
Si Si4 0.874663 0.037521 0.066455
O O1 0.567108 0.676920 0.588632
O O2 0.347826 0.948175 0.522666
O O3 0.000000 0.712453 0.250000
O O4 0.188939 0.963403 0.297057
O O5 0.500000 0.346883 0.250000
O O6 0.881424 0.314368 0.397628
O O7 0.835786 0.064689 0.470630
O O8 0.045715 0.398546 0.626519
O O9 0.116102 0.258285 0.432586
#
# Coordination Sequence:
#
# PCOD9237396 Si02
#       4
#     4   4   4   4
#     4   8  19  38  61  88 118 147 194 245 282 352
#     4  11  22  39  58  88 121 151 197 241 283 351
#     4  11  21  38  62  84 117 158 191 235 299 342
#     4   9  20  39  60  84 119 152 190 242 290 342
#
# _framework density 24.608014000000001
#
# number of rings (size 3 to 8) (size 9 to 14) (size 15 to 20)
#    1.500    0.500    2.500    1.500    0.000    2.000 
#    9.000    5.000    0.000    0.000    0.000    0.000 
#    0.000    0.000    0.000    0.000    0.000    0.000 
#
# Total GULP energy -89257.409642 kJ/mol
# GULP energy per Si atom -5578.588103 kJ/mol
# Density = 2.455201 g / cm^3
# Si number density = 24.608014 Si / 1000 Ang^3
#
#
#
# Elastic Constant Matrix: (Units=GPa)
#
#
# Indices 1 2 3 4 5 6 
#
# 1 55.0190 -6.8702 -12.3947 0.0000 -8.7457 0.0000
# 2 -6.8702 82.4110 10.6030 0.0000 7.4381 0.0000
# 3 -12.3947 10.6030 58.7604 0.0000 1.4150 0.0000
# 4 0.0000 0.0000 0.0000 14.2450 0.0000 -8.8323
# 5 -8.7457 7.4381 1.4150 0.0000 33.2335 0.0000
# 6 0.0000 0.0000 0.0000 -8.8323 0.0000 12.3587
#
#
#
# Elastic Compliance Matrix: (Units=1/GPa)
#
#
# Indices 1 2 3 4 5 6 
#
# 1 0.019938 0.000709 0.003959 0.000000 0.004920 0.000000
# 2 0.000709 0.012692 -0.002079 0.000000 -0.002566 0.000000
# 3 0.003959 -0.002079 0.018211 0.000000 0.000732 0.000000
# 4 0.000000 0.000000 0.000000 0.126057 0.000000 0.090088
# 5 0.004920 -0.002566 0.000732 0.000000 0.031928 0.000000
# 6 0.000000 0.000000 0.000000 0.090088 0.000000 0.145296
#
#
# Mechanical properties :
#
#
# Convention : Reuss Voigt Hill
#
# Bulk Modulus (GPa) = 17.85099 19.87409 18.86254
# Shear Modulus (GPa) = 13.60109 25.62426 19.61267
#
# Velocity S-wave (km/s) = 2.35353 3.23041 2.82619
# Velocity P-wave (km/s) = 3.82823 4.69126 4.28154
#
# Compressibility (1/GPa) = 0.05601931
#
# Stress axis : x y z
#
# Youngs Moduli (GPa) = 50.15549 78.78701 54.91203
#
# Poissons Ratio (x) = -0.05584 -0.21741
# Poissons Ratio (y) = -0.03554 0.11416
# Poissons Ratio (z) = -0.19858 0.16380
#
# Static dielectric constant tensor:
#      x y z
#    x 1.980990 0.000000 0.024170 
#    y 0.000000 1.916390 0.000000 
#    z 0.024170 0.000000 2.064410 
# 
# From -- ./inp_files/54208.got.cif
#   From: 2010.05.17/outbox.cif.g08.bks.cpg/sg13_28_cif.got.tgz:54208.got - 2010.06.03 16:44:36.
