data_PCOD9237039
_publ_section_title
;
Structure prediction by ZEFSAII (Michael W. Deem and Ramdas Pophale) SiO2 
 PCOD9237039
Probable space group: P 2/C
;
_chemical_formula_sum "Si O2"
_cell_formula_units_Z 32
_cell_length_a 6.108078
_cell_length_b 11.546843
_cell_length_c 21.249931
_cell_angle_alpha 90.000000
_cell_angle_beta 70.936854
_cell_angle_gamma 90.000000
_cell_volume 1416.544823
_symmetry_space_group_name_H-M "P 2/C"
_symmetry_group_IT_number 13
_symmetry_cell_setting 'monoclinic'
loop_
_space_group_symop_operation_xyz
x,y,z
-x,y,1/2-z
-x,-y,-z
x,-y,1/2+z
loop_
_atom_site_type_symbol
_atom_site_label
_atom_site_fract_x
_atom_site_fract_y
_atom_site_fract_z
Si Si1 0.295484 0.810819 0.384305
Si Si2 0.942707 0.368508 0.873653
Si Si3 0.104111 0.610093 0.878127
Si Si4 0.712992 0.226521 0.473151
Si Si5 0.775820 0.833434 0.314108
Si Si6 0.218753 0.819202 0.782231
Si Si7 0.357100 0.600491 0.977427
Si Si8 0.045854 0.007385 0.102377
O O1 0.169226 0.710727 0.357406
O O2 0.357770 0.764290 0.447590
O O3 0.510045 0.851398 0.322023
O O4 0.119511 0.915715 0.416292
O O5 0.985618 0.501744 0.855504
O O6 0.791358 0.298532 0.837735
O O7 0.839582 0.367994 0.953862
O O8 0.212319 0.694761 0.816973
O O9 0.270406 0.561375 0.917434
O O10 0.923392 0.688595 0.934667
O O11 0.502595 0.281790 0.453826
O O12 0.790459 0.097350 0.448886
O O13 0.000000 0.854436 0.250000
O O14 0.803384 0.923380 0.368519
O O15 0.500000 0.842984 0.750000
O O16 0.121114 0.914769 0.839131
O O17 0.000000 0.817528 0.750000
O O18 0.500000 0.500000 0.000000
#
# Coordination Sequence:
#
# PCOD9237039 Si02
#       8
#     4   4   4   4   4   4   4   4
#     4  11  23  43  66  97 141 182 229 296 362 434
#     4  11  23  42  63 103 134 184 230 288 357 437
#     4  11  25  42  71 102 145 182 240 296 374 441
#     4  11  22  41  67 105 140 175 231 292 376 430
#     4  11  26  45  66  92 133 190 243 288 355 432
#     4  11  28  50  75 106 143 193 251 309 372 441
#     4  12  22  38  72 103 147 188 228 296 370 456
#     4  10  26  41  71  98 136 181 241 301 361 432
#
# _framework density 22.590178999999999
#
# number of rings (size 3 to 8) (size 9 to 14) (size 15 to 20)
#    0.000    1.000    3.750    1.875    7.000    3.500 
#    2.250    0.000    0.000    0.000    0.000    0.000 
#    0.000    0.000    0.000    0.000    0.000    0.000 
#
# Total GULP energy -178484.687601 kJ/mol
# GULP energy per Si atom -5577.646488 kJ/mol
# Density = 2.253876 g / cm^3
# Si number density = 22.590179 Si / 1000 Ang^3
#
#
#
# Elastic Constant Matrix: (Units=GPa)
#
#
# Indices 1 2 3 4 5 6 
#
# 1 65.0141 -3.2430 13.5913 0.0000 -18.0818 0.0000
# 2 -3.2430 94.7518 -8.6270 0.0000 3.3243 0.0000
# 3 13.5913 -8.6270 33.0419 0.0000 -7.5868 0.0000
# 4 0.0000 0.0000 0.0000 17.3133 0.0000 -18.4981
# 5 -18.0818 3.3243 -7.5868 0.0000 31.7419 0.0000
# 6 0.0000 0.0000 0.0000 -18.4981 0.0000 -26.4234
#
#
#
# Elastic Compliance Matrix: (Units=1/GPa)
#
#
# Indices 1 2 3 4 5 6 
#
# 1 0.019249 -0.000203 -0.005764 0.000000 0.009608 0.000000
# 2 -0.000203 0.010820 0.002774 0.000000 -0.000586 0.000000
# 3 -0.005764 0.002774 0.034429 0.000000 0.004655 0.000000
# 4 0.000000 0.000000 0.000000 0.033044 0.000000 -0.023133
# 5 0.009608 -0.000586 0.004655 0.000000 0.038151 0.000000
# 6 0.000000 0.000000 0.000000 -0.023133 0.000000 -0.021651
#
#
# Mechanical properties :
#
#
# Convention : Reuss Voigt Hill
#
# Bulk Modulus (GPa) = 17.20862 21.80560 19.50711
# Shear Modulus (GPa) = 35.76577 17.26547 26.51562
#
# Velocity S-wave (km/s) = 3.98332 2.76758 3.42975
# Velocity P-wave (km/s) = 5.36563 4.45941 4.93337
#
# Compressibility (1/GPa) = 0.05811043
#
# Stress axis : x y z
#
# Youngs Moduli (GPa) = 51.95204 92.42091 29.04547
#
# Poissons Ratio (x) = 0.01877 0.16743
# Poissons Ratio (y) = 0.01055 -0.08057
# Poissons Ratio (z) = 0.29947 -0.25638
#
# Static dielectric constant tensor:
#      x y z
#    x 2.000640 0.000000 -0.015940 
#    y 0.000000 1.829000 0.000000 
#    z -0.015940 0.000000 1.825900 
# 
# From -- ./inp_files/83796.got.cif
#   From: 2010.05.17/outbox.cif.g08.bks.cpg/sg13_42_cif.got.tgz:83796.got - 2010.06.03 16:44:36.
