data_PCOD9237523
_publ_section_title
;
Structure prediction by ZEFSAII (Michael W. Deem and Ramdas Pophale) SiO2 
 PCOD9237523
Probable space group: P 2/C
;
_chemical_formula_sum "Si O2"
_cell_formula_units_Z 28
_cell_length_a 24.631606
_cell_length_b 8.873714
_cell_length_c 8.777547
_cell_angle_alpha 90.000000
_cell_angle_beta 139.390326
_cell_angle_gamma 90.000000
_cell_volume 1248.783629
_symmetry_space_group_name_H-M "P 2/C"
_symmetry_group_IT_number 13
_symmetry_cell_setting 'monoclinic'
loop_
_space_group_symop_operation_xyz
x,y,z
-x,y,1/2-z
-x,-y,-z
x,-y,1/2+z
loop_
_atom_site_type_symbol
_atom_site_label
_atom_site_fract_x
_atom_site_fract_y
_atom_site_fract_z
Si Si1 0.544070 0.637860 0.505156
Si Si2 0.287089 0.808260 0.893407
Si Si3 0.086019 0.199890 0.978449
Si Si4 0.769099 0.705095 0.248492
Si Si5 0.287252 0.530086 0.078765
Si Si6 0.352944 0.103441 0.199116
Si Si7 0.923551 0.881803 0.686207
O O1 0.500000 0.500000 0.500000
O O2 0.637856 0.571810 0.701313
O O3 0.557036 0.809857 0.597411
O O4 0.500000 0.652490 0.250000
O O5 0.186627 0.772086 0.681567
O O6 0.312046 0.865440 0.778412
O O7 0.321565 0.649696 0.029530
O O8 0.326925 0.934025 0.093239
O O9 0.000000 0.292329 0.750000
O O10 0.077916 0.059891 0.844522
O O11 0.076198 0.157921 0.136072
O O12 0.751661 0.621434 0.367406
O O13 0.843127 0.817699 0.432062
O O14 0.780038 0.578809 0.143031
O O15 0.690797 0.800584 0.027107
O O16 0.000000 0.820579 0.750000
#
# Coordination Sequence:
#
# PCOD9237523 Si02
#       7
#     4   4   4   4   4   4   4
#     4  11  23  45  70  96 129 171 215 266 338 410
#     4  12  22  41  66 102 137 172 231 273 325 390
#     4  11  22  37  63  97 138 177 221 275 336 373
#     4  11  22  42  61  94 126 175 227 269 325 397
#     4  11  23  42  67  94 130 174 219 271 332 404
#     4  11  24  39  68  99 131 171 219 277 326 394
#     4  11  22  38  61  93 132 175 227 278 332 386
#
# _framework density 22.421818999999999
#
# number of rings (size 3 to 8) (size 9 to 14) (size 15 to 20)
#    0.000    0.857    2.857    7.714    2.000    0.000 
#    0.000    5.000    0.000    0.000    0.000    0.000 
#    0.000    0.000    0.000    0.000    0.000    0.000 
#
# Total GULP energy -156004.891733 kJ/mol
# GULP energy per Si atom -5571.603276 kJ/mol
# Density = 2.237079 g / cm^3
# Si number density = 22.421819 Si / 1000 Ang^3
#
#
#
# Elastic Constant Matrix: (Units=GPa)
#
#
# Indices 1 2 3 4 5 6 
#
# 1 58.4520 -16.5911 10.5621 0.0000 -6.9775 0.0000
# 2 -16.5911 70.3268 28.0050 0.0000 5.0419 0.0000
# 3 10.5621 28.0050 131.4640 0.0000 -4.4613 0.0000
# 4 0.0000 0.0000 0.0000 41.3055 0.0000 -2.0795
# 5 -6.9775 5.0419 -4.4613 0.0000 34.3724 0.0000
# 6 0.0000 0.0000 0.0000 -2.0795 0.0000 24.8741
#
#
#
# Elastic Compliance Matrix: (Units=1/GPa)
#
#
# Indices 1 2 3 4 5 6 
#
# 1 0.019461 0.005435 -0.002626 0.000000 0.002812 0.000000
# 2 0.005435 0.017313 -0.004192 0.000000 -0.001980 0.000000
# 3 -0.002626 -0.004192 0.008752 0.000000 0.001218 0.000000
# 4 0.000000 0.000000 0.000000 0.024312 0.000000 0.002033
# 5 0.002812 -0.001980 0.001218 0.000000 0.030113 0.000000
# 6 0.000000 0.000000 0.000000 0.002033 0.000000 0.040372
#
#
# Mechanical properties :
#
#
# Convention : Reuss Voigt Hill
#
# Bulk Modulus (GPa) = 23.38612 33.79942 28.59277
# Shear Modulus (GPa) = 31.77797 35.99485 33.88641
#
# Velocity S-wave (km/s) = 3.76876 4.01103 3.89178
# Velocity P-wave (km/s) = 5.42133 6.04634 5.74234
#
# Compressibility (1/GPa) = 0.04276041
#
# Stress axis : x y z
#
# Youngs Moduli (GPa) = 51.38483 57.76064 114.26050
#
# Poissons Ratio (x) = -0.31394 0.30004
# Poissons Ratio (y) = -0.27929 0.47897
# Poissons Ratio (z) = 0.13493 0.24213
#
# Static dielectric constant tensor:
#      x y z
#    x 1.982200 0.000000 0.155430 
#    y 0.000000 1.905140 0.000000 
#    z 0.155430 0.000000 1.976030 
# 
# From -- ./inp_files/22936.got.cif
#   From: 2010.05.17/outbox.cif.g08.bks.cpg/sg13_12_cif.got.tgz:22936.got - 2010.06.03 16:44:36.
