data_PCOD9237915
_publ_section_title
;
Structure prediction by ZEFSAII (Michael W. Deem and Ramdas Pophale) SiO2 
 PCOD9237915
Probable space group: P 2/C
;
_chemical_formula_sum "Si O2"
_cell_formula_units_Z 14
_cell_length_a 6.019407
_cell_length_b 7.488499
_cell_length_c 15.331375
_cell_angle_alpha 90.000000
_cell_angle_beta 105.661959
_cell_angle_gamma 90.000000
_cell_volume 665.422968
_symmetry_space_group_name_H-M "P 2/C"
_symmetry_group_IT_number 13
_symmetry_cell_setting 'monoclinic'
loop_
_space_group_symop_operation_xyz
x,y,z
-x,y,1/2-z
-x,-y,-z
x,-y,1/2+z
loop_
_atom_site_type_symbol
_atom_site_label
_atom_site_fract_x
_atom_site_fract_y
_atom_site_fract_z
Si Si1 0.500000 0.825998 0.250000
Si Si2 0.056680 0.720945 0.109362
Si Si3 0.680904 0.020595 0.098673
Si Si4 0.736170 0.402182 0.053497
O O1 0.275482 0.719965 0.195466
O O2 0.572136 0.941048 0.174224
O O3 0.910928 0.904788 0.102023
O O4 0.888239 0.557366 0.110758
O O5 0.145731 0.682056 0.020736
O O6 0.712503 0.231705 0.112403
O O7 0.500000 0.000000 0.000000
O O8 0.500000 0.500000 0.000000
#
# Coordination Sequence:
#
# PCOD9237915 Si02
#       4
#     2   4   4   4
#     4  12  26  44  70 106 144 184 238 292 352 430
#     4  11  24  45  72 101 145 182 237 296 354 427
#     4  12  24  46  74 100 143 188 236 293 360 417
#     4  11  23  44  76 103 135 191 236 288 365 420
#
# _framework density 21.039249000000002
#
# number of rings (size 3 to 8) (size 9 to 14) (size 15 to 20)
#    0.000    0.571    5.714    1.714    0.000    0.000 
#    0.000   21.429    0.000    0.000    0.000    0.000 
#    0.000    0.000    0.000    0.000    0.000    0.000 
#
# Total GULP energy -78315.386689 kJ/mol
# GULP energy per Si atom -5593.956192 kJ/mol
# Density = 2.099136 g / cm^3
# Si number density = 21.039249 Si / 1000 Ang^3
#
#
#
# Elastic Constant Matrix: (Units=GPa)
#
#
# Indices 1 2 3 4 5 6 
#
# 1 129.5123 73.1494 49.6700 0.0000 31.4795 0.0000
# 2 73.1494 160.6810 37.3268 0.0000 31.5280 0.0000
# 3 49.6700 37.3268 108.9850 0.0000 22.8136 0.0000
# 4 0.0000 0.0000 0.0000 19.7472 0.0000 -2.1910
# 5 31.4795 31.5280 22.8136 0.0000 56.2929 0.0000
# 6 0.0000 0.0000 0.0000 -2.1910 0.0000 25.5101
#
#
#
# Elastic Compliance Matrix: (Units=1/GPa)
#
#
# Indices 1 2 3 4 5 6 
#
# 1 0.012120 -0.004108 -0.003474 0.000000 -0.003069 0.000000
# 2 -0.004108 0.008693 -0.000619 0.000000 -0.002320 0.000000
# 3 -0.003474 -0.000619 0.011464 0.000000 -0.002356 0.000000
# 4 0.000000 0.000000 0.000000 0.051127 0.000000 0.004391
# 5 -0.003069 -0.002320 -0.002356 0.000000 0.021735 0.000000
# 6 0.000000 0.000000 0.000000 0.004391 0.000000 0.039577
#
#
# Mechanical properties :
#
#
# Convention : Reuss Voigt Hill
#
# Bulk Modulus (GPa) = 62.99768 79.94121 71.46944
# Shear Modulus (GPa) = 30.04599 36.24552 33.14575
#
# Velocity S-wave (km/s) = 3.78311 4.15511 3.97347
# Velocity P-wave (km/s) = 7.00646 7.81656 7.42257
#
# Compressibility (1/GPa) = 0.01587360
#
# Stress axis : x y z
#
# Youngs Moduli (GPa) = 82.50806 115.03573 87.22725
#
# Poissons Ratio (x) = 0.47261 0.30305
# Poissons Ratio (y) = 0.33898 0.05401
# Poissons Ratio (z) = 0.28665 0.07123
#
# Static dielectric constant tensor:
#      x y z
#    x 1.528760 0.000000 0.131090 
#    y 0.000000 1.764740 0.000000 
#    z 0.131090 0.000000 1.663920 
# 
# From -- ./inp_files/43131.got.cif
#   From: 2010.05.17/outbox.cif.g08.bks.cpg/sg13_22_cif.got.tgz:43131.got - 2010.06.03 16:44:36.
