data_PCOD9237936
_publ_section_title
;
Structure prediction by ZEFSAII (Michael W. Deem and Ramdas Pophale) SiO2 
 PCOD9237936
Probable space group: P 2/C
;
_chemical_formula_sum "Si O2"
_cell_formula_units_Z 16
_cell_length_a 10.606368
_cell_length_b 6.367604
_cell_length_c 25.138928
_cell_angle_alpha 90.000000
_cell_angle_beta 21.363181
_cell_angle_gamma 90.000000
_cell_volume 618.476088
_symmetry_space_group_name_H-M "P 2/C"
_symmetry_group_IT_number 13
_symmetry_cell_setting 'monoclinic'
loop_
_space_group_symop_operation_xyz
x,y,z
-x,y,1/2-z
-x,-y,-z
x,-y,1/2+z
loop_
_atom_site_type_symbol
_atom_site_label
_atom_site_fract_x
_atom_site_fract_y
_atom_site_fract_z
Si Si1 0.710031 0.340054 0.091520
Si Si2 0.977411 0.554150 0.140869
Si Si3 0.477408 0.054149 0.640871
Si Si4 0.210034 0.159946 0.091519
O O1 0.335653 0.412257 0.258350
O O2 0.677232 0.086349 0.106010
O O3 0.000000 0.500000 0.000000
O O4 0.764609 0.375243 0.006495
O O5 0.750002 0.750000 0.249999
O O6 0.177237 0.413651 0.106007
O O7 0.735389 0.124755 0.493506
O O8 0.164345 0.912256 0.741651
O O9 0.500000 0.000000 0.000000
#
# Coordination Sequence:
#
# PCOD9237936 Si02
#       4
#     4   4   4   4
#     4  11  24  44  72 105 146 191 243 302 370 431
#     4  11  23  45  71 106 145 188 246 303 356 445
#     4  11  23  45  71 106 145 188 246 303 356 445
#     4  11  24  44  72 105 146 191 243 302 370 431
#
# _framework density 25.870037
#
# number of rings (size 3 to 8) (size 9 to 14) (size 15 to 20)
#    0.000    1.000    5.000    1.500    0.000    2.000 
#    0.000    5.000    0.000    0.000    0.000    0.000 
#    0.000    0.000    0.000    0.000    0.000    0.000 
#
# Total GULP energy -89187.935083 kJ/mol
# GULP energy per Si atom -5574.245943 kJ/mol
# Density = 2.581116 g / cm^3
# Si number density = 25.870037 Si / 1000 Ang^3
#
#
#
# Elastic Constant Matrix: (Units=GPa)
#
#
# Indices 1 2 3 4 5 6 
#
# 1 40.8077 54.7614 36.7394 0.0000 -20.1686 0.0000
# 2 54.7614 187.1856 49.4974 0.0000 -26.3066 0.0000
# 3 36.7394 49.4974 190.3153 0.0000 -12.9988 0.0000
# 4 0.0000 0.0000 0.0000 73.0853 0.0000 -17.2999
# 5 -20.1686 -26.3066 -12.9988 0.0000 57.1460 0.0000
# 6 0.0000 0.0000 0.0000 -17.2999 0.0000 36.9208
#
#
#
# Elastic Compliance Matrix: (Units=1/GPa)
#
#
# Indices 1 2 3 4 5 6 
#
# 1 0.051508 -0.011868 -0.006083 0.000000 0.011332 0.000000
# 2 -0.011868 0.008796 -0.000006 0.000000 -0.000141 0.000000
# 3 -0.006083 -0.000006 0.006383 0.000000 -0.000698 0.000000
# 4 0.000000 0.000000 0.000000 0.015390 0.000000 0.007211
# 5 0.011332 -0.000141 -0.000698 0.000000 0.021275 0.000000
# 6 0.000000 0.000000 0.000000 0.007211 0.000000 0.030464
#
#
# Mechanical properties :
#
#
# Convention : Reuss Voigt Hill
#
# Bulk Modulus (GPa) = 32.49598 77.81167 55.15383
# Shear Modulus (GPa) = 27.77994 51.91779 39.84886
#
# Velocity S-wave (km/s) = 3.28048 4.48467 3.92898
# Velocity P-wave (km/s) = 5.19011 7.54716 6.47676
#
# Compressibility (1/GPa) = 0.03077304
#
# Stress axis : x y z
#
# Youngs Moduli (GPa) = 19.41454 113.68701 156.67430
#
# Poissons Ratio (x) = 1.34920 0.95302
# Poissons Ratio (y) = 0.23040 0.00099
# Poissons Ratio (z) = 0.11809 0.00072
#
# Static dielectric constant tensor:
#      x y z
#    x 2.119380 0.000000 -0.095960 
#    y 0.000000 2.330120 0.000000 
#    z -0.095960 0.000000 1.931110 
# 
# From -- ./inp_files/24286.got.cif
#   From: 2010.05.17/outbox.cif.g08.bks.cpg/sg13_13_cif.got.tgz:24286.got - 2010.06.03 16:44:36.
