data_PCOD9237891
_publ_section_title
;
Structure prediction by ZEFSAII (Michael W. Deem and Ramdas Pophale) SiO2 
 PCOD9237891
Probable space group: P 2/C
;
_chemical_formula_sum "Si O2"
_cell_formula_units_Z 32
_cell_length_a 10.895024
_cell_length_b 9.353982
_cell_length_c 28.133074
_cell_angle_alpha 90.000000
_cell_angle_beta 32.861700
_cell_angle_gamma 90.000000
_cell_volume 1555.722613
_symmetry_space_group_name_H-M "P 2/C"
_symmetry_group_IT_number 13
_symmetry_cell_setting 'monoclinic'
loop_
_space_group_symop_operation_xyz
x,y,z
-x,y,1/2-z
-x,-y,-z
x,-y,1/2+z
loop_
_atom_site_type_symbol
_atom_site_label
_atom_site_fract_x
_atom_site_fract_y
_atom_site_fract_z
Si Si1 0.368019 0.848779 0.488673
Si Si2 0.416567 0.363431 0.887283
Si Si3 0.084213 0.978604 0.337394
Si Si4 0.257993 0.671406 0.961124
Si Si5 0.192919 0.854446 0.403159
Si Si6 0.502120 0.051501 0.134348
Si Si7 0.931239 0.290605 0.722789
Si Si8 0.657227 0.365206 0.955484
O O1 0.319939 0.726019 0.464141
O O2 0.522452 0.772304 0.478162
O O3 0.506731 0.968297 0.413196
O O4 0.138107 0.922471 0.583051
O O5 0.303758 0.518192 0.922647
O O6 0.377358 0.268956 0.852830
O O7 0.686062 0.359145 0.805806
O O8 0.178009 0.936737 0.358620
O O9 0.033879 0.828054 0.328669
O O10 0.285964 0.034743 0.238336
O O11 0.455445 0.782616 0.885712
O O12 0.267430 0.649868 0.014652
O O13 0.033831 0.758348 0.018509
O O14 0.277563 0.974581 0.413041
O O15 0.000000 0.220715 0.750000
O O16 0.125117 0.401238 0.647331
O O17 0.500000 0.500000 0.000000
#
# Coordination Sequence:
#
# PCOD9237891 Si02
#       8
#     4   4   4   4   4   4   4   4
#     4  11  23  44  67 100 136 182 230 289 341 417
#     4  11  25  44  70  99 143 180 233 280 350 423
#     4  12  24  41  74  99 133 186 234 287 347 406
#     4  12  24  44  70 104 136 188 228 288 357 407
#     4  11  23  45  70  96 137 182 230 286 343 412
#     4  11  24  43  69 101 139 177 238 291 344 411
#     4  12  22  43  69  99 139 186 225 282 355 412
#     4  12  24  43  70 100 141 184 230 283 349 428
#
# _framework density 20.569220000000001
#
# number of rings (size 3 to 8) (size 9 to 14) (size 15 to 20)
#    0.000    0.500    7.500    1.125    1.750    4.000 
#    0.000    1.250    2.750    0.000    0.000    0.000 
#    0.000    0.000    0.000    0.000    0.000    0.000 
#
# Total GULP energy -178527.631325 kJ/mol
# GULP energy per Si atom -5578.988479 kJ/mol
# Density = 2.052240 g / cm^3
# Si number density = 20.569220 Si / 1000 Ang^3
#
#
#
# Elastic Constant Matrix: (Units=GPa)
#
#
# Indices 1 2 3 4 5 6 
#
# 1 59.7943 -9.3155 19.0145 0.0000 -5.4239 0.0000
# 2 -9.3155 77.3883 44.1843 0.0000 3.2398 0.0000
# 3 19.0145 44.1843 123.9686 0.0000 -19.3964 0.0000
# 4 0.0000 0.0000 0.0000 32.3678 0.0000 -7.9604
# 5 -5.4239 3.2398 -19.3964 0.0000 20.5854 0.0000
# 6 0.0000 0.0000 0.0000 -7.9604 0.0000 17.2664
#
#
#
# Elastic Compliance Matrix: (Units=1/GPa)
#
#
# Indices 1 2 3 4 5 6 
#
# 1 0.018985 0.004996 -0.004730 0.000000 -0.000241 0.000000
# 2 0.004996 0.019247 -0.009259 0.000000 -0.010437 0.000000
# 3 -0.004730 -0.009259 0.014222 0.000000 0.013611 0.000000
# 4 0.000000 0.000000 0.000000 0.034846 0.000000 0.016065
# 5 -0.000241 -0.010437 0.013611 0.000000 0.062982 0.000000
# 6 0.000000 0.000000 0.000000 0.016065 0.000000 0.065323
#
#
# Mechanical properties :
#
#
# Convention : Reuss Voigt Hill
#
# Bulk Modulus (GPa) = 29.01370 40.99087 35.00229
# Shear Modulus (GPa) = 20.40154 27.86177 24.13166
#
# Velocity S-wave (km/s) = 3.15278 3.68440 3.42891
# Velocity P-wave (km/s) = 5.23349 6.17019 5.72104
#
# Compressibility (1/GPa) = 0.03446648
#
# Stress axis : x y z
#
# Youngs Moduli (GPa) = 52.67396 51.95726 70.31440
#
# Poissons Ratio (x) = -0.25958 0.33261
# Poissons Ratio (y) = -0.26316 0.65105
# Poissons Ratio (z) = 0.24917 0.48108
#
# Static dielectric constant tensor:
#      x y z
#    x 1.798580 0.000000 -0.007390 
#    y 0.000000 1.760140 0.000000 
#    z -0.007390 0.000000 1.807720 
# 
# From -- ./inp_files/96686.got.cif
#   From: 2010.05.17/outbox.cif.g08.bks.cpg/sg13_49_cif.got.tgz:96686.got - 2010.06.03 16:44:36.
