data_PCOD9237707
_publ_section_title
;
Structure prediction by ZEFSAII (Michael W. Deem and Ramdas Pophale) SiO2 
 PCOD9237707
Probable space group: P 2/C
;
_chemical_formula_sum "Si O2"
_cell_formula_units_Z 20
_cell_length_a 8.283503
_cell_length_b 7.093873
_cell_length_c 20.775897
_cell_angle_alpha 90.000000
_cell_angle_beta 122.935519
_cell_angle_gamma 90.000000
_cell_volume 1024.626634
_symmetry_space_group_name_H-M "P 2/C"
_symmetry_group_IT_number 13
_symmetry_cell_setting 'monoclinic'
loop_
_space_group_symop_operation_xyz
x,y,z
-x,y,1/2-z
-x,-y,-z
x,-y,1/2+z
loop_
_atom_site_type_symbol
_atom_site_label
_atom_site_fract_x
_atom_site_fract_y
_atom_site_fract_z
Si Si1 0.027627 0.608670 0.362069
Si Si2 0.277957 0.592531 0.529384
Si Si3 0.326618 0.699216 0.942644
Si Si4 0.012877 0.035177 0.326727
Si Si5 0.282189 0.684556 0.680054
O O1 0.081684 0.641906 0.449323
O O2 0.205470 0.471017 0.381189
O O3 0.836628 0.486323 0.313247
O O4 0.014826 0.810615 0.328211
O O5 0.457797 0.701871 0.535978
O O6 0.316855 0.376062 0.514214
O O7 0.273379 0.640575 0.602435
O O8 0.205818 0.883705 0.901433
O O9 0.835936 0.128223 0.326834
O O10 0.000000 0.100130 0.250000
O O11 0.500000 0.695209 0.750000
#
# Coordination Sequence:
#
# PCOD9237707 Si02
#       5
#     4   4   4   4   4
#     4   9  21  38  59  85 112 154 189 233 282 337
#     4   9  18  41  61  87 114 146 196 226 291 344
#     4   8  19  39  60  85 113 150 185 236 280 340
#     4  11  23  37  56  86 116 151 195 232 287 338
#     4  11  23  39  59  84 118 153 184 244 287 331
#
# _framework density 19.519306
#
# number of rings (size 3 to 8) (size 9 to 14) (size 15 to 20)
#    1.200    1.200    0.000    1.800    0.000    7.200 
#    0.000    0.000    0.000    0.000    0.000    0.000 
#    0.000    0.000    0.000    0.000    0.000    0.000 
#
# Total GULP energy -111369.762022 kJ/mol
# GULP energy per Si atom -5568.488101 kJ/mol
# Density = 1.947488 g / cm^3
# Si number density = 19.519306 Si / 1000 Ang^3
#
#
#
# Elastic Constant Matrix: (Units=GPa)
#
#
# Indices 1 2 3 4 5 6 
#
# 1 55.2776 15.8156 5.5745 0.0000 9.0706 0.0000
# 2 15.8156 86.7766 -4.4407 0.0000 4.9286 0.0000
# 3 5.5745 -4.4407 43.0854 0.0000 -8.0231 0.0000
# 4 0.0000 0.0000 0.0000 -4.5801 0.0000 -5.8696
# 5 9.0706 4.9286 -8.0231 0.0000 43.3652 0.0000
# 6 0.0000 0.0000 0.0000 -5.8696 0.0000 8.2745
#
#
#
# Elastic Compliance Matrix: (Units=1/GPa)
#
#
# Indices 1 2 3 4 5 6 
#
# 1 0.020261 -0.003632 -0.003840 0.000000 -0.004536 0.000000
# 2 -0.003632 0.012290 0.001676 0.000000 -0.000327 0.000000
# 3 -0.003840 0.001676 0.024850 0.000000 0.005210 0.000000
# 4 0.000000 0.000000 0.000000 -0.114366 0.000000 -0.081127
# 5 -0.004536 -0.000327 0.005210 0.000000 0.025010 0.000000
# 6 0.000000 0.000000 0.000000 -0.081127 0.000000 0.063305
#
#
# Mechanical properties :
#
#
# Convention : Reuss Voigt Hill
#
# Bulk Modulus (GPa) = 21.83024 24.33761 23.08393
# Shear Modulus (GPa) = 85.89399 20.62459 53.25929
#
# Velocity S-wave (km/s) = 6.64080 3.25410 5.22921
# Velocity P-wave (km/s) = 8.36710 5.15892 6.95064
#
# Compressibility (1/GPa) = 0.04580802
#
# Stress axis : x y z
#
# Youngs Moduli (GPa) = 49.35562 81.36658 40.24220
#
# Poissons Ratio (x) = 0.29549 0.15454
# Poissons Ratio (y) = 0.17924 -0.06743
# Poissons Ratio (z) = 0.18954 -0.13634
#
# Static dielectric constant tensor:
#      x y z
#    x 1.681290 0.000000 -0.016680 
#    y 0.000000 1.682920 0.000000 
#    z -0.016680 0.000000 1.702530 
# 
# From -- ./inp_files/74410.got.cif
#   From: 2010.05.17/outbox.cif.g08.bks.cpg/sg13_38_cif.got.tgz:74410.got - 2010.06.03 16:44:36.
