data_PCOD9237955
_publ_section_title
;
Structure prediction by ZEFSAII (Michael W. Deem and Ramdas Pophale) SiO2 
 PCOD9237955
Probable space group: P 2/C
;
_chemical_formula_sum "Si O2"
_cell_formula_units_Z 18
_cell_length_a 13.214844
_cell_length_b 6.523815
_cell_length_c 13.776455
_cell_angle_alpha 90.000000
_cell_angle_beta 139.387132
_cell_angle_gamma 90.000000
_cell_volume 773.117079
_symmetry_space_group_name_H-M "P 2/C"
_symmetry_group_IT_number 13
_symmetry_cell_setting 'monoclinic'
loop_
_space_group_symop_operation_xyz
x,y,z
-x,y,1/2-z
-x,-y,-z
x,-y,1/2+z
loop_
_atom_site_type_symbol
_atom_site_label
_atom_site_fract_x
_atom_site_fract_y
_atom_site_fract_z
Si Si1 0.414392 0.413940 0.049785
Si Si2 0.203485 0.668678 0.230613
Si Si3 0.140550 0.390424 0.006009
Si Si4 0.315008 0.071204 0.235259
Si Si5 0.500000 0.776637 0.250000
O O1 0.271102 0.364711 0.019194
O O2 0.540625 0.228656 0.142577
O O3 0.474642 0.625391 0.141055
O O4 0.334030 0.447699 0.887742
O O5 0.177372 0.585605 0.101758
O O6 0.262405 0.903696 0.275737
O O7 0.036034 0.623655 0.156101
O O8 0.167686 0.205519 0.100800
O O9 0.363993 0.930871 0.179809
#
# Coordination Sequence:
#
# PCOD9237955 Si02
#       5
#     4   4   4   4   2
#     4  12  23  44  69  97 130 178 220 265 328 386
#     4  11  26  41  71  98 135 170 218 270 328 395
#     4  11  23  46  64 100 137 171 211 273 329 388
#     4  12  22  44  68  96 130 173 221 272 320 387
#     4  12  22  42  70  90 132 170 224 272 316 378
#
# _framework density 23.282373
#
# number of rings (size 3 to 8) (size 9 to 14) (size 15 to 20)
#    0.000    0.444    6.667    2.000    0.000    5.333 
#    0.000    0.000    0.000    0.000    0.000    0.000 
#    0.000    0.000    0.000    0.000    0.000    0.000 
#
# Total GULP energy -100520.302355 kJ/mol
# GULP energy per Si atom -5584.461242 kJ/mol
# Density = 2.322938 g / cm^3
# Si number density = 23.282373 Si / 1000 Ang^3
#
#
#
# Elastic Constant Matrix: (Units=GPa)
#
#
# Indices 1 2 3 4 5 6 
#
# 1 84.3164 39.4134 29.0611 0.0000 5.3557 0.0000
# 2 39.4134 132.7478 46.1518 0.0000 15.6911 0.0000
# 3 29.0611 46.1518 136.5381 0.0000 19.7616 0.0000
# 4 0.0000 0.0000 0.0000 13.9501 0.0000 3.0545
# 5 5.3557 15.6911 19.7616 0.0000 36.7896 0.0000
# 6 0.0000 0.0000 0.0000 3.0545 0.0000 38.8477
#
#
#
# Elastic Compliance Matrix: (Units=1/GPa)
#
#
# Indices 1 2 3 4 5 6 
#
# 1 0.014161 -0.003614 -0.001862 0.000000 0.000480 0.000000
# 2 -0.003614 0.009636 -0.002135 0.000000 -0.002437 0.000000
# 3 -0.001862 -0.002135 0.008968 0.000000 -0.003635 0.000000
# 4 0.000000 0.000000 0.000000 0.072940 0.000000 -0.005735
# 5 0.000480 -0.002437 -0.003635 0.000000 0.030104 0.000000
# 6 0.000000 0.000000 0.000000 -0.005735 0.000000 0.026192
#
#
# Mechanical properties :
#
#
# Convention : Reuss Voigt Hill
#
# Bulk Modulus (GPa) = 57.00242 64.76166 60.88204
# Shear Modulus (GPa) = 27.31178 33.84923 30.58051
#
# Velocity S-wave (km/s) = 3.42872 3.81708 3.62810
# Velocity P-wave (km/s) = 6.34122 6.87772 6.61491
#
# Compressibility (1/GPa) = 0.01754312
#
# Stress axis : x y z
#
# Youngs Moduli (GPa) = 70.61863 103.77249 111.50464
#
# Poissons Ratio (x) = 0.37501 0.20762
# Poissons Ratio (y) = 0.25520 0.23811
# Poissons Ratio (z) = 0.13149 0.22160
#
# Static dielectric constant tensor:
#      x y z
#    x 1.980340 0.000000 0.000890 
#    y 0.000000 1.850460 0.000000 
#    z 0.000890 0.000000 1.862810 
# 
# From -- ./inp_files/52000.got.cif
#   From: 2010.05.17/outbox.cif.g08.bks.cpg/sg13_26_cif.got.tgz:52000.got - 2010.06.03 16:44:36.
