data_PCOD9237640
_publ_section_title
;
Structure prediction by ZEFSAII (Michael W. Deem and Ramdas Pophale) SiO2 
 PCOD9237640
Probable space group: P 2/C
;
_chemical_formula_sum "Si O2"
_cell_formula_units_Z 16
_cell_length_a 13.165715
_cell_length_b 5.372490
_cell_length_c 8.994252
_cell_angle_alpha 90.000000
_cell_angle_beta 106.276048
_cell_angle_gamma 90.000000
_cell_volume 610.690699
_symmetry_space_group_name_H-M "P 2/C"
_symmetry_group_IT_number 13
_symmetry_cell_setting 'monoclinic'
loop_
_space_group_symop_operation_xyz
x,y,z
-x,y,1/2-z
-x,-y,-z
x,-y,1/2+z
loop_
_atom_site_type_symbol
_atom_site_label
_atom_site_fract_x
_atom_site_fract_y
_atom_site_fract_z
Si Si1 0.781558 0.212595 0.774073
Si Si2 0.623141 0.968130 0.520517
Si Si3 0.624752 0.542483 0.841228
Si Si4 0.077654 0.929964 0.898707
O O1 0.694704 0.002577 0.695380
O O2 0.712095 0.464538 0.753080
O O3 0.870146 0.148454 0.683340
O O4 0.832484 0.193079 0.960708
O O5 0.655679 0.214858 0.444175
O O6 0.500000 0.000000 0.500000
O O7 0.626252 0.706286 0.441089
O O8 0.500000 0.573421 0.750000
O O9 0.000000 0.786786 0.750000
O O10 0.000000 0.000000 0.000000
#
# Coordination Sequence:
#
# PCOD9237640 Si02
#       4
#     4   4   4   4
#     4  11  22  42  74 115 152 209 258 323 393 469
#     4  12  26  45  71 115 161 211 250 311 377 472
#     4  12  26  43  73 113 161 205 259 309 379 464
#     4   9  20  42  76 111 150 201 263 335 400 464
#
# _framework density 26.199845
#
# number of rings (size 3 to 8) (size 9 to 14) (size 15 to 20)
#    0.000    1.000    5.000    1.500    0.000    0.000 
#    0.000    0.000    0.000   19.500    0.000    0.000 
#    0.000    0.000    0.000    0.000    0.000    0.000 
#
# Total GULP energy -89240.823568 kJ/mol
# GULP energy per Si atom -5577.551473 kJ/mol
# Density = 2.614021 g / cm^3
# Si number density = 26.199845 Si / 1000 Ang^3
#
#
#
# Elastic Constant Matrix: (Units=GPa)
#
#
# Indices 1 2 3 4 5 6 
#
# 1 152.4023 5.5437 52.5057 0.0000 0.1826 0.0000
# 2 5.5437 145.6332 64.7917 0.0000 -16.4182 0.0000
# 3 52.5057 64.7917 197.5489 0.0000 16.5254 0.0000
# 4 0.0000 0.0000 0.0000 52.5081 0.0000 -17.0383
# 5 0.1826 -16.4182 16.5254 0.0000 69.6611 0.0000
# 6 0.0000 0.0000 0.0000 -17.0383 0.0000 9.2259
#
#
#
# Elastic Compliance Matrix: (Units=1/GPa)
#
#
# Indices 1 2 3 4 5 6 
#
# 1 0.007313 0.000811 -0.002269 0.000000 0.000710 0.000000
# 2 0.000811 0.008608 -0.003273 0.000000 0.002803 0.000000
# 3 -0.002269 -0.003273 0.006941 0.000000 -0.002412 0.000000
# 4 0.000000 0.000000 0.000000 0.047524 0.000000 0.087767
# 5 0.000710 0.002803 -0.002412 0.000000 0.015586 0.000000
# 6 0.000000 0.000000 0.000000 0.087767 0.000000 0.270479
#
#
# Mechanical properties :
#
#
# Convention : Reuss Voigt Hill
#
# Bulk Modulus (GPa) = 74.63268 82.36296 78.49782
# Shear Modulus (GPa) = 13.49964 51.12856 32.31410
#
# Velocity S-wave (km/s) = 2.27239 4.42235 3.51575
# Velocity P-wave (km/s) = 5.95254 7.58821 6.81959
#
# Compressibility (1/GPa) = 0.01339896
#
# Stress axis : x y z
#
# Youngs Moduli (GPa) = 136.74277 116.17090 144.08158
#
# Poissons Ratio (x) = -0.09424 0.32695
# Poissons Ratio (y) = -0.11093 0.47163
# Poissons Ratio (z) = 0.31029 0.38027
#
# Static dielectric constant tensor:
#      x y z
#    x 2.230550 0.000000 -0.045190 
#    y 0.000000 1.988350 0.000000 
#    z -0.045190 0.000000 2.249740 
# 
# From -- ./inp_files/17627.got.cif
#   From: 2010.05.17/outbox.cif.g08.bks.cpg/sg13_9_cif.got.tgz:17627.got - 2010.06.03 16:44:36.
