data_PCOD9237255
_publ_section_title
;
Structure prediction by ZEFSAII (Michael W. Deem and Ramdas Pophale) SiO2 
 PCOD9237255
Probable space group: P 2/C
;
_chemical_formula_sum "Si O2"
_cell_formula_units_Z 24
_cell_length_a 8.747509
_cell_length_b 13.979710
_cell_length_c 9.024930
_cell_angle_alpha 90.000000
_cell_angle_beta 100.793698
_cell_angle_gamma 90.000000
_cell_volume 1084.111670
_symmetry_space_group_name_H-M "P 2/C"
_symmetry_group_IT_number 13
_symmetry_cell_setting 'monoclinic'
loop_
_space_group_symop_operation_xyz
x,y,z
-x,y,1/2-z
-x,-y,-z
x,-y,1/2+z
loop_
_atom_site_type_symbol
_atom_site_label
_atom_site_fract_x
_atom_site_fract_y
_atom_site_fract_z
Si Si1 0.321371 0.699547 0.266883
Si Si2 0.114012 0.109740 0.648916
Si Si3 0.428069 0.912547 0.072762
Si Si4 0.082911 0.221538 0.108400
Si Si5 0.948142 0.403179 0.911739
Si Si6 0.581186 0.743705 0.908952
O O1 0.500000 0.709281 0.250000
O O2 0.209293 0.795320 0.232853
O O3 0.234068 0.624109 0.144423
O O4 0.345249 0.679233 0.446171
O O5 0.250555 0.062737 0.579625
O O6 0.000000 0.063955 0.750000
O O7 0.991984 0.142543 0.506524
O O8 0.500000 0.904314 0.250000
O O9 0.470566 0.819840 0.977625
O O10 0.500000 0.000000 0.000000
O O11 0.267246 0.208021 0.137228
O O12 0.000000 0.219677 0.250000
O O13 0.029183 0.319982 0.020435
O O14 0.000000 0.402499 0.750000
O O15 0.000000 0.500000 0.000000
O O16 0.500000 0.697966 0.750000
#
# Coordination Sequence:
#
# PCOD9237255 Si02
#       6
#     4   4   4   4   4   4
#     4  11  20  41  70  96 125 177 229 275 333 410
#     4  11  19  40  68  91 128 178 232 280 329 404
#     4  12  24  42  63  96 139 179 221 283 355 397
#     4  11  22  37  65  98 125 174 231 273 327 406
#     4  11  23  43  66  95 135 174 219 280 347 396
#     4  12  22  40  65  96 133 172 230 277 329 411
#
# _framework density 22.137941000000001
#
# number of rings (size 3 to 8) (size 9 to 14) (size 15 to 20)
#    0.000    0.667    6.667    3.000    2.333    0.000 
#    0.000    5.833    0.000    0.000    0.000    0.000 
#    0.000    0.000    0.000    0.000    0.000    0.000 
#
# Total GULP energy -133735.496088 kJ/mol
# GULP energy per Si atom -5572.312337 kJ/mol
# Density = 2.208755 g / cm^3
# Si number density = 22.137941 Si / 1000 Ang^3
#
#
#
# Elastic Constant Matrix: (Units=GPa)
#
#
# Indices 1 2 3 4 5 6 
#
# 1 159.7407 2.5609 18.3861 0.0000 -17.9888 0.0000
# 2 2.5609 45.2676 17.8925 0.0000 -3.9733 0.0000
# 3 18.3861 17.8925 139.8095 0.0000 -9.6140 0.0000
# 4 0.0000 0.0000 0.0000 11.6953 0.0000 -0.4418
# 5 -17.9888 -3.9733 -9.6140 0.0000 55.1612 0.0000
# 6 0.0000 0.0000 0.0000 -0.4418 0.0000 9.2037
#
#
#
# Elastic Compliance Matrix: (Units=1/GPa)
#
#
# Indices 1 2 3 4 5 6 
#
# 1 0.006571 0.000097 -0.000738 0.000000 0.002021 0.000000
# 2 0.000097 0.023344 -0.002917 0.000000 0.001205 0.000000
# 3 -0.000738 -0.002917 0.007684 0.000000 0.000889 0.000000
# 4 0.000000 0.000000 0.000000 0.085660 0.000000 0.004112
# 5 0.002021 0.001205 0.000889 0.000000 0.019030 0.000000
# 6 0.000000 0.000000 0.000000 0.004112 0.000000 0.108849
#
#
# Mechanical properties :
#
#
# Convention : Reuss Voigt Hill
#
# Bulk Modulus (GPa) = 32.80437 46.94410 39.87424
# Shear Modulus (GPa) = 18.62788 35.61061 27.11924
#
# Velocity S-wave (km/s) = 2.90392 4.01506 3.50381
# Velocity P-wave (km/s) = 5.10823 6.53801 5.86684
#
# Compressibility (1/GPa) = 0.03048374
#
# Stress axis : x y z
#
# Youngs Moduli (GPa) = 152.18115 42.83704 130.13949
#
# Poissons Ratio (x) = -0.00416 0.09599
# Poissons Ratio (y) = -0.01480 0.37968
# Poissons Ratio (z) = 0.11225 0.12498
#
# Static dielectric constant tensor:
#      x y z
#    x 1.939250 0.000000 0.003100 
#    y 0.000000 1.892540 0.000000 
#    z 0.003100 0.000000 1.837980 
# 
# From -- ./inp_files/12559.got.cif
#   From: 2010.05.17/outbox.cif.g08.bks.cpg/sg13_7_cif.got.tgz:12559.got - 2010.06.03 16:44:36.
