data_PCOD9237805
_publ_section_title
;
Structure prediction by ZEFSAII (Michael W. Deem and Ramdas Pophale) SiO2 
 PCOD9237805
Probable space group: P 2/C
;
_chemical_formula_sum "Si O2"
_cell_formula_units_Z 30
_cell_length_a 5.270539
_cell_length_b 12.248299
_cell_length_c 25.454845
_cell_angle_alpha 90.000000
_cell_angle_beta 103.877456
_cell_angle_gamma 90.000000
_cell_volume 1595.276341
_symmetry_space_group_name_H-M "P 2/C"
_symmetry_group_IT_number 13
_symmetry_cell_setting 'monoclinic'
loop_
_space_group_symop_operation_xyz
x,y,z
-x,y,1/2-z
-x,-y,-z
x,-y,1/2+z
loop_
_atom_site_type_symbol
_atom_site_label
_atom_site_fract_x
_atom_site_fract_y
_atom_site_fract_z
Si Si1 0.919123 0.130775 0.935505
Si Si2 0.825440 0.406529 0.694716
Si Si3 0.338982 0.810783 0.875140
Si Si4 0.095558 0.127669 0.062541
Si Si5 0.706945 0.000802 0.713062
Si Si6 0.500000 0.572142 0.750000
Si Si7 0.021956 0.627436 0.687622
Si Si8 0.359467 0.195099 0.872499
O O1 0.137967 0.159869 0.903278
O O2 0.647952 0.192002 0.911355
O O3 0.031460 0.152909 0.998939
O O4 0.850541 0.001862 0.929749
O O5 0.631642 0.486359 0.716437
O O6 0.705241 0.313929 0.653517
O O7 0.000000 0.354653 0.750000
O O8 0.990825 0.499303 0.672349
O O9 0.644228 0.808914 0.905833
O O10 0.312468 0.897130 0.826435
O O11 0.160955 0.851443 0.915100
O O12 0.186571 0.701331 0.850718
O O13 0.500000 0.992116 0.750000
O O14 0.000000 0.007067 0.750000
O O15 0.647715 0.107680 0.675263
O O16 0.331354 0.648265 0.702171
O O17 0.000000 0.639933 0.750000
#
# Coordination Sequence:
#
# PCOD9237805 Si02
#       8
#     4   4   4   4   4   2   4   4
#     4  11  23  42  64  89 120 156 213 262 300 366
#     4   9  21  37  59  89 122 164 206 242 290 370
#     4  12  23  40  63  90 121 165 201 247 314 358
#     4  11  23  42  64  89 119 157 215 259 301 365
#     4  12  24  38  54  91 134 157 189 239 306 372
#     4   8  18  38  58  88 118 168 214 240 288 352
#     4   9  21  38  59  88 122 164 206 242 289 368
#     4  12  23  39  64  91 122 164 200 249 316 359
#
# _framework density 18.805517999999999
#
# number of rings (size 3 to 8) (size 9 to 14) (size 15 to 20)
#    0.000    1.600    2.667    3.200    8.400    2.133 
#    2.400    0.000    0.000    4.800    0.000    0.000 
#    0.000    0.000    0.000    0.000    0.000    0.000 
#
# Total GULP energy -167248.783432 kJ/mol
# GULP energy per Si atom -5574.959448 kJ/mol
# Density = 1.876272 g / cm^3
# Si number density = 18.805518 Si / 1000 Ang^3
#
#
#
# Elastic Constant Matrix: (Units=GPa)
#
#
# Indices 1 2 3 4 5 6 
#
# 1 118.1087 12.5620 45.5558 0.0000 4.1591 0.0000
# 2 12.5620 62.7387 33.6040 0.0000 5.6685 0.0000
# 3 45.5558 33.6040 90.1951 0.0000 -0.1459 0.0000
# 4 0.0000 0.0000 0.0000 26.3226 0.0000 11.8999
# 5 4.1591 5.6685 -0.1459 0.0000 33.7703 0.0000
# 6 0.0000 0.0000 0.0000 11.8999 0.0000 20.9004
#
#
#
# Elastic Compliance Matrix: (Units=1/GPa)
#
#
# Indices 1 2 3 4 5 6 
#
# 1 0.010634 0.001107 -0.005786 0.000000 -0.001521 0.000000
# 2 0.001107 0.020420 -0.008173 0.000000 -0.003599 0.000000
# 3 -0.005786 -0.008173 0.017058 0.000000 0.002158 0.000000
# 4 0.000000 0.000000 0.000000 0.051158 0.000000 -0.029127
# 5 -0.001521 -0.003599 0.002158 0.000000 0.030413 0.000000
# 6 0.000000 0.000000 0.000000 -0.029127 0.000000 0.064430
#
#
# Mechanical properties :
#
#
# Convention : Reuss Voigt Hill
#
# Bulk Modulus (GPa) = 44.62542 50.49847 47.56194
# Shear Modulus (GPa) = 21.99867 28.15340 25.07603
#
# Velocity S-wave (km/s) = 3.42394 3.87341 3.65559
# Velocity P-wave (km/s) = 6.27795 6.84951 6.56995
#
# Compressibility (1/GPa) = 0.02240875
#
# Stress axis : x y z
#
# Youngs Moduli (GPa) = 94.03487 48.97095 58.62311
#
# Poissons Ratio (x) = -0.05423 0.33921
# Poissons Ratio (y) = -0.10413 0.47913
# Poissons Ratio (z) = 0.54411 0.40024
#
# Static dielectric constant tensor:
#      x y z
#    x 1.959100 0.000000 0.016150 
#    y 0.000000 1.645780 0.000000 
#    z 0.016150 0.000000 1.634710 
# 
# From -- ./inp_files/83747.got.cif
#   From: 2010.05.17/outbox.cif.g08.bks.cpg/sg13_42_cif.got.tgz:83747.got - 2010.06.03 16:44:36.
