data_PCOD9237992
_publ_section_title
;
Structure prediction by ZEFSAII (Michael W. Deem and Ramdas Pophale) SiO2 
 PCOD9237992
Probable space group: P 2/C
;
_chemical_formula_sum "Si O2"
_cell_formula_units_Z 18
_cell_length_a 10.571193
_cell_length_b 12.129804
_cell_length_c 10.302194
_cell_angle_alpha 90.000000
_cell_angle_beta 37.805864
_cell_angle_gamma 90.000000
_cell_volume 809.765789
_symmetry_space_group_name_H-M "P 2/C"
_symmetry_group_IT_number 13
_symmetry_cell_setting 'monoclinic'
loop_
_space_group_symop_operation_xyz
x,y,z
-x,y,1/2-z
-x,-y,-z
x,-y,1/2+z
loop_
_atom_site_type_symbol
_atom_site_label
_atom_site_fract_x
_atom_site_fract_y
_atom_site_fract_z
Si Si1 0.668798 0.433425 0.941653
Si Si2 0.932350 0.264960 0.567169
Si Si3 0.000000 0.396032 0.250000
Si Si4 0.544648 0.894988 0.368401
Si Si5 0.611213 0.772770 0.774253
O O1 0.832604 0.367009 0.723493
O O2 0.800807 0.522696 0.914264
O O3 0.500000 0.500000 0.000000
O O4 0.530366 0.335377 0.108866
O O5 0.985062 0.316675 0.385272
O O6 0.772836 0.161959 0.693870
O O7 0.150380 0.235719 0.454630
O O8 0.500000 0.905219 0.250000
O O9 0.401033 0.810458 0.565533
O O10 0.500000 0.000000 0.500000
O O11 0.500000 0.843311 0.750000
#
# Coordination Sequence:
#
# PCOD9237992 Si02
#       5
#     4   4   2   4   4
#     4  11  24  37  61 100 145 194 232 281 342 420
#     4  11  25  43  66 104 141 186 242 289 353 426
#     4  12  22  40  68 100 148 200 242 290 352 416
#     4  11  26  49  76 106 135 180 235 303 371 427
#     4  11  24  45  70 104 145 190 237 294 351 425
#
# _framework density 22.228649000000001
#
# number of rings (size 3 to 8) (size 9 to 14) (size 15 to 20)
#    0.000    0.889    2.222    4.000    6.222    3.556 
#    0.000    2.222    0.000    0.000    0.000    0.000 
#    0.000    0.000    0.000    0.000    0.000    0.000 
#
# Total GULP energy -100286.053546 kJ/mol
# GULP energy per Si atom -5571.447419 kJ/mol
# Density = 2.217806 g / cm^3
# Si number density = 22.228649 Si / 1000 Ang^3
#
#
#
# Elastic Constant Matrix: (Units=GPa)
#
#
# Indices 1 2 3 4 5 6 
#
# 1 145.4170 54.6455 65.3026 0.0000 -9.7606 0.0000
# 2 54.6455 81.4087 59.1413 0.0000 2.9101 0.0000
# 3 65.3026 59.1413 125.3978 0.0000 -16.0423 0.0000
# 4 0.0000 0.0000 0.0000 -455.4311 0.0000 95.1871
# 5 -9.7606 2.9101 -16.0423 0.0000 61.8494 0.0000
# 6 0.0000 0.0000 0.0000 95.1871 0.0000 6.1311
#
#
#
# Elastic Compliance Matrix: (Units=1/GPa)
#
#
# Indices 1 2 3 4 5 6 
#
# 1 0.009986 -0.004655 -0.002870 0.000000 0.001050 0.000000
# 2 -0.004655 0.021520 -0.008221 0.000000 -0.003880 0.000000
# 3 -0.002870 -0.008221 0.013796 0.000000 0.003512 0.000000
# 4 0.000000 0.000000 0.000000 -0.000517 0.000000 0.008031
# 5 0.001050 -0.003880 0.003512 0.000000 0.017428 0.000000
# 6 0.000000 0.000000 0.000000 0.008031 0.000000 0.038424
#
#
# Mechanical properties :
#
#
# Convention : Reuss Voigt Hill
#
# Bulk Modulus (GPa) = 72.42284 78.93360 75.67822
# Shear Modulus (GPa) = 36.56791 -65.94784 -14.68997
#
# Velocity S-wave (km/s) = 4.06036 -5.45274 -2.57350
# Velocity P-wave (km/s) = 7.39145 2.01400 5.02879
#
# Compressibility (1/GPa) = 0.01380780
#
# Stress axis : x y z
#
# Youngs Moduli (GPa) = 100.14447 46.46871 72.48415
#
# Poissons Ratio (x) = 0.21632 0.20804
# Poissons Ratio (y) = 0.46620 0.59592
# Poissons Ratio (z) = 0.28744 0.38204
#
# Static dielectric constant tensor:
#      x y z
#    x -6.013200 0.000000 -11.168370 
#    y 0.000000 1.816040 0.000000 
#    z -11.168370 0.000000 -14.066900 
# 
# From -- ./inp_files/33539.got.cif
#   From: 2010.05.17/outbox.cif.g08.bks.cpg/sg13_17_cif.got.tgz:33539.got - 2010.06.03 16:44:36.
