data_PCOD9237462
_publ_section_title
;
Structure prediction by ZEFSAII (Michael W. Deem and Ramdas Pophale) SiO2 
 PCOD9237462
Probable space group: P 2/C
;
_chemical_formula_sum "Si O2"
_cell_formula_units_Z 32
_cell_length_a 11.180904
_cell_length_b 18.634773
_cell_length_c 13.483872
_cell_angle_alpha 90.000000
_cell_angle_beta 146.017305
_cell_angle_gamma 90.000000
_cell_volume 1570.300495
_symmetry_space_group_name_H-M "P 2/C"
_symmetry_group_IT_number 13
_symmetry_cell_setting 'monoclinic'
loop_
_space_group_symop_operation_xyz
x,y,z
-x,y,1/2-z
-x,-y,-z
x,-y,1/2+z
loop_
_atom_site_type_symbol
_atom_site_label
_atom_site_fract_x
_atom_site_fract_y
_atom_site_fract_z
Si Si1 0.825397 0.330152 0.831519
Si Si2 0.811783 0.829074 0.699720
Si Si3 0.982261 0.084518 0.499532
Si Si4 0.702492 0.835069 0.963748
Si Si5 0.662359 0.830152 0.168481
Si Si6 0.483196 0.584518 0.500467
Si Si7 0.274995 0.664931 0.536252
Si Si8 0.087659 0.329074 0.199722
O O1 0.757047 0.250000 0.750000
O O2 0.625620 0.380552 0.670588
O O3 0.050696 0.353680 0.934701
O O4 0.889564 0.333726 0.989885
O O5 0.590205 0.833727 0.489884
O O6 0.813870 0.750000 0.749999
O O7 0.000000 0.834306 0.750000
O O8 0.853612 0.883938 0.817435
O O9 0.215554 0.119448 0.670587
O O10 0.873109 0.115135 0.524977
O O11 0.000000 0.000000 0.500000
O O12 0.500000 0.841134 0.750000
O O13 0.752892 0.750000 0.002891
O O14 0.681295 0.853679 0.065300
O O15 0.500000 0.500000 0.500000
O O16 0.323153 0.615136 0.475021
O O17 0.718741 0.616062 0.682564
O O18 0.500000 0.658865 0.750000
O O19 0.000000 0.334306 0.250000
#
# Coordination Sequence:
#
# PCOD9237462 Si02
#       8
#     4   4   4   4   4   4   4   4
#     4  12  23  43  77 104 134 189 256 297 356 439
#     4  11  24  46  69  97 142 193 242 290 350 449
#     4  12  27  45  67 110 149 182 233 311 376 416
#     4  11  21  41  76 105 138 180 241 307 358 427
#     4  12  23  43  77 104 134 189 256 297 356 439
#     4  12  27  45  67 110 149 182 233 311 376 416
#     4  11  21  41  76 105 138 180 241 307 358 427
#     4  11  24  46  69  97 142 193 242 290 350 449
#
# _framework density 20.378264999999999
#
# number of rings (size 3 to 8) (size 9 to 14) (size 15 to 20)
#    0.000    0.500    7.500    0.750    0.000    4.000 
#    4.500    0.000    0.000    0.000    0.000    0.000 
#    0.000    0.000    0.000    0.000    0.000    0.000 
#
# Total GULP energy -178713.335381 kJ/mol
# GULP energy per Si atom -5584.791731 kJ/mol
# Density = 2.033188 g / cm^3
# Si number density = 20.378265 Si / 1000 Ang^3
#
#
#
# Elastic Constant Matrix: (Units=GPa)
#
#
# Indices 1 2 3 4 5 6 
#
# 1 76.2589 29.3530 26.3605 0.0000 -0.5465 0.0000
# 2 29.3530 155.5766 50.1542 0.0000 -1.3265 0.0000
# 3 26.3605 50.1542 159.3729 0.0000 -4.7547 0.0000
# 4 0.0000 0.0000 0.0000 27.0811 0.0000 -1.5693
# 5 -0.5465 -1.3265 -4.7547 0.0000 29.5013 0.0000
# 6 0.0000 0.0000 0.0000 -1.5693 0.0000 2.4730
#
#
#
# Elastic Compliance Matrix: (Units=1/GPa)
#
#
# Indices 1 2 3 4 5 6 
#
# 1 0.014551 -0.002192 -0.001720 0.000000 -0.000106 0.000000
# 2 -0.002192 0.007484 -0.001993 0.000000 -0.000025 0.000000
# 3 -0.001720 -0.001993 0.007217 0.000000 0.001042 0.000000
# 4 0.000000 0.000000 0.000000 0.038336 0.000000 0.024328
# 5 -0.000106 -0.000025 0.001042 0.000000 0.034062 0.000000
# 6 0.000000 0.000000 0.000000 0.024328 0.000000 0.419803
#
#
# Mechanical properties :
#
#
# Convention : Reuss Voigt Hill
#
# Bulk Modulus (GPa) = 57.33471 66.99375 62.16423
# Shear Modulus (GPa) = 9.27513 30.83381 20.05447
#
# Velocity S-wave (km/s) = 2.13573 3.89404 3.14046
# Velocity P-wave (km/s) = 5.85475 7.29140 6.61221
#
# Compressibility (1/GPa) = 0.01744144
#
# Stress axis : x y z
#
# Youngs Moduli (GPa) = 68.72537 133.62564 138.55251
#
# Poissons Ratio (x) = 0.29286 0.23833
# Poissons Ratio (y) = 0.15062 0.27618
# Poissons Ratio (z) = 0.11822 0.26636
#
# Static dielectric constant tensor:
#      x y z
#    x 1.790590 0.000000 0.003290 
#    y 0.000000 1.698380 0.000000 
#    z 0.003290 0.000000 1.739060 
# 
# From -- ./inp_files/51659.got.cif
#   From: 2010.05.17/outbox.cif.g08.bks.cpg/sg13_26_cif.got.tgz:51659.got - 2010.06.03 16:44:36.
