data_PCOD9237799
_publ_section_title
;
Structure prediction by ZEFSAII (Michael W. Deem and Ramdas Pophale) SiO2 
 PCOD9237799
Probable space group: P 2/C
;
_chemical_formula_sum "Si O2"
_cell_formula_units_Z 24
_cell_length_a 11.539613
_cell_length_b 5.404396
_cell_length_c 18.239155
_cell_angle_alpha 90.000000
_cell_angle_beta 95.293174
_cell_angle_gamma 90.000000
_cell_volume 1132.627752
_symmetry_space_group_name_H-M "P 2/C"
_symmetry_group_IT_number 13
_symmetry_cell_setting 'monoclinic'
loop_
_space_group_symop_operation_xyz
x,y,z
-x,y,1/2-z
-x,-y,-z
x,-y,1/2+z
loop_
_atom_site_type_symbol
_atom_site_label
_atom_site_fract_x
_atom_site_fract_y
_atom_site_fract_z
Si Si1 0.361201 0.858808 0.826525
Si Si2 0.378112 0.221465 0.154400
Si Si3 0.627578 0.464764 0.974228
Si Si4 0.253866 0.646119 0.384884
Si Si5 0.805130 0.948246 0.453065
Si Si6 0.971498 0.707678 0.058764
O O1 0.496218 0.895781 0.858409
O O2 0.364414 0.803936 0.739874
O O3 0.310901 0.605422 0.857601
O O4 0.292042 0.106700 0.844460
O O5 0.383004 0.486079 0.113506
O O6 0.267354 0.106797 0.108303
O O7 0.707929 0.223320 0.985921
O O8 0.500000 0.500000 0.000000
O O9 0.697917 0.660625 0.028480
O O10 0.114922 0.614467 0.383218
O O11 0.900940 0.795881 0.411524
O O12 0.891886 0.079604 0.515938
O O13 0.000000 0.500000 0.000000
#
# Coordination Sequence:
#
# PCOD9237799 Si02
#       6
#     4   4   4   4   4   4
#     4  11  28  44  70 102 148 190 224 297 365 440
#     4  11  25  43  69 102 145 186 231 291 373 424
#     4  12  23  39  73 106 140 177 242 300 357 427
#     4  12  24  45  69 102 139 181 244 288 351 419
#     4  11  23  41  70 101 140 179 237 290 364 413
#     4  11  23  41  71 101 135 184 234 305 346 414
#
# _framework density 21.189664
#
# number of rings (size 3 to 8) (size 9 to 14) (size 15 to 20)
#    0.000    0.667    5.000    2.000    4.667    2.667 
#    0.000    0.833    0.000    0.000    0.000    0.000 
#    0.000    0.000    0.000    0.000    0.000    0.000 
#
# Total GULP energy -133775.790605 kJ/mol
# GULP energy per Si atom -5573.991275 kJ/mol
# Density = 2.114144 g / cm^3
# Si number density = 21.189664 Si / 1000 Ang^3
#
#
#
# Elastic Constant Matrix: (Units=GPa)
#
#
# Indices 1 2 3 4 5 6 
#
# 1 123.3526 27.6666 -14.9946 0.0000 -6.9283 0.0000
# 2 27.6666 85.9959 6.2981 0.0000 -7.9535 0.0000
# 3 -14.9946 6.2981 44.7744 0.0000 0.9211 0.0000
# 4 0.0000 0.0000 0.0000 22.5678 0.0000 -6.0854
# 5 -6.9283 -7.9535 0.9211 0.0000 25.2836 0.0000
# 6 0.0000 0.0000 0.0000 -6.0854 0.0000 45.4359
#
#
#
# Elastic Compliance Matrix: (Units=1/GPa)
#
#
# Indices 1 2 3 4 5 6 
#
# 1 0.009317 -0.003123 0.003530 0.000000 0.001442 0.000000
# 2 -0.003123 0.013164 -0.002967 0.000000 0.003394 0.000000
# 3 0.003530 -0.002967 0.023951 0.000000 -0.000839 0.000000
# 4 0.000000 0.000000 0.000000 0.045971 0.000000 0.006157
# 5 0.001442 0.003394 -0.000839 0.000000 0.041045 0.000000
# 6 0.000000 0.000000 0.000000 0.006157 0.000000 0.022834
#
#
# Mechanical properties :
#
#
# Convention : Reuss Voigt Hill
#
# Bulk Modulus (GPa) = 24.20586 32.45145 28.32866
# Shear Modulus (GPa) = 28.54323 34.33432 31.43878
#
# Velocity S-wave (km/s) = 3.67418 4.02970 3.85604
# Velocity P-wave (km/s) = 5.42657 6.08271 5.76398
#
# Compressibility (1/GPa) = 0.04131231
#
# Stress axis : x y z
#
# Youngs Moduli (GPa) = 107.32695 75.96321 41.75201
#
# Poissons Ratio (x) = 0.23721 -0.14738
# Poissons Ratio (y) = 0.33515 0.12389
# Poissons Ratio (z) = -0.37885 0.22540
#
# Static dielectric constant tensor:
#      x y z
#    x 1.832220 0.000000 -0.061300 
#    y 0.000000 1.908140 0.000000 
#    z -0.061300 0.000000 1.833070 
# 
# From -- ./inp_files/65353.got.cif
#   From: 2010.05.17/outbox.cif.g08.bks.cpg/sg13_33_cif.got.tgz:65353.got - 2010.06.03 16:44:36.
