data_PCOD9237902
_publ_section_title
;
Structure prediction by ZEFSAII (Michael W. Deem and Ramdas Pophale) SiO2 
 PCOD9237902
Probable space group: P 2/C
;
_chemical_formula_sum "Si O2"
_cell_formula_units_Z 28
_cell_length_a 9.482055
_cell_length_b 13.837306
_cell_length_c 11.093767
_cell_angle_alpha 90.000000
_cell_angle_beta 115.913390
_cell_angle_gamma 90.000000
_cell_volume 1309.220573
_symmetry_space_group_name_H-M "P 2/C"
_symmetry_group_IT_number 13
_symmetry_cell_setting 'monoclinic'
loop_
_space_group_symop_operation_xyz
x,y,z
-x,y,1/2-z
-x,-y,-z
x,-y,1/2+z
loop_
_atom_site_type_symbol
_atom_site_label
_atom_site_fract_x
_atom_site_fract_y
_atom_site_fract_z
Si Si1 0.130782 0.372539 0.120864
Si Si2 0.831521 0.162537 0.746073
Si Si3 0.406863 0.010755 0.338460
Si Si4 0.648003 0.234075 0.151161
Si Si5 0.650878 0.541508 0.244434
Si Si6 0.331105 0.329946 0.971780
Si Si7 0.794956 0.292772 0.958007
O O1 0.221048 0.287412 0.222687
O O2 0.199510 0.471334 0.200787
O O3 0.947104 0.352343 0.058635
O O4 0.194421 0.367499 0.007952
O O5 0.736056 0.240964 0.631357
O O6 0.000000 0.149947 0.750000
O O7 0.737558 0.062923 0.712140
O O8 0.846528 0.209997 0.883729
O O9 0.500000 0.986686 0.250000
O O10 0.362667 0.123199 0.315959
O O11 0.500000 0.000000 0.500000
O O12 0.700521 0.246333 0.032068
O O13 0.481166 0.288182 0.097653
O O14 0.500000 0.491993 0.250000
O O15 0.620923 0.584919 0.101697
O O16 0.688866 0.631590 0.345520
#
# Coordination Sequence:
#
# PCOD9237902 Si02
#       7
#     4   4   4   4   4   4   4
#     4  12  26  43  66 102 143 181 230 294 349 412
#     4  11  24  45  73 101 139 188 229 288 352 425
#     4  12  26  46  77 111 139 185 241 294 354 426
#     4  12  25  45  71 100 141 181 229 296 350 415
#     4  11  24  42  73  99 131 189 238 288 341 421
#     4  11  23  44  70  98 138 181 238 285 348 420
#     4  11  25  47  67 101 142 185 232 285 355 421
#
# _framework density 21.386771
#
# number of rings (size 3 to 8) (size 9 to 14) (size 15 to 20)
#    0.000    0.571    4.286    3.857    2.000    2.286 
#    2.571    2.143    0.000    0.000    0.000    0.000 
#    0.000    0.000    0.000    0.000    0.000    0.000 
#
# Total GULP energy -156793.395153 kJ/mol
# GULP energy per Si atom -5599.764113 kJ/mol
# Density = 2.133809 g / cm^3
# Si number density = 21.386771 Si / 1000 Ang^3
#
#
#
# Elastic Constant Matrix: (Units=GPa)
#
#
# Indices 1 2 3 4 5 6 
#
# 1 99.0862 21.8071 13.7636 0.0000 -0.8345 0.0000
# 2 21.8071 100.7211 21.6340 0.0000 0.3385 0.0000
# 3 13.7636 21.6340 68.7314 0.0000 -0.1426 0.0000
# 4 0.0000 0.0000 0.0000 33.7876 0.0000 6.4076
# 5 -0.8345 0.3385 -0.1426 0.0000 35.0093 0.0000
# 6 0.0000 0.0000 0.0000 6.4076 0.0000 34.2947
#
#
#
# Elastic Compliance Matrix: (Units=1/GPa)
#
#
# Indices 1 2 3 4 5 6 
#
# 1 0.010746 -0.002001 -0.001522 0.000000 0.000269 0.000000
# 2 -0.002001 0.011021 -0.003069 0.000000 -0.000167 0.000000
# 3 -0.001522 -0.003069 0.015820 0.000000 0.000058 0.000000
# 4 0.000000 0.000000 0.000000 0.030684 0.000000 -0.005733
# 5 0.000269 -0.000167 0.000058 0.000000 0.028572 0.000000
# 6 0.000000 0.000000 0.000000 -0.005733 0.000000 0.030230
#
#
# Mechanical properties :
#
#
# Convention : Reuss Voigt Hill
#
# Bulk Modulus (GPa) = 40.97462 42.54980 41.76221
# Shear Modulus (GPa) = 33.69471 34.70724 34.20098
#
# Velocity S-wave (km/s) = 3.97355 4.03282 4.00329
# Velocity P-wave (km/s) = 6.34450 6.45162 6.39828
#
# Compressibility (1/GPa) = 0.02440535
#
# Stress axis : x y z
#
# Youngs Moduli (GPa) = 93.05629 90.73351 63.21048
#
# Poissons Ratio (x) = 0.18153 0.09618
# Poissons Ratio (y) = 0.18618 0.19398
# Poissons Ratio (z) = 0.14160 0.27844
#
# Static dielectric constant tensor:
#      x y z
#    x 1.788020 0.000000 -0.023410 
#    y 0.000000 1.733250 0.000000 
#    z -0.023410 0.000000 1.775050 
# 
# From -- ./inp_files/30489.got.cif
#   From: 2010.05.17/outbox.cif.g08.bks.cpg/sg13_16_cif.got.tgz:30489.got - 2010.06.03 16:44:36.
