data_PCOD9237784
_publ_section_title
;
Structure prediction by ZEFSAII (Michael W. Deem and Ramdas Pophale) SiO2 
 PCOD9237784
Probable space group: P 2/C
;
_chemical_formula_sum "Si O2"
_cell_formula_units_Z 24
_cell_length_a 12.096504
_cell_length_b 12.426471
_cell_length_c 23.519897
_cell_angle_alpha 90.000000
_cell_angle_beta 20.953809
_cell_angle_gamma 90.000000
_cell_volume 1264.325982
_symmetry_space_group_name_H-M "P 2/C"
_symmetry_group_IT_number 13
_symmetry_cell_setting 'monoclinic'
loop_
_space_group_symop_operation_xyz
x,y,z
-x,y,1/2-z
-x,-y,-z
x,-y,1/2+z
loop_
_atom_site_type_symbol
_atom_site_label
_atom_site_fract_x
_atom_site_fract_y
_atom_site_fract_z
Si Si1 0.130291 0.621044 0.938274
Si Si2 0.198256 0.680843 0.518234
Si Si3 0.060679 0.292133 0.846981
Si Si4 0.216706 0.518583 0.093840
Si Si5 0.155837 0.905219 0.113823
Si Si6 0.884911 0.142158 0.246094
O O1 0.500000 0.621756 0.750000
O O2 0.946583 0.674251 0.974606
O O3 0.000000 0.500000 0.000000
O O4 0.046735 0.675394 0.038411
O O5 0.569825 0.694518 0.337212
O O6 0.165891 0.570188 0.569407
O O7 0.998732 0.773465 0.644884
O O8 0.861333 0.368011 0.899527
O O9 0.991186 0.170210 0.863242
O O10 0.000000 0.503949 0.250000
O O11 0.500000 0.500000 0.000000
O O12 0.000000 0.874605 0.250000
O O13 0.523788 0.885867 0.930104
O O14 0.065743 0.029820 0.149810
O O15 0.000000 0.191056 0.250000
#
# Coordination Sequence:
#
# PCOD9237784 Si02
#       6
#     4   4   4   4   4   4
#     4  12  26  44  65  92 128 176 223 268 322 385
#     4  12  25  43  67  94 132 172 220 268 326 387
#     4  12  25  43  66  94 131 173 218 270 325 387
#     4  12  26  39  61  96 134 170 210 266 328 388
#     4  11  23  41  67  97 134 171 217 266 327 386
#     4  11  23  41  66  98 132 173 215 268 326 388
#
# _framework density 18.982445999999999
#
# number of rings (size 3 to 8) (size 9 to 14) (size 15 to 20)
#    0.000    0.333    3.333    7.500    7.000    0.000 
#    0.000    0.833    0.000    0.000    0.000    0.000 
#    0.000    0.000    0.000    0.000    0.000    0.000 
#
# Total GULP energy -133776.344949 kJ/mol
# GULP energy per Si atom -5574.014373 kJ/mol
# Density = 1.893924 g / cm^3
# Si number density = 18.982446 Si / 1000 Ang^3
#
#
#
# Elastic Constant Matrix: (Units=GPa)
#
#
# Indices 1 2 3 4 5 6 
#
# 1 134.8663 34.4420 9.7565 0.0000 13.0499 0.0000
# 2 34.4420 60.3458 10.4615 0.0000 15.3288 0.0000
# 3 9.7565 10.4615 147.2559 0.0000 -12.9331 0.0000
# 4 0.0000 0.0000 0.0000 179.9159 0.0000 86.7449
# 5 13.0499 15.3288 -12.9331 0.0000 44.0693 0.0000
# 6 0.0000 0.0000 0.0000 86.7449 0.0000 77.6520
#
#
#
# Elastic Compliance Matrix: (Units=1/GPa)
#
#
# Indices 1 2 3 4 5 6 
#
# 1 0.008731 -0.004653 -0.000342 0.000000 -0.001067 0.000000
# 2 -0.004653 0.021187 -0.001769 0.000000 -0.006511 0.000000
# 3 -0.000342 -0.001769 0.007187 0.000000 0.002826 0.000000
# 4 0.000000 0.000000 0.000000 0.012046 0.000000 -0.013457
# 5 -0.001067 -0.006511 0.002826 0.000000 0.026102 0.000000
# 6 0.000000 0.000000 0.000000 -0.013457 0.000000 0.027911
#
#
# Mechanical properties :
#
#
# Convention : Reuss Voigt Hill
#
# Bulk Modulus (GPa) = 42.41045 50.19868 46.30457
# Shear Modulus (GPa) = 40.14444 79.51462 59.82953
#
# Velocity S-wave (km/s) = 4.60371 6.47915 5.62021
# Velocity P-wave (km/s) = 7.11683 9.08156 8.15855
#
# Compressibility (1/GPa) = 0.02357909
#
# Stress axis : x y z
#
# Youngs Moduli (GPa) = 114.53483 47.19824 139.13295
#
# Poissons Ratio (x) = 0.21960 0.04754
# Poissons Ratio (y) = 0.53291 0.24609
# Poissons Ratio (z) = 0.03913 0.08348
#
# Static dielectric constant tensor:
#      x y z
#    x 1.677520 0.000000 0.014300 
#    y 0.000000 1.652730 0.000000 
#    z 0.014300 0.000000 1.674630 
# 
# From -- ./inp_files/15811.got.cif
#   From: 2010.05.17/outbox.cif.g08.bks.cpg/sg13_8_cif.got.tgz:15811.got - 2010.06.03 16:44:36.
