data_PCOD9237446
_publ_section_title
;
Structure prediction by ZEFSAII (Michael W. Deem and Ramdas Pophale) SiO2 
 PCOD9237446
Probable space group: P 2/C
;
_chemical_formula_sum "Si O2"
_cell_formula_units_Z 28
_cell_length_a 15.230988
_cell_length_b 8.257833
_cell_length_c 20.801807
_cell_angle_alpha 90.000000
_cell_angle_beta 27.173297
_cell_angle_gamma 90.000000
_cell_volume 1194.841841
_symmetry_space_group_name_H-M "P 2/C"
_symmetry_group_IT_number 13
_symmetry_cell_setting 'monoclinic'
loop_
_space_group_symop_operation_xyz
x,y,z
-x,y,1/2-z
-x,-y,-z
x,-y,1/2+z
loop_
_atom_site_type_symbol
_atom_site_label
_atom_site_fract_x
_atom_site_fract_y
_atom_site_fract_z
Si Si1 0.689250 0.582019 0.156822
Si Si2 0.846264 0.983966 0.898031
Si Si3 0.945025 0.275339 0.148437
Si Si4 0.785784 0.760255 0.536691
Si Si5 0.219830 0.046850 0.338699
Si Si6 0.210623 0.608998 0.258954
Si Si7 0.483719 0.870650 0.068243
O O1 0.500000 0.665306 0.250000
O O2 0.700592 0.413883 0.109365
O O3 0.712283 0.564331 0.218849
O O4 0.879232 0.676439 0.012207
O O5 0.969595 0.864641 0.862664
O O6 0.000000 0.058692 0.750000
O O7 0.694456 0.870156 0.960983
O O8 0.750075 0.136097 0.996154
O O9 0.786477 0.192277 0.207948
O O10 0.859387 0.443597 0.229666
O O11 0.710421 0.880909 0.640503
O O12 0.017187 0.721231 0.389125
O O13 0.347527 0.918178 0.217999
O O14 0.000000 0.000000 0.500000
O O15 0.380746 0.706385 0.113273
O O16 0.500000 0.000000 0.000000
#
# Coordination Sequence:
#
# PCOD9237446 Si02
#       7
#     4   4   4   4   4   4   4
#     4  11  22  37  63 105 141 175 233 296 349 417
#     4  12  27  46  66 100 141 183 238 291 350 428
#     4  11  21  40  69  96 137 182 228 290 357 417
#     4  11  22  40  68  98 136 180 231 288 347 410
#     4  12  20  40  71 102 132 183 235 285 350 414
#     4  11  21  43  68 100 135 181 227 284 358 416
#     4  12  27  46  70 102 144 188 235 289 355 424
#
# _framework density 23.434063999999999
#
# number of rings (size 3 to 8) (size 9 to 14) (size 15 to 20)
#    0.000    0.571    5.714    3.429    2.000    0.000 
#    0.000    8.571    0.000    0.000    0.000    0.000 
#    0.000    0.000    0.000    0.000    0.000    0.000 
#
# Total GULP energy -156365.289754 kJ/mol
# GULP energy per Si atom -5584.474634 kJ/mol
# Density = 2.338073 g / cm^3
# Si number density = 23.434064 Si / 1000 Ang^3
#
#
#
# Elastic Constant Matrix: (Units=GPa)
#
#
# Indices 1 2 3 4 5 6 
#
# 1 46.3494 4.4138 5.2216 0.0000 -1.5114 0.0000
# 2 4.4138 90.1068 8.9180 0.0000 7.5286 0.0000
# 3 5.2216 8.9180 69.6447 0.0000 -4.7406 0.0000
# 4 0.0000 0.0000 0.0000 19.0950 0.0000 -0.3545
# 5 -1.5114 7.5286 -4.7406 0.0000 34.0549 0.0000
# 6 0.0000 0.0000 0.0000 -0.3545 0.0000 9.1192
#
#
#
# Elastic Compliance Matrix: (Units=1/GPa)
#
#
# Indices 1 2 3 4 5 6 
#
# 1 0.021866 -0.001011 -0.001442 0.000000 0.000993 0.000000
# 2 -0.001011 0.011541 -0.001594 0.000000 -0.002818 0.000000
# 3 -0.001442 -0.001594 0.014831 0.000000 0.002353 0.000000
# 4 0.000000 0.000000 0.000000 0.052407 0.000000 0.002037
# 5 0.000993 -0.002818 0.002353 0.000000 0.030359 0.000000
# 6 0.000000 0.000000 0.000000 0.002037 0.000000 0.109738
#
#
# Mechanical properties :
#
#
# Convention : Reuss Voigt Hill
#
# Bulk Modulus (GPa) = 24.91082 27.02308 25.96695
# Shear Modulus (GPa) = 19.06810 24.95700 22.01255
#
# Velocity S-wave (km/s) = 2.85562 3.26696 3.06819
# Velocity P-wave (km/s) = 4.63961 5.07811 4.86381
#
# Compressibility (1/GPa) = 0.04014319
#
# Stress axis : x y z
#
# Youngs Moduli (GPa) = 45.73215 86.65002 67.42646
#
# Poissons Ratio (x) = 0.08763 0.09725
# Poissons Ratio (y) = 0.04625 0.10746
# Poissons Ratio (z) = 0.06596 0.13810
#
# Static dielectric constant tensor:
#      x y z
#    x 1.917270 0.000000 -0.009420 
#    y 0.000000 1.948040 0.000000 
#    z -0.009420 0.000000 1.995790 
# 
# From -- ./inp_files/79942.got.cif
#   From: 2010.05.17/outbox.cif.g08.bks.cpg/sg13_40_cif.got.tgz:79942.got - 2010.06.03 16:44:36.
