data_PCOD9237484
_publ_section_title
;
Structure prediction by ZEFSAII (Michael W. Deem and Ramdas Pophale) SiO2 
 PCOD9237484
Probable space group: P 2/C
;
_chemical_formula_sum "Si O2"
_cell_formula_units_Z 18
_cell_length_a 17.961011
_cell_length_b 7.173064
_cell_length_c 9.450982
_cell_angle_alpha 90.000000
_cell_angle_beta 140.937029
_cell_angle_gamma 90.000000
_cell_volume 767.313773
_symmetry_space_group_name_H-M "P 2/C"
_symmetry_group_IT_number 13
_symmetry_cell_setting 'monoclinic'
loop_
_space_group_symop_operation_xyz
x,y,z
-x,y,1/2-z
-x,-y,-z
x,-y,1/2+z
loop_
_atom_site_type_symbol
_atom_site_label
_atom_site_fract_x
_atom_site_fract_y
_atom_site_fract_z
Si Si1 0.758646 0.439217 0.113329
Si Si2 0.770742 0.906335 0.468672
Si Si3 0.500000 0.296207 0.750000
Si Si4 0.608113 0.058849 0.480079
Si Si5 0.863068 0.701725 0.056732
O O1 0.805871 0.629444 0.118121
O O2 0.793533 0.395295 0.325208
O O3 0.823248 0.279019 0.113797
O O4 0.617305 0.410436 0.885716
O O5 0.849356 0.074450 0.526901
O O6 0.680585 0.851638 0.211394
O O7 0.452181 0.858266 0.064068
O O8 0.304213 0.005290 0.513791
O O9 0.500000 0.168318 0.250000
O O10 0.000000 0.652710 0.250000
#
# Coordination Sequence:
#
# PCOD9237484 Si02
#       5
#     4   4   2   4   4
#     4  11  26  44  68 101 132 173 220 274 334 389
#     4  11  21  43  66  95 132 171 222 262 329 390
#     4   8  18  42  64 100 136 156 220 266 328 404
#     4   9  18  35  67  96 132 167 209 267 325 398
#     4  12  27  47  66  95 134 178 230 271 317 390
#
# _framework density 23.458459999999999
#
# number of rings (size 3 to 8) (size 9 to 14) (size 15 to 20)
#    0.667    0.889    4.444    1.333    3.111    2.667 
#    2.000    0.000    0.000    0.000    0.000    0.000 
#    0.000    0.000    0.000    0.000    0.000    0.000 
#
# Total GULP energy -100473.312057 kJ/mol
# GULP energy per Si atom -5581.850670 kJ/mol
# Density = 2.340507 g / cm^3
# Si number density = 23.458460 Si / 1000 Ang^3
#
#
#
# Elastic Constant Matrix: (Units=GPa)
#
#
# Indices 1 2 3 4 5 6 
#
# 1 59.8028 6.7870 35.0108 0.0000 4.3262 0.0000
# 2 6.7870 79.4225 8.1465 0.0000 15.4750 0.0000
# 3 35.0108 8.1465 73.5434 0.0000 7.3945 0.0000
# 4 0.0000 0.0000 0.0000 -0.4339 0.0000 -11.5711
# 5 4.3262 15.4750 7.3945 0.0000 40.9925 0.0000
# 6 0.0000 0.0000 0.0000 -11.5711 0.0000 26.8409
#
#
#
# Elastic Compliance Matrix: (Units=1/GPa)
#
#
# Indices 1 2 3 4 5 6 
#
# 1 0.023242 -0.000831 -0.010956 0.000000 -0.000163 0.000000
# 2 -0.000831 0.013694 -0.000622 0.000000 -0.004970 0.000000
# 3 -0.010956 -0.000622 0.019088 0.000000 -0.002052 0.000000
# 4 0.000000 0.000000 0.000000 -0.184428 0.000000 -0.079507
# 5 -0.000163 -0.004970 -0.002052 0.000000 0.026658 0.000000
# 6 0.000000 0.000000 0.000000 -0.079507 0.000000 0.002981
#
#
# Mechanical properties :
#
#
# Convention : Reuss Voigt Hill
#
# Bulk Modulus (GPa) = 32.04383 34.73972 33.39178
# Shear Modulus (GPa) = -78.68471 24.33485 -27.17493
#
# Velocity S-wave (km/s) = -5.79784 3.22430 -3.40726
# Velocity P-wave (km/s) = 5.57947 5.35749 1.10177
#
# Compressibility (1/GPa) = 0.03120725
#
# Stress axis : x y z
#
# Youngs Moduli (GPa) = 43.02605 73.02484 52.38807
#
# Poissons Ratio (x) = 0.06065 0.57396
# Poissons Ratio (y) = 0.03574 0.03258
# Poissons Ratio (z) = 0.47139 0.04541
#
# Static dielectric constant tensor:
#      x y z
#    x 1.883430 0.000000 0.014460 
#    y 0.000000 1.957290 0.000000 
#    z 0.014460 0.000000 1.882070 
# 
# From -- ./inp_files/41430.got.cif
#   From: 2010.05.17/outbox.cif.g08.bks.cpg/sg13_21_cif.got.tgz:41430.got - 2010.06.03 16:44:36.
