data_PCOD9237276
_publ_section_title
;
Structure prediction by ZEFSAII (Michael W. Deem and Ramdas Pophale) SiO2 
 PCOD9237276
Probable space group: P 2/C
;
_chemical_formula_sum "Si O2"
_cell_formula_units_Z 20
_cell_length_a 11.269704
_cell_length_b 9.112618
_cell_length_c 9.031823
_cell_angle_alpha 90.000000
_cell_angle_beta 93.249946
_cell_angle_gamma 90.000000
_cell_volume 926.044944
_symmetry_space_group_name_H-M "P 2/C"
_symmetry_group_IT_number 13
_symmetry_cell_setting 'monoclinic'
loop_
_space_group_symop_operation_xyz
x,y,z
-x,y,1/2-z
-x,-y,-z
x,-y,1/2+z
loop_
_atom_site_type_symbol
_atom_site_label
_atom_site_fract_x
_atom_site_fract_y
_atom_site_fract_z
Si Si1 0.811857 0.114822 0.051410
Si Si2 0.143841 0.820064 0.277422
Si Si3 0.938592 0.381190 0.092733
Si Si4 0.713570 0.438296 0.551382
Si Si5 0.369283 0.314618 0.271672
O O1 0.934528 0.207377 0.079138
O O2 0.711443 0.191349 0.150261
O O3 0.833887 0.950823 0.105862
O O4 0.796641 0.130460 0.873938
O O5 0.214763 0.678439 0.342869
O O6 0.000000 0.793636 0.250000
O O7 0.805059 0.427149 0.045634
O O8 0.000000 0.410273 0.250000
O O9 0.000000 0.500000 0.000000
O O10 0.685778 0.365975 0.390982
O O11 0.614376 0.531740 0.633323
O O12 0.500000 0.253080 0.250000
#
# Coordination Sequence:
#
# PCOD9237276 Si02
#       5
#     4   4   4   4   4
#     4  11  24  41  62  93 131 174 218 260 316 392
#     4  12  24  41  64  97 136 171 203 257 326 397
#     4  11  20  35  58  88 123 162 203 252 308 374
#     4  11  22  38  63  94 125 163 213 262 317 386
#     4  11  24  45  67  92 125 168 222 281 322 363
#
# _framework density 21.597224000000001
#
# number of rings (size 3 to 8) (size 9 to 14) (size 15 to 20)
#    0.000    0.800    0.000   10.800    0.000    0.000 
#    0.000    5.000    0.000    0.000    0.000    0.000 
#    0.000    0.000    0.000    0.000    0.000    0.000 
#
# Total GULP energy -111339.795648 kJ/mol
# GULP energy per Si atom -5566.989782 kJ/mol
# Density = 2.154807 g / cm^3
# Si number density = 21.597224 Si / 1000 Ang^3
#
#
#
# Elastic Constant Matrix: (Units=GPa)
#
#
# Indices 1 2 3 4 5 6 
#
# 1 61.7185 5.4706 2.2964 0.0000 -13.7747 0.0000
# 2 5.4706 79.2629 1.2320 0.0000 -10.0143 0.0000
# 3 2.2964 1.2320 110.8631 0.0000 2.8678 0.0000
# 4 0.0000 0.0000 0.0000 40.0506 0.0000 -3.3246
# 5 -13.7747 -10.0143 2.8678 0.0000 31.2875 0.0000
# 6 0.0000 0.0000 0.0000 -3.3246 0.0000 26.9549
#
#
#
# Elastic Compliance Matrix: (Units=1/GPa)
#
#
# Indices 1 2 3 4 5 6 
#
# 1 0.018009 -0.000235 -0.000575 0.000000 0.007906 0.000000
# 2 -0.000235 0.013158 -0.000248 0.000000 0.004131 0.000000
# 3 -0.000575 -0.000248 0.009065 0.000000 -0.001163 0.000000
# 4 0.000000 0.000000 0.000000 0.025227 0.000000 0.003111
# 5 0.007906 0.004131 -0.001163 0.000000 0.036871 0.000000
# 6 0.000000 0.000000 0.000000 0.003111 0.000000 0.037483
#
#
# Mechanical properties :
#
#
# Convention : Reuss Voigt Hill
#
# Bulk Modulus (GPa) = 26.23576 29.98251 28.10913
# Shear Modulus (GPa) = 32.33418 35.84831 34.09125
#
# Velocity S-wave (km/s) = 3.87349 4.07855 3.97735
# Velocity P-wave (km/s) = 5.67269 6.00768 5.84258
#
# Compressibility (1/GPa) = 0.03811591
#
# Stress axis : x y z
#
# Youngs Moduli (GPa) = 55.52659 75.99803 110.31564
#
# Poissons Ratio (x) = 0.01787 0.06343
# Poissons Ratio (y) = 0.01306 0.02738
# Poissons Ratio (z) = 0.03192 0.01886
#
# Static dielectric constant tensor:
#      x y z
#    x 1.673740 0.000000 -0.038330 
#    y 0.000000 1.542260 0.000000 
#    z -0.038330 0.000000 1.864930 
# 
# From -- ./inp_files/14925.got.cif
#   From: 2010.05.17/outbox.cif.g08.bks.cpg/sg13_8_cif.got.tgz:14925.got - 2010.06.03 16:44:36.
