data_PCOD9237114
_publ_section_title
;
Structure prediction by ZEFSAII (Michael W. Deem and Ramdas Pophale) SiO2 
 PCOD9237114
Probable space group: P 2/C
;
_chemical_formula_sum "Si O2"
_cell_formula_units_Z 22
_cell_length_a 21.835411
_cell_length_b 5.720415
_cell_length_c 12.855309
_cell_angle_alpha 90.000000
_cell_angle_beta 145.878695
_cell_angle_gamma 90.000000
_cell_volume 900.726939
_symmetry_space_group_name_H-M "P 2/C"
_symmetry_group_IT_number 13
_symmetry_cell_setting 'monoclinic'
loop_
_space_group_symop_operation_xyz
x,y,z
-x,y,1/2-z
-x,-y,-z
x,-y,1/2+z
loop_
_atom_site_type_symbol
_atom_site_label
_atom_site_fract_x
_atom_site_fract_y
_atom_site_fract_z
Si Si1 0.219138 0.373448 0.597269
Si Si2 0.586702 0.672872 0.673598
Si Si3 0.500000 0.069523 0.250000
Si Si4 0.929096 0.131256 0.251325
Si Si5 0.309988 0.009027 0.353308
Si Si6 0.919613 0.723649 0.961327
O O1 0.299860 0.539785 0.648139
O O2 0.185549 0.171309 0.467669
O O3 0.124445 0.526989 0.520993
O O4 0.285360 0.256922 0.785725
O O5 0.500000 0.500000 0.500000
O O6 0.532786 0.775113 0.699050
O O7 0.622898 0.874717 0.645605
O O8 0.611545 0.942398 0.439218
O O9 0.939221 0.306330 0.364298
O O10 0.000000 0.188194 0.250000
O O11 0.977019 0.879186 0.354044
O O12 0.188850 0.111622 0.195360
#
# Coordination Sequence:
#
# PCOD9237114 Si02
#       6
#     4   4   2   4   4   4
#     4  11  25  47  72 104 146 188 243 305 358 435
#     4  11  26  46  70 107 148 189 247 296 362 434
#     4  12  26  42  76 100 146 198 228 302 362 412
#     4  11  24  47  73 102 141 187 237 303 366 433
#     4  11  25  47  67 108 141 190 246 292 357 437
#     4  10  26  48  70 105 142 187 241 294 372 434
#
# _framework density 24.424717999999999
#
# number of rings (size 3 to 8) (size 9 to 14) (size 15 to 20)
#    0.000    1.091    3.636    0.545    5.091    2.182 
#    0.000    0.000    0.000    0.000    0.000    0.000 
#    0.000    0.000    0.000    0.000    0.000    0.000 
#
# Total GULP energy -122792.312381 kJ/mol
# GULP energy per Si atom -5581.468745 kJ/mol
# Density = 2.436913 g / cm^3
# Si number density = 24.424718 Si / 1000 Ang^3
#
#
#
# Elastic Constant Matrix: (Units=GPa)
#
#
# Indices 1 2 3 4 5 6 
#
# 1 124.9878 13.9181 12.3995 0.0000 -6.0030 0.0000
# 2 13.9181 55.6480 32.7151 0.0000 8.7969 0.0000
# 3 12.3995 32.7151 122.3410 0.0000 -8.4915 0.0000
# 4 0.0000 0.0000 0.0000 31.5642 0.0000 25.1027
# 5 -6.0030 8.7969 -8.4915 0.0000 29.0115 0.0000
# 6 0.0000 0.0000 0.0000 25.1027 0.0000 16.3466
#
#
#
# Elastic Compliance Matrix: (Units=1/GPa)
#
#
# Indices 1 2 3 4 5 6 
#
# 1 0.008398 -0.002486 -0.000014 0.000000 0.002487 0.000000
# 2 -0.002486 0.024215 -0.006909 0.000000 -0.009879 0.000000
# 3 -0.000014 -0.006909 0.010379 0.000000 0.005130 0.000000
# 4 0.000000 0.000000 0.000000 -0.143169 0.000000 0.219857
# 5 0.002487 -0.009879 0.005130 0.000000 0.039481 0.000000
# 6 0.000000 0.000000 0.000000 0.219857 0.000000 -0.276449
#
#
# Mechanical properties :
#
#
# Convention : Reuss Voigt Hill
#
# Bulk Modulus (GPa) = 41.36439 46.78248 44.07343
# Shear Modulus (GPa) = -16.11509 31.64740 7.76616
#
# Velocity S-wave (km/s) = -2.57142 3.60351 1.78509
# Velocity P-wave (km/s) = 2.85587 6.04227 4.72573
#
# Compressibility (1/GPa) = 0.02417538
#
# Stress axis : x y z
#
# Youngs Moduli (GPa) = 119.07019 41.29609 96.34896
#
# Poissons Ratio (x) = 0.10264 0.00134
# Poissons Ratio (y) = 0.29596 0.66569
# Poissons Ratio (z) = 0.00165 0.28532
#
# Static dielectric constant tensor:
#      x y z
#    x 1.945240 0.000000 0.093660 
#    y 0.000000 0.554960 0.000000 
#    z 0.093660 0.000000 2.134000 
# 
# From -- ./inp_files/41329.got.cif
#   From: 2010.05.17/outbox.cif.g08.bks.cpg/sg13_21_cif.got.tgz:41329.got - 2010.06.03 16:44:36.
