data_PCOD9237132
_publ_section_title
;
Structure prediction by ZEFSAII (Michael W. Deem and Ramdas Pophale) SiO2 
 PCOD9237132
Probable space group: P 2/C
;
_chemical_formula_sum "Si O2"
_cell_formula_units_Z 18
_cell_length_a 5.103181
_cell_length_b 17.773273
_cell_length_c 9.320444
_cell_angle_alpha 90.000000
_cell_angle_beta 123.280631
_cell_angle_gamma 90.000000
_cell_volume 706.720324
_symmetry_space_group_name_H-M "P 2/C"
_symmetry_group_IT_number 13
_symmetry_cell_setting 'monoclinic'
loop_
_space_group_symop_operation_xyz
x,y,z
-x,y,1/2-z
-x,-y,-z
x,-y,1/2+z
loop_
_atom_site_type_symbol
_atom_site_label
_atom_site_fract_x
_atom_site_fract_y
_atom_site_fract_z
Si Si1 0.000000 0.836033 0.250000
Si Si2 0.500000 0.690304 0.750000
Si Si3 0.500000 0.732679 0.250000
Si Si4 0.000000 0.494626 0.750000
Si Si5 0.000000 0.197055 0.250000
Si Si6 0.840401 0.080190 0.427500
Si Si7 0.434346 0.606255 0.020542
O O1 0.240862 0.782714 0.243560
O O2 0.181491 0.884415 0.421774
O O3 0.252593 0.747534 0.750798
O O4 0.435131 0.634862 0.594924
O O5 0.351316 0.679142 0.085672
O O6 0.293442 0.439835 0.817449
O O7 0.861220 0.552194 0.591333
O O8 0.053126 0.136933 0.395511
O O9 0.500000 0.074426 0.250000
O O10 0.000000 0.000000 0.500000
#
# Coordination Sequence:
#
# PCOD9237132 Si02
#       7
#     2   2   2   2   2   4   4
#     4  12  30  54  84 124 170 214 282 344 408 492
#     4  12  26  49  83 114 158 214 270 338 404 482
#     4  12  28  53  81 120 160 214 274 342 410 490
#     4  10  26  48  76 112 160 212 268 340 400 492
#     4  12  26  52  80 120 162 216 276 338 406 486
#     4  12  30  55  88 124 169 222 275 337 411 492
#     4  11  26  48  78 114 159 211 275 331 413 482
#
# _framework density 25.469764000000001
#
# number of rings (size 3 to 8) (size 9 to 14) (size 15 to 20)
#    0.000    0.444    1.111    4.667    4.667   12.444 
#    0.000    0.000    0.000    0.000    0.000    0.000 
#    0.000    0.000    0.000    0.000    0.000    0.000 
#
# Total GULP energy -100867.108099 kJ/mol
# GULP energy per Si atom -5603.728228 kJ/mol
# Density = 2.541179 g / cm^3
# Si number density = 25.469764 Si / 1000 Ang^3
#
#
#
# Elastic Constant Matrix: (Units=GPa)
#
#
# Indices 1 2 3 4 5 6 
#
# 1 195.2035 109.9619 89.6667 0.0000 -6.6926 0.0000
# 2 109.9619 198.2058 99.1944 0.0000 4.2304 0.0000
# 3 89.6667 99.1944 191.2806 0.0000 3.4948 0.0000
# 4 0.0000 0.0000 0.0000 52.0000 0.0000 -8.5982
# 5 -6.6926 4.2304 3.4948 0.0000 52.2357 0.0000
# 6 0.0000 0.0000 0.0000 -8.5982 0.0000 0.2866
#
#
#
# Elastic Compliance Matrix: (Units=1/GPa)
#
#
# Indices 1 2 3 4 5 6 
#
# 1 0.008062 -0.003510 -0.001985 0.000000 0.001450 0.000000
# 2 -0.003510 0.008347 -0.002666 0.000000 -0.000947 0.000000
# 3 -0.001985 -0.002666 0.007551 0.000000 -0.000544 0.000000
# 4 0.000000 0.000000 0.000000 -0.004856 0.000000 -0.145668
# 5 0.001450 -0.000947 -0.000544 0.000000 0.019443 0.000000
# 6 0.000000 0.000000 0.000000 -0.145668 0.000000 -0.880967
#
#
# Mechanical properties :
#
#
# Convention : Reuss Voigt Hill
#
# Bulk Modulus (GPa) = 130.93700 131.37067 131.15383
# Shear Modulus (GPa) = -6.07127 39.96225 16.94549
#
# Velocity S-wave (km/s) = -1.54560 3.96537 2.58217
# Velocity P-wave (km/s) = 6.95235 8.52388 7.77791
#
# Compressibility (1/GPa) = 0.00763726
#
# Stress axis : x y z
#
# Youngs Moduli (GPa) = 124.04230 119.80520 132.43155
#
# Poissons Ratio (x) = 0.42050 0.26294
# Poissons Ratio (y) = 0.43537 0.35305
# Poissons Ratio (z) = 0.24628 0.31939
#
# Static dielectric constant tensor:
#      x y z
#    x 2.000050 0.000000 0.043580 
#    y 0.000000 1.966690 0.000000 
#    z 0.043580 0.000000 2.078920 
# 
# From -- ./inp_files/9685.got.cif
#   From: 2010.05.17/outbox.cif.g08.bks.cpg/sg13_5_cif.got.tgz:9685.got - 2010.06.03 16:44:36.
