data_PCOD9237379
_publ_section_title
;
Structure prediction by ZEFSAII (Michael W. Deem and Ramdas Pophale) SiO2 
 PCOD9237379
Probable space group: P 2/C
;
_chemical_formula_sum "Si O2"
_cell_formula_units_Z 20
_cell_length_a 5.062252
_cell_length_b 8.995091
_cell_length_c 22.672177
_cell_angle_alpha 90.000000
_cell_angle_beta 76.968032
_cell_angle_gamma 90.000000
_cell_volume 1005.797298
_symmetry_space_group_name_H-M "P 2/C"
_symmetry_group_IT_number 13
_symmetry_cell_setting 'monoclinic'
loop_
_space_group_symop_operation_xyz
x,y,z
-x,y,1/2-z
-x,-y,-z
x,-y,1/2+z
loop_
_atom_site_type_symbol
_atom_site_label
_atom_site_fract_x
_atom_site_fract_y
_atom_site_fract_z
Si Si1 0.393988 0.316792 0.189176
Si Si2 0.500000 0.888024 0.250000
Si Si3 0.231384 0.663023 0.189272
Si Si4 0.124873 0.597649 0.066013
Si Si5 0.000000 0.905674 0.750000
Si Si6 0.368353 0.390822 0.436526
O O1 0.500000 0.291880 0.250000
O O2 0.317181 0.490846 0.190743
O O3 0.595411 0.294831 0.124279
O O4 0.141636 0.205678 0.196477
O O5 0.463744 0.777743 0.196341
O O6 0.765029 0.991000 0.235382
O O7 0.138415 0.683571 0.126853
O O8 0.000000 0.684608 0.250000
O O9 0.337158 0.459094 0.062364
O O10 0.830102 0.528151 0.070050
O O11 0.233367 0.678109 0.001698
#
# Coordination Sequence:
#
# PCOD9237379 Si02
#       6
#     4   2   4   4   2   4
#     4  11  21  36  65  91 119 154 207 253 296 352
#     4  12  26  40  56  88 126 160 196 252 312 358
#     4  11  21  36  65  91 119 154 207 253 296 352
#     4   9  19  33  54  88 125 153 188 247 308 353
#     4  12  26  40  56  88 126 160 196 252 312 358
#     4   9  19  33  54  88 125 153 188 247 308 353
#
# _framework density 19.884723000000001
#
# number of rings (size 3 to 8) (size 9 to 14) (size 15 to 20)
#    0.000    1.600    4.000    1.200    5.600    0.000 
#    0.000    0.000    0.000    2.400    0.000    0.000 
#    0.000    0.000    0.000    0.000    0.000    0.000 
#
# Total GULP energy -111521.465218 kJ/mol
# GULP energy per Si atom -5576.073261 kJ/mol
# Density = 1.983946 g / cm^3
# Si number density = 19.884723 Si / 1000 Ang^3
#
#
#
# Elastic Constant Matrix: (Units=GPa)
#
#
# Indices 1 2 3 4 5 6 
#
# 1 97.3868 38.9874 34.9654 0.0000 4.5318 0.0000
# 2 38.9874 96.4648 29.7868 0.0000 -0.2525 0.0000
# 3 34.9654 29.7868 197.0582 0.0000 -2.5822 0.0000
# 4 0.0000 0.0000 0.0000 -4.4460 0.0000 -0.4939
# 5 4.5318 -0.2525 -2.5822 0.0000 30.6261 0.0000
# 6 0.0000 0.0000 0.0000 -0.4939 0.0000 26.2170
#
#
#
# Elastic Compliance Matrix: (Units=1/GPa)
#
#
# Indices 1 2 3 4 5 6 
#
# 1 0.012815 -0.004693 -0.001592 0.000000 -0.002069 0.000000
# 2 -0.004693 0.012593 -0.001061 0.000000 0.000709 0.000000
# 3 -0.001592 -0.001061 0.005527 0.000000 0.000693 0.000000
# 4 0.000000 0.000000 0.000000 -0.224451 0.000000 -0.004229
# 5 -0.002069 0.000709 0.000693 0.000000 0.033022 0.000000
# 6 0.000000 0.000000 0.000000 -0.004229 0.000000 0.038064
#
#
# Mechanical properties :
#
#
# Convention : Reuss Voigt Hill
#
# Bulk Modulus (GPa) = 61.56925 66.48767 64.02846
# Shear Modulus (GPa) = -48.86428 29.62411 -9.62009
#
# Velocity S-wave (km/s) = -4.96257 3.86397 -2.20192
# Velocity P-wave (km/s) = 1.34382 7.30864 5.07988
#
# Compressibility (1/GPa) = 0.01624187
#
# Stress axis : x y z
#
# Youngs Moduli (GPa) = 78.03409 79.40964 180.94419
#
# Poissons Ratio (x) = 0.37269 0.28798
# Poissons Ratio (y) = 0.36623 0.19207
# Poissons Ratio (z) = 0.12419 0.08429
#
# Static dielectric constant tensor:
#      x y z
#    x 1.790940 0.000000 0.000500 
#    y 0.000000 1.694920 0.000000 
#    z 0.000500 0.000000 1.772350 
# 
# From -- ./inp_files/83125.got.cif
#   From: 2010.05.17/outbox.cif.g08.bks.cpg/sg13_42_cif.got.tgz:83125.got - 2010.06.03 16:44:36.
