data_PCOD9237786
_publ_section_title
;
Structure prediction by ZEFSAII (Michael W. Deem and Ramdas Pophale) SiO2 
 PCOD9237786
Probable space group: P 2/C
;
_chemical_formula_sum "Si O2"
_cell_formula_units_Z 20
_cell_length_a 28.156017
_cell_length_b 7.995194
_cell_length_c 9.779674
_cell_angle_alpha 90.000000
_cell_angle_beta 25.029680
_cell_angle_gamma 90.000000
_cell_volume 931.440220
_symmetry_space_group_name_H-M "P 2/C"
_symmetry_group_IT_number 13
_symmetry_cell_setting 'monoclinic'
loop_
_space_group_symop_operation_xyz
x,y,z
-x,y,1/2-z
-x,-y,-z
x,-y,1/2+z
loop_
_atom_site_type_symbol
_atom_site_label
_atom_site_fract_x
_atom_site_fract_y
_atom_site_fract_z
Si Si1 0.223330 0.322506 0.712498
Si Si2 0.418517 0.503022 0.340274
Si Si3 0.883798 0.106435 0.302283
Si Si4 0.873982 0.658643 0.571614
Si Si5 0.255474 0.201847 0.335008
O O1 0.321431 0.368229 0.562939
O O2 0.249192 0.208841 0.515148
O O3 0.121226 0.248034 0.067378
O O4 0.202450 0.501495 0.694191
O O5 0.500000 0.457911 0.250000
O O6 0.362855 0.687020 0.510684
O O7 0.500000 0.500000 0.000000
O O8 0.775673 0.989617 0.617428
O O9 0.867068 0.191394 0.197944
O O10 0.000000 0.000000 0.000000
O O11 0.841875 0.708180 0.500979
O O12 0.000000 0.597890 0.250000
#
# Coordination Sequence:
#
# PCOD9237786 Si02
#       5
#     4   4   4   4   4
#     4  11  26  43  71 102 140 190 248 290 348 444
#     4  11  23  48  76 103 140 190 244 303 355 423
#     4  12  26  45  67 105 154 189 227 302 360 422
#     4  11  23  41  66  98 139 195 238 277 350 427
#     4  11  24  42  68 103 140 182 239 292 362 412
#
# _framework density 21.472123
#
# number of rings (size 3 to 8) (size 9 to 14) (size 15 to 20)
#    0.000    0.800    4.000    3.600    5.600    1.600 
#    0.000    2.000    0.000    0.000    0.000    0.000 
#    0.000    0.000    0.000    0.000    0.000    0.000 
#
# Total GULP energy -111514.195731 kJ/mol
# GULP energy per Si atom -5575.709787 kJ/mol
# Density = 2.142325 g / cm^3
# Si number density = 21.472123 Si / 1000 Ang^3
#
#
#
# Elastic Constant Matrix: (Units=GPa)
#
#
# Indices 1 2 3 4 5 6 
#
# 1 142.9439 31.7341 44.2887 0.0000 3.9580 0.0000
# 2 31.7341 80.0076 21.2018 0.0000 -4.2143 0.0000
# 3 44.2887 21.2018 85.6115 0.0000 8.8442 0.0000
# 4 0.0000 0.0000 0.0000 40.2703 0.0000 4.6813
# 5 3.9580 -4.2143 8.8442 0.0000 32.8610 0.0000
# 6 0.0000 0.0000 0.0000 4.6813 0.0000 39.2764
#
#
#
# Elastic Compliance Matrix: (Units=1/GPa)
#
#
# Indices 1 2 3 4 5 6 
#
# 1 0.008755 -0.002460 -0.003887 0.000000 -0.000324 0.000000
# 2 -0.002460 0.014301 -0.002561 0.000000 0.002820 0.000000
# 3 -0.003887 -0.002561 0.014720 0.000000 -0.003822 0.000000
# 4 0.000000 0.000000 0.000000 0.025181 0.000000 -0.003001
# 5 -0.000324 0.002820 -0.003822 0.000000 0.031860 0.000000
# 6 0.000000 0.000000 0.000000 -0.003001 0.000000 0.025818
#
#
# Mechanical properties :
#
#
# Convention : Reuss Voigt Hill
#
# Bulk Modulus (GPa) = 50.09258 55.89027 52.99143
# Shear Modulus (GPa) = 34.45791 36.57077 35.51434
#
# Velocity S-wave (km/s) = 4.01031 4.13143 4.07132
# Velocity P-wave (km/s) = 6.69501 6.98885 6.84351
#
# Compressibility (1/GPa) = 0.01996304
#
# Stress axis : x y z
#
# Youngs Moduli (GPa) = 114.22107 69.92274 67.93364
#
# Poissons Ratio (x) = 0.17199 0.26403
# Poissons Ratio (y) = 0.28095 0.17395
# Poissons Ratio (z) = 0.44392 0.17905
#
# Static dielectric constant tensor:
#      x y z
#    x 1.759170 0.000000 -0.016670 
#    y 0.000000 1.837810 0.000000 
#    z -0.016670 0.000000 1.794680 
# 
# From -- ./inp_files/24388.got.cif
#   From: 2010.05.17/outbox.cif.g08.bks.cpg/sg13_13_cif.got.tgz:24388.got - 2010.06.03 16:44:36.
