data_PCOD9237367
_publ_section_title
;
Structure prediction by ZEFSAII (Michael W. Deem and Ramdas Pophale) SiO2 
 PCOD9237367
Probable space group: P 2/C
;
_chemical_formula_sum "Si O2"
_cell_formula_units_Z 28
_cell_length_a 8.537671
_cell_length_b 24.534741
_cell_length_c 14.775815
_cell_angle_alpha 90.000000
_cell_angle_beta 149.920477
_cell_angle_gamma 90.000000
_cell_volume 1551.260402
_symmetry_space_group_name_H-M "P 2/C"
_symmetry_group_IT_number 13
_symmetry_cell_setting 'monoclinic'
loop_
_space_group_symop_operation_xyz
x,y,z
-x,y,1/2-z
-x,-y,-z
x,-y,1/2+z
loop_
_atom_site_type_symbol
_atom_site_label
_atom_site_fract_x
_atom_site_fract_y
_atom_site_fract_z
Si Si1 0.622788 0.851751 0.913073
Si Si2 0.623872 0.639733 0.061936
Si Si3 0.373570 0.441396 0.585162
Si Si4 0.626430 0.441396 0.211592
Si Si5 0.619563 0.235019 0.559781
Si Si6 0.377212 0.148249 0.790285
Si Si7 0.623162 0.061012 0.561581
O O1 0.500000 0.851910 0.750000
O O2 0.522857 0.799275 0.922724
O O3 0.525282 0.904229 0.924164
O O4 0.000000 0.851570 0.098880
O O5 0.498009 0.606868 0.085128
O O6 0.482414 0.702541 0.491207
O O7 0.000000 0.638562 0.250000
O O8 0.498010 0.606867 0.912881
O O9 0.500000 0.434759 0.750000
O O10 0.500001 0.500000 0.615129
O O11 0.000000 0.442693 0.398331
O O12 0.500000 0.434760 0.250000
O O13 0.522857 0.200725 0.600133
O O14 0.000000 0.234883 0.750000
O O15 0.500000 0.148091 0.750000
O O16 0.474718 0.095771 0.898882
O O17 0.000000 0.059982 0.750000
O O18 0.500000 0.000000 0.500000
#
# Coordination Sequence:
#
# PCOD9237367 Si02
#       7
#     4   4   4   4   4   4   4
#     4   9  18  35  55  76 102 138 175 213 257 305
#     4  11  21  36  57  81 108 141 176 218 268 319
#     4  11  22  38  57  80 108 140 177 219 266 321
#     4  11  22  38  57  80 108 140 177 219 266 321
#     4   8  18  36  55  74 103 138 174 213 259 308
#     4   9  18  35  55  76 102 138 175 213 257 305
#     4   9  19  34  52  75 108 139 171 211 256 305
#
# _framework density 18.049838000000001
#
# number of rings (size 3 to 8) (size 9 to 14) (size 15 to 20)
#    0.000    2.286    0.000    6.000    0.000    2.857 
#    0.000   10.714    0.000    0.000    0.000    0.000 
#    0.000    0.000    0.000    0.000    0.000    0.000 
#
# Total GULP energy -156278.774294 kJ/mol
# GULP energy per Si atom -5581.384796 kJ/mol
# Density = 1.800876 g / cm^3
# Si number density = 18.049838 Si / 1000 Ang^3
#
#
#
# Elastic Constant Matrix: (Units=GPa)
#
#
# Indices 1 2 3 4 5 6 
#
# 1 137.0936 93.0712 42.3228 0.0000 -24.8104 0.0000
# 2 93.0712 209.2368 64.5830 0.0000 -28.9616 0.0000
# 3 42.3228 64.5830 94.2669 0.0000 -18.7285 0.0000
# 4 0.0000 0.0000 0.0000 21.2894 0.0000 4.6812
# 5 -24.8104 -28.9616 -18.7285 0.0000 41.3661 0.0000
# 6 0.0000 0.0000 0.0000 4.6812 0.0000 16.6846
#
#
#
# Elastic Compliance Matrix: (Units=1/GPa)
#
#
# Indices 1 2 3 4 5 6 
#
# 1 0.011067 -0.003994 -0.001615 0.000000 0.003111 0.000000
# 2 -0.003994 0.007767 -0.003213 0.000000 0.001588 0.000000
# 3 -0.001615 -0.003213 0.014169 0.000000 0.003197 0.000000
# 4 0.000000 0.000000 0.000000 0.050060 0.000000 -0.014045
# 5 0.003111 0.001588 0.003197 0.000000 0.028599 0.000000
# 6 0.000000 0.000000 0.000000 -0.014045 0.000000 0.063876
#
#
# Mechanical properties :
#
#
# Convention : Reuss Voigt Hill
#
# Bulk Modulus (GPa) = 65.09842 93.39458 79.24650
# Shear Modulus (GPa) = 25.21406 31.90939 28.56172
#
# Velocity S-wave (km/s) = 3.74159 4.20914 3.98223
# Velocity P-wave (km/s) = 7.40339 8.68777 8.07117
#
# Compressibility (1/GPa) = 0.01536136
#
# Stress axis : x y z
#
# Youngs Moduli (GPa) = 90.35848 128.74527 70.57449
#
# Poissons Ratio (x) = 0.51419 0.11394
# Poissons Ratio (y) = 0.36088 0.22674
# Poissons Ratio (z) = 0.14589 0.41363
#
# Static dielectric constant tensor:
#      x y z
#    x 1.602170 0.000000 0.006520 
#    y 0.000000 1.607250 0.000000 
#    z 0.006520 0.000000 1.608580 
# 
# From -- ./inp_files/48242.got.cif
#   From: 2010.05.17/outbox.cif.g08.bks.cpg/sg13_25_cif.got.tgz:48242.got - 2010.06.03 16:44:36.
