data_PCOD9237205
_publ_section_title
;
Structure prediction by ZEFSAII (Michael W. Deem and Ramdas Pophale) SiO2 
 PCOD9237205
Probable space group: P 2/C
;
_chemical_formula_sum "Si O2"
_cell_formula_units_Z 24
_cell_length_a 30.795979
_cell_length_b 7.237627
_cell_length_c 16.777207
_cell_angle_alpha 90.000000
_cell_angle_beta 13.919159
_cell_angle_gamma 90.000000
_cell_volume 899.538954
_symmetry_space_group_name_H-M "P 2/C"
_symmetry_group_IT_number 13
_symmetry_cell_setting 'monoclinic'
loop_
_space_group_symop_operation_xyz
x,y,z
-x,y,1/2-z
-x,-y,-z
x,-y,1/2+z
loop_
_atom_site_type_symbol
_atom_site_label
_atom_site_fract_x
_atom_site_fract_y
_atom_site_fract_z
Si Si1 0.182288 0.935350 0.947285
Si Si2 0.698164 0.560901 0.740897
Si Si3 0.292927 0.494872 0.942547
Si Si4 0.719376 0.555967 0.868212
Si Si5 0.310693 0.058543 0.879416
Si Si6 0.295621 0.994606 0.586357
O O1 0.336113 0.776609 0.675329
O O2 0.201340 0.066136 0.836228
O O3 0.175533 0.016634 0.047362
O O4 0.000000 0.829549 0.250000
O O5 0.788286 0.574482 0.493818
O O6 0.507739 0.457015 0.066500
O O7 0.789375 0.488937 0.658342
O O8 0.214598 0.540089 0.168646
O O9 0.293115 0.275336 0.927602
O O10 0.500000 0.532692 0.250000
O O11 0.747538 0.774268 0.833286
O O12 0.500000 0.000000 0.500000
O O13 0.278109 0.958663 0.023222
O O14 0.500000 0.026176 0.250000
#
# Coordination Sequence:
#
# PCOD9237205 Si02
#       6
#     4   4   4   4   4   4
#     4  11  22  35  53  80 112 145 180 222 274 323
#     4   9  16  30  50  74 102 133 174 221 260 313
#     4   9  16  28  53  77  97 130 183 221 260 307
#     4   7  12  24  44  70  95 126 161 204 259 312
#     4  11  18  33  57  80 105 141 184 224 262 322
#     4   9  16  31  55  77 102 142 184 214 263 331
#
# _framework density 26.680333999999998
#
# number of rings (size 3 to 8) (size 9 to 14) (size 15 to 20)
#    0.000    2.667    3.333    2.000    0.000    0.667 
#    0.000    2.500    7.333    9.000    0.000    0.000 
#    0.000    0.000    0.000    0.000    0.000    0.000 
#
# Total GULP energy -133627.512416 kJ/mol
# GULP energy per Si atom -5567.813017 kJ/mol
# Density = 2.661961 g / cm^3
# Si number density = 26.680334 Si / 1000 Ang^3
#
#
#
# Elastic Constant Matrix: (Units=GPa)
#
#
# Indices 1 2 3 4 5 6 
#
# 1 375.9360 32.1245 41.1282 0.0000 64.6509 0.0000
# 2 32.1245 65.8282 2.3894 0.0000 6.0337 0.0000
# 3 41.1282 2.3894 36.5558 0.0000 1.4328 0.0000
# 4 0.0000 0.0000 0.0000 4.0424 0.0000 6.1030
# 5 64.6509 6.0337 1.4328 0.0000 41.6308 0.0000
# 6 0.0000 0.0000 0.0000 6.1030 0.0000 22.9669
#
#
#
# Elastic Compliance Matrix: (Units=1/GPa)
#
#
# Indices 1 2 3 4 5 6 
#
# 1 0.004393 -0.001384 -0.004599 0.000000 -0.006463 0.000000
# 2 -0.001384 0.015863 0.000527 0.000000 -0.000167 0.000000
# 3 -0.004599 0.000527 0.032261 0.000000 0.005955 0.000000
# 4 0.000000 0.000000 0.000000 0.413120 0.000000 -0.109778
# 5 -0.006463 -0.000167 0.005955 0.000000 0.033877 0.000000
# 6 0.000000 0.000000 0.000000 -0.109778 0.000000 0.072712
#
#
# Mechanical properties :
#
#
# Convention : Reuss Voigt Hill
#
# Bulk Modulus (GPa) = 24.03515 69.95601 46.99558
# Shear Modulus (GPa) = 8.37512 40.57321 24.47417
#
# Velocity S-wave (km/s) = 1.77366 3.90387 3.03200
# Velocity P-wave (km/s) = 3.63629 6.82622 5.46900
#
# Compressibility (1/GPa) = 0.04160574
#
# Stress axis : x y z
#
# Youngs Moduli (GPa) = 227.64036 63.04029 30.99683
#
# Poissons Ratio (x) = 0.08728 0.14254
# Poissons Ratio (y) = 0.31516 -0.01634
# Poissons Ratio (z) = 1.04682 -0.03324
#
# Static dielectric constant tensor:
#      x y z
#    x 2.214560 0.000000 0.120320 
#    y 0.000000 2.151390 0.000000 
#    z 0.120320 0.000000 2.111750 
# 
# From -- ./inp_files/59542.got.cif
#   From: 2010.05.17/outbox.cif.g08.bks.cpg/sg13_30_cif.got.tgz:59542.got - 2010.06.03 16:44:36.
