data_PCOD9237376
_publ_section_title
;
Structure prediction by ZEFSAII (Michael W. Deem and Ramdas Pophale) SiO2 
 PCOD9237376
Probable space group: P 2/C
;
_chemical_formula_sum "Si O2"
_cell_formula_units_Z 28
_cell_length_a 19.747557
_cell_length_b 5.027143
_cell_length_c 18.749265
_cell_angle_alpha 90.000000
_cell_angle_beta 146.188565
_cell_angle_gamma 90.000000
_cell_volume 1035.747626
_symmetry_space_group_name_H-M "P 2/C"
_symmetry_group_IT_number 13
_symmetry_cell_setting 'monoclinic'
loop_
_space_group_symop_operation_xyz
x,y,z
-x,y,1/2-z
-x,-y,-z
x,-y,1/2+z
loop_
_atom_site_type_symbol
_atom_site_label
_atom_site_fract_x
_atom_site_fract_y
_atom_site_fract_z
Si Si1 0.144837 0.117309 0.672729
Si Si2 0.796279 0.716948 0.646963
Si Si3 0.839453 0.949732 0.475932
Si Si4 0.409275 0.817672 0.783306
Si Si5 0.443721 0.722968 0.125978
Si Si6 0.357739 0.521035 0.366108
Si Si7 0.018973 0.571635 0.369876
O O1 0.282968 0.220039 0.781299
O O2 0.061185 0.361786 0.628058
O O3 0.154982 0.929945 0.752097
O O4 0.113409 0.019671 0.565693
O O5 0.701811 0.775282 0.501306
O O6 0.700074 0.551455 0.609428
O O7 0.911881 0.544336 0.726887
O O8 0.701761 0.053415 0.357996
O O9 0.917424 0.151532 0.592446
O O10 0.877621 0.648210 0.525957
O O11 0.494528 0.570996 0.830151
O O12 0.336249 0.683636 0.784178
O O13 0.500220 0.061042 0.880317
O O14 0.500000 0.814227 0.250000
O O15 0.500000 0.500000 0.500000
#
# Coordination Sequence:
#
# PCOD9237376 Si02
#       7
#     4   4   4   4   4   4   4
#     4  11  22  36  58 103 142 191 212 257 331 414
#     4  11  24  39  68  99 140 180 218 270 339 396
#     4  12  23  38  64  95 144 175 220 262 327 401
#     4  12  25  44  69 100 133 175 220 279 343 398
#     4  12  28  49  72  95 131 175 231 285 339 404
#     4  11  21  36  62 101 143 174 212 272 340 408
#     4  11  24  38  59  98 144 183 217 258 320 413
#
# _framework density 27.033612999999999
#
# number of rings (size 3 to 8) (size 9 to 14) (size 15 to 20)
#    0.000    0.571    4.286    4.714    4.000    1.143 
#    0.000    0.000    0.000    5.143    0.000    0.000 
#    0.000    0.000    0.000    0.000    0.000    0.000 
#
# Total GULP energy -156438.767417 kJ/mol
# GULP energy per Si atom -5587.098836 kJ/mol
# Density = 2.697208 g / cm^3
# Si number density = 27.033613 Si / 1000 Ang^3
#
#
#
# Elastic Constant Matrix: (Units=GPa)
#
#
# Indices 1 2 3 4 5 6 
#
# 1 85.9921 22.2195 17.3022 0.0000 13.6257 0.0000
# 2 22.2195 123.3949 11.7254 0.0000 17.7537 0.0000
# 3 17.3022 11.7254 85.1523 0.0000 2.9319 0.0000
# 4 0.0000 0.0000 0.0000 52.2635 0.0000 17.6031
# 5 13.6257 17.7537 2.9319 0.0000 50.6510 0.0000
# 6 0.0000 0.0000 0.0000 17.6031 0.0000 29.2828
#
#
#
# Elastic Compliance Matrix: (Units=1/GPa)
#
#
# Indices 1 2 3 4 5 6 
#
# 1 0.012974 -0.001721 -0.002304 0.000000 -0.002753 0.000000
# 2 -0.001721 0.008862 -0.000781 0.000000 -0.002598 0.000000
# 3 -0.002304 -0.000781 0.012313 0.000000 0.000181 0.000000
# 4 0.000000 0.000000 0.000000 0.023991 0.000000 -0.014422
# 5 -0.002753 -0.002598 0.000181 0.000000 0.021384 0.000000
# 6 0.000000 0.000000 0.000000 -0.014422 0.000000 0.042820
#
#
# Mechanical properties :
#
#
# Convention : Reuss Voigt Hill
#
# Bulk Modulus (GPa) = 40.75672 44.11484 42.43578
# Shear Modulus (GPa) = 35.67983 42.65893 39.16938
#
# Velocity S-wave (km/s) = 3.63689 3.97671 3.81059
# Velocity P-wave (km/s) = 5.72233 6.11879 5.92387
#
# Compressibility (1/GPa) = 0.02453583
#
# Stress axis : x y z
#
# Youngs Moduli (GPa) = 77.07959 112.84156 81.21351
#
# Poissons Ratio (x) = 0.19420 0.18714
# Poissons Ratio (y) = 0.13266 0.06344
# Poissons Ratio (z) = 0.17762 0.08814
#
# Static dielectric constant tensor:
#      x y z
#    x 2.209500 0.000000 -0.112870 
#    y 0.000000 2.195900 0.000000 
#    z -0.112870 0.000000 2.425900 
# 
# From -- ./inp_files/81961.got.cif
#   From: 2010.05.17/outbox.cif.g08.bks.cpg/sg13_41_cif.got.tgz:81961.got - 2010.06.03 16:44:36.
