data_PCOD9237327
_publ_section_title
;
Structure prediction by ZEFSAII (Michael W. Deem and Ramdas Pophale) SiO2 
 PCOD9237327
Probable space group: P 2/C
;
_chemical_formula_sum "Si O2"
_cell_formula_units_Z 30
_cell_length_a 11.396842
_cell_length_b 14.191659
_cell_length_c 15.887983
_cell_angle_alpha 90.000000
_cell_angle_beta 149.321810
_cell_angle_gamma 90.000000
_cell_volume 1311.113144
_symmetry_space_group_name_H-M "P 2/C"
_symmetry_group_IT_number 13
_symmetry_cell_setting 'monoclinic'
loop_
_space_group_symop_operation_xyz
x,y,z
-x,y,1/2-z
-x,-y,-z
x,-y,1/2+z
loop_
_atom_site_type_symbol
_atom_site_label
_atom_site_fract_x
_atom_site_fract_y
_atom_site_fract_z
Si Si1 0.583970 0.308286 0.626102
Si Si2 0.600900 0.731052 0.944799
Si Si3 0.879615 0.201507 0.355262
Si Si4 0.732714 0.017777 0.193799
Si Si5 0.954638 0.586688 0.120248
Si Si6 0.680767 0.874545 0.286837
Si Si7 0.879446 0.624154 0.584391
Si Si8 0.000000 0.874366 0.250000
O O1 0.526077 0.309983 0.490881
O O2 0.610125 0.200269 0.671319
O O3 0.387138 0.355251 0.560764
O O4 0.825714 0.362327 0.784514
O O5 0.369719 0.772169 0.763000
O O6 0.729472 0.650543 0.972183
O O7 0.795167 0.808404 0.088967
O O8 0.062723 0.151955 0.527940
O O9 0.007768 0.293621 0.400325
O O10 0.821768 0.123882 0.247688
O O11 0.677780 0.981365 0.253244
O O12 0.916095 0.944632 0.270582
O O13 0.500000 0.000000 0.000000
O O14 0.919682 0.479447 0.071900
O O15 0.000000 0.586240 0.250000
O O16 0.500000 0.861419 0.250000
O O17 0.000000 0.626595 0.750000
#
# Coordination Sequence:
#
# PCOD9237327 Si02
#       8
#     4   4   4   4   4   4   4   2
#     4  11  20  42  66  92 136 181 232 285 346 409
#     4  11  20  41  69  99 134 180 233 290 343 415
#     4  12  26  41  64 102 139 179 230 282 349 420
#     4  12  27  46  72 103 132 187 234 291 342 422
#     4   9  21  37  68 102 134 176 233 298 349 398
#     4  12  26  46  68  99 146 186 225 288 355 417
#     4  11  23  36  66 106 133 179 234 297 344 411
#     4  12  22  42  72  98 136 174 238 284 352 394
#
# _framework density 22.881321
#
# number of rings (size 3 to 8) (size 9 to 14) (size 15 to 20)
#    0.000    0.800    7.333    0.400    4.667    1.600 
#    0.000    3.333    2.933    0.000    0.000    0.000 
#    0.000    0.000    0.000    0.000    0.000    0.000 
#
# Total GULP energy -167921.547820 kJ/mol
# GULP energy per Si atom -5597.384927 kJ/mol
# Density = 2.282924 g / cm^3
# Si number density = 22.881321 Si / 1000 Ang^3
#
#
#
# Elastic Constant Matrix: (Units=GPa)
#
#
# Indices 1 2 3 4 5 6 
#
# 1 66.0380 43.7751 33.1155 0.0000 29.7283 0.0000
# 2 43.7751 145.6640 28.8166 0.0000 24.7907 0.0000
# 3 33.1155 28.8166 115.4992 0.0000 26.6435 0.0000
# 4 0.0000 0.0000 0.0000 17.8367 0.0000 -1.8857
# 5 29.7283 24.7907 26.6435 0.0000 36.3109 0.0000
# 6 0.0000 0.0000 0.0000 -1.8857 0.0000 29.2909
#
#
#
# Elastic Compliance Matrix: (Units=1/GPa)
#
#
# Indices 1 2 3 4 5 6 
#
# 1 0.027401 -0.004775 -0.002699 0.000000 -0.017194 0.000000
# 2 -0.004775 0.008671 -0.000398 0.000000 -0.001719 0.000000
# 3 -0.002699 -0.000398 0.010784 0.000000 -0.005432 0.000000
# 4 0.000000 0.000000 0.000000 0.056448 0.000000 0.003634
# 5 -0.017194 -0.001719 -0.005432 0.000000 0.046776 0.000000
# 6 0.000000 0.000000 0.000000 0.003634 0.000000 0.034374
#
#
# Mechanical properties :
#
#
# Convention : Reuss Voigt Hill
#
# Bulk Modulus (GPa) = 32.13990 59.84617 45.99304
# Shear Modulus (GPa) = 23.74518 31.45397 27.59958
#
# Velocity S-wave (km/s) = 3.22491 3.71166 3.47681
# Velocity P-wave (km/s) = 5.28617 6.67685 6.02179
#
# Compressibility (1/GPa) = 0.03111397
#
# Stress axis : x y z
#
# Youngs Moduli (GPa) = 36.49482 115.32335 92.72865
#
# Poissons Ratio (x) = 0.55061 0.25026
# Poissons Ratio (y) = 0.17424 0.03690
# Poissons Ratio (z) = 0.09849 0.04589
#
# Static dielectric constant tensor:
#      x y z
#    x 1.899630 0.000000 -0.019770 
#    y 0.000000 1.833280 0.000000 
#    z -0.019770 0.000000 1.852630 
# 
# From -- ./inp_files/66855.got.cif
#   From: 2010.05.17/outbox.cif.g08.bks.cpg/sg13_34_cif.got.tgz:66855.got - 2010.06.03 16:44:36.
