data_PCOD9237392
_publ_section_title
;
Structure prediction by ZEFSAII (Michael W. Deem and Ramdas Pophale) SiO2 
 PCOD9237392
Probable space group: P 2/C
;
_chemical_formula_sum "Si O2"
_cell_formula_units_Z 24
_cell_length_a 11.536544
_cell_length_b 9.319101
_cell_length_c 12.459964
_cell_angle_alpha 90.000000
_cell_angle_beta 126.385117
_cell_angle_gamma 90.000000
_cell_volume 1078.420817
_symmetry_space_group_name_H-M "P 2/C"
_symmetry_group_IT_number 13
_symmetry_cell_setting 'monoclinic'
loop_
_space_group_symop_operation_xyz
x,y,z
-x,y,1/2-z
-x,-y,-z
x,-y,1/2+z
loop_
_atom_site_type_symbol
_atom_site_label
_atom_site_fract_x
_atom_site_fract_y
_atom_site_fract_z
Si Si1 0.849735 0.527464 0.973855
Si Si2 0.812444 0.886302 0.267622
Si Si3 0.749895 0.781529 0.462313
Si Si4 0.531853 0.264352 0.563608
Si Si5 0.396745 0.425875 0.294973
Si Si6 0.000000 0.119065 0.250000
Si Si7 0.000000 0.659433 0.250000
O O1 0.758474 0.382559 0.929903
O O2 0.883050 0.577116 0.113219
O O3 0.756878 0.619874 0.839020
O O4 0.000000 0.500000 0.000000
O O5 0.778883 0.881300 0.375421
O O6 0.917294 0.755821 0.291395
O O7 0.899821 0.021847 0.272575
O O8 0.661692 0.848646 0.126790
O O9 0.594002 0.798173 0.429743
O O10 0.883691 0.796774 0.616409
O O11 0.456077 0.311605 0.412385
O O12 0.595009 0.415985 0.645004
O O13 0.500000 0.428803 0.250000
#
# Coordination Sequence:
#
# PCOD9237392 Si02
#       7
#     4   4   4   4   4   2   2
#     4  12  23  37  65 102 139 171 210 267 341 409
#     4  11  23  47  65  89 132 180 223 278 334 379
#     4  12  24  43  67  97 131 175 223 276 336 391
#     4  11  23  39  68  95 134 172 217 271 339 401
#     4  11  21  38  60 104 137 170 206 263 338 419
#     4  11  29  44  68  92 127 181 244 282 310 389
#     4  11  23  38  64  98 137 177 212 262 336 407
#
# _framework density 22.254761999999999
#
# number of rings (size 3 to 8) (size 9 to 14) (size 15 to 20)
#    0.000    0.667    5.000    2.500    7.000    0.667 
#    0.000    1.667    0.000    0.000    0.000    0.000 
#    0.000    0.000    0.000    0.000    0.000    0.000 
#
# Total GULP energy -134168.728349 kJ/mol
# GULP energy per Si atom -5590.363681 kJ/mol
# Density = 2.220411 g / cm^3
# Si number density = 22.254762 Si / 1000 Ang^3
#
#
#
# Elastic Constant Matrix: (Units=GPa)
#
#
# Indices 1 2 3 4 5 6 
#
# 1 105.0415 5.4197 4.6097 0.0000 13.8839 0.0000
# 2 5.4197 16.0968 9.0507 0.0000 -1.2170 0.0000
# 3 4.6097 9.0507 158.0807 0.0000 11.2629 0.0000
# 4 0.0000 0.0000 0.0000 12.8771 0.0000 11.1849
# 5 13.8839 -1.2170 11.2629 0.0000 44.8827 0.0000
# 6 0.0000 0.0000 0.0000 11.1849 0.0000 -0.9953
#
#
#
# Elastic Compliance Matrix: (Units=1/GPa)
#
#
# Indices 1 2 3 4 5 6 
#
# 1 0.010140 -0.003747 0.000152 0.000000 -0.003276 0.000000
# 2 -0.003747 0.065901 -0.003944 0.000000 0.003936 0.000000
# 3 0.000152 -0.003944 0.006678 0.000000 -0.001830 0.000000
# 4 0.000000 0.000000 0.000000 0.007217 0.000000 0.081098
# 5 -0.003276 0.003936 -0.001830 0.000000 0.023860 0.000000
# 6 0.000000 0.000000 0.000000 0.081098 0.000000 -0.093367
#
#
# Mechanical properties :
#
#
# Convention : Reuss Voigt Hill
#
# Bulk Modulus (GPa) = 14.78418 35.26437 25.02427
# Shear Modulus (GPa) = 86.12799 28.69550 57.41174
#
# Velocity S-wave (km/s) = 6.22776 3.59473 5.08463
# Velocity P-wave (km/s) = 7.64008 5.75410 6.76315
#
# Compressibility (1/GPa) = 0.06763989
#
# Stress axis : x y z
#
# Youngs Moduli (GPa) = 98.62148 15.17425 149.75370
#
# Poissons Ratio (x) = 0.05686 -0.02281
# Poissons Ratio (y) = 0.36957 0.59067
# Poissons Ratio (z) = -0.01502 0.05985
#
# Static dielectric constant tensor:
#      x y z
#    x 1.708820 0.000000 -0.116480 
#    y 0.000000 1.819100 0.000000 
#    z -0.116480 0.000000 1.757970 
# 
# From -- ./inp_files/33978.got.cif
#   From: 2010.05.17/outbox.cif.g08.bks.cpg/sg13_17_cif.got.tgz:33978.got - 2010.06.03 16:44:36.
