data_PCOD9237598
_publ_section_title
;
Structure prediction by ZEFSAII (Michael W. Deem and Ramdas Pophale) SiO2 
 PCOD9237598
Probable space group: P 2/C
;
_chemical_formula_sum "Si O2"
_cell_formula_units_Z 26
_cell_length_a 20.073985
_cell_length_b 5.570689
_cell_length_c 13.781982
_cell_angle_alpha 90.000000
_cell_angle_beta 131.047782
_cell_angle_gamma 90.000000
_cell_volume 1162.301893
_symmetry_space_group_name_H-M "P 2/C"
_symmetry_group_IT_number 13
_symmetry_cell_setting 'monoclinic'
loop_
_space_group_symop_operation_xyz
x,y,z
-x,y,1/2-z
-x,-y,-z
x,-y,1/2+z
loop_
_atom_site_type_symbol
_atom_site_label
_atom_site_fract_x
_atom_site_fract_y
_atom_site_fract_z
Si Si1 0.104353 0.129153 0.366291
Si Si2 0.793676 0.656119 0.715963
Si Si3 0.313325 0.687292 0.529136
Si Si4 0.167224 0.375740 0.029128
Si Si5 0.542400 0.287446 0.602805
Si Si6 0.500000 0.499340 0.250000
Si Si7 0.638951 0.977066 0.564960
O O1 0.149563 0.179238 0.303822
O O2 0.128431 0.374033 0.448870
O O3 0.000000 0.119465 0.250000
O O4 0.130858 0.876531 0.445882
O O5 0.752787 0.442490 0.610491
O O6 0.704645 0.783811 0.668155
O O7 0.843461 0.608465 0.864704
O O8 0.269235 0.638516 0.589552
O O9 0.417847 0.627323 0.618072
O O10 0.319702 0.960302 0.499499
O O11 0.500000 0.500000 0.500000
O O12 0.556724 0.361879 0.725666
O O13 0.628241 0.190095 0.631679
O O14 0.461254 0.104188 0.539916
#
# Coordination Sequence:
#
# PCOD9237598 Si02
#       7
#     4   4   4   4   4   2   4
#     4  11  26  50  77 112 145 178 234 293 355 446
#     4  11  25  45  69 103 146 181 237 296 353 432
#     4  11  25  42  62  99 139 184 241 297 342 421
#     4  11  27  45  77 107 142 194 227 288 371 423
#     4  11  24  40  56  91 125 177 236 294 339 403
#     4  12  24  40  62  88 138 182 238 292 350 394
#     4  11  22  41  63  84 134 175 228 292 348 396
#
# _framework density 22.369402000000001
#
# number of rings (size 3 to 8) (size 9 to 14) (size 15 to 20)
#    0.000    0.923    4.615    0.462    6.462    4.308 
#    0.000    0.000    0.000    0.000    0.000    0.000 
#    0.000    0.000    0.000    0.000    0.000    0.000 
#
# Total GULP energy -144745.601581 kJ/mol
# GULP energy per Si atom -5567.138522 kJ/mol
# Density = 2.231849 g / cm^3
# Si number density = 22.369402 Si / 1000 Ang^3
#
#
#
# Elastic Constant Matrix: (Units=GPa)
#
#
# Indices 1 2 3 4 5 6 
#
# 1 85.6241 16.3133 49.2222 0.0000 -5.2889 0.0000
# 2 16.3133 83.9260 33.8802 0.0000 -7.8479 0.0000
# 3 49.2222 33.8802 89.9419 0.0000 -16.2450 0.0000
# 4 0.0000 0.0000 0.0000 -29.3239 0.0000 -0.1894
# 5 -5.2889 -7.8479 -16.2450 0.0000 51.0545 0.0000
# 6 0.0000 0.0000 0.0000 -0.1894 0.0000 29.4845
#
#
#
# Elastic Compliance Matrix: (Units=1/GPa)
#
#
# Indices 1 2 3 4 5 6 
#
# 1 0.017137 0.000506 -0.009797 0.000000 -0.001264 0.000000
# 2 0.000506 0.014079 -0.005496 0.000000 0.000468 0.000000
# 3 -0.009797 -0.005496 0.019325 0.000000 0.004289 0.000000
# 4 0.000000 0.000000 0.000000 -0.034100 0.000000 -0.000219
# 5 -0.001264 0.000468 0.004289 0.000000 0.020893 0.000000
# 6 0.000000 0.000000 0.000000 -0.000219 0.000000 0.033915
#
#
# Mechanical properties :
#
#
# Convention : Reuss Voigt Hill
#
# Bulk Modulus (GPa) = 47.69535 50.92479 49.31007
# Shear Modulus (GPa) = 46.37758 20.91477 33.64618
#
# Velocity S-wave (km/s) = 4.55825 3.06105 3.88250
# Velocity P-wave (km/s) = 7.00510 5.94207 6.49537
#
# Compressibility (1/GPa) = 0.02096640
#
# Stress axis : x y z
#
# Youngs Moduli (GPa) = 58.35496 71.02616 51.74679
#
# Poissons Ratio (x) = -0.03593 0.50697
# Poissons Ratio (y) = -0.02952 0.28439
# Poissons Ratio (z) = 0.57171 0.39035
#
# Static dielectric constant tensor:
#      x y z
#    x 1.833450 0.000000 -0.048910 
#    y 0.000000 1.871010 0.000000 
#    z -0.048910 0.000000 2.181420 
# 
# From -- ./inp_files/56272.got.cif
#   From: 2010.05.17/outbox.cif.g08.bks.cpg/sg13_29_cif.got.tgz:56272.got - 2010.06.03 16:44:36.
