data_PCOD9237118
_publ_section_title
;
Structure prediction by ZEFSAII (Michael W. Deem and Ramdas Pophale) SiO2 
 PCOD9237118
Probable space group: P 2/C
;
_chemical_formula_sum "Si O2"
_cell_formula_units_Z 22
_cell_length_a 8.406376
_cell_length_b 5.356400
_cell_length_c 22.148763
_cell_angle_alpha 90.000000
_cell_angle_beta 115.801929
_cell_angle_gamma 90.000000
_cell_volume 897.884605
_symmetry_space_group_name_H-M "P 2/C"
_symmetry_group_IT_number 13
_symmetry_cell_setting 'monoclinic'
loop_
_space_group_symop_operation_xyz
x,y,z
-x,y,1/2-z
-x,-y,-z
x,-y,1/2+z
loop_
_atom_site_type_symbol
_atom_site_label
_atom_site_fract_x
_atom_site_fract_y
_atom_site_fract_z
Si Si1 0.633681 0.060441 0.219342
Si Si2 0.886598 0.257711 0.976330
Si Si3 0.253953 0.336517 0.864914
Si Si4 0.000000 0.307160 0.250000
Si Si5 0.698304 0.051258 0.516136
Si Si6 0.407259 0.423535 0.102738
O O1 0.500000 0.962590 0.250000
O O2 0.512932 0.288882 0.174067
O O3 0.839699 0.161137 0.259381
O O4 0.672938 0.853483 0.174443
O O5 0.730004 0.351407 0.904943
O O6 0.000000 0.500000 0.000000
O O7 0.778897 0.220198 0.019751
O O8 0.000000 0.000000 0.000000
O O9 0.194351 0.187632 0.913851
O O10 0.432403 0.478611 0.911484
O O11 0.106718 0.516976 0.813854
O O12 0.685782 0.207850 0.451928
O O13 0.500000 0.000000 0.500000
#
# Coordination Sequence:
#
# PCOD9237118 Si02
#       6
#     4   4   4   2   4   4
#     4  11  25  49  75 103 152 206 262 323 382 465
#     4  12  26  44  67 112 159 191 242 309 383 458
#     4  11  24  45  78 110 147 198 266 319 382 464
#     4  10  26  48  72 110 150 202 272 314 388 458
#     4  12  23  44  78 108 145 197 248 314 385 466
#     4  11  23  45  74 109 148 197 253 312 397 460
#
# _framework density 24.502033000000001
#
# number of rings (size 3 to 8) (size 9 to 14) (size 15 to 20)
#    0.000    0.727    5.455    1.091    0.000    4.364 
#    6.545    0.000    0.000    0.000    0.000    0.000 
#    0.000    0.000    0.000    0.000    0.000    0.000 
#
# Total GULP energy -122496.205231 kJ/mol
# GULP energy per Si atom -5568.009329 kJ/mol
# Density = 2.444627 g / cm^3
# Si number density = 24.502033 Si / 1000 Ang^3
#
#
#
# Elastic Constant Matrix: (Units=GPa)
#
#
# Indices 1 2 3 4 5 6 
#
# 1 137.8368 57.8366 31.3237 0.0000 41.9565 0.0000
# 2 57.8366 105.3835 20.9403 0.0000 19.2163 0.0000
# 3 31.3237 20.9403 57.8612 0.0000 21.3894 0.0000
# 4 0.0000 0.0000 0.0000 42.8875 0.0000 5.6552
# 5 41.9565 19.2163 21.3894 0.0000 36.3983 0.0000
# 6 0.0000 0.0000 0.0000 5.6552 0.0000 42.7678
#
#
#
# Elastic Compliance Matrix: (Units=1/GPa)
#
#
# Indices 1 2 3 4 5 6 
#
# 1 0.013177 -0.004845 -0.000908 0.000000 -0.012097 0.000000
# 2 -0.004845 0.012513 -0.001952 0.000000 0.000126 0.000000
# 3 -0.000908 -0.001952 0.022629 0.000000 -0.011221 0.000000
# 4 0.000000 0.000000 0.000000 0.023731 0.000000 -0.003138
# 5 -0.012097 0.000126 -0.011221 0.000000 0.047946 0.000000
# 6 0.000000 0.000000 0.000000 -0.003138 0.000000 0.023797
#
#
# Mechanical properties :
#
#
# Convention : Reuss Voigt Hill
#
# Bulk Modulus (GPa) = 30.38782 57.92031 44.15407
# Shear Modulus (GPa) = 29.38207 37.14278 33.26243
#
# Velocity S-wave (km/s) = 3.46666 3.89769 3.68847
# Velocity P-wave (km/s) = 5.33411 6.62920 6.01660
#
# Compressibility (1/GPa) = 0.03290792
#
# Stress axis : x y z
#
# Youngs Moduli (GPa) = 75.89141 79.91508 44.19198
#
# Poissons Ratio (x) = 0.38722 0.04012
# Poissons Ratio (y) = 0.36772 0.08627
# Poissons Ratio (z) = 0.06889 0.15601
#
# Static dielectric constant tensor:
#      x y z
#    x 2.171490 0.000000 -0.060000 
#    y 0.000000 2.049960 0.000000 
#    z -0.060000 0.000000 2.018970 
# 
# From -- ./inp_files/84187.got.cif
#   From: 2010.05.17/outbox.cif.g08.bks.cpg/sg13_43_cif.got.tgz:84187.got - 2010.06.03 16:44:36.
