data_PCOD9237326
_publ_section_title
;
Structure prediction by ZEFSAII (Michael W. Deem and Ramdas Pophale) SiO2 
 PCOD9237326
Probable space group: P 2/C
;
_chemical_formula_sum "Si O2"
_cell_formula_units_Z 24
_cell_length_a 24.128766
_cell_length_b 5.564718
_cell_length_c 22.491595
_cell_angle_alpha 90.000000
_cell_angle_beta 21.499582
_cell_angle_gamma 90.000000
_cell_volume 1106.791758
_symmetry_space_group_name_H-M "P 2/C"
_symmetry_group_IT_number 13
_symmetry_cell_setting 'monoclinic'
loop_
_space_group_symop_operation_xyz
x,y,z
-x,y,1/2-z
-x,-y,-z
x,-y,1/2+z
loop_
_atom_site_type_symbol
_atom_site_label
_atom_site_fract_x
_atom_site_fract_y
_atom_site_fract_z
Si Si1 0.168299 0.705682 0.446499
Si Si2 0.677015 0.475100 0.325768
Si Si3 0.882555 0.874156 0.574395
Si Si4 0.834323 0.882589 0.385660
Si Si5 0.889399 0.582107 0.218894
Si Si6 0.321220 0.619304 0.416145
O O1 0.247170 0.627513 0.304298
O O2 0.279879 0.639937 0.387912
O O3 0.997025 0.626108 0.638962
O O4 0.154520 0.988019 0.448557
O O5 0.500000 0.500000 0.500000
O O6 0.732367 0.205244 0.256759
O O7 0.744691 0.525439 0.323518
O O8 0.983562 0.650652 0.455547
O O9 0.000000 0.000000 0.500000
O O10 0.854968 0.801598 0.296578
O O11 0.747772 0.640036 0.495535
O O12 0.000000 0.894015 0.250000
O O13 0.750865 0.138012 0.481400
O O14 0.500000 0.619699 0.250000
#
# Coordination Sequence:
#
# PCOD9237326 Si02
#       6
#     4   4   4   4   4   4
#     4  11  23  45  69  94 139 187 226 290 352 431
#     4  11  25  40  64 106 137 175 225 290 359 418
#     4  11  20  41  69  93 133 177 228 276 349 426
#     4  12  26  48  76 105 137 191 249 294 344 438
#     4  11  23  42  69  99 134 177 235 286 348 423
#     4  12  29  48  71 106 147 190 238 300 369 416
#
# _framework density 21.684297999999998
#
# number of rings (size 3 to 8) (size 9 to 14) (size 15 to 20)
#    0.000    0.667    5.000    3.000    7.000    2.000 
#    0.000    0.000    0.000    0.000    0.000    0.000 
#    0.000    0.000    0.000    0.000    0.000    0.000 
#
# Total GULP energy -133628.944304 kJ/mol
# GULP energy per Si atom -5567.872679 kJ/mol
# Density = 2.163494 g / cm^3
# Si number density = 21.684298 Si / 1000 Ang^3
#
#
#
# Elastic Constant Matrix: (Units=GPa)
#
#
# Indices 1 2 3 4 5 6 
#
# 1 73.7686 -7.8549 32.0471 0.0000 -15.6296 0.0000
# 2 -7.8549 75.1198 47.9149 0.0000 -3.3627 0.0000
# 3 32.0471 47.9149 150.7143 0.0000 -37.7006 0.0000
# 4 0.0000 0.0000 0.0000 37.4937 0.0000 6.1610
# 5 -15.6296 -3.3627 -37.7006 0.0000 40.9136 0.0000
# 6 0.0000 0.0000 0.0000 6.1610 0.0000 20.1260
#
#
#
# Elastic Compliance Matrix: (Units=1/GPa)
#
#
# Indices 1 2 3 4 5 6 
#
# 1 0.016478 0.004571 -0.004274 0.000000 0.002733 0.000000
# 2 0.004571 0.018652 -0.007903 0.000000 -0.004003 0.000000
# 3 -0.004274 -0.007903 0.012327 0.000000 0.009077 0.000000
# 4 0.000000 0.000000 0.000000 0.028084 0.000000 -0.008597
# 5 0.002733 -0.004003 0.009077 0.000000 0.033521 0.000000
# 6 0.000000 0.000000 0.000000 -0.008597 0.000000 0.052319
#
#
# Mechanical properties :
#
#
# Convention : Reuss Voigt Hill
#
# Bulk Modulus (GPa) = 31.01168 49.31297 40.16233
# Shear Modulus (GPa) = 26.68950 34.87303 30.78126
#
# Velocity S-wave (km/s) = 3.51211 4.01461 3.77174
# Velocity P-wave (km/s) = 5.54789 6.65433 6.12614
#
# Compressibility (1/GPa) = 0.03224591
#
# Stress axis : x y z
#
# Youngs Moduli (GPa) = 60.68630 53.61392 81.12378
#
# Poissons Ratio (x) = -0.24508 0.34669
# Poissons Ratio (y) = -0.27741 0.64114
# Poissons Ratio (z) = 0.25935 0.42372
#
# Static dielectric constant tensor:
#      x y z
#    x 1.626480 0.000000 0.141870 
#    y 0.000000 1.591530 0.000000 
#    z 0.141870 0.000000 1.636130 
# 
# From -- ./inp_files/88679.got.cif
#   From: 2010.05.17/outbox.cif.g08.bks.cpg/sg13_45_cif.got.tgz:88679.got - 2010.06.03 16:44:36.
