data_PCOD9237834
_publ_section_title
;
Structure prediction by ZEFSAII (Michael W. Deem and Ramdas Pophale) SiO2 
 PCOD9237834
Probable space group: P 2/C
;
_chemical_formula_sum "Si O2"
_cell_formula_units_Z 24
_cell_length_a 13.373632
_cell_length_b 9.844125
_cell_length_c 13.483978
_cell_angle_alpha 90.000000
_cell_angle_beta 39.903881
_cell_angle_gamma 90.000000
_cell_volume 1138.786379
_symmetry_space_group_name_H-M "P 2/C"
_symmetry_group_IT_number 13
_symmetry_cell_setting 'monoclinic'
loop_
_space_group_symop_operation_xyz
x,y,z
-x,y,1/2-z
-x,-y,-z
x,-y,1/2+z
loop_
_atom_site_type_symbol
_atom_site_label
_atom_site_fract_x
_atom_site_fract_y
_atom_site_fract_z
Si Si1 0.737285 0.986698 0.444517
Si Si2 0.697652 0.300662 0.879617
Si Si3 0.015511 0.077291 0.090161
Si Si4 0.555823 0.237990 0.592564
Si Si5 0.903565 0.631230 0.043623
Si Si6 0.187370 0.443674 0.086979
O O1 0.702672 0.830971 0.445592
O O2 0.866933 0.035573 0.267441
O O3 0.583184 0.077912 0.556867
O O4 0.825886 0.022516 0.479332
O O5 0.554870 0.294499 0.910222
O O6 0.839028 0.305104 0.693484
O O7 0.724079 0.432990 0.927032
O O8 0.023071 0.239545 0.068572
O O9 0.000000 0.000000 0.000000
O O10 0.500000 0.258653 0.750000
O O11 0.723776 0.307991 0.447729
O O12 0.789105 0.564318 0.049482
O O13 0.000000 0.500000 0.000000
O O14 0.000000 0.451701 0.250000
#
# Coordination Sequence:
#
# PCOD9237834 Si02
#       6
#     4   4   4   4   4   4
#     4  11  25  43  73 102 141 188 238 287 360 422
#     4  12  26  44  70 105 142 184 237 296 348 428
#     4  11  23  42  70 106 142 179 236 301 348 412
#     4  12  25  49  72  99 148 192 231 288 368 423
#     4  12  24  42  70 107 141 184 232 293 352 420
#     4  12  25  45  74 103 140 186 239 290 351 419
#
# _framework density 21.075068999999999
#
# number of rings (size 3 to 8) (size 9 to 14) (size 15 to 20)
#    0.000    0.333    6.667    2.000    4.667    0.000 
#    0.000    0.833    0.000    0.000    0.000    0.000 
#    0.000    0.000    0.000    0.000    0.000    0.000 
#
# Total GULP energy -133893.521598 kJ/mol
# GULP energy per Si atom -5578.896733 kJ/mol
# Density = 2.102710 g / cm^3
# Si number density = 21.075069 Si / 1000 Ang^3
#
#
#
# Elastic Constant Matrix: (Units=GPa)
#
#
# Indices 1 2 3 4 5 6 
#
# 1 116.5352 64.3264 25.2141 0.0000 15.9800 0.0000
# 2 64.3264 125.0013 32.2560 0.0000 11.6117 0.0000
# 3 25.2141 32.2560 27.5684 0.0000 -1.8344 0.0000
# 4 0.0000 0.0000 0.0000 25.4823 0.0000 5.0813
# 5 15.9800 11.6117 -1.8344 0.0000 31.7861 0.0000
# 6 0.0000 0.0000 0.0000 5.0813 0.0000 38.5450
#
#
#
# Elastic Compliance Matrix: (Units=1/GPa)
#
#
# Indices 1 2 3 4 5 6 
#
# 1 0.013413 -0.004481 -0.007393 0.000000 -0.005533 0.000000
# 2 -0.004481 0.013799 -0.012281 0.000000 -0.003497 0.000000
# 3 -0.007393 -0.012281 0.058173 0.000000 0.011560 0.000000
# 4 0.000000 0.000000 0.000000 0.040302 0.000000 -0.005313
# 5 -0.005533 -0.003497 0.011560 0.000000 0.036186 0.000000
# 6 0.000000 0.000000 0.000000 -0.005313 0.000000 0.026644
#
#
# Mechanical properties :
#
#
# Convention : Reuss Voigt Hill
#
# Bulk Modulus (GPa) = 26.97102 56.96645 41.96873
# Shear Modulus (GPa) = 20.06537 28.98324 24.52431
#
# Velocity S-wave (km/s) = 3.08894 3.71244 3.41495
# Velocity P-wave (km/s) = 5.05445 6.74279 5.95872
#
# Compressibility (1/GPa) = 0.03707684
#
# Stress axis : x y z
#
# Youngs Moduli (GPa) = 74.55688 72.46657 17.19006
#
# Poissons Ratio (x) = 0.32469 0.12709
# Poissons Ratio (y) = 0.33405 0.21111
# Poissons Ratio (z) = 0.55120 0.88994
#
# Static dielectric constant tensor:
#      x y z
#    x 1.897570 0.000000 0.009130 
#    y 0.000000 1.773300 0.000000 
#    z 0.009130 0.000000 1.798200 
# 
# From -- ./inp_files/52894.got.cif
#   From: 2010.05.17/outbox.cif.g08.bks.cpg/sg13_27_cif.got.tgz:52894.got - 2010.06.03 16:44:36.
