data_PCOD9237031
_publ_section_title
;
Structure prediction by ZEFSAII (Michael W. Deem and Ramdas Pophale) SiO2 
 PCOD9237031
Probable space group: P 2/C
;
_chemical_formula_sum "Si O2"
_cell_formula_units_Z 16
_cell_length_a 16.584113
_cell_length_b 5.141845
_cell_length_c 9.583575
_cell_angle_alpha 90.000000
_cell_angle_beta 44.830236
_cell_angle_gamma 90.000000
_cell_volume 576.146819
_symmetry_space_group_name_H-M "P 2/C"
_symmetry_group_IT_number 13
_symmetry_cell_setting 'monoclinic'
loop_
_space_group_symop_operation_xyz
x,y,z
-x,y,1/2-z
-x,-y,-z
x,-y,1/2+z
loop_
_atom_site_type_symbol
_atom_site_label
_atom_site_fract_x
_atom_site_fract_y
_atom_site_fract_z
Si Si1 0.924655 0.372440 0.211855
Si Si2 0.801593 0.967239 0.500604
Si Si3 0.565586 0.814077 0.309441
Si Si4 0.755430 0.541089 0.227335
O O1 0.894158 0.066371 0.274055
O O2 0.801139 0.288973 0.091883
O O3 0.000000 0.453719 0.250000
O O4 0.000000 0.500000 0.000000
O O5 0.670959 0.016664 0.613195
O O6 0.813935 0.198735 0.599341
O O7 0.797520 0.494415 0.333673
O O8 0.500000 0.723259 0.250000
O O9 0.626393 0.594434 0.332865
O O10 0.500000 0.000000 0.500000
#
# Coordination Sequence:
#
# PCOD9237031 Si02
#       4
#     4   4   4   4
#     4  12  25  55  85 128 172 238 288 369 443 523
#     4  10  26  49  79 117 172 214 292 350 426 521
#     4  10  25  51  85 123 170 230 284 361 444 514
#     4  10  26  51  79 122 171 216 294 348 430 525
#
# _framework density 27.770697999999999
#
# number of rings (size 3 to 8) (size 9 to 14) (size 15 to 20)
#    1.500    0.000    2.500    0.000    3.500    7.000 
#    4.500    0.000    0.000    0.000    0.000    0.000 
#    0.000    0.000    0.000    0.000    0.000    0.000 
#
# Total GULP energy -89224.953804 kJ/mol
# GULP energy per Si atom -5576.559613 kJ/mol
# Density = 2.770749 g / cm^3
# Si number density = 27.770698 Si / 1000 Ang^3
#
#
#
# Elastic Constant Matrix: (Units=GPa)
#
#
# Indices 1 2 3 4 5 6 
#
# 1 253.6470 57.4979 62.9800 0.0000 39.8560 0.0000
# 2 57.4979 175.0001 56.8929 0.0000 7.8700 0.0000
# 3 62.9800 56.8929 134.3482 0.0000 7.8688 0.0000
# 4 0.0000 0.0000 0.0000 61.4796 0.0000 -4.9054
# 5 39.8560 7.8700 7.8688 0.0000 65.5015 0.0000
# 6 0.0000 0.0000 0.0000 -4.9054 0.0000 45.0762
#
#
#
# Elastic Compliance Matrix: (Units=1/GPa)
#
#
# Indices 1 2 3 4 5 6 
#
# 1 0.005033 -0.000946 -0.001799 0.000000 -0.002733 0.000000
# 2 -0.000946 0.006818 -0.002447 0.000000 0.000050 0.000000
# 3 -0.001799 -0.002447 0.009307 0.000000 0.000270 0.000000
# 4 0.000000 0.000000 0.000000 0.016408 0.000000 0.001786
# 5 -0.002733 0.000050 0.000270 0.000000 0.016891 0.000000
# 6 0.000000 0.000000 0.000000 0.001786 0.000000 0.022379
#
#
# Mechanical properties :
#
#
# Convention : Reuss Voigt Hill
#
# Bulk Modulus (GPa) = 92.80691 101.97077 97.38884
# Shear Modulus (GPa) = 55.05946 60.11977 57.58961
#
# Velocity S-wave (km/s) = 4.45752 4.65786 4.55879
# Velocity P-wave (km/s) = 7.74495 8.10716 7.92812
#
# Compressibility (1/GPa) = 0.01077506
#
# Stress axis : x y z
#
# Youngs Moduli (GPa) = 198.69161 146.66401 107.44724
#
# Poissons Ratio (x) = 0.13874 0.19327
# Poissons Ratio (y) = 0.18795 0.26291
# Poissons Ratio (z) = 0.35739 0.35887
#
# Static dielectric constant tensor:
#      x y z
#    x 2.258920 0.000000 -0.061160 
#    y 0.000000 2.257970 0.000000 
#    z -0.061160 0.000000 2.384390 
# 
# From -- ./inp_files/20311.got.cif
#   From: 2010.05.17/outbox.cif.g08.bks.cpg/sg13_11_cif.got.tgz:20311.got - 2010.06.03 16:44:36.
