data_PCOD9237139
_publ_section_title
;
Structure prediction by ZEFSAII (Michael W. Deem and Ramdas Pophale) SiO2 
 PCOD9237139
Probable space group: P 2/C
;
_chemical_formula_sum "Si O2"
_cell_formula_units_Z 18
_cell_length_a 6.230061
_cell_length_b 11.905777
_cell_length_c 11.185416
_cell_angle_alpha 90.000000
_cell_angle_beta 78.714169
_cell_angle_gamma 90.000000
_cell_volume 813.620741
_symmetry_space_group_name_H-M "P 2/C"
_symmetry_group_IT_number 13
_symmetry_cell_setting 'monoclinic'
loop_
_space_group_symop_operation_xyz
x,y,z
-x,y,1/2-z
-x,-y,-z
x,-y,1/2+z
loop_
_atom_site_type_symbol
_atom_site_label
_atom_site_fract_x
_atom_site_fract_y
_atom_site_fract_z
Si Si1 0.000000 0.236016 0.250000
Si Si2 0.228390 0.682884 0.156620
Si Si3 0.093053 0.388206 0.427892
Si Si4 0.500000 0.506075 0.750000
Si Si5 0.500000 0.874699 0.250000
Si Si6 0.120432 0.018749 0.359262
O O1 0.076773 0.322208 0.138453
O O2 0.854604 0.148197 0.188791
O O3 0.386062 0.577284 0.166477
O O4 0.350630 0.792041 0.189342
O O5 0.000000 0.664189 0.250000
O O6 0.167431 0.691062 0.026293
O O7 0.306153 0.422966 0.329599
O O8 0.000000 0.500000 0.500000
O O9 0.347134 0.954142 0.344876
O O10 0.000000 0.972088 0.250000
O O11 0.000000 0.000000 0.500000
#
# Coordination Sequence:
#
# PCOD9237139 Si02
#       6
#     2   4   4   2   2   4
#     4  10  28  44  72 108 146 194 246 300 372 430
#     4  11  24  43  73 105 140 189 245 299 367 447
#     4  12  24  45  72 102 153 185 245 305 364 442
#     4  11  24  43  68 108 138 201 236 297 376 436
#     4  11  26  43  76 108 136 197 248 295 380 434
#     4  10  26  49  72 103 153 190 249 313 364 441
#
# _framework density 22.123329999999999
#
# number of rings (size 3 to 8) (size 9 to 14) (size 15 to 20)
#    0.667    0.444    2.222    2.667    6.222    3.556 
#    0.000    0.000    0.000    0.000    0.000    0.000 
#    0.000    0.000    0.000    0.000    0.000    0.000 
#
# Total GULP energy -100390.272128 kJ/mol
# GULP energy per Si atom -5577.237340 kJ/mol
# Density = 2.207298 g / cm^3
# Si number density = 22.123330 Si / 1000 Ang^3
#
#
#
# Elastic Constant Matrix: (Units=GPa)
#
#
# Indices 1 2 3 4 5 6 
#
# 1 73.7999 34.4379 47.1262 0.0000 -6.3730 0.0000
# 2 34.4379 113.6450 50.7172 0.0000 2.7980 0.0000
# 3 47.1262 50.7172 150.8145 0.0000 7.4493 0.0000
# 4 0.0000 0.0000 0.0000 20.5105 0.0000 -53.1755
# 5 -6.3730 2.7980 7.4493 0.0000 47.5730 0.0000
# 6 0.0000 0.0000 0.0000 -53.1755 0.0000 -859.8749
#
#
#
# Elastic Compliance Matrix: (Units=1/GPa)
#
#
# Indices 1 2 3 4 5 6 
#
# 1 0.018563 -0.003583 -0.004766 0.000000 0.003444 0.000000
# 2 -0.003583 0.011045 -0.002559 0.000000 -0.000729 0.000000
# 3 -0.004766 -0.002559 0.009075 0.000000 -0.001909 0.000000
# 4 0.000000 0.000000 0.000000 0.042019 0.000000 -0.002598
# 5 0.003444 -0.000729 -0.001909 0.000000 0.021823 0.000000
# 6 0.000000 0.000000 0.000000 -0.002598 0.000000 -0.001002
#
#
# Mechanical properties :
#
#
# Convention : Reuss Voigt Hill
#
# Bulk Modulus (GPa) = 59.28546 66.98021 63.13284
# Shear Modulus (GPa) = 38.77197 -144.62641 -52.92722
#
# Velocity S-wave (km/s) = 4.19087 -8.09412 -4.89649
# Velocity P-wave (km/s) = 7.09040 7.55059 1.83543
#
# Compressibility (1/GPa) = 0.01686754
#
# Stress axis : x y z
#
# Youngs Moduli (GPa) = 53.87159 90.53934 110.19850
#
# Poissons Ratio (x) = 0.32441 0.52516
# Poissons Ratio (y) = 0.19303 0.28196
# Poissons Ratio (z) = 0.25673 0.23166
#
# Static dielectric constant tensor:
#      x y z
#    x 2.081040 0.000000 0.102320 
#    y 0.000000 1.877970 0.000000 
#    z 0.102320 0.000000 1.867910 
# 
# From -- ./inp_files/25757.got.cif
#   From: 2010.05.17/outbox.cif.g08.bks.cpg/sg13_13_cif.got.tgz:25757.got - 2010.06.03 16:44:36.
