data_PCOD9237609
_publ_section_title
;
Structure prediction by ZEFSAII (Michael W. Deem and Ramdas Pophale) SiO2 
 PCOD9237609
Probable space group: P 2/C
;
_chemical_formula_sum "Si O2"
_cell_formula_units_Z 20
_cell_length_a 15.267773
_cell_length_b 10.210766
_cell_length_c 17.216090
_cell_angle_alpha 90.000000
_cell_angle_beta 16.756222
_cell_angle_gamma 90.000000
_cell_volume 773.772991
_symmetry_space_group_name_H-M "P 2/C"
_symmetry_group_IT_number 13
_symmetry_cell_setting 'monoclinic'
loop_
_space_group_symop_operation_xyz
x,y,z
-x,y,1/2-z
-x,-y,-z
x,-y,1/2+z
loop_
_atom_site_type_symbol
_atom_site_label
_atom_site_fract_x
_atom_site_fract_y
_atom_site_fract_z
Si Si1 0.670912 0.934833 0.490223
Si Si2 0.680732 0.238173 0.477524
Si Si3 0.993586 0.874509 0.449183
Si Si4 0.821246 0.354225 0.196886
Si Si5 0.365716 0.494474 0.284181
O O1 0.759141 0.897430 0.327123
O O2 0.000000 0.911370 0.250000
O O3 0.641722 0.866495 0.718172
O O4 0.588246 0.088638 0.569383
O O5 0.714301 0.265051 0.357959
O O6 0.499916 0.360155 0.664765
O O7 0.000000 0.247724 0.250000
O O8 0.030082 0.741875 0.467064
O O9 0.000000 0.000000 0.500000
O O10 0.579285 0.412811 0.341346
O O11 0.007562 0.472773 0.079276
O O12 0.500000 0.437053 0.250000
#
# Coordination Sequence:
#
# PCOD9237609 Si02
#       5
#     4   4   4   4   4
#     4  11  26  43  72 102 143 184 239 290 358 423
#     4  11  22  41  69 100 132 184 231 290 342 424
#     4  12  24  45  69 105 142 183 232 295 356 429
#     4  11  25  42  70  96 137 184 231 286 359 414
#     4  11  24  44  67  98 134 179 237 291 347 422
#
# _framework density 25.847375
#
# number of rings (size 3 to 8) (size 9 to 14) (size 15 to 20)
#    0.000    0.800    4.000    3.000    2.800    1.600 
#    0.000    1.000    0.000    0.000    0.000    0.000 
#    0.000    0.000    0.000    0.000    0.000    0.000 
#
# Total GULP energy -111887.376152 kJ/mol
# GULP energy per Si atom -5594.368808 kJ/mol
# Density = 2.578854 g / cm^3
# Si number density = 25.847375 Si / 1000 Ang^3
#
#
#
# Elastic Constant Matrix: (Units=GPa)
#
#
# Indices 1 2 3 4 5 6 
#
# 1 185.4710 38.4757 26.7467 0.0000 -26.6981 0.0000
# 2 38.4757 78.9048 20.6191 0.0000 -10.9079 0.0000
# 3 26.7467 20.6191 77.8300 0.0000 -9.4322 0.0000
# 4 0.0000 0.0000 0.0000 -368.6001 0.0000 100.9887
# 5 -26.6981 -10.9079 -9.4322 0.0000 45.0403 0.0000
# 6 0.0000 0.0000 0.0000 100.9887 0.0000 10.1541
#
#
#
# Elastic Compliance Matrix: (Units=1/GPa)
#
#
# Indices 1 2 3 4 5 6 
#
# 1 0.006507 -0.002437 -0.001226 0.000000 0.003010 0.000000
# 2 -0.002437 0.014834 -0.002906 0.000000 0.001540 0.000000
# 3 -0.001226 -0.002906 0.014227 0.000000 0.001549 0.000000
# 4 0.000000 0.000000 0.000000 -0.000728 0.000000 0.007244
# 5 0.003010 0.001540 0.001549 0.000000 0.024684 0.000000
# 6 0.000000 0.000000 0.000000 0.007244 0.000000 0.026439
#
#
# Mechanical properties :
#
#
# Convention : Reuss Voigt Hill
#
# Bulk Modulus (GPa) = 44.57982 57.09876 50.83929
# Shear Modulus (GPa) = 46.91430 -45.59019 0.66206
#
# Velocity S-wave (km/s) = 4.26496 -4.20435 0.50665
# Velocity P-wave (km/s) = 6.44500 1.19582 4.47817
#
# Compressibility (1/GPa) = 0.02243167
#
# Stress axis : x y z
#
# Youngs Moduli (GPa) = 153.67406 67.41341 70.28694
#
# Poissons Ratio (x) = 0.16426 0.08617
# Poissons Ratio (y) = 0.37444 0.20425
# Poissons Ratio (z) = 0.18839 0.19590
#
# Static dielectric constant tensor:
#      x y z
#    x 2.120830 0.000000 -0.090030 
#    y 0.000000 2.039410 0.000000 
#    z -0.090030 0.000000 2.109460 
# 
# From -- ./inp_files/51055.got.cif
#   From: 2010.05.17/outbox.cif.g08.bks.cpg/sg13_26_cif.got.tgz:51055.got - 2010.06.03 16:44:36.
