data_PCOD9237767
_publ_section_title
;
Structure prediction by ZEFSAII (Michael W. Deem and Ramdas Pophale) SiO2 
 PCOD9237767
Probable space group: P 2/C
;
_chemical_formula_sum "Si O2"
_cell_formula_units_Z 30
_cell_length_a 11.602774
_cell_length_b 15.433482
_cell_length_c 10.527614
_cell_angle_alpha 90.000000
_cell_angle_beta 49.470827
_cell_angle_gamma 90.000000
_cell_volume 1432.888058
_symmetry_space_group_name_H-M "P 2/C"
_symmetry_group_IT_number 13
_symmetry_cell_setting 'monoclinic'
loop_
_space_group_symop_operation_xyz
x,y,z
-x,y,1/2-z
-x,-y,-z
x,-y,1/2+z
loop_
_atom_site_type_symbol
_atom_site_label
_atom_site_fract_x
_atom_site_fract_y
_atom_site_fract_z
Si Si1 0.500000 0.879133 0.250000
Si Si2 0.771232 0.765471 0.734101
Si Si3 0.573975 0.801987 0.447670
Si Si4 0.166751 0.572486 0.752018
Si Si5 0.168545 0.486346 0.513748
Si Si6 0.832782 0.712657 0.406205
Si Si7 0.146202 0.954452 0.838074
Si Si8 0.686429 0.032047 0.014242
O O1 0.593707 0.824264 0.284614
O O2 0.407692 0.943677 0.406782
O O3 0.597637 0.771164 0.905162
O O4 0.839865 0.675780 0.736135
O O5 0.779584 0.754381 0.576213
O O6 0.859392 0.854295 0.701489
O O7 0.704777 0.735942 0.396386
O O8 0.597086 0.886528 0.520917
O O9 0.247441 0.542162 0.565983
O O10 0.995272 0.533824 0.880998
O O11 0.239949 0.530040 0.825222
O O12 0.152028 0.389694 0.581231
O O13 0.000000 0.746535 0.250000
O O14 0.193176 0.010801 0.682237
O O15 0.258550 0.953717 0.880453
O O16 0.000000 0.000000 0.000000
#
# Coordination Sequence:
#
# PCOD9237767 Si02
#       8
#     2   4   4   4   4   4   4   4
#     4  12  24  44  68  94 132 200 232 290 352 422
#     4  11  24  41  66 100 138 181 229 282 348 416
#     4  12  25  44  67 101 140 182 241 285 352 421
#     4   9  18  38  66  94 132 175 225 277 343 419
#     4   9  18  40  64  95 128 176 221 272 353 416
#     4  11  23  40  72 100 129 176 234 285 338 428
#     4  12  26  44  65 103 145 186 237 291 345 411
#     4  12  24  44  70  91 140 192 238 282 351 415
#
# _framework density 20.936737000000001
#
# number of rings (size 3 to 8) (size 9 to 14) (size 15 to 20)
#    0.000    1.067    5.333    2.000    1.867    0.000 
#    7.200    0.667    0.000    0.000    0.000    0.000 
#    0.000    0.000    0.000    0.000    0.000    0.000 
#
# Total GULP energy -167345.687221 kJ/mol
# GULP energy per Si atom -5578.189574 kJ/mol
# Density = 2.088908 g / cm^3
# Si number density = 20.936737 Si / 1000 Ang^3
#
#
#
# Elastic Constant Matrix: (Units=GPa)
#
#
# Indices 1 2 3 4 5 6 
#
# 1 58.8066 32.4836 15.5371 0.0000 9.8777 0.0000
# 2 32.4836 114.6598 19.1792 0.0000 -11.6511 0.0000
# 3 15.5371 19.1792 82.3690 0.0000 0.5706 0.0000
# 4 0.0000 0.0000 0.0000 18.6181 0.0000 -4.1621
# 5 9.8777 -11.6511 0.5706 0.0000 37.6389 0.0000
# 6 0.0000 0.0000 0.0000 -4.1621 0.0000 29.6944
#
#
#
# Elastic Compliance Matrix: (Units=1/GPa)
#
#
# Indices 1 2 3 4 5 6 
#
# 1 0.022847 -0.006848 -0.002659 0.000000 -0.008075 0.000000
# 2 -0.006848 0.011442 -0.001410 0.000000 0.005360 0.000000
# 3 -0.002659 -0.001410 0.012970 0.000000 0.000065 0.000000
# 4 0.000000 0.000000 0.000000 0.055449 0.000000 0.007772
# 5 -0.008075 0.005360 0.000065 0.000000 0.030346 0.000000
# 6 0.000000 0.000000 0.000000 0.007772 0.000000 0.034766
#
#
# Mechanical properties :
#
#
# Convention : Reuss Voigt Hill
#
# Bulk Modulus (GPa) = 39.33169 43.35946 41.34558
# Shear Modulus (GPa) = 25.23626 29.76598 27.50112
#
# Velocity S-wave (km/s) = 3.47559 3.77465 3.62820
# Velocity P-wave (km/s) = 5.91042 6.30492 6.11085
#
# Compressibility (1/GPa) = 0.02542479
#
# Stress axis : x y z
#
# Youngs Moduli (GPa) = 43.76991 87.39646 77.10214
#
# Poissons Ratio (x) = 0.59852 0.20501
# Poissons Ratio (y) = 0.29975 0.10868
# Poissons Ratio (z) = 0.11638 0.12319
#
# Static dielectric constant tensor:
#      x y z
#    x 1.857980 0.000000 0.031810 
#    y 0.000000 1.778500 0.000000 
#    z 0.031810 0.000000 1.780430 
# 
# From -- ./inp_files/34594.got.cif
#   From: 2010.05.17/outbox.cif.g08.bks.cpg/sg13_18_cif.got.tgz:34594.got - 2010.06.03 16:44:36.
