data_PCOD9237199
_publ_section_title
;
Structure prediction by ZEFSAII (Michael W. Deem and Ramdas Pophale) SiO2 
 PCOD9237199
Probable space group: P 2/C
;
_chemical_formula_sum "Si O2"
_cell_formula_units_Z 32
_cell_length_a 19.543846
_cell_length_b 12.109202
_cell_length_c 19.369930
_cell_angle_alpha 90.000000
_cell_angle_beta 157.968793
_cell_angle_gamma 90.000000
_cell_volume 1719.546937
_symmetry_space_group_name_H-M "P 2/C"
_symmetry_group_IT_number 13
_symmetry_cell_setting 'monoclinic'
loop_
_space_group_symop_operation_xyz
x,y,z
-x,y,1/2-z
-x,-y,-z
x,-y,1/2+z
loop_
_atom_site_type_symbol
_atom_site_label
_atom_site_fract_x
_atom_site_fract_y
_atom_site_fract_z
Si Si1 0.305060 0.826824 0.817481
Si Si2 0.807430 0.415771 0.239854
Si Si3 0.255372 0.173609 0.776056
Si Si4 0.126995 0.005170 0.757046
Si Si5 0.213687 0.403257 0.666415
Si Si6 0.411643 0.901054 0.093819
Si Si7 0.758035 0.004329 0.349846
Si Si8 0.550634 0.639462 0.379322
O O1 0.239481 0.705668 0.775033
O O2 0.221900 0.913921 0.794540
O O3 0.244194 0.875817 0.687054
O O4 0.524830 0.828329 0.021877
O O5 0.737748 0.503079 0.231946
O O6 0.026732 0.428497 0.450264
O O7 0.713115 0.421699 0.075389
O O8 0.189932 0.292256 0.689615
O O9 0.189250 0.124356 0.786864
O O10 0.183983 0.084902 0.653666
O O11 0.222076 0.965669 0.915051
O O12 0.911774 0.997286 0.551030
O O13 0.372467 0.383303 0.759323
O O14 0.500000 0.906660 0.250000
O O15 0.402193 0.770165 0.069814
O O16 0.557279 0.966407 0.183082
O O17 0.500000 0.617378 0.250000
#
# Coordination Sequence:
#
# PCOD9237199 Si02
#       8
#     4   4   4   4   4   4   4   4
#     4  11  18  32  55  80 108 138 173 223 278 321
#     4  11  22  37  59  86 114 144 189 242 282 328
#     4  11  18  32  55  80 108 138 173 223 278 321
#     4  11  19  32  53  76 108 142 174 218 269 324
#     4  11  22  37  59  86 114 144 189 242 282 328
#     4  11  22  35  50  78 113 148 183 218 267 331
#     4  11  19  32  53  76 108 142 174 218 269 324
#     4  11  23  38  57  81 117 153 183 226 282 345
#
# _framework density 18.609553999999999
#
# number of rings (size 3 to 8) (size 9 to 14) (size 15 to 20)
#    0.000    1.000    6.250    4.125    0.000    1.000 
#    0.000    2.500    0.000    3.000    0.000    3.500 
#    0.000    0.000    0.000    0.000    0.000    0.000 
#
# Total GULP energy -178350.803953 kJ/mol
# GULP energy per Si atom -5573.462624 kJ/mol
# Density = 1.856720 g / cm^3
# Si number density = 18.609554 Si / 1000 Ang^3
#
#
#
# Elastic Constant Matrix: (Units=GPa)
#
#
# Indices 1 2 3 4 5 6 
#
# 1 60.2200 33.1857 28.3815 0.0000 -22.4967 0.0000
# 2 33.1857 75.2479 10.4473 0.0000 -16.0242 0.0000
# 3 28.3815 10.4473 138.4162 0.0000 -23.0952 0.0000
# 4 0.0000 0.0000 0.0000 24.8105 0.0000 -5.3436
# 5 -22.4967 -16.0242 -23.0952 0.0000 26.6260 0.0000
# 6 0.0000 0.0000 0.0000 -5.3436 0.0000 16.1621
#
#
#
# Elastic Compliance Matrix: (Units=1/GPa)
#
#
# Indices 1 2 3 4 5 6 
#
# 1 0.028986 -0.008808 -0.002428 0.000000 0.017084 0.000000
# 2 -0.008808 0.017943 0.001183 0.000000 0.004382 0.000000
# 3 -0.002428 0.001183 0.008663 0.000000 0.006175 0.000000
# 4 0.000000 0.000000 0.000000 0.043396 0.000000 0.014348
# 5 0.017084 0.004382 0.006175 0.000000 0.059985 0.000000
# 6 0.000000 0.000000 0.000000 0.014348 0.000000 0.066617
#
#
# Mechanical properties :
#
#
# Convention : Reuss Voigt Hill
#
# Bulk Modulus (GPa) = 28.18025 46.43477 37.30751
# Shear Modulus (GPa) = 19.41553 26.97771 23.19662
#
# Velocity S-wave (km/s) = 3.23353 3.81158 3.53440
# Velocity P-wave (km/s) = 5.39600 6.66162 6.06193
#
# Compressibility (1/GPa) = 0.03548584
#
# Stress axis : x y z
#
# Youngs Moduli (GPa) = 34.49909 55.73191 115.42682
#
# Poissons Ratio (x) = 0.49091 0.28028
# Poissons Ratio (y) = 0.30388 -0.13655
# Poissons Ratio (z) = 0.08377 -0.06593
#
# Static dielectric constant tensor:
#      x y z
#    x 1.706610 0.000000 -0.042230 
#    y 0.000000 1.628580 0.000000 
#    z -0.042230 0.000000 1.725750 
# 
# From -- ./inp_files/81817.got.cif
#   From: 2010.05.17/outbox.cif.g08.bks.cpg/sg13_41_cif.got.tgz:81817.got - 2010.06.03 16:44:36.
