data_PCOD9237928
_publ_section_title
;
Structure prediction by ZEFSAII (Michael W. Deem and Ramdas Pophale) SiO2 
 PCOD9237928
Probable space group: P 2/C
;
_chemical_formula_sum "Si O2"
_cell_formula_units_Z 18
_cell_length_a 12.683664
_cell_length_b 6.315996
_cell_length_c 14.158244
_cell_angle_alpha 90.000000
_cell_angle_beta 135.195292
_cell_angle_gamma 90.000000
_cell_volume 799.273888
_symmetry_space_group_name_H-M "P 2/C"
_symmetry_group_IT_number 13
_symmetry_cell_setting 'monoclinic'
loop_
_space_group_symop_operation_xyz
x,y,z
-x,y,1/2-z
-x,-y,-z
x,-y,1/2+z
loop_
_atom_site_type_symbol
_atom_site_label
_atom_site_fract_x
_atom_site_fract_y
_atom_site_fract_z
Si Si1 0.050682 0.696583 0.966092
Si Si2 0.305933 0.292573 0.876531
Si Si3 0.242730 0.029057 0.194335
Si Si4 0.455409 0.399704 0.318572
Si Si5 0.000000 0.537527 0.250000
O O1 0.908139 0.850808 0.871894
O O2 0.077052 0.604297 0.879330
O O3 0.000000 0.500000 0.000000
O O4 0.186877 0.834842 0.093761
O O5 0.362225 0.463217 0.834954
O O6 0.130970 0.327658 0.785734
O O7 0.321941 0.067222 0.836710
O O8 0.401313 0.323040 0.031228
O O9 0.352953 0.202181 0.221508
O O10 0.500000 0.515659 0.250000
#
# Coordination Sequence:
#
# PCOD9237928 Si02
#       5
#     4   4   4   4   2
#     4  11  24  44  69 104 141 179 230 295 351 413
#     4  11  26  45  71 104 144 182 237 294 353 423
#     4  11  23  45  69 100 142 179 244 278 344 433
#     4  11  26  47  69 100 145 192 233 288 353 421
#     4  12  24  44  76 100 144 184 230 298 368 404
#
# _framework density 22.520443
#
# number of rings (size 3 to 8) (size 9 to 14) (size 15 to 20)
#    0.000    0.889    4.444    0.667    6.222    3.556 
#    4.000    0.000    0.000    0.000    0.000    0.000 
#    0.000    0.000    0.000    0.000    0.000    0.000 
#
# Total GULP energy -100702.387809 kJ/mol
# GULP energy per Si atom -5594.577100 kJ/mol
# Density = 2.246919 g / cm^3
# Si number density = 22.520443 Si / 1000 Ang^3
#
#
#
# Elastic Constant Matrix: (Units=GPa)
#
#
# Indices 1 2 3 4 5 6 
#
# 1 93.0908 10.5164 25.4976 0.0000 -7.6917 0.0000
# 2 10.5164 65.4199 14.9147 0.0000 -6.4902 0.0000
# 3 25.4976 14.9147 95.9750 0.0000 -6.0831 0.0000
# 4 0.0000 0.0000 0.0000 31.6709 0.0000 -10.8981
# 5 -7.6917 -6.4902 -6.0831 0.0000 47.2329 0.0000
# 6 0.0000 0.0000 0.0000 -10.8981 0.0000 8.9058
#
#
#
# Elastic Compliance Matrix: (Units=1/GPa)
#
#
# Indices 1 2 3 4 5 6 
#
# 1 0.011767 -0.001099 -0.002867 0.000000 0.001396 0.000000
# 2 -0.001099 0.016117 -0.002101 0.000000 0.001765 0.000000
# 3 -0.002867 -0.002101 0.011554 0.000000 0.000733 0.000000
# 4 0.000000 0.000000 0.000000 0.054541 0.000000 0.066742
# 5 0.001396 0.001765 0.000733 0.000000 0.021736 0.000000
# 6 0.000000 0.000000 0.000000 0.066742 0.000000 0.193959
#
#
# Mechanical properties :
#
#
# Convention : Reuss Voigt Hill
#
# Bulk Modulus (GPa) = 36.62503 39.59366 38.10935
# Shear Modulus (GPa) = 15.10994 31.13239 23.12117
#
# Velocity S-wave (km/s) = 2.59307 3.72211 3.20765
# Velocity P-wave (km/s) = 5.02630 6.00762 5.53873
#
# Compressibility (1/GPa) = 0.02730373
#
# Stress axis : x y z
#
# Youngs Moduli (GPa) = 84.98368 62.04773 86.55117
#
# Poissons Ratio (x) = 0.06822 0.24812
# Poissons Ratio (y) = 0.09344 0.18181
# Poissons Ratio (z) = 0.24363 0.13034
#
# Static dielectric constant tensor:
#      x y z
#    x 1.866660 0.000000 -0.014500 
#    y 0.000000 1.822260 0.000000 
#    z -0.014500 0.000000 1.845170 
# 
# From -- ./inp_files/52428.got.cif
#   From: 2010.05.17/outbox.cif.g08.bks.cpg/sg13_27_cif.got.tgz:52428.got - 2010.06.03 16:44:36.
