data_PCOD9237247
_publ_section_title
;
Structure prediction by ZEFSAII (Michael W. Deem and Ramdas Pophale) SiO2 
 PCOD9237247
Probable space group: P 2/C
;
_chemical_formula_sum "Si O2"
_cell_formula_units_Z 24
_cell_length_a 19.925265
_cell_length_b 8.535653
_cell_length_c 8.554296
_cell_angle_alpha 90.000000
_cell_angle_beta 53.100470
_cell_angle_gamma 90.000000
_cell_volume 1163.446910
_symmetry_space_group_name_H-M "P 2/C"
_symmetry_group_IT_number 13
_symmetry_cell_setting 'monoclinic'
loop_
_space_group_symop_operation_xyz
x,y,z
-x,y,1/2-z
-x,-y,-z
x,-y,1/2+z
loop_
_atom_site_type_symbol
_atom_site_label
_atom_site_fract_x
_atom_site_fract_y
_atom_site_fract_z
Si Si1 0.084234 0.943365 0.085020
Si Si2 0.066485 0.364785 0.449569
Si Si3 0.329537 0.355700 0.390853
Si Si4 0.438521 0.419269 0.961943
Si Si5 0.826610 0.434567 0.489850
Si Si6 0.189950 0.167929 0.730717
O O1 0.130218 0.866073 0.168192
O O2 0.000000 0.040582 0.250000
O O3 0.044111 0.810479 0.028665
O O4 0.159186 0.032606 0.891436
O O5 0.131945 0.352160 0.216004
O O6 0.112106 0.429956 0.538887
O O7 0.000000 0.500000 0.500000
O O8 0.387315 0.446925 0.437126
O O9 0.259792 0.484882 0.438502
O O10 0.282211 0.205683 0.530812
O O11 0.377710 0.320922 0.160567
O O12 0.500000 0.337301 0.750000
O O13 0.500000 0.500000 0.000000
O O14 0.822587 0.322180 0.645070
#
# Coordination Sequence:
#
# PCOD9237247 Si02
#       6
#     4   4   4   4   4   4
#     4  12  26  45  60  89 133 182 246 282 331 390
#     4  12  23  38  61  90 126 177 233 289 335 384
#     4  11  19  38  63  97 138 160 213 269 339 409
#     4   9  19  35  64 104 138 159 196 271 349 407
#     4  12  21  38  61  92 125 167 228 279 339 382
#     4  12  25  42  64  91 132 182 220 287 337 391
#
# _framework density 20.628359
#
# number of rings (size 3 to 8) (size 9 to 14) (size 15 to 20)
#    0.000    0.667    5.000    4.000    0.000    1.333 
#    0.000    0.000    0.000    0.000    0.000   15.167 
#    0.000    0.000    0.000    0.000    0.000    0.000 
#
# Total GULP energy -133772.233023 kJ/mol
# GULP energy per Si atom -5573.843043 kJ/mol
# Density = 2.058141 g / cm^3
# Si number density = 20.628359 Si / 1000 Ang^3
#
#
#
# Elastic Constant Matrix: (Units=GPa)
#
#
# Indices 1 2 3 4 5 6 
#
# 1 123.4926 26.8538 25.2411 0.0000 4.1582 0.0000
# 2 26.8538 50.2906 22.5863 0.0000 2.6384 0.0000
# 3 25.2411 22.5863 155.6687 0.0000 -1.4118 0.0000
# 4 0.0000 0.0000 0.0000 17.4882 0.0000 1.0204
# 5 4.1582 2.6384 -1.4118 0.0000 33.8499 0.0000
# 6 0.0000 0.0000 0.0000 1.0204 0.0000 19.0905
#
#
#
# Elastic Compliance Matrix: (Units=1/GPa)
#
#
# Indices 1 2 3 4 5 6 
#
# 1 0.009285 -0.004531 -0.000856 0.000000 -0.000823 0.000000
# 2 -0.004531 0.023590 -0.002701 0.000000 -0.001395 0.000000
# 3 -0.000856 -0.002701 0.006960 0.000000 0.000606 0.000000
# 4 0.000000 0.000000 0.000000 0.057360 0.000000 -0.003066
# 5 -0.000823 -0.001395 0.000606 0.000000 0.029777 0.000000
# 6 0.000000 0.000000 0.000000 -0.003066 0.000000 0.052546
#
#
# Mechanical properties :
#
#
# Convention : Reuss Voigt Hill
#
# Bulk Modulus (GPa) = 42.26352 53.20158 47.73255
# Shear Modulus (GPa) = 24.56039 31.07045 27.81542
#
# Velocity S-wave (km/s) = 3.45427 3.88519 3.67605
# Velocity P-wave (km/s) = 6.03671 6.78032 6.41929
#
# Compressibility (1/GPa) = 0.02366107
#
# Stress axis : x y z
#
# Youngs Moduli (GPa) = 107.69501 42.39121 143.67826
#
# Poissons Ratio (x) = 0.19206 0.12295
# Poissons Ratio (y) = 0.48793 0.38803
# Poissons Ratio (z) = 0.09216 0.11449
#
# Static dielectric constant tensor:
#      x y z
#    x 1.727530 0.000000 -0.015130 
#    y 0.000000 1.762310 0.000000 
#    z -0.015130 0.000000 1.875290 
# 
# From -- ./inp_files/22710.got.cif
#   From: 2010.05.17/outbox.cif.g08.bks.cpg/sg13_12_cif.got.tgz:22710.got - 2010.06.03 16:44:36.
