data_PCOD9237158
_publ_section_title
;
Structure prediction by ZEFSAII (Michael W. Deem and Ramdas Pophale) SiO2 
 PCOD9237158
Probable space group: P 2/C
;
_chemical_formula_sum "Si O2"
_cell_formula_units_Z 14
_cell_length_a 4.964033
_cell_length_b 5.200329
_cell_length_c 19.139296
_cell_angle_alpha 90.000000
_cell_angle_beta 86.201987
_cell_angle_gamma 90.000000
_cell_volume 492.988261
_symmetry_space_group_name_H-M "P 2/C"
_symmetry_group_IT_number 13
_symmetry_cell_setting 'monoclinic'
loop_
_space_group_symop_operation_xyz
x,y,z
-x,y,1/2-z
-x,-y,-z
x,-y,1/2+z
loop_
_atom_site_type_symbol
_atom_site_label
_atom_site_fract_x
_atom_site_fract_y
_atom_site_fract_z
Si Si1 0.500000 0.000000 0.000000
Si Si2 0.645591 0.702976 0.096713
Si Si3 0.000000 0.230203 0.250000
Si Si4 0.500000 0.395771 0.750000
Si Si5 0.009144 0.816863 0.904747
O O1 0.716291 0.829525 0.941944
O O2 0.591658 0.270575 0.954481
O O3 0.545713 0.749221 0.176993
O O4 0.842471 0.460060 0.095019
O O5 0.780859 0.975232 0.064549
O O6 0.252492 0.416940 0.241815
O O7 0.999477 0.090292 0.176052
#
# Coordination Sequence:
#
# PCOD9237158 Si02
#       5
#     2   4   2   2   4
#     4  12  28  46  84 108 166 206 256 336 400 482
#     4  11  28  48  76 114 157 206 269 325 402 478
#     4  10  26  50  82 114 156 206 268 330 388 470
#     4  10  26  50  82 114 156 206 268 330 388 470
#     4  11  28  48  76 114 157 206 269 325 402 478
#
# _framework density 28.398243999999998
#
# number of rings (size 3 to 8) (size 9 to 14) (size 15 to 20)
#    0.000    1.143    0.000    1.714   20.000    4.571 
#    0.000    0.000    0.000    0.000    0.000    0.000 
#    0.000    0.000    0.000    0.000    0.000    0.000 
#
# Total GULP energy -78141.899198 kJ/mol
# GULP energy per Si atom -5581.564228 kJ/mol
# Density = 2.833361 g / cm^3
# Si number density = 28.398244 Si / 1000 Ang^3
#
#
#
# Elastic Constant Matrix: (Units=GPa)
#
#
# Indices 1 2 3 4 5 6 
#
# 1 149.6579 49.7795 27.8784 0.0000 -25.6655 0.0000
# 2 49.7795 143.9609 32.7546 0.0000 -23.1628 0.0000
# 3 27.8784 32.7546 284.0187 0.0000 0.9412 0.0000
# 4 0.0000 0.0000 0.0000 27.7844 0.0000 -12.1550
# 5 -25.6655 -23.1628 0.9412 0.0000 44.5830 0.0000
# 6 0.0000 0.0000 0.0000 -12.1550 0.0000 53.4074
#
#
#
# Elastic Compliance Matrix: (Units=1/GPa)
#
#
# Indices 1 2 3 4 5 6 
#
# 1 0.008099 -0.002095 -0.000565 0.000000 0.003586 0.000000
# 2 -0.002095 0.008352 -0.000768 0.000000 0.003150 0.000000
# 3 -0.000565 -0.000768 0.003668 0.000000 -0.000802 0.000000
# 4 0.000000 0.000000 0.000000 0.039971 0.000000 0.009097
# 5 0.003586 0.003150 -0.000802 0.000000 0.026148 0.000000
# 6 0.000000 0.000000 0.000000 0.009097 0.000000 0.020794
#
#
# Mechanical properties :
#
#
# Convention : Reuss Voigt Hill
#
# Bulk Modulus (GPa) = 75.40121 88.71806 82.05963
# Shear Modulus (GPa) = 42.26212 56.30330 49.28271
#
# Velocity S-wave (km/s) = 3.86190 4.45751 4.17035
# Velocity P-wave (km/s) = 6.81870 7.60270 7.22135
#
# Compressibility (1/GPa) = 0.01326239
#
# Stress axis : x y z
#
# Youngs Moduli (GPa) = 123.47213 119.72867 272.65718
#
# Poissons Ratio (x) = 0.25082 0.15412
# Poissons Ratio (y) = 0.25867 0.20941
# Poissons Ratio (z) = 0.06979 0.09196
#
# Static dielectric constant tensor:
#      x y z
#    x 2.448700 0.000000 0.264140 
#    y 0.000000 2.294510 0.000000 
#    z 0.264140 0.000000 2.323760 
# 
# From -- ./inp_files/72528.got.cif
#   From: 2010.05.17/outbox.cif.g08.bks.cpg/sg13_37_cif.got.tgz:72528.got - 2010.06.03 16:44:36.
