data_PCOD9237689
_publ_section_title
;
Structure prediction by ZEFSAII (Michael W. Deem and Ramdas Pophale) SiO2 
 PCOD9237689
Probable space group: P 2/C
;
_chemical_formula_sum "Si O2"
_cell_formula_units_Z 22
_cell_length_a 23.241480
_cell_length_b 5.233696
_cell_length_c 24.127977
_cell_angle_alpha 90.000000
_cell_angle_beta 19.256524
_cell_angle_gamma 90.000000
_cell_volume 967.924289
_symmetry_space_group_name_H-M "P 2/C"
_symmetry_group_IT_number 13
_symmetry_cell_setting 'monoclinic'
loop_
_space_group_symop_operation_xyz
x,y,z
-x,y,1/2-z
-x,-y,-z
x,-y,1/2+z
loop_
_atom_site_type_symbol
_atom_site_label
_atom_site_fract_x
_atom_site_fract_y
_atom_site_fract_z
Si Si1 0.315205 0.260117 0.937136
Si Si2 0.325387 0.373811 0.048670
Si Si3 0.000000 0.103607 0.750000
Si Si4 0.978569 0.751976 0.056871
Si Si5 0.058531 0.547748 0.092885
Si Si6 0.608380 0.133808 0.950328
O O1 0.500000 0.153504 0.750000
O O2 0.343065 0.428929 0.967084
O O3 0.220353 0.398977 0.972085
O O4 0.172369 0.062439 0.088164
O O5 0.432952 0.590820 0.984501
O O6 0.118406 0.380780 0.254529
O O7 0.384360 0.087892 0.010019
O O8 0.003849 0.266559 0.801794
O O9 0.793044 0.799441 0.254421
O O10 0.102333 0.700464 0.997335
O O11 0.000000 0.500000 0.000000
O O12 0.000000 0.000000 0.000000
O O13 0.500000 0.000000 0.000000
#
# Coordination Sequence:
#
# PCOD9237689 Si02
#       6
#     4   4   2   4   4   4
#     4  12  26  41  72 110 141 188 247 307 371 438
#     4  11  22  46  70 104 139 196 240 300 373 442
#     4  12  22  48  72 100 154 190 244 300 376 432
#     4  11  25  43  68 101 139 184 240 290 356 428
#     4  11  24  44  74  96 144 199 236 299 377 438
#     4  11  25  44  73  98 143 193 244 295 369 429
#
# _framework density 22.729050999999998
#
# number of rings (size 3 to 8) (size 9 to 14) (size 15 to 20)
#    0.000    0.727    3.636    4.909    2.545    3.636 
#    0.000    0.000    0.000    0.000    0.000    0.000 
#    0.000    0.000    0.000    0.000    0.000    0.000 
#
# Total GULP energy -122892.824320 kJ/mol
# GULP energy per Si atom -5586.037469 kJ/mol
# Density = 2.267732 g / cm^3
# Si number density = 22.729051 Si / 1000 Ang^3
#
#
#
# Elastic Constant Matrix: (Units=GPa)
#
#
# Indices 1 2 3 4 5 6 
#
# 1 127.8252 36.5452 3.6817 0.0000 8.4927 0.0000
# 2 36.5452 125.3033 17.8602 0.0000 6.0746 0.0000
# 3 3.6817 17.8602 66.2106 0.0000 -11.6043 0.0000
# 4 0.0000 0.0000 0.0000 -62.6458 0.0000 -33.4989
# 5 8.4927 6.0746 -11.6043 0.0000 32.2509 0.0000
# 6 0.0000 0.0000 0.0000 -33.4989 0.0000 12.9292
#
#
#
# Elastic Compliance Matrix: (Units=1/GPa)
#
#
# Indices 1 2 3 4 5 6 
#
# 1 0.008641 -0.002406 -0.000161 0.000000 -0.001880 0.000000
# 2 -0.002406 0.009167 -0.002701 0.000000 -0.002065 0.000000
# 3 -0.000161 -0.002701 0.017010 0.000000 0.006672 0.000000
# 4 0.000000 0.000000 0.000000 -0.006692 0.000000 -0.017338
# 5 -0.001880 -0.002065 0.006672 0.000000 0.034291 0.000000
# 6 0.000000 0.000000 0.000000 -0.017338 0.000000 0.032423
#
#
# Mechanical properties :
#
#
# Convention : Reuss Voigt Hill
#
# Bulk Modulus (GPa) = 41.18234 48.39036 44.78635
# Shear Modulus (GPa) = 44.06404 13.92364 28.99384
#
# Velocity S-wave (km/s) = 4.40781 2.47775 3.57547
# Velocity P-wave (km/s) = 6.63801 5.43341 6.06569
#
# Compressibility (1/GPa) = 0.02428225
#
# Stress axis : x y z
#
# Youngs Moduli (GPa) = 115.73265 109.08151 58.78835
#
# Poissons Ratio (x) = 0.26245 0.00946
# Poissons Ratio (y) = 0.27845 0.15879
# Poissons Ratio (z) = 0.01863 0.29463
#
# Static dielectric constant tensor:
#      x y z
#    x 1.901280 0.000000 -0.014980 
#    y 0.000000 1.884470 0.000000 
#    z -0.014980 0.000000 1.839320 
# 
# From -- ./inp_files/88674.got.cif
#   From: 2010.05.17/outbox.cif.g08.bks.cpg/sg13_45_cif.got.tgz:88674.got - 2010.06.03 16:44:36.
