data_PCOD9237825
_publ_section_title
;
Structure prediction by ZEFSAII (Michael W. Deem and Ramdas Pophale) SiO2 
 PCOD9237825
Probable space group: P 2/C
;
_chemical_formula_sum "Si O2"
_cell_formula_units_Z 20
_cell_length_a 24.100696
_cell_length_b 7.787655
_cell_length_c 9.734072
_cell_angle_alpha 90.000000
_cell_angle_beta 30.139909
_cell_angle_gamma 90.000000
_cell_volume 917.344598
_symmetry_space_group_name_H-M "P 2/C"
_symmetry_group_IT_number 13
_symmetry_cell_setting 'monoclinic'
loop_
_space_group_symop_operation_xyz
x,y,z
-x,y,1/2-z
-x,-y,-z
x,-y,1/2+z
loop_
_atom_site_type_symbol
_atom_site_label
_atom_site_fract_x
_atom_site_fract_y
_atom_site_fract_z
Si Si1 0.270166 0.325125 0.927499
Si Si2 0.602902 0.630974 0.807735
Si Si3 0.734615 0.786964 0.761748
Si Si4 0.617773 0.879488 0.524376
Si Si5 0.082636 0.507140 0.197238
O O1 0.292379 0.510015 0.949225
O O2 0.368549 0.271414 0.616083
O O3 0.266416 0.211271 0.070275
O O4 0.167706 0.353481 0.046831
O O5 0.632844 0.691849 0.899180
O O6 0.611132 0.793526 0.688595
O O7 0.500000 0.500000 0.000000
O O8 0.843531 0.680582 0.482925
O O9 0.714446 0.988110 0.777336
O O10 0.500000 0.967360 0.750000
O O11 0.000000 0.483578 0.250000
O O12 0.000000 0.500000 0.500000
#
# Coordination Sequence:
#
# PCOD9237825 Si02
#       5
#     4   4   4   4   4
#     4  11  24  43  71 104 137 188 247 285 345 435
#     4  11  23  42  68  97 139 195 242 278 340 427
#     4  11  26  42  68 105 145 178 240 296 355 425
#     4  12  26  44  67 105 153 192 225 295 362 415
#     4  11  23  48  78 101 131 186 242 306 354 418
#
# _framework density 21.802059
#
# number of rings (size 3 to 8) (size 9 to 14) (size 15 to 20)
#    0.000    0.800    4.000    3.600    5.600    1.600 
#    0.000    2.000    0.000    0.000    0.000    0.000 
#    0.000    0.000    0.000    0.000    0.000    0.000 
#
# Total GULP energy -111335.178618 kJ/mol
# GULP energy per Si atom -5566.758931 kJ/mol
# Density = 2.175244 g / cm^3
# Si number density = 21.802059 Si / 1000 Ang^3
#
#
#
# Elastic Constant Matrix: (Units=GPa)
#
#
# Indices 1 2 3 4 5 6 
#
# 1 166.7455 48.4997 55.6453 0.0000 0.3246 0.0000
# 2 48.4997 68.5188 4.2662 0.0000 -5.5974 0.0000
# 3 55.6453 4.2662 82.4671 0.0000 6.1939 0.0000
# 4 0.0000 0.0000 0.0000 36.5534 0.0000 -3.3325
# 5 0.3246 -5.5974 6.1939 0.0000 28.7392 0.0000
# 6 0.0000 0.0000 0.0000 -3.3325 0.0000 24.4019
#
#
#
# Elastic Compliance Matrix: (Units=1/GPa)
#
#
# Indices 1 2 3 4 5 6 
#
# 1 0.010129 -0.006769 -0.006482 0.000000 -0.000036 0.000000
# 2 -0.006769 0.019436 0.003326 0.000000 0.003145 0.000000
# 3 -0.006482 0.003326 0.016541 0.000000 -0.002844 0.000000
# 4 0.000000 0.000000 0.000000 0.027702 0.000000 0.003783
# 5 -0.000036 0.003145 -0.002844 0.000000 0.036022 0.000000
# 6 0.000000 0.000000 0.000000 0.003783 0.000000 0.041497
#
#
# Mechanical properties :
#
#
# Convention : Reuss Voigt Hill
#
# Bulk Modulus (GPa) = 38.08663 59.39486 48.74074
# Shear Modulus (GPa) = 27.78871 31.89360 29.84115
#
# Velocity S-wave (km/s) = 3.57401 3.82890 3.70365
# Velocity P-wave (km/s) = 5.87696 6.84465 6.37918
#
# Compressibility (1/GPa) = 0.02625594
#
# Stress axis : x y z
#
# Youngs Moduli (GPa) = 98.72470 51.45161 60.45482
#
# Poissons Ratio (x) = 0.34828 0.39186
# Poissons Ratio (y) = 0.66828 -0.20106
# Poissons Ratio (z) = 0.63992 -0.17112
#
# Static dielectric constant tensor:
#      x y z
#    x 1.906160 0.000000 -0.094280 
#    y 0.000000 1.810890 0.000000 
#    z -0.094280 0.000000 1.871040 
# 
# From -- ./inp_files/22481.got.cif
#   From: 2010.05.17/outbox.cif.g08.bks.cpg/sg13_12_cif.got.tgz:22481.got - 2010.06.03 16:44:36.
