data_PCOD9237562
_publ_section_title
;
Structure prediction by ZEFSAII (Michael W. Deem and Ramdas Pophale) SiO2 
 PCOD9237562
Probable space group: P 2/C
;
_chemical_formula_sum "Si O2"
_cell_formula_units_Z 30
_cell_length_a 10.798834
_cell_length_b 9.364530
_cell_length_c 14.123966
_cell_angle_alpha 90.000000
_cell_angle_beta 90.004795
_cell_angle_gamma 90.000000
_cell_volume 1428.300251
_symmetry_space_group_name_H-M "P 2/C"
_symmetry_group_IT_number 13
_symmetry_cell_setting 'monoclinic'
loop_
_space_group_symop_operation_xyz
x,y,z
-x,y,1/2-z
-x,-y,-z
x,-y,1/2+z
loop_
_atom_site_type_symbol
_atom_site_label
_atom_site_fract_x
_atom_site_fract_y
_atom_site_fract_z
Si Si1 0.110246 0.636272 0.402748
Si Si2 0.162704 0.389393 0.537215
Si Si3 0.752704 0.152574 0.474805
Si Si4 0.242086 0.453947 0.731936
Si Si5 0.149416 0.783051 0.734240
Si Si6 0.730541 0.150937 0.068592
Si Si7 0.500000 0.533652 0.750000
Si Si8 0.515301 0.654653 0.949610
O O1 0.182126 0.508939 0.457820
O O2 0.141207 0.777573 0.460055
O O3 0.153907 0.642603 0.295656
O O4 0.969152 0.589342 0.413022
O O5 0.255379 0.403806 0.624238
O O6 0.163891 0.239171 0.486170
O O7 0.803820 0.155505 0.366829
O O8 0.632026 0.253808 0.484218
O O9 0.718254 0.000039 0.517934
O O10 0.185735 0.614056 0.734409
O O11 0.377849 0.448546 0.777874
O O12 0.226219 0.851321 0.821986
O O13 0.000000 0.796917 0.750000
O O14 0.609155 0.249233 0.050845
O O15 0.539911 0.626080 0.838906
O O16 0.500000 0.500000 0.000000
#
# Coordination Sequence:
#
# PCOD9237562 Si02
#       8
#     4   4   4   4   4   4   2   4
#     4  11  22  39  64  96 132 172 225 279 324 390
#     4  11  22  39  64  96 132 172 225 279 324 390
#     4  12  26  44  67 101 139 178 223 275 345 411
#     4  12  22  39  66 104 127 173 232 287 334 384
#     4  12  24  43  70  96 135 184 224 275 337 403
#     4  12  26  44  67 101 139 178 223 275 345 411
#     4  12  20  38  70  94 130 166 220 280 332 398
#     4  12  23  45  71  98 134 174 229 281 333 395
#
# _framework density 21.003986999999999
#
# number of rings (size 3 to 8) (size 9 to 14) (size 15 to 20)
#    0.000    0.267    5.333    4.800    0.000    3.200 
#    0.000    1.333    0.000    0.000    0.000    0.000 
#    0.000    0.000    0.000    0.000    0.000    0.000 
#
# Total GULP energy -167661.887547 kJ/mol
# GULP energy per Si atom -5588.729585 kJ/mol
# Density = 2.095618 g / cm^3
# Si number density = 21.003987 Si / 1000 Ang^3
#
#
#
# Elastic Constant Matrix: (Units=GPa)
#
#
# Indices 1 2 3 4 5 6 
#
# 1 101.0009 27.1702 21.7320 0.0000 -4.1624 0.0000
# 2 27.1702 110.5800 52.0877 0.0000 -3.1336 0.0000
# 3 21.7320 52.0877 125.8380 0.0000 -7.0040 0.0000
# 4 0.0000 0.0000 0.0000 24.1504 0.0000 2.9183
# 5 -4.1624 -3.1336 -7.0040 0.0000 26.3095 0.0000
# 6 0.0000 0.0000 0.0000 2.9183 0.0000 15.8140
#
#
#
# Elastic Compliance Matrix: (Units=1/GPa)
#
#
# Indices 1 2 3 4 5 6 
#
# 1 0.010728 -0.002187 -0.000880 0.000000 0.001202 0.000000
# 2 -0.002187 0.011680 -0.004465 0.000000 -0.000144 0.000000
# 3 -0.000880 -0.004465 0.010059 0.000000 0.002007 0.000000
# 4 0.000000 0.000000 0.000000 0.042352 0.000000 -0.007816
# 5 0.001202 -0.000144 0.002007 0.000000 0.038716 0.000000
# 6 0.000000 0.000000 0.000000 -0.007816 0.000000 0.064677
#
#
# Mechanical properties :
#
#
# Convention : Reuss Voigt Hill
#
# Bulk Modulus (GPa) = 57.46606 59.93319 58.69962
# Shear Modulus (GPa) = 25.11586 29.01671 27.06628
#
# Velocity S-wave (km/s) = 3.46174 3.72087 3.59364
# Velocity P-wave (km/s) = 6.58765 6.85973 6.72507
#
# Compressibility (1/GPa) = 0.01740158
#
# Stress axis : x y z
#
# Youngs Moduli (GPa) = 93.21151 85.61890 99.41778
#
# Poissons Ratio (x) = 0.18726 0.08754
# Poissons Ratio (y) = 0.20387 0.44388
# Poissons Ratio (z) = 0.08207 0.38227
#
# Static dielectric constant tensor:
#      x y z
#    x 1.891490 0.000000 0.006630 
#    y 0.000000 1.729960 0.000000 
#    z 0.006630 0.000000 1.761620 
# 
# From -- ./inp_files/50056.got.cif
#   From: 2010.05.17/outbox.cif.g08.bks.cpg/sg13_26_cif.got.tgz:50056.got - 2010.06.03 16:44:36.
