data_PCOD9237470
_publ_section_title
;
Structure prediction by ZEFSAII (Michael W. Deem and Ramdas Pophale) SiO2 
 PCOD9237470
Probable space group: P 2/C
;
_chemical_formula_sum "Si O2"
_cell_formula_units_Z 28
_cell_length_a 11.031076
_cell_length_b 13.652591
_cell_length_c 9.499033
_cell_angle_alpha 90.000000
_cell_angle_beta 77.609808
_cell_angle_gamma 90.000000
_cell_volume 1397.261050
_symmetry_space_group_name_H-M "P 2/C"
_symmetry_group_IT_number 13
_symmetry_cell_setting 'monoclinic'
loop_
_space_group_symop_operation_xyz
x,y,z
-x,y,1/2-z
-x,-y,-z
x,-y,1/2+z
loop_
_atom_site_type_symbol
_atom_site_label
_atom_site_fract_x
_atom_site_fract_y
_atom_site_fract_z
Si Si1 0.423679 0.434842 0.127559
Si Si2 0.827672 0.712793 0.511094
Si Si3 0.069973 0.395208 0.052640
Si Si4 0.130221 0.188335 0.132500
Si Si5 0.001192 0.896854 0.418590
Si Si6 0.630080 0.229912 0.283458
Si Si7 0.176894 0.441345 0.719101
O O1 0.500000 0.431696 0.250000
O O2 0.402345 0.319475 0.101773
O O3 0.299239 0.493701 0.191452
O O4 0.500000 0.500000 0.000000
O O5 0.705756 0.722191 0.634412
O O6 0.804806 0.659965 0.369311
O O7 0.930772 0.644978 0.562688
O O8 0.889971 0.819582 0.476350
O O9 0.131309 0.305431 0.119870
O O10 0.091544 0.491486 0.138551
O O11 0.131209 0.414397 0.885808
O O12 0.261220 0.161927 0.173791
O O13 0.000000 0.162337 0.250000
O O14 0.115312 0.153375 0.974854
O O15 0.000000 0.909464 0.250000
O O16 0.000000 0.000000 0.500000
O O17 0.500000 0.190070 0.250000
#
# Coordination Sequence:
#
# PCOD9237470 Si02
#       7
#     4   4   4   4   4   4   4
#     4  11  23  38  52  80 124 183 232 262 308 380
#     4  11  23  40  61  93 129 159 219 269 334 398
#     4  11  23  35  55  86 124 165 217 267 335 373
#     4  11  21  42  67  95 131 174 220 276 334 396
#     4  11  24  43  72 108 135 161 206 276 350 418
#     4  11  22  39  65  92 132 181 227 269 322 386
#     4  12  22  36  56  85 123 170 215 282 320 386
#
# _framework density 20.039204000000002
#
# number of rings (size 3 to 8) (size 9 to 14) (size 15 to 20)
#    0.000    0.857    4.286    6.429    0.000    2.286 
#    0.000    0.000    0.000    0.857    0.000    0.000 
#    0.000    0.000    0.000    0.000    0.000    0.000 
#
# Total GULP energy -156127.966138 kJ/mol
# GULP energy per Si atom -5575.998791 kJ/mol
# Density = 1.999359 g / cm^3
# Si number density = 20.039204 Si / 1000 Ang^3
#
#
#
# Elastic Constant Matrix: (Units=GPa)
#
#
# Indices 1 2 3 4 5 6 
#
# 1 134.6157 7.4692 29.6700 0.0000 6.9125 0.0000
# 2 7.4692 85.1291 21.1077 0.0000 2.8911 0.0000
# 3 29.6700 21.1077 135.8894 0.0000 7.0596 0.0000
# 4 0.0000 0.0000 0.0000 30.6798 0.0000 11.5571
# 5 6.9125 2.8911 7.0596 0.0000 27.1293 0.0000
# 6 0.0000 0.0000 0.0000 11.5571 0.0000 10.2606
#
#
#
# Elastic Compliance Matrix: (Units=1/GPa)
#
#
# Indices 1 2 3 4 5 6 
#
# 1 0.007875 -0.000241 -0.001601 0.000000 -0.001564 0.000000
# 2 -0.000241 0.012243 -0.001809 0.000000 -0.000773 0.000000
# 3 -0.001601 -0.001809 0.008067 0.000000 -0.001499 0.000000
# 4 0.000000 0.000000 0.000000 0.056618 0.000000 -0.063772
# 5 -0.001564 -0.000773 -0.001499 0.000000 0.037731 0.000000
# 6 0.000000 0.000000 0.000000 -0.063772 0.000000 0.169291
#
#
# Mechanical properties :
#
#
# Convention : Reuss Voigt Hill
#
# Bulk Modulus (GPa) = 47.88378 52.45867 50.17123
# Shear Modulus (GPa) = 16.33516 33.43975 24.88745
#
# Velocity S-wave (km/s) = 2.85820 4.08942 3.52794
# Velocity P-wave (km/s) = 5.90248 6.96654 6.45647
#
# Compressibility (1/GPa) = 0.02088390
#
# Stress axis : x y z
#
# Youngs Moduli (GPa) = 126.98311 81.68085 123.95768
#
# Poissons Ratio (x) = 0.01968 0.19843
# Poissons Ratio (y) = 0.03059 0.22423
# Poissons Ratio (z) = 0.20327 0.14775
#
# Static dielectric constant tensor:
#      x y z
#    x 1.790920 0.000000 0.022090 
#    y 0.000000 1.794780 0.000000 
#    z 0.022090 0.000000 1.746450 
# 
# From -- ./inp_files/16481.got.cif
#   From: 2010.05.17/outbox.cif.g08.bks.cpg/sg13_9_cif.got.tgz:16481.got - 2010.06.03 16:44:36.
