data_PCOD9237277
_publ_section_title
;
Structure prediction by ZEFSAII (Michael W. Deem and Ramdas Pophale) SiO2 
 PCOD9237277
Probable space group: P 2/C
;
_chemical_formula_sum "Si O2"
_cell_formula_units_Z 32
_cell_length_a 9.958327
_cell_length_b 15.292386
_cell_length_c 11.529719
_cell_angle_alpha 90.000000
_cell_angle_beta 92.475595
_cell_angle_gamma 90.000000
_cell_volume 1754.182790
_symmetry_space_group_name_H-M "P 2/C"
_symmetry_group_IT_number 13
_symmetry_cell_setting 'monoclinic'
loop_
_space_group_symop_operation_xyz
x,y,z
-x,y,1/2-z
-x,-y,-z
x,-y,1/2+z
loop_
_atom_site_type_symbol
_atom_site_label
_atom_site_fract_x
_atom_site_fract_y
_atom_site_fract_z
Si Si1 0.661761 0.063941 0.127474
Si Si2 0.597170 0.450769 0.846567
Si Si3 0.760632 0.258858 0.169101
Si Si4 0.893664 0.476984 0.843355
Si Si5 0.246612 0.246333 0.061424
Si Si6 0.511771 0.637335 0.571421
Si Si7 0.001609 0.650536 0.540354
Si Si8 0.662805 0.051334 0.399247
O O1 0.721530 0.161660 0.125965
O O2 0.699409 0.031788 0.262848
O O3 0.498998 0.063544 0.115019
O O4 0.698722 0.014072 0.007727
O O5 0.500000 0.409250 0.750000
O O6 0.742371 0.464702 0.798460
O O7 0.541665 0.546352 0.878791
O O8 0.591031 0.390737 0.958776
O O9 0.792605 0.257351 0.305438
O O10 0.623999 0.315244 0.152009
O O11 0.888003 0.298230 0.107214
O O12 0.918271 0.576066 0.884940
O O13 0.000000 0.457720 0.750000
O O14 0.922201 0.408915 0.946062
O O15 0.383026 0.301006 0.043455
O O16 0.116524 0.286050 0.992435
O O17 0.276868 0.143806 0.055743
#
# Coordination Sequence:
#
# PCOD9237277 Si02
#       8
#     4   4   4   4   4   4   4   4
#     4   9  18  34  58  85 115 144 183 238 296 350
#     4  11  24  37  56  81 113 152 192 240 286 334
#     4  11  20  37  58  84 113 147 191 238 281 335
#     4  11  24  39  55  77 115 158 190 233 288 341
#     4  11  20  35  60  86 109 149 190 238 279 338
#     4  11  22  36  55  83 113 144 194 244 281 322
#     4  11  24  38  55  81 114 150 195 234 281 339
#     4   9  18  34  57  87 114 144 184 236 296 350
#
# _framework density 18.242114000000001
#
# number of rings (size 3 to 8) (size 9 to 14) (size 15 to 20)
#    0.000    1.500    3.750    2.250    3.500    0.000 
#    0.000    3.125    0.000    0.000    0.000    0.000 
#    0.000    0.000    0.000    0.000    0.000    0.000 
#
# Total GULP energy -178333.262700 kJ/mol
# GULP energy per Si atom -5572.914459 kJ/mol
# Density = 1.820059 g / cm^3
# Si number density = 18.242114 Si / 1000 Ang^3
#
#
#
# Elastic Constant Matrix: (Units=GPa)
#
#
# Indices 1 2 3 4 5 6 
#
# 1 67.1726 -0.7583 5.1523 0.0000 -0.6883 0.0000
# 2 -0.7583 76.4609 36.3583 0.0000 9.2467 0.0000
# 3 5.1523 36.3583 55.3396 0.0000 -9.7027 0.0000
# 4 0.0000 0.0000 0.0000 6.9174 0.0000 -11.9478
# 5 -0.6883 9.2467 -9.7027 0.0000 16.9031 0.0000
# 6 0.0000 0.0000 0.0000 -11.9478 0.0000 19.6873
#
#
#
# Elastic Compliance Matrix: (Units=1/GPa)
#
#
# Indices 1 2 3 4 5 6 
#
# 1 0.015113 0.001806 -0.002956 0.000000 -0.002070 0.000000
# 2 0.001806 0.027597 -0.023276 0.000000 -0.028384 0.000000
# 3 -0.002956 -0.023276 0.039861 0.000000 0.035494 0.000000
# 4 0.000000 0.000000 0.000000 -2.999803 0.000000 -1.820506
# 5 -0.002070 -0.028384 0.035494 0.000000 0.094977 0.000000
# 6 0.000000 0.000000 0.000000 -1.820506 0.000000 -1.054026
#
#
# Mechanical properties :
#
#
# Convention : Reuss Voigt Hill
#
# Bulk Modulus (GPa) = 29.65777 31.16419 30.41098
# Shear Modulus (GPa) = -1.31021 19.24964 8.96972
#
# Velocity S-wave (km/s) = -0.84841 3.25196 2.21985
# Velocity P-wave (km/s) = 3.91579 5.58758 4.82465
#
# Compressibility (1/GPa) = 0.03371798
#
# Stress axis : x y z
#
# Youngs Moduli (GPa) = 66.16829 36.23548 25.08710
#
# Poissons Ratio (x) = -0.06544 0.07417
# Poissons Ratio (y) = -0.11950 0.58393
# Poissons Ratio (z) = 0.19563 0.84343
#
# Static dielectric constant tensor:
#      x y z
#    x 1.577990 0.000000 -0.012390 
#    y 0.000000 1.632750 0.000000 
#    z -0.012390 0.000000 1.712400 
# 
# From -- ./inp_files/30400.got.cif
#   From: 2010.05.17/outbox.cif.g08.bks.cpg/sg13_16_cif.got.tgz:30400.got - 2010.06.03 16:44:36.
