data_PCOD9237818
_publ_section_title
;
Structure prediction by ZEFSAII (Michael W. Deem and Ramdas Pophale) SiO2 
 PCOD9237818
Probable space group: P 2/C
;
_chemical_formula_sum "Si O2"
_cell_formula_units_Z 16
_cell_length_a 9.540386
_cell_length_b 14.208302
_cell_length_c 9.287779
_cell_angle_alpha 90.000000
_cell_angle_beta 150.289146
_cell_angle_gamma 90.000000
_cell_volume 623.981389
_symmetry_space_group_name_H-M "P 2/C"
_symmetry_group_IT_number 13
_symmetry_cell_setting 'monoclinic'
loop_
_space_group_symop_operation_xyz
x,y,z
-x,y,1/2-z
-x,-y,-z
x,-y,1/2+z
loop_
_atom_site_type_symbol
_atom_site_label
_atom_site_fract_x
_atom_site_fract_y
_atom_site_fract_z
Si Si1 0.801989 0.506919 0.461826
Si Si2 0.786567 0.956365 0.928723
Si Si3 0.516292 0.763081 0.596935
Si Si4 0.936434 0.717281 0.543693
O O1 0.500000 0.476210 0.250000
O O2 0.791169 0.620826 0.461982
O O3 0.000000 0.500000 0.500000
O O4 0.000000 0.454677 0.750000
O O5 0.500000 0.002248 0.750000
O O6 0.647660 0.867546 0.723235
O O7 0.000000 0.929890 0.250000
O O8 0.000000 0.000000 0.000000
O O9 0.500000 0.737849 0.750000
O O10 0.754829 0.696383 0.743522
O O11 0.250936 0.760729 0.251980
O O12 0.000000 0.773535 0.750000
#
# Coordination Sequence:
#
# PCOD9237818 Si02
#       4
#     4   4   4   4
#     4  11  24  43  66  98 136 177 227 284 338 402
#     4  11  24  45  71 103 139 178 227 284 340 407
#     4  11  23  42  67  99 134 177 225 279 339 407
#     4  11  23  42  67  98 136 176 226 283 339 402
#
# _framework density 25.641791000000001
#
# number of rings (size 3 to 8) (size 9 to 14) (size 15 to 20)
#    0.000    1.000    0.000    9.000    0.000    4.000 
#    0.000    6.250    0.000    0.000    0.000    0.000 
#    0.000    0.000    0.000    0.000    0.000    0.000 
#
# Total GULP energy -89114.332689 kJ/mol
# GULP energy per Si atom -5569.645793 kJ/mol
# Density = 2.558343 g / cm^3
# Si number density = 25.641791 Si / 1000 Ang^3
#
#
#
# Elastic Constant Matrix: (Units=GPa)
#
#
# Indices 1 2 3 4 5 6 
#
# 1 251.3981 32.3440 108.4655 0.0000 25.3333 0.0000
# 2 32.3440 53.3143 10.6904 0.0000 -3.0332 0.0000
# 3 108.4655 10.6904 234.2755 0.0000 -7.2050 0.0000
# 4 0.0000 0.0000 0.0000 20.7195 0.0000 13.8453
# 5 25.3333 -3.0332 -7.2050 0.0000 71.4624 0.0000
# 6 0.0000 0.0000 0.0000 13.8453 0.0000 43.1873
#
#
#
# Elastic Compliance Matrix: (Units=1/GPa)
#
#
# Indices 1 2 3 4 5 6 
#
# 1 0.005739 -0.003100 -0.002590 0.000000 -0.002427 0.000000
# 2 -0.003100 0.020642 0.000556 0.000000 0.002031 0.000000
# 3 -0.002590 0.000556 0.005488 0.000000 0.001495 0.000000
# 4 0.000000 0.000000 0.000000 0.061422 0.000000 -0.019691
# 5 -0.002427 0.002031 0.001495 0.000000 0.015091 0.000000
# 6 0.000000 0.000000 0.000000 -0.019691 0.000000 0.029468
#
#
# Mechanical properties :
#
#
# Convention : Reuss Voigt Hill
#
# Bulk Modulus (GPa) = 46.29688 93.55418 69.92553
# Shear Modulus (GPa) = 32.19218 52.90638 42.54928
#
# Velocity S-wave (km/s) = 3.54709 4.54727 4.07796
# Velocity P-wave (km/s) = 5.90510 8.00840 7.03579
#
# Compressibility (1/GPa) = 0.02159973
#
# Stress axis : x y z
#
# Youngs Moduli (GPa) = 174.25611 48.44598 182.20711
#
# Poissons Ratio (x) = 0.15019 0.47193
# Poissons Ratio (y) = 0.54023 -0.10129
# Poissons Ratio (z) = 0.45134 -0.02693
#
# Static dielectric constant tensor:
#      x y z
#    x 2.039900 0.000000 -0.076250 
#    y 0.000000 2.130720 0.000000 
#    z -0.076250 0.000000 2.080400 
# 
# From -- ./inp_files/13226.got.cif
#   From: 2010.05.17/outbox.cif.g08.bks.cpg/sg13_7_cif.got.tgz:13226.got - 2010.06.03 16:44:36.
