data_PCOD9237741
_publ_section_title
;
Structure prediction by ZEFSAII (Michael W. Deem and Ramdas Pophale) SiO2 
 PCOD9237741
Probable space group: P 2/C
;
_chemical_formula_sum "Si O2"
_cell_formula_units_Z 30
_cell_length_a 14.037383
_cell_length_b 11.408311
_cell_length_c 24.970946
_cell_angle_alpha 90.000000
_cell_angle_beta 20.216829
_cell_angle_gamma 90.000000
_cell_volume 1381.921442
_symmetry_space_group_name_H-M "P 2/C"
_symmetry_group_IT_number 13
_symmetry_cell_setting 'monoclinic'
loop_
_space_group_symop_operation_xyz
x,y,z
-x,y,1/2-z
-x,-y,-z
x,-y,1/2+z
loop_
_atom_site_type_symbol
_atom_site_label
_atom_site_fract_x
_atom_site_fract_y
_atom_site_fract_z
Si Si1 0.129604 0.751953 0.502194
Si Si2 0.730647 0.408563 0.355001
Si Si3 0.707718 0.944237 0.740732
Si Si4 0.817347 0.667764 0.563023
Si Si5 0.125034 0.480733 0.056140
Si Si6 0.500000 0.940986 0.250000
Si Si7 0.110723 0.137808 0.566545
Si Si8 0.223657 0.327032 0.588560
O O1 0.245184 0.647210 0.478066
O O2 0.339551 0.853472 0.374230
O O3 0.871061 0.823068 0.662698
O O4 0.012601 0.691353 0.510324
O O5 0.500000 0.500000 0.500000
O O6 0.523176 0.299928 0.454851
O O7 0.000000 0.385617 0.250000
O O8 0.853003 0.452156 0.233982
O O9 0.395265 0.931113 0.923105
O O10 0.691363 0.977396 0.685953
O O11 0.866216 0.048955 0.685397
O O12 0.500000 0.656755 0.750000
O O13 0.905795 0.554536 0.481938
O O14 0.847439 0.777887 0.506988
O O15 0.272810 0.571266 0.018317
O O16 0.081818 0.221161 0.632464
O O17 0.000000 0.367460 0.750000
#
# Coordination Sequence:
#
# PCOD9237741 Si02
#       8
#     4   4   4   4   4   2   4   4
#     4  12  24  39  61  97 138 182 226 273 325 402
#     4  12  22  44  71 100 131 176 228 281 345 421
#     4  12  22  44  67  96 134 183 240 282 331 398
#     4  11  23  40  61  96 144 192 217 271 343 403
#     4  11  25  39  67 100 141 178 226 278 342 417
#     4  12  24  38  62  96 138 186 236 278 324 400
#     4  11  24  43  74  97 134 182 236 286 344 407
#     4  11  24  50  73 102 137 176 225 291 369 422
#
# _framework density 21.708904
#
# number of rings (size 3 to 8) (size 9 to 14) (size 15 to 20)
#    0.000    0.533    6.667    2.400    2.800    1.067 
#    2.400    0.667    0.000    1.600    0.000    0.000 
#    0.000    0.000    0.000    0.000    0.000    0.000 
#
# Total GULP energy -167554.057908 kJ/mol
# GULP energy per Si atom -5585.135264 kJ/mol
# Density = 2.165949 g / cm^3
# Si number density = 21.708904 Si / 1000 Ang^3
#
#
#
# Elastic Constant Matrix: (Units=GPa)
#
#
# Indices 1 2 3 4 5 6 
#
# 1 73.3173 36.5432 15.2465 0.0000 -9.9603 0.0000
# 2 36.5432 97.9090 3.9674 0.0000 -9.3017 0.0000
# 3 15.2465 3.9674 56.2370 0.0000 -10.2050 0.0000
# 4 0.0000 0.0000 0.0000 17.2164 0.0000 3.6254
# 5 -9.9603 -9.3017 -10.2050 0.0000 34.0097 0.0000
# 6 0.0000 0.0000 0.0000 3.6254 0.0000 15.8033
#
#
#
# Elastic Compliance Matrix: (Units=1/GPa)
#
#
# Indices 1 2 3 4 5 6 
#
# 1 0.017931 -0.006310 -0.003994 0.000000 0.002327 0.000000
# 2 -0.006310 0.012709 0.001173 0.000000 0.001980 0.000000
# 3 -0.003994 0.001173 0.019701 0.000000 0.005063 0.000000
# 4 0.000000 0.000000 0.000000 0.061032 0.000000 -0.014001
# 5 0.002327 0.001980 0.005063 0.000000 0.032146 0.000000
# 6 0.000000 0.000000 0.000000 -0.014001 0.000000 0.066490
#
#
# Mechanical properties :
#
#
# Convention : Reuss Voigt Hill
#
# Bulk Modulus (GPa) = 31.17160 37.66417 34.41789
# Shear Modulus (GPa) = 20.92384 24.85297 22.88840
#
# Velocity S-wave (km/s) = 3.10794 3.38720 3.25057
# Velocity P-wave (km/s) = 5.22198 5.71706 5.47512
#
# Compressibility (1/GPa) = 0.03208048
#
# Stress axis : x y z
#
# Youngs Moduli (GPa) = 55.76978 78.68387 50.75990
#
# Poissons Ratio (x) = 0.49646 0.20273
# Poissons Ratio (y) = 0.35188 -0.05956
# Poissons Ratio (z) = 0.22274 -0.09232
#
# Static dielectric constant tensor:
#      x y z
#    x 1.871990 0.000000 -0.005340 
#    y 0.000000 1.830980 0.000000 
#    z -0.005340 0.000000 1.794210 
# 
# From -- ./inp_files/92942.got.cif
#   From: 2010.05.17/outbox.cif.g08.bks.cpg/sg13_47_cif.got.tgz:92942.got - 2010.06.03 16:44:36.
