data_PCOD9237631
_publ_section_title
;
Structure prediction by ZEFSAII (Michael W. Deem and Ramdas Pophale) SiO2 
 PCOD9237631
Probable space group: P 2/C
;
_chemical_formula_sum "Si O2"
_cell_formula_units_Z 26
_cell_length_a 15.401407
_cell_length_b 8.256239
_cell_length_c 15.450694
_cell_angle_alpha 90.000000
_cell_angle_beta 143.302972
_cell_angle_gamma 90.000000
_cell_volume 1174.057277
_symmetry_space_group_name_H-M "P 2/C"
_symmetry_group_IT_number 13
_symmetry_cell_setting 'monoclinic'
loop_
_space_group_symop_operation_xyz
x,y,z
-x,y,1/2-z
-x,-y,-z
x,-y,1/2+z
loop_
_atom_site_type_symbol
_atom_site_label
_atom_site_fract_x
_atom_site_fract_y
_atom_site_fract_z
Si Si1 0.575824 0.201965 0.724789
Si Si2 0.000000 0.891488 0.750000
Si Si3 0.506650 0.308585 0.023141
Si Si4 0.891442 0.662230 0.508408
Si Si5 0.280746 0.102708 0.207169
Si Si6 0.953133 0.307364 0.548423
Si Si7 0.214186 0.881945 0.321937
O O1 0.500000 0.261706 0.750000
O O2 0.483583 0.234056 0.565313
O O3 0.606205 0.011307 0.751282
O O4 0.733645 0.285531 0.847578
O O5 0.946099 0.778150 0.628193
O O6 0.861709 0.000303 0.669171
O O7 0.367036 0.213628 0.952299
O O8 0.500000 0.500000 0.000000
O O9 0.642556 0.258686 0.190072
O O10 0.888424 0.473872 0.531394
O O11 0.002181 0.674666 0.516679
O O12 0.157481 0.158603 0.043225
O O13 0.226396 0.991953 0.244185
O O14 0.096247 0.257978 0.713078
#
# Coordination Sequence:
#
# PCOD9237631 Si02
#       7
#     4   2   4   4   4   4   4
#     4  11  24  43  67  97 134 177 226 278 332 398
#     4  12  26  40  68 104 136 172 226 288 332 388
#     4  11  25  45  69  96 136 181 225 272 340 405
#     4  11  24  41  71  98 134 174 223 283 336 392
#     4  11  22  42  70  97 128 182 224 270 333 409
#     4  11  22  45  70  96 130 179 227 271 340 403
#     4  11  23  43  68  98 134 177 224 275 333 407
#
# _framework density 22.145427999999999
#
# number of rings (size 3 to 8) (size 9 to 14) (size 15 to 20)
#    0.000    0.923    4.615    4.154    6.462    0.615 
#    2.769    1.538    0.000    0.000    0.000    0.000 
#    0.000    0.000    0.000    0.000    0.000    0.000 
#
# Total GULP energy -145337.776071 kJ/mol
# GULP energy per Si atom -5589.914464 kJ/mol
# Density = 2.209502 g / cm^3
# Si number density = 22.145428 Si / 1000 Ang^3
#
#
#
# Elastic Constant Matrix: (Units=GPa)
#
#
# Indices 1 2 3 4 5 6 
#
# 1 86.4714 27.2958 11.9356 0.0000 -1.5476 0.0000
# 2 27.2958 105.0038 -5.5198 0.0000 7.4313 0.0000
# 3 11.9356 -5.5198 47.5955 0.0000 6.4278 0.0000
# 4 0.0000 0.0000 0.0000 43.0092 0.0000 1.0469
# 5 -1.5476 7.4313 6.4278 0.0000 18.2411 0.0000
# 6 0.0000 0.0000 0.0000 1.0469 0.0000 19.5885
#
#
#
# Elastic Compliance Matrix: (Units=1/GPa)
#
#
# Indices 1 2 3 4 5 6 
#
# 1 0.013541 -0.004064 -0.004458 0.000000 0.004375 0.000000
# 2 -0.004064 0.011168 0.003124 0.000000 -0.005996 0.000000
# 3 -0.004458 0.003124 0.023849 0.000000 -0.010055 0.000000
# 4 0.000000 0.000000 0.000000 0.023281 0.000000 -0.001244
# 5 0.004375 -0.005996 -0.010055 0.000000 0.061178 0.000000
# 6 0.000000 0.000000 0.000000 -0.001244 0.000000 0.051117
#
#
# Mechanical properties :
#
#
# Convention : Reuss Voigt Hill
#
# Bulk Modulus (GPa) = 26.48142 34.05489 30.26815
# Shear Modulus (GPa) = 24.09439 29.85836 26.97638
#
# Velocity S-wave (km/s) = 3.30207 3.67588 3.49398
# Velocity P-wave (km/s) = 5.14997 5.78164 5.47492
#
# Compressibility (1/GPa) = 0.03776233
#
# Stress axis : x y z
#
# Youngs Moduli (GPa) = 73.84988 89.53799 41.93136
#
# Poissons Ratio (x) = 0.36388 0.18693
# Poissons Ratio (y) = 0.30012 -0.13100
# Poissons Ratio (z) = 0.32922 -0.27972
#
# Static dielectric constant tensor:
#      x y z
#    x 1.835760 0.000000 0.004350 
#    y 0.000000 1.831340 0.000000 
#    z 0.004350 0.000000 1.774140 
# 
# From -- ./inp_files/53358.got.cif
#   From: 2010.05.17/outbox.cif.g08.bks.cpg/sg13_27_cif.got.tgz:53358.got - 2010.06.03 16:44:36.
