data_PCOD9237654
_publ_section_title
;
Structure prediction by ZEFSAII (Michael W. Deem and Ramdas Pophale) SiO2 
 PCOD9237654
Probable space group: P 2/C
;
_chemical_formula_sum "Si O2"
_cell_formula_units_Z 20
_cell_length_a 37.736314
_cell_length_b 4.859703
_cell_length_c 13.161697
_cell_angle_alpha 90.000000
_cell_angle_beta 161.363715
_cell_angle_gamma 90.000000
_cell_volume 771.316768
_symmetry_space_group_name_H-M "P 2/C"
_symmetry_group_IT_number 13
_symmetry_cell_setting 'monoclinic'
loop_
_space_group_symop_operation_xyz
x,y,z
-x,y,1/2-z
-x,-y,-z
x,-y,1/2+z
loop_
_atom_site_type_symbol
_atom_site_label
_atom_site_fract_x
_atom_site_fract_y
_atom_site_fract_z
Si Si1 0.896710 0.418749 0.370942
Si Si2 0.753765 0.882657 0.028525
Si Si3 0.329967 0.031054 0.984858
Si Si4 0.087521 0.215509 0.784980
Si Si5 0.398421 0.432550 0.547490
O O1 0.891344 0.547812 0.240943
O O2 0.024122 0.319500 0.713122
O O3 0.854756 0.672879 0.324169
O O4 0.796115 0.922545 0.874200
O O5 0.684514 0.734466 0.752060
O O6 0.673076 0.911052 0.904242
O O7 0.811047 0.168657 0.153019
O O8 0.353579 0.296205 0.980533
O O9 0.413427 0.789727 0.178248
O O10 0.000000 0.000000 0.500000
O O11 0.500000 0.504130 0.750000
#
# Coordination Sequence:
#
# PCOD9237654 Si02
#       5
#     4   4   4   4   4
#     4  11  23  42  71 104 148 193 233 297 352 435
#     4  12  25  48  72 110 151 189 248 301 365 442
#     4  12  28  46  76 110 143 197 245 303 371 441
#     4  11  22  43  72 101 147 191 241 288 361 435
#     4  12  27  49  77 105 144 194 246 318 376 427
#
# _framework density 25.929682
#
# number of rings (size 3 to 8) (size 9 to 14) (size 15 to 20)
#    0.000    0.400    4.000    4.200    2.800    2.400 
#    3.600    0.000    0.000    0.000    0.000    0.000 
#    0.000    0.000    0.000    0.000    0.000    0.000 
#
# Total GULP energy -112096.074763 kJ/mol
# GULP energy per Si atom -5604.803738 kJ/mol
# Density = 2.587066 g / cm^3
# Si number density = 25.929682 Si / 1000 Ang^3
#
#
#
# Elastic Constant Matrix: (Units=GPa)
#
#
# Indices 1 2 3 4 5 6 
#
# 1 192.6288 76.9718 43.9665 0.0000 65.1580 0.0000
# 2 76.9718 209.6863 33.5546 0.0000 31.3947 0.0000
# 3 43.9665 33.5546 67.1865 0.0000 35.2446 0.0000
# 4 0.0000 0.0000 0.0000 21.1085 0.0000 11.1222
# 5 65.1580 31.3947 35.2446 0.0000 39.9001 0.0000
# 6 0.0000 0.0000 0.0000 11.1222 0.0000 56.4728
#
#
#
# Elastic Compliance Matrix: (Units=1/GPa)
#
#
# Indices 1 2 3 4 5 6 
#
# 1 0.013008 -0.001972 0.005221 0.000000 -0.024304 0.000000
# 2 -0.001972 0.005732 -0.001669 0.000000 0.000184 0.000000
# 3 0.005221 -0.001669 0.029974 0.000000 -0.033690 0.000000
# 4 0.000000 0.000000 0.000000 0.052860 0.000000 -0.010411
# 5 -0.024304 0.000184 -0.033690 0.000000 0.094366 0.000000
# 6 0.000000 0.000000 0.000000 -0.010411 0.000000 0.019758
#
#
# Mechanical properties :
#
#
# Convention : Reuss Voigt Hill
#
# Bulk Modulus (GPa) = 19.27697 86.49859 52.88778
# Shear Modulus (GPa) = 21.75537 44.49685 33.12611
#
# Velocity S-wave (km/s) = 2.89972 4.14703 3.57814
# Velocity P-wave (km/s) = 4.31991 7.50745 6.12468
#
# Compressibility (1/GPa) = 0.05187536
#
# Stress axis : x y z
#
# Youngs Moduli (GPa) = 76.87322 174.44691 33.36278
#
# Poissons Ratio (x) = 0.34399 -0.17420
# Poissons Ratio (y) = 0.15158 0.05568
# Poissons Ratio (z) = -0.40139 0.29116
#
# Static dielectric constant tensor:
#      x y z
#    x 2.167170 0.000000 -0.107090 
#    y 0.000000 2.026400 0.000000 
#    z -0.107090 0.000000 2.167740 
# 
# From -- ./inp_files/42494.got.cif
#   From: 2010.05.17/outbox.cif.g08.bks.cpg/sg13_22_cif.got.tgz:42494.got - 2010.06.03 16:44:36.
