data_PCOD9237197
_publ_section_title
;
Structure prediction by ZEFSAII (Michael W. Deem and Ramdas Pophale) SiO2 
 PCOD9237197
Probable space group: P 2/C
;
_chemical_formula_sum "Si O2"
_cell_formula_units_Z 32
_cell_length_a 13.736978
_cell_length_b 11.940061
_cell_length_c 17.862402
_cell_angle_alpha 90.000000
_cell_angle_beta 148.617552
_cell_angle_gamma 90.000000
_cell_volume 1525.686582
_symmetry_space_group_name_H-M "P 2/C"
_symmetry_group_IT_number 13
_symmetry_cell_setting 'monoclinic'
loop_
_space_group_symop_operation_xyz
x,y,z
-x,y,1/2-z
-x,-y,-z
x,-y,1/2+z
loop_
_atom_site_type_symbol
_atom_site_label
_atom_site_fract_x
_atom_site_fract_y
_atom_site_fract_z
Si Si1 0.415496 0.691534 0.856944
Si Si2 0.709829 0.091869 0.846777
Si Si3 0.707164 0.677424 0.558741
Si Si4 0.813333 0.556853 0.909558
Si Si5 0.625896 0.324419 0.760880
Si Si6 0.839314 0.078368 0.087536
Si Si7 0.524612 0.044108 0.100786
Si Si8 0.189250 0.429517 0.917395
O O1 0.299069 0.667477 0.856351
O O2 0.282776 0.653304 0.702003
O O3 0.452543 0.823456 0.881939
O O4 0.615689 0.626254 0.983038
O O5 0.500000 0.085700 0.750000
O O6 0.758394 0.217188 0.849434
O O7 0.683430 0.013706 0.757036
O O8 0.858230 0.070577 0.010377
O O9 0.492309 0.681370 0.391845
O O10 0.791614 0.792223 0.580283
O O11 0.792987 0.564543 0.581077
O O12 0.681926 0.449850 0.812684
O O13 0.831127 0.591265 0.007405
O O14 0.000000 0.500000 0.000000
O O15 0.500000 0.299972 0.750000
O O16 0.000000 0.044616 0.250000
O O17 0.668388 0.996723 0.990891
O O18 0.500000 0.000000 0.000000
O O19 0.000000 0.393515 0.750000
#
# Coordination Sequence:
#
# PCOD9237197 Si02
#       8
#     4   4   4   4   4   4   4   4
#     4  12  26  43  72  95 138 188 226 281 357 421
#     4   9  18  36  65  93 118 170 217 266 336 397
#     4  12  21  41  71  99 133 175 231 285 343 410
#     4  12  26  43  66 102 142 176 228 284 348 425
#     4  11  17  38  66  94 126 174 220 278 336 397
#     4  11  22  38  68 100 131 170 233 293 341 402
#     4  11  22  45  66  94 133 177 230 282 344 419
#     4  12  26  43  65 101 140 181 227 280 347 424
#
# _framework density 20.974163000000001
#
# number of rings (size 3 to 8) (size 9 to 14) (size 15 to 20)
#    0.000    0.750    7.500    1.875    1.750    4.500 
#    0.000    0.625    0.000    0.000    0.000    0.000 
#    0.000    0.000    0.000    0.000    0.000    0.000 
#
# Total GULP energy -178416.909550 kJ/mol
# GULP energy per Si atom -5575.528423 kJ/mol
# Density = 2.092642 g / cm^3
# Si number density = 20.974163 Si / 1000 Ang^3
#
#
#
# Elastic Constant Matrix: (Units=GPa)
#
#
# Indices 1 2 3 4 5 6 
#
# 1 64.3894 26.0453 35.9178 0.0000 -28.8112 0.0000
# 2 26.0453 92.9540 42.8140 0.0000 -11.5470 0.0000
# 3 35.9178 42.8140 143.1685 0.0000 -41.5768 0.0000
# 4 0.0000 0.0000 0.0000 20.0185 0.0000 -15.9648
# 5 -28.8112 -11.5470 -41.5768 0.0000 37.8054 0.0000
# 6 0.0000 0.0000 0.0000 -15.9648 0.0000 13.9598
#
#
#
# Elastic Compliance Matrix: (Units=1/GPa)
#
#
# Indices 1 2 3 4 5 6 
#
# 1 0.025590 -0.005090 0.000462 0.000000 0.018455 0.000000
# 2 -0.005090 0.013494 -0.003949 0.000000 -0.004101 0.000000
# 3 0.000462 -0.003949 0.011463 0.000000 0.011752 0.000000
# 4 0.000000 0.000000 0.000000 0.567904 0.000000 0.649468
# 5 0.018455 -0.004101 0.011752 0.000000 0.052187 0.000000
# 6 0.000000 0.000000 0.000000 0.649468 0.000000 0.814381
#
#
# Mechanical properties :
#
#
# Convention : Reuss Voigt Hill
#
# Bulk Modulus (GPa) = 29.94860 56.67402 43.31131
# Shear Modulus (GPa) = 3.30403 27.40573 15.35488
#
# Velocity S-wave (km/s) = 1.25647 3.61867 2.70864
# Velocity P-wave (km/s) = 4.05151 6.67377 5.52060
#
# Compressibility (1/GPa) = 0.03339055
#
# Stress axis : x y z
#
# Youngs Moduli (GPa) = 39.07851 74.10797 87.23915
#
# Poissons Ratio (x) = 0.37723 -0.04028
# Poissons Ratio (y) = 0.19892 0.34452
# Poissons Ratio (z) = -0.01804 0.29267
#
# Static dielectric constant tensor:
#      x y z
#    x 1.699480 0.000000 -0.019700 
#    y 0.000000 1.789450 0.000000 
#    z -0.019700 0.000000 1.796840 
# 
# From -- ./inp_files/68684.got.cif
#   From: 2010.05.17/outbox.cif.g08.bks.cpg/sg13_35_cif.got.tgz:68684.got - 2010.06.03 16:44:36.
