data_PCOD9237251
_publ_section_title
;
Structure prediction by ZEFSAII (Michael W. Deem and Ramdas Pophale) SiO2 
 PCOD9237251
Probable space group: P 2/C
;
_chemical_formula_sum "Si O2"
_cell_formula_units_Z 24
_cell_length_a 14.927865
_cell_length_b 8.878041
_cell_length_c 8.197438
_cell_angle_alpha 90.000000
_cell_angle_beta 87.487592
_cell_angle_gamma 90.000000
_cell_volume 1085.363770
_symmetry_space_group_name_H-M "P 2/C"
_symmetry_group_IT_number 13
_symmetry_cell_setting 'monoclinic'
loop_
_space_group_symop_operation_xyz
x,y,z
-x,y,1/2-z
-x,-y,-z
x,-y,1/2+z
loop_
_atom_site_type_symbol
_atom_site_label
_atom_site_fract_x
_atom_site_fract_y
_atom_site_fract_z
Si Si1 0.263205 0.225409 0.694538
Si Si2 0.899054 0.277143 0.300390
Si Si3 0.826271 0.537216 0.499499
Si Si4 0.582274 0.267389 0.331104
Si Si5 0.629894 0.561890 0.129819
Si Si6 0.251917 0.920475 0.548720
O O1 0.188581 0.345993 0.647767
O O2 0.351827 0.323564 0.722374
O O3 0.267407 0.098201 0.557534
O O4 0.247098 0.137545 0.864182
O O5 0.891954 0.402624 0.444164
O O6 0.838346 0.136257 0.356397
O O7 0.000000 0.235819 0.250000
O O8 0.855946 0.364477 0.150340
O O9 0.728336 0.462900 0.539688
O O10 0.500000 0.184168 0.250000
O O11 0.603495 0.401777 0.202902
O O12 0.665500 0.160610 0.365715
O O13 0.432338 0.355907 0.996547
#
# Coordination Sequence:
#
# PCOD9237251 Si02
#       6
#     4   4   4   4   4   4
#     4  11  22  39  69  89 122 175 200 255 319 367
#     4  12  23  39  64  94 127 166 209 259 311 368
#     4  12  19  41  65  92 123 163 212 259 308 363
#     4  11  22  38  63  92 125 163 208 258 308 367
#     4  11  19  39  65  90 122 160 212 256 306 360
#     4  11  23  42  60  90 131 163 209 250 318 381
#
# _framework density 22.112403
#
# number of rings (size 3 to 8) (size 9 to 14) (size 15 to 20)
#    0.000    0.667    8.333    2.000    0.000    0.000 
#    0.000    8.333    0.000    0.000    0.000    0.000 
#    0.000    0.000    0.000    0.000    0.000    0.000 
#
# Total GULP energy -134171.219941 kJ/mol
# GULP energy per Si atom -5590.467498 kJ/mol
# Density = 2.206207 g / cm^3
# Si number density = 22.112403 Si / 1000 Ang^3
#
#
#
# Elastic Constant Matrix: (Units=GPa)
#
#
# Indices 1 2 3 4 5 6 
#
# 1 42.7237 10.3124 -6.4505 0.0000 -0.5962 0.0000
# 2 10.3124 73.1343 -4.7665 0.0000 1.6380 0.0000
# 3 -6.4505 -4.7665 54.1801 0.0000 4.2437 0.0000
# 4 0.0000 0.0000 0.0000 42.3303 0.0000 2.7648
# 5 -0.5962 1.6380 4.2437 0.0000 20.2392 0.0000
# 6 0.0000 0.0000 0.0000 2.7648 0.0000 9.4706
#
#
#
# Elastic Compliance Matrix: (Units=1/GPa)
#
#
# Indices 1 2 3 4 5 6 
#
# 1 0.024604 -0.003310 0.002603 0.000000 0.000447 0.000000
# 2 -0.003310 0.014236 0.000972 0.000000 -0.001454 0.000000
# 3 0.002603 0.000972 0.019167 0.000000 -0.004021 0.000000
# 4 0.000000 0.000000 0.000000 0.024083 0.000000 -0.007031
# 5 0.000447 -0.001454 -0.004021 0.000000 0.050383 0.000000
# 6 0.000000 0.000000 0.000000 -0.007031 0.000000 0.107643
#
#
# Mechanical properties :
#
#
# Convention : Reuss Voigt Hill
#
# Bulk Modulus (GPa) = 17.08261 18.69211 17.88736
# Shear Modulus (GPa) = 19.29771 25.80420 22.55095
#
# Velocity S-wave (km/s) = 2.95737 3.41978 3.19695
# Velocity P-wave (km/s) = 4.40494 4.90559 4.66199
#
# Compressibility (1/GPa) = 0.05853905
#
# Stress axis : x y z
#
# Youngs Moduli (GPa) = 40.64319 70.24399 52.17207
#
# Poissons Ratio (x) = 0.23249 -0.13581
# Poissons Ratio (y) = 0.13452 -0.05072
# Poissons Ratio (z) = -0.10580 -0.06829
#
# Static dielectric constant tensor:
#      x y z
#    x 1.826830 0.000000 -0.014980 
#    y 0.000000 1.803700 0.000000 
#    z -0.014980 0.000000 1.874540 
# 
# From -- ./inp_files/18166.got.cif
#   From: 2010.05.17/outbox.cif.g08.bks.cpg/sg13_10_cif.got.tgz:18166.got - 2010.06.03 16:44:36.
