data_PCOD9237681
_publ_section_title
;
Structure prediction by ZEFSAII (Michael W. Deem and Ramdas Pophale) SiO2 
 PCOD9237681
Probable space group: P 2/C
;
_chemical_formula_sum "Si O2"
_cell_formula_units_Z 18
_cell_length_a 5.724972
_cell_length_b 9.960697
_cell_length_c 14.003605
_cell_angle_alpha 90.000000
_cell_angle_beta 86.719382
_cell_angle_gamma 90.000000
_cell_volume 797.242894
_symmetry_space_group_name_H-M "P 2/C"
_symmetry_group_IT_number 13
_symmetry_cell_setting 'monoclinic'
loop_
_space_group_symop_operation_xyz
x,y,z
-x,y,1/2-z
-x,-y,-z
x,-y,1/2+z
loop_
_atom_site_type_symbol
_atom_site_label
_atom_site_fract_x
_atom_site_fract_y
_atom_site_fract_z
Si Si1 0.752316 0.156003 0.800907
Si Si2 0.210446 0.511417 0.420242
Si Si3 0.527324 0.725830 0.484786
Si Si4 0.000000 0.623305 0.750000
Si Si5 0.676150 0.151686 0.334314
O O1 0.500000 0.171632 0.750000
O O2 0.715058 0.226801 0.903728
O O3 0.000000 0.201144 0.750000
O O4 0.777782 0.996072 0.818071
O O5 0.319935 0.657542 0.429747
O O6 0.385725 0.394277 0.449646
O O7 0.000000 0.500000 0.500000
O O8 0.147503 0.472379 0.314628
O O9 0.446026 0.839202 0.559981
O O10 0.142604 0.725412 0.678723
O O11 0.500000 0.173000 0.250000
#
# Coordination Sequence:
#
# PCOD9237681 Si02
#       5
#     4   4   4   2   4
#     4  11  27  47  73 111 148 191 242 306 375 434
#     4  11  25  42  68 103 142 186 246 292 363 432
#     4  11  25  46  68 105 143 191 241 303 363 438
#     4  12  22  42  72 102 144 194 240 300 358 442
#     4  11  22  45  71 105 141 188 243 300 362 438
#
# _framework density 22.577809999999999
#
# number of rings (size 3 to 8) (size 9 to 14) (size 15 to 20)
#    0.000    0.889    5.556    0.667    3.111    1.778 
#    0.000    4.444    0.000    0.000    0.000    0.000 
#    0.000    0.000    0.000    0.000    0.000    0.000 
#
# Total GULP energy -100626.763950 kJ/mol
# GULP energy per Si atom -5590.375775 kJ/mol
# Density = 2.252642 g / cm^3
# Si number density = 22.577810 Si / 1000 Ang^3
#
#
#
# Elastic Constant Matrix: (Units=GPa)
#
#
# Indices 1 2 3 4 5 6 
#
# 1 91.1767 25.0681 52.3206 0.0000 -21.3041 0.0000
# 2 25.0681 50.6564 41.4117 0.0000 5.4614 0.0000
# 3 52.3206 41.4117 145.1971 0.0000 -12.0664 0.0000
# 4 0.0000 0.0000 0.0000 16.3751 0.0000 11.4757
# 5 -21.3041 5.4614 -12.0664 0.0000 52.5307 0.0000
# 6 0.0000 0.0000 0.0000 11.4757 0.0000 -19.3710
#
#
#
# Elastic Compliance Matrix: (Units=1/GPa)
#
#
# Indices 1 2 3 4 5 6 
#
# 1 0.016087 -0.005638 -0.003668 0.000000 0.006268 0.000000
# 2 -0.005638 0.028781 -0.006744 0.000000 -0.006828 0.000000
# 3 -0.003668 -0.006744 0.010263 0.000000 0.001571 0.000000
# 4 0.000000 0.000000 0.000000 0.043153 0.000000 0.025564
# 5 0.006268 -0.006828 0.001571 0.000000 0.022649 0.000000
# 6 0.000000 0.000000 0.000000 0.025564 0.000000 -0.036479
#
#
# Mechanical properties :
#
#
# Convention : Reuss Voigt Hill
#
# Bulk Modulus (GPa) = 43.42167 58.29233 50.85700
# Shear Modulus (GPa) = 40.24752 21.12230 30.68491
#
# Velocity S-wave (km/s) = 4.22668 3.06197 3.69056
# Velocity P-wave (km/s) = 6.56457 6.19478 6.38235
#
# Compressibility (1/GPa) = 0.02302997
#
# Stress axis : x y z
#
# Youngs Moduli (GPa) = 62.16109 34.74565 97.43748
#
# Poissons Ratio (x) = 0.19590 0.35740
# Poissons Ratio (y) = 0.35048 0.65714
# Poissons Ratio (z) = 0.22800 0.23433
#
# Static dielectric constant tensor:
#      x y z
#    x 1.907120 0.000000 0.015850 
#    y 0.000000 1.813440 0.000000 
#    z 0.015850 0.000000 1.817360 
# 
# From -- ./inp_files/25804.got.cif
#   From: 2010.05.17/outbox.cif.g08.bks.cpg/sg13_13_cif.got.tgz:25804.got - 2010.06.03 16:44:36.
