data_PCOD9237872
_publ_section_title
;
Structure prediction by ZEFSAII (Michael W. Deem and Ramdas Pophale) SiO2 
 PCOD9237872
Probable space group: P 2/C
;
_chemical_formula_sum "Si O2"
_cell_formula_units_Z 24
_cell_length_a 13.436112
_cell_length_b 12.182596
_cell_length_c 10.377246
_cell_angle_alpha 90.000000
_cell_angle_beta 36.682666
_cell_angle_gamma 90.000000
_cell_volume 1014.724404
_symmetry_space_group_name_H-M "P 2/C"
_symmetry_group_IT_number 13
_symmetry_cell_setting 'monoclinic'
loop_
_space_group_symop_operation_xyz
x,y,z
-x,y,1/2-z
-x,-y,-z
x,-y,1/2+z
loop_
_atom_site_type_symbol
_atom_site_label
_atom_site_fract_x
_atom_site_fract_y
_atom_site_fract_z
Si Si1 0.742861 0.565651 0.700694
Si Si2 0.692256 0.034514 0.516785
Si Si3 0.943525 0.287031 0.681733
Si Si4 0.856372 0.912913 0.123790
Si Si5 0.600546 0.740879 0.016347
Si Si6 0.388883 0.355032 0.539229
O O1 0.920856 0.613902 0.471149
O O2 0.718143 0.438485 0.758896
O O3 0.710581 0.636438 0.864809
O O4 0.564048 0.590629 0.816439
O O5 0.500000 0.018795 0.750000
O O6 0.784484 0.058993 0.556861
O O7 0.700619 0.147716 0.426337
O O8 0.742029 0.938641 0.367526
O O9 0.000000 0.220951 0.750000
O O10 0.927236 0.209640 0.574131
O O11 0.754574 0.322567 0.908240
O O12 0.000000 0.000000 0.000000
O O13 0.500000 0.721492 0.250000
O O14 0.460543 0.745327 0.049651
#
# Coordination Sequence:
#
# PCOD9237872 Si02
#       6
#     4   4   4   4   4   4
#     4   9  21  41  65  91 134 170 219 281 339 395
#     4  11  23  43  70  98 131 182 234 286 346 417
#     4  12  24  40  63  96 133 175 226 274 343 412
#     4  12  26  45  65  98 141 180 228 291 347 414
#     4   9  18  37  65  91 121 164 223 276 333 401
#     4   9  21  42  63  93 132 168 222 279 334 402
#
# _framework density 23.651741000000001
#
# number of rings (size 3 to 8) (size 9 to 14) (size 15 to 20)
#    1.000    0.667    0.000    5.500    0.000    2.000 
#    3.000    4.167    0.000    0.000    0.000    0.000 
#    0.000    0.000    0.000    0.000    0.000    0.000 
#
# Total GULP energy -133621.823446 kJ/mol
# GULP energy per Si atom -5567.575977 kJ/mol
# Density = 2.359791 g / cm^3
# Si number density = 23.651741 Si / 1000 Ang^3
#
#
#
# Elastic Constant Matrix: (Units=GPa)
#
#
# Indices 1 2 3 4 5 6 
#
# 1 171.3169 48.8797 24.4608 0.0000 -34.7408 0.0000
# 2 48.8797 84.3239 18.1666 0.0000 -5.7353 0.0000
# 3 24.4608 18.1666 70.9473 0.0000 -9.1624 0.0000
# 4 0.0000 0.0000 0.0000 35.4639 0.0000 -2.9265
# 5 -34.7408 -5.7353 -9.1624 0.0000 34.0463 0.0000
# 6 0.0000 0.0000 0.0000 -2.9265 0.0000 5.3922
#
#
#
# Elastic Compliance Matrix: (Units=1/GPa)
#
#
# Indices 1 2 3 4 5 6 
#
# 1 0.008849 -0.004391 -0.000887 0.000000 0.008051 0.000000
# 2 -0.004391 0.014785 -0.002620 0.000000 -0.002695 0.000000
# 3 -0.000887 -0.002620 0.015434 0.000000 0.002807 0.000000
# 4 0.000000 0.000000 0.000000 0.029520 0.000000 0.016021
# 5 0.008051 -0.002695 0.002807 0.000000 0.037889 0.000000
# 6 0.000000 0.000000 0.000000 0.016021 0.000000 0.194149
#
#
# Mechanical properties :
#
#
# Convention : Reuss Voigt Hill
#
# Bulk Modulus (GPa) = 42.96798 56.62246 49.79522
# Shear Modulus (GPa) = 15.42353 30.65254 23.03804
#
# Velocity S-wave (km/s) = 2.55641 3.60390 3.12437
# Velocity P-wave (km/s) = 5.18845 6.42725 5.84079
#
# Compressibility (1/GPa) = 0.02327314
#
# Stress axis : x y z
#
# Youngs Moduli (GPa) = 113.00305 67.63388 64.79135
#
# Poissons Ratio (x) = 0.29698 0.05746
# Poissons Ratio (y) = 0.49619 0.16976
# Poissons Ratio (z) = 0.10022 0.17721
#
# Static dielectric constant tensor:
#      x y z
#    x 1.978970 0.000000 0.019980 
#    y 0.000000 2.008070 0.000000 
#    z 0.019980 0.000000 2.094710 
# 
# From -- ./inp_files/34338.got.cif
#   From: 2010.05.17/outbox.cif.g08.bks.cpg/sg13_18_cif.got.tgz:34338.got - 2010.06.03 16:44:36.
