data_PCOD9237597
_publ_section_title
;
Structure prediction by ZEFSAII (Michael W. Deem and Ramdas Pophale) SiO2 
 PCOD9237597
Probable space group: P 2/C
;
_chemical_formula_sum "Si O2"
_cell_formula_units_Z 26
_cell_length_a 11.085467
_cell_length_b 11.597697
_cell_length_c 8.472211
_cell_angle_alpha 90.000000
_cell_angle_beta 89.316348
_cell_angle_gamma 90.000000
_cell_volume 1089.159788
_symmetry_space_group_name_H-M "P 2/C"
_symmetry_group_IT_number 13
_symmetry_cell_setting 'monoclinic'
loop_
_space_group_symop_operation_xyz
x,y,z
-x,y,1/2-z
-x,-y,-z
x,-y,1/2+z
loop_
_atom_site_type_symbol
_atom_site_label
_atom_site_fract_x
_atom_site_fract_y
_atom_site_fract_z
Si Si1 0.000000 0.418251 0.750000
Si Si2 0.734793 0.100149 0.854592
Si Si3 0.562156 0.246606 0.008071
Si Si4 0.311116 0.579415 0.769627
Si Si5 0.500000 0.610168 0.250000
Si Si6 0.094018 0.037101 0.367736
Si Si7 0.845036 0.574594 0.993712
Si Si8 0.500000 0.049485 0.250000
O O1 0.926165 0.501399 0.869319
O O2 0.916910 0.352888 0.624594
O O3 0.669866 0.222185 0.880721
O O4 0.841002 0.064393 0.733566
O O5 0.619444 0.023246 0.796398
O O6 0.796068 0.087129 0.028605
O O7 0.466900 0.312727 0.901252
O O8 0.608934 0.329766 0.141618
O O9 0.522985 0.130914 0.097179
O O10 0.392706 0.475559 0.703177
O O11 0.241692 0.638625 0.626146
O O12 0.224572 0.519659 0.899573
O O13 0.000000 0.103667 0.250000
O O14 0.000000 0.000000 0.500000
#
# Coordination Sequence:
#
# PCOD9237597 Si02
#       8
#     2   4   4   4   2   4   4   2
#     4   8  16  34  64  88 110 168 218 276 346 370
#     4  11  22  44  69 104 141 173 225 281 347 422
#     4  12  26  40  67  99 137 180 222 277 348 412
#     4  11  22  41  61  94 133 181 225 273 329 412
#     4  12  26  42  62  96 142 178 232 278 332 408
#     4   9  20  41  75  95 135 186 219 277 349 399
#     4   9  18  35  65  84 122 166 224 271 336 377
#     4  12  26  42  68 106 138 176 220 282 360 418
#
# _framework density 23.871613
#
# number of rings (size 3 to 8) (size 9 to 14) (size 15 to 20)
#    0.000    1.538    3.077    1.846    4.308    0.000 
#    0.000    0.000   15.231    0.000    0.000    0.000 
#    0.000    0.000    0.000    0.000    0.000    0.000 
#
# Total GULP energy -144837.311386 kJ/mol
# GULP energy per Si atom -5570.665823 kJ/mol
# Density = 2.381728 g / cm^3
# Si number density = 23.871613 Si / 1000 Ang^3
#
#
#
# Elastic Constant Matrix: (Units=GPa)
#
#
# Indices 1 2 3 4 5 6 
#
# 1 103.2547 19.3382 59.6705 0.0000 12.3214 0.0000
# 2 19.3382 54.5689 23.5516 0.0000 11.5431 0.0000
# 3 59.6705 23.5516 152.7220 0.0000 43.0261 0.0000
# 4 0.0000 0.0000 0.0000 21.1424 0.0000 0.0240
# 5 12.3214 11.5431 43.0261 0.0000 82.9907 0.0000
# 6 0.0000 0.0000 0.0000 0.0240 0.0000 2.8107
#
#
#
# Elastic Compliance Matrix: (Units=1/GPa)
#
#
# Indices 1 2 3 4 5 6 
#
# 1 0.012903 -0.002664 -0.004913 0.000000 0.001002 0.000000
# 2 -0.002664 0.020314 -0.001648 0.000000 -0.001576 0.000000
# 3 -0.004913 -0.001648 0.009897 0.000000 -0.004172 0.000000
# 4 0.000000 0.000000 0.000000 0.047299 0.000000 -0.000404
# 5 0.001002 -0.001576 -0.004172 0.000000 0.014283 0.000000
# 6 0.000000 0.000000 0.000000 -0.000404 0.000000 0.355793
#
#
# Mechanical properties :
#
#
# Convention : Reuss Voigt Hill
#
# Bulk Modulus (GPa) = 40.54419 57.29624 48.92022
# Shear Modulus (GPa) = 10.26355 35.25443 22.75899
#
# Velocity S-wave (km/s) = 2.07577 3.84713 3.09105
# Velocity P-wave (km/s) = 4.77140 6.61724 5.76862
#
# Compressibility (1/GPa) = 0.02466444
#
# Stress axis : x y z
#
# Youngs Moduli (GPa) = 77.49912 49.22690 101.04068
#
# Poissons Ratio (x) = 0.13115 0.49641
# Poissons Ratio (y) = 0.20648 0.16650
# Poissons Ratio (z) = 0.38075 0.08112
#
# Static dielectric constant tensor:
#      x y z
#    x 2.078960 0.000000 0.057030 
#    y 0.000000 1.910850 0.000000 
#    z 0.057030 0.000000 1.939420 
# 
# From -- ./inp_files/15930.got.cif
#   From: 2010.05.17/outbox.cif.g08.bks.cpg/sg13_8_cif.got.tgz:15930.got - 2010.06.03 16:44:36.
