data_PCOD9237434
_publ_section_title
;
Structure prediction by ZEFSAII (Michael W. Deem and Ramdas Pophale) SiO2 
 PCOD9237434
Probable space group: P 2/C
;
_chemical_formula_sum "Si O2"
_cell_formula_units_Z 18
_cell_length_a 20.676163
_cell_length_b 8.418323
_cell_length_c 13.493749
_cell_angle_alpha 90.000000
_cell_angle_beta 22.776864
_cell_angle_gamma 90.000000
_cell_volume 909.284767
_symmetry_space_group_name_H-M "P 2/C"
_symmetry_group_IT_number 13
_symmetry_cell_setting 'monoclinic'
loop_
_space_group_symop_operation_xyz
x,y,z
-x,y,1/2-z
-x,-y,-z
x,-y,1/2+z
loop_
_atom_site_type_symbol
_atom_site_label
_atom_site_fract_x
_atom_site_fract_y
_atom_site_fract_z
Si Si1 0.602017 0.059680 0.502362
Si Si2 0.314508 0.739777 0.356466
Si Si3 0.500000 0.489084 0.750000
Si Si4 0.083306 0.166610 0.351668
Si Si5 0.252555 0.705887 0.225349
O O1 0.500000 0.048008 0.750000
O O2 0.466718 0.137675 0.621692
O O3 0.758709 0.178914 0.297849
O O4 0.677061 0.886920 0.376845
O O5 0.393862 0.615092 0.321810
O O6 0.167063 0.829683 0.624150
O O7 0.252596 0.664768 0.341783
O O8 0.625886 0.596359 0.509016
O O9 0.932448 0.290550 0.560430
O O10 0.000000 0.000000 0.500000
#
# Coordination Sequence:
#
# PCOD9237434 Si02
#       5
#     4   4   2   4   4
#     4   9  17  38  62  84 115 148 193 253 301 339
#     4  11  21  40  60  85 119 159 199 245 298 357
#     4  12  24  38  58  84 132 164 194 238 296 362
#     4   9  19  37  63  85 113 146 195 256 300 333
#     4  11  22  36  63  88 114 159 205 241 295 360
#
# _framework density 19.795780000000001
#
# number of rings (size 3 to 8) (size 9 to 14) (size 15 to 20)
#    0.000    1.778    4.444    2.000    0.000    0.889 
#    0.000    0.000    0.000    0.000    0.000    0.000 
#    0.000    0.000    0.000    0.000    0.000    0.000 
#
# Total GULP energy -100314.043138 kJ/mol
# GULP energy per Si atom -5573.002397 kJ/mol
# Density = 1.975072 g / cm^3
# Si number density = 19.795780 Si / 1000 Ang^3
#
#
#
# Elastic Constant Matrix: (Units=GPa)
#
#
# Indices 1 2 3 4 5 6 
#
# 1 82.3907 37.5295 41.0604 0.0000 11.3577 0.0000
# 2 37.5295 67.2584 36.7132 0.0000 1.3235 0.0000
# 3 41.0604 36.7132 128.9799 0.0000 1.0477 0.0000
# 4 0.0000 0.0000 0.0000 22.3178 0.0000 -9.7574
# 5 11.3577 1.3235 1.0477 0.0000 16.6424 0.0000
# 6 0.0000 0.0000 0.0000 -9.7574 0.0000 6.9837
#
#
#
# Elastic Compliance Matrix: (Units=1/GPa)
#
#
# Indices 1 2 3 4 5 6 
#
# 1 0.019664 -0.008719 -0.003676 0.000000 -0.012495 0.000000
# 2 -0.008719 0.021489 -0.003377 0.000000 0.004454 0.000000
# 3 -0.003676 -0.003377 0.009867 0.000000 0.002156 0.000000
# 4 0.000000 0.000000 0.000000 0.115140 0.000000 0.160870
# 5 -0.012495 0.004454 0.002156 0.000000 0.068124 0.000000
# 6 0.000000 0.000000 0.000000 0.160870 0.000000 0.367952
#
#
# Mechanical properties :
#
#
# Convention : Reuss Voigt Hill
#
# Bulk Modulus (GPa) = 51.35027 56.58167 53.96597
# Shear Modulus (GPa) = 7.80916 20.07720 13.94318
#
# Velocity S-wave (km/s) = 1.98832 3.18813 2.65684
# Velocity P-wave (km/s) = 5.59174 6.49592 6.06072
#
# Compressibility (1/GPa) = 0.01947409
#
# Stress axis : x y z
#
# Youngs Moduli (GPa) = 50.85518 46.53512 101.34508
#
# Poissons Ratio (x) = 0.40576 0.37259
# Poissons Ratio (y) = 0.44343 0.34225
# Poissons Ratio (z) = 0.18697 0.15715
#
# Static dielectric constant tensor:
#      x y z
#    x 1.700070 0.000000 -0.021000 
#    y 0.000000 1.708710 0.000000 
#    z -0.021000 0.000000 1.717720 
# 
# From -- ./inp_files/49145.got.cif
#   From: 2010.05.17/outbox.cif.g08.bks.cpg/sg13_25_cif.got.tgz:49145.got - 2010.06.03 16:44:36.
