data_PCOD9237941
_publ_section_title
;
Structure prediction by ZEFSAII (Michael W. Deem and Ramdas Pophale) SiO2 
 PCOD9237941
Probable space group: P 2/C
;
_chemical_formula_sum "Si O2"
_cell_formula_units_Z 28
_cell_length_a 14.495781
_cell_length_b 8.236514
_cell_length_c 20.032493
_cell_angle_alpha 90.000000
_cell_angle_beta 28.808748
_cell_angle_gamma 90.000000
_cell_volume 1152.565693
_symmetry_space_group_name_H-M "P 2/C"
_symmetry_group_IT_number 13
_symmetry_cell_setting 'monoclinic'
loop_
_space_group_symop_operation_xyz
x,y,z
-x,y,1/2-z
-x,-y,-z
x,-y,1/2+z
loop_
_atom_site_type_symbol
_atom_site_label
_atom_site_fract_x
_atom_site_fract_y
_atom_site_fract_z
Si Si1 0.278336 0.849170 0.371428
Si Si2 0.866945 0.282788 0.897566
Si Si3 0.657854 0.400161 0.483919
Si Si4 0.650691 0.790842 0.715197
Si Si5 0.720314 0.410421 0.291951
Si Si6 0.832543 0.925018 0.914151
Si Si7 0.964513 0.656506 0.078910
O O1 0.500000 0.805959 0.250000
O O2 0.141971 0.880247 0.523019
O O3 0.183203 0.725377 0.380539
O O4 0.291685 0.022243 0.326012
O O5 0.748866 0.452610 0.970707
O O6 0.000000 0.298117 0.750000
O O7 0.014685 0.250367 0.864151
O O8 0.755748 0.110699 0.963136
O O9 0.750468 0.392331 0.351283
O O10 0.437941 0.447762 0.614325
O O11 0.685541 0.218379 0.490837
O O12 0.500000 0.768612 0.750000
O O13 0.633357 0.734946 0.803179
O O14 0.822340 0.677354 0.581729
O O15 0.911496 0.478829 0.138020
O O16 0.000000 0.918464 0.750000
#
# Coordination Sequence:
#
# PCOD9237941 Si02
#       7
#     4   4   4   4   4   4   4
#     4  11  26  47  73 113 157 199 261 325 387 467
#     4  11  23  45  74 105 149 197 257 316 384 453
#     4  11  25  48  71 107 156 193 265 315 386 471
#     4  11  25  45  73 106 151 198 257 319 389 461
#     4  11  26  44  69 110 144 203 254 322 386 466
#     4  11  26  45  77 108 147 208 252 319 392 461
#     4  12  24  45  73 107 150 197 253 320 385 457
#
# _framework density 24.293624999999999
#
# number of rings (size 3 to 8) (size 9 to 14) (size 15 to 20)
#    0.000    0.857    2.857    3.000    4.000    4.000 
#    0.000    1.429    0.000    0.000    0.000    0.000 
#    0.000    0.000    0.000    0.000    0.000    0.000 
#
# Total GULP energy -156210.457830 kJ/mol
# GULP energy per Si atom -5578.944923 kJ/mol
# Density = 2.423833 g / cm^3
# Si number density = 24.293625 Si / 1000 Ang^3
#
#
#
# Elastic Constant Matrix: (Units=GPa)
#
#
# Indices 1 2 3 4 5 6 
#
# 1 117.3971 58.8178 28.9405 0.0000 25.0294 0.0000
# 2 58.8178 111.5693 10.9125 0.0000 -7.9740 0.0000
# 3 28.9405 10.9125 50.0508 0.0000 12.4249 0.0000
# 4 0.0000 0.0000 0.0000 -65.2683 0.0000 -71.6443
# 5 25.0294 -7.9740 12.4249 0.0000 29.2855 0.0000
# 6 0.0000 0.0000 0.0000 -71.6443 0.0000 -23.9042
#
#
#
# Elastic Compliance Matrix: (Units=1/GPa)
#
#
# Indices 1 2 3 4 5 6 
#
# 1 0.018377 -0.010480 -0.004173 0.000000 -0.016789 0.000000
# 2 -0.010480 0.015515 -0.000665 0.000000 0.013464 0.000000
# 3 -0.004173 -0.000665 0.024252 0.000000 -0.006904 0.000000
# 4 0.000000 0.000000 0.000000 0.006691 0.000000 -0.020053
# 5 -0.016789 0.013464 -0.006904 0.000000 0.055091 0.000000
# 6 0.000000 0.000000 0.000000 -0.020053 0.000000 0.018268
#
#
# Mechanical properties :
#
#
# Convention : Reuss Voigt Hill
#
# Bulk Modulus (GPa) = 36.35447 52.92874 44.64161
# Shear Modulus (GPa) = 28.08997 0.04570 14.06784
#
# Velocity S-wave (km/s) = 3.40408 0.13731 2.40901
# Velocity P-wave (km/s) = 5.51792 4.67542 5.11405
#
# Compressibility (1/GPa) = 0.02750693
#
# Stress axis : x y z
#
# Youngs Moduli (GPa) = 54.41612 64.45303 41.23431
#
# Poissons Ratio (x) = 0.67545 0.17208
# Poissons Ratio (y) = 0.57027 0.02744
# Poissons Ratio (z) = 0.22709 0.04288
#
# Static dielectric constant tensor:
#      x y z
#    x 2.048340 0.000000 0.035920 
#    y 0.000000 1.940360 0.000000 
#    z 0.035920 0.000000 2.083850 
# 
# From -- ./inp_files/79948.got.cif
#   From: 2010.05.17/outbox.cif.g08.bks.cpg/sg13_40_cif.got.tgz:79948.got - 2010.06.03 16:44:36.
