data_PCOD9237382
_publ_section_title
;
Structure prediction by ZEFSAII (Michael W. Deem and Ramdas Pophale) SiO2 
 PCOD9237382
Probable space group: P 2/C
;
_chemical_formula_sum "Si O2"
_cell_formula_units_Z 24
_cell_length_a 12.225438
_cell_length_b 17.261010
_cell_length_c 8.775224
_cell_angle_alpha 90.000000
_cell_angle_beta 140.667593
_cell_angle_gamma 90.000000
_cell_volume 1173.690876
_symmetry_space_group_name_H-M "P 2/C"
_symmetry_group_IT_number 13
_symmetry_cell_setting 'monoclinic'
loop_
_space_group_symop_operation_xyz
x,y,z
-x,y,1/2-z
-x,-y,-z
x,-y,1/2+z
loop_
_atom_site_type_symbol
_atom_site_label
_atom_site_fract_x
_atom_site_fract_y
_atom_site_fract_z
Si Si1 0.716599 0.471421 0.970090
Si Si2 0.302647 0.609024 0.763188
Si Si3 0.307640 0.091284 0.986821
Si Si4 0.889977 0.401318 0.870663
Si Si5 0.794176 0.267046 0.563137
Si Si6 0.122963 0.965771 0.002472
O O1 0.632388 0.538410 0.773297
O O2 0.828403 0.421406 0.972748
O O3 0.627651 0.413442 0.995605
O O4 0.832231 0.527778 0.201050
O O5 0.317543 0.689946 0.689658
O O6 0.093777 0.607568 0.563185
O O7 0.500000 0.076347 0.250000
O O8 0.198515 0.034538 0.979912
O O9 0.265362 0.180751 0.971312
O O10 0.266891 0.074898 0.763795
O O11 0.790930 0.325813 0.702218
O O12 0.000000 0.263043 0.750000
O O13 0.000000 0.919034 0.750000
O O14 0.000000 0.000000 0.000000
#
# Coordination Sequence:
#
# PCOD9237382 Si02
#       6
#     4   4   4   4   4   4
#     4   9  13  20  35  60  92 126 170 225 276 313
#     4   9  14  21  37  61  93 131 171 221 274 317
#     4  11  21  37  59  85 114 145 179 221 269 327
#     4   9  14  21  36  60  92 128 169 219 271 316
#     4   9  18  30  44  68 103 139 174 215 267 321
#     4   9  19  37  63  88 110 139 176 219 266 322
#
# _framework density 20.448315999999998
#
# number of rings (size 3 to 8) (size 9 to 14) (size 15 to 20)
#    0.000    2.667    0.000    7.000    0.000    0.000 
#    0.000    6.667    0.000    0.000    0.000   18.667 
#    0.000    0.000    0.000    0.000    0.000    0.000 
#
# Total GULP energy -133674.190073 kJ/mol
# GULP energy per Si atom -5569.757920 kJ/mol
# Density = 2.040177 g / cm^3
# Si number density = 20.448316 Si / 1000 Ang^3
#
#
#
# Elastic Constant Matrix: (Units=GPa)
#
#
# Indices 1 2 3 4 5 6 
#
# 1 76.3726 35.7088 45.0793 0.0000 -26.5399 0.0000
# 2 35.7088 124.7770 50.2135 0.0000 -20.2491 0.0000
# 3 45.0793 50.2135 159.3551 0.0000 -27.1859 0.0000
# 4 0.0000 0.0000 0.0000 26.0882 0.0000 3.1961
# 5 -26.5399 -20.2491 -27.1859 0.0000 40.2416 0.0000
# 6 0.0000 0.0000 0.0000 3.1961 0.0000 1.2207
#
#
#
# Elastic Compliance Matrix: (Units=1/GPa)
#
#
# Indices 1 2 3 4 5 6 
#
# 1 0.019452 -0.002835 -0.003011 0.000000 0.009368 0.000000
# 2 -0.002835 0.009926 -0.002026 0.000000 0.001756 0.000000
# 3 -0.003011 -0.002026 0.008198 0.000000 0.002533 0.000000
# 4 0.000000 0.000000 0.000000 0.056435 0.000000 -0.147766
# 5 0.009368 0.001756 0.002533 0.000000 0.033623 0.000000
# 6 0.000000 0.000000 0.000000 -0.147766 0.000000 1.206131
#
#
# Mechanical properties :
#
#
# Convention : Reuss Voigt Hill
#
# Bulk Modulus (GPa) = 45.80586 69.16755 57.48670
# Shear Modulus (GPa) = 3.68518 28.81030 16.24774
#
# Velocity S-wave (km/s) = 1.34391 3.75765 2.82188
# Velocity P-wave (km/s) = 4.98574 7.26123 6.22829
#
# Compressibility (1/GPa) = 0.02183127
#
# Stress axis : x y z
#
# Youngs Moduli (GPa) = 51.40863 100.74614 121.98609
#
# Poissons Ratio (x) = 0.28558 0.36733
# Poissons Ratio (y) = 0.14573 0.24717
# Poissons Ratio (z) = 0.15481 0.20413
#
# Static dielectric constant tensor:
#      x y z
#    x 1.772860 0.000000 0.066840 
#    y 0.000000 1.722450 0.000000 
#    z 0.066840 0.000000 1.928130 
# 
# From -- ./inp_files/19753.got.cif
#   From: 2010.05.17/outbox.cif.g08.bks.cpg/sg13_10_cif.got.tgz:19753.got - 2010.06.03 16:44:36.
