data_PCOD9237601
_publ_section_title
;
Structure prediction by ZEFSAII (Michael W. Deem and Ramdas Pophale) SiO2 
 PCOD9237601
Probable space group: P 2/C
;
_chemical_formula_sum "Si O2"
_cell_formula_units_Z 22
_cell_length_a 22.417005
_cell_length_b 9.936965
_cell_length_c 14.573670
_cell_angle_alpha 90.000000
_cell_angle_beta 160.275190
_cell_angle_gamma 90.000000
_cell_volume 1095.664997
_symmetry_space_group_name_H-M "P 2/C"
_symmetry_group_IT_number 13
_symmetry_cell_setting 'monoclinic'
loop_
_space_group_symop_operation_xyz
x,y,z
-x,y,1/2-z
-x,-y,-z
x,-y,1/2+z
loop_
_atom_site_type_symbol
_atom_site_label
_atom_site_fract_x
_atom_site_fract_y
_atom_site_fract_z
Si Si1 0.493091 0.409327 0.397920
Si Si2 0.678070 0.138702 0.721090
Si Si3 0.775991 0.392523 0.241851
Si Si4 0.450834 0.120269 0.570804
Si Si5 0.871350 0.490496 0.185198
Si Si6 0.000000 0.270503 0.250000
O O1 0.500000 0.500000 0.500000
O O2 0.557319 0.259038 0.507934
O O3 0.633955 0.487519 0.540008
O O4 0.296796 0.415969 0.073638
O O5 0.616973 0.127074 0.739973
O O6 0.649786 0.006266 0.619746
O O7 0.881787 0.182001 0.012553
O O8 0.856177 0.405112 0.256700
O O9 0.943208 0.429291 0.548177
O O10 0.670673 0.255230 0.109902
O O11 0.500000 0.103718 0.750000
O O12 0.865777 0.373836 0.102099
#
# Coordination Sequence:
#
# PCOD9237601 Si02
#       6
#     4   4   4   4   4   2
#     4  12  20  40  67  92 128 167 214 275 325 384
#     4  11  25  42  69  95 127 181 218 262 342 390
#     4  11  22  41  65  98 127 170 220 271 331 388
#     4  11  24  47  65  93 135 175 218 271 327 399
#     4  11  23  36  69  99 127 168 222 274 330 389
#     4  12  20  44  62  94 132 166 212 280 320 398
#
# _framework density 20.079129999999999
#
# number of rings (size 3 to 8) (size 9 to 14) (size 15 to 20)
#    0.000    0.727    5.455    2.727    0.000    1.455 
#    6.545    1.818    0.000    0.000    0.000    0.000 
#    0.000    0.000    0.000    0.000    0.000    0.000 
#
# Total GULP energy -122760.357151 kJ/mol
# GULP energy per Si atom -5580.016234 kJ/mol
# Density = 2.003343 g / cm^3
# Si number density = 20.079130 Si / 1000 Ang^3
#
#
#
# Elastic Constant Matrix: (Units=GPa)
#
#
# Indices 1 2 3 4 5 6 
#
# 1 64.1816 43.3300 14.4209 0.0000 -7.0203 0.0000
# 2 43.3300 65.6625 15.4185 0.0000 -13.2614 0.0000
# 3 14.4209 15.4185 122.5989 0.0000 -0.6080 0.0000
# 4 0.0000 0.0000 0.0000 38.0874 0.0000 -1.8359
# 5 -7.0203 -13.2614 -0.6080 0.0000 23.9447 0.0000
# 6 0.0000 0.0000 0.0000 -1.8359 0.0000 15.1998
#
#
#
# Elastic Compliance Matrix: (Units=1/GPa)
#
#
# Indices 1 2 3 4 5 6 
#
# 1 0.028321 -0.018904 -0.000965 0.000000 -0.002191 0.000000
# 2 -0.018904 0.030330 -0.001535 0.000000 0.011216 0.000000
# 3 -0.000965 -0.001535 0.008459 0.000000 -0.000918 0.000000
# 4 0.000000 0.000000 0.000000 0.026409 0.000000 0.003190
# 5 -0.002191 0.011216 -0.000918 0.000000 0.047309 0.000000
# 6 0.000000 0.000000 0.000000 0.003190 0.000000 0.066175
#
#
# Mechanical properties :
#
#
# Convention : Reuss Voigt Hill
#
# Bulk Modulus (GPa) = 41.15093 44.30910 42.73002
# Shear Modulus (GPa) = 19.38650 27.39797 23.39224
#
# Velocity S-wave (km/s) = 3.11063 3.69792 3.41692
# Velocity P-wave (km/s) = 5.78275 6.35201 6.07405
#
# Compressibility (1/GPa) = 0.02430078
#
# Stress axis : x y z
#
# Youngs Moduli (GPa) = 35.31010 32.97069 118.22214
#
# Poissons Ratio (x) = 0.62329 0.11404
# Poissons Ratio (y) = 0.66752 0.18149
# Poissons Ratio (z) = 0.03406 0.05061
#
# Static dielectric constant tensor:
#      x y z
#    x 1.832000 0.000000 -0.001190 
#    y 0.000000 1.672730 0.000000 
#    z -0.001190 0.000000 1.765400 
# 
# From -- ./inp_files/58744.got.cif
#   From: 2010.05.17/outbox.cif.g08.bks.cpg/sg13_30_cif.got.tgz:58744.got - 2010.06.03 16:44:36.
