data_PCOD9237853
_publ_section_title
;
Structure prediction by ZEFSAII (Michael W. Deem and Ramdas Pophale) SiO2 
 PCOD9237853
Probable space group: P 2/C
;
_chemical_formula_sum "Si O2"
_cell_formula_units_Z 30
_cell_length_a 11.680004
_cell_length_b 6.805271
_cell_length_c 20.759393
_cell_angle_alpha 90.000000
_cell_angle_beta 114.301248
_cell_angle_gamma 90.000000
_cell_volume 1503.866831
_symmetry_space_group_name_H-M "P 2/C"
_symmetry_group_IT_number 13
_symmetry_cell_setting 'monoclinic'
loop_
_space_group_symop_operation_xyz
x,y,z
-x,y,1/2-z
-x,-y,-z
x,-y,1/2+z
loop_
_atom_site_type_symbol
_atom_site_label
_atom_site_fract_x
_atom_site_fract_y
_atom_site_fract_z
Si Si1 0.416031 0.747409 0.293138
Si Si2 0.818539 0.119609 0.502715
Si Si3 0.194413 0.034865 0.232680
Si Si4 0.146240 0.467673 0.896726
Si Si5 0.976249 0.787081 0.919099
Si Si6 0.531302 0.028091 0.430765
Si Si7 0.000000 0.736312 0.250000
Si Si8 0.661992 0.646209 0.650562
O O1 0.500000 0.699459 0.250000
O O2 0.312610 0.899621 0.241113
O O3 0.362073 0.546890 0.311761
O O4 0.478745 0.862858 0.368761
O O5 0.806551 0.273079 0.557522
O O6 0.884953 0.229867 0.458803
O O7 0.680790 0.039059 0.456198
O O8 0.916439 0.949695 0.543684
O O9 0.105301 0.880857 0.247505
O O10 0.113126 0.135106 0.158375
O O11 0.246894 0.204026 0.290950
O O12 0.062657 0.399756 0.817514
O O13 0.264916 0.586814 0.897409
O O14 0.053281 0.593718 0.919275
O O15 0.463839 0.231899 0.394184
O O16 0.500000 0.000000 0.500000
#
# Coordination Sequence:
#
# PCOD9237853 Si02
#       8
#     4   4   4   4   4   4   2   4
#     4  11  25  45  68  98 133 174 225 279 333 399
#     4  11  25  43  63  95 135 176 219 266 334 395
#     4  11  23  43  66  96 128 166 214 270 333 388
#     4  12  23  41  65  98 128 170 220 273 327 393
#     4  11  24  42  66  95 134 175 213 275 333 399
#     4  11  25  45  69  96 135 184 226 277 331 402
#     4  12  22  40  68  96 128 164 210 278 326 390
#     4  11  25  42  69  97 129 169 223 276 333 388
#
# _framework density 19.948575000000002
#
# number of rings (size 3 to 8) (size 9 to 14) (size 15 to 20)
#    0.000    0.800    2.667    4.400    1.867    6.400 
#    0.000    0.000    0.000    0.000    0.000    0.000 
#    0.000    0.000    0.000    0.000    0.000    0.000 
#
# Total GULP energy -167661.833006 kJ/mol
# GULP energy per Si atom -5588.727767 kJ/mol
# Density = 1.990317 g / cm^3
# Si number density = 19.948575 Si / 1000 Ang^3
#
#
#
# Elastic Constant Matrix: (Units=GPa)
#
#
# Indices 1 2 3 4 5 6 
#
# 1 161.0663 67.2202 26.6567 0.0000 1.6103 0.0000
# 2 67.2202 110.9237 10.8691 0.0000 0.1356 0.0000
# 3 26.6567 10.8691 54.8298 0.0000 7.4155 0.0000
# 4 0.0000 0.0000 0.0000 29.4433 0.0000 -7.9131
# 5 1.6103 0.1356 7.4155 0.0000 34.8452 0.0000
# 6 0.0000 0.0000 0.0000 -7.9131 0.0000 31.7186
#
#
#
# Elastic Compliance Matrix: (Units=1/GPa)
#
#
# Indices 1 2 3 4 5 6 
#
# 1 0.008866 -0.005044 -0.003354 0.000000 0.000324 0.000000
# 2 -0.005044 0.012068 0.000036 0.000000 0.000179 0.000000
# 3 -0.003354 0.000036 0.020429 0.000000 -0.004193 0.000000
# 4 0.000000 0.000000 0.000000 0.036404 0.000000 0.009082
# 5 0.000324 0.000179 -0.004193 0.000000 0.029575 0.000000
# 6 0.000000 0.000000 0.000000 0.009082 0.000000 0.033793
#
#
# Mechanical properties :
#
#
# Convention : Reuss Voigt Hill
#
# Bulk Modulus (GPa) = 40.58790 59.59019 50.08904
# Shear Modulus (GPa) = 30.10721 34.00633 32.05677
#
# Velocity S-wave (km/s) = 3.88911 4.13328 4.01305
# Velocity P-wave (km/s) = 6.36846 7.26054 6.82908
#
# Compressibility (1/GPa) = 0.02463789
#
# Stress axis : x y z
#
# Youngs Moduli (GPa) = 112.79359 82.86103 48.95039
#
# Poissons Ratio (x) = 0.41799 0.16418
# Poissons Ratio (y) = 0.56898 -0.00176
# Poissons Ratio (z) = 0.37832 -0.00298
#
# Static dielectric constant tensor:
#      x y z
#    x 1.566420 0.000000 -0.084020 
#    y 0.000000 1.404590 0.000000 
#    z -0.084020 0.000000 1.705200 
# 
# From -- ./inp_files/77566.got.cif
#   From: 2010.05.17/outbox.cif.g08.bks.cpg/sg13_39_cif.got.tgz:77566.got - 2010.06.03 16:44:36.
