data_PCOD9237070
_publ_section_title
;
Structure prediction by ZEFSAII (Michael W. Deem and Ramdas Pophale) SiO2 
 PCOD9237070
Probable space group: P 2/C
;
_chemical_formula_sum "Si O2"
_cell_formula_units_Z 18
_cell_length_a 12.070990
_cell_length_b 9.913266
_cell_length_c 8.228910
_cell_angle_alpha 90.000000
_cell_angle_beta 53.241717
_cell_angle_gamma 90.000000
_cell_volume 788.905858
_symmetry_space_group_name_H-M "P 2/C"
_symmetry_group_IT_number 13
_symmetry_cell_setting 'monoclinic'
loop_
_space_group_symop_operation_xyz
x,y,z
-x,y,1/2-z
-x,-y,-z
x,-y,1/2+z
loop_
_atom_site_type_symbol
_atom_site_label
_atom_site_fract_x
_atom_site_fract_y
_atom_site_fract_z
Si Si1 0.231830 0.668539 0.666046
Si Si2 0.849129 0.950676 0.901114
Si Si3 0.840920 0.386004 0.901721
Si Si4 0.710282 0.845358 0.325321
Si Si5 0.500000 0.761111 0.250000
O O1 0.163821 0.814118 0.692663
O O2 0.159829 0.543458 0.640887
O O3 0.381996 0.678814 0.448972
O O4 0.222426 0.639768 0.865211
O O5 0.000000 0.012413 0.750000
O O6 0.726058 0.052685 0.961262
O O7 0.827857 0.901225 0.102225
O O8 0.748901 0.302623 0.854225
O O9 0.000000 0.339165 0.750000
O O10 0.576518 0.841682 0.327983
#
# Coordination Sequence:
#
# PCOD9237070 Si02
#       5
#     4   4   4   4   2
#     4  11  24  41  67  94 135 170 209 266 314 389
#     4  11  21  40  65  97 128 168 215 269 326 373
#     4  12  24  43  68 100 127 165 214 271 329 373
#     4  11  24  40  65  92 131 170 214 266 314 385
#     4  10  26  46  62  96 130 176 220 250 320 384
#
# _framework density 22.816410000000001
#
# number of rings (size 3 to 8) (size 9 to 14) (size 15 to 20)
#    0.000    0.889    0.000    8.000    0.000    8.000 
#    0.000    0.000    0.000    0.000    0.000    0.000 
#    0.000    0.000    0.000    0.000    0.000    0.000 
#
# Total GULP energy -100632.914457 kJ/mol
# GULP energy per Si atom -5590.717470 kJ/mol
# Density = 2.276448 g / cm^3
# Si number density = 22.816410 Si / 1000 Ang^3
#
#
#
# Elastic Constant Matrix: (Units=GPa)
#
#
# Indices 1 2 3 4 5 6 
#
# 1 132.4314 44.2179 37.5570 0.0000 -2.9845 0.0000
# 2 44.2179 115.4113 -4.3866 0.0000 -2.6745 0.0000
# 3 37.5570 -4.3866 115.7962 0.0000 0.7720 0.0000
# 4 0.0000 0.0000 0.0000 21.7764 0.0000 16.4273
# 5 -2.9845 -2.6745 0.7720 0.0000 26.9469 0.0000
# 6 0.0000 0.0000 0.0000 16.4273 0.0000 9.8313
#
#
#
# Elastic Compliance Matrix: (Units=1/GPa)
#
#
# Indices 1 2 3 4 5 6 
#
# 1 0.009804 -0.003864 -0.003332 0.000000 0.000798 0.000000
# 2 -0.003864 0.010220 0.001637 0.000000 0.000539 0.000000
# 3 -0.003332 0.001637 0.009782 0.000000 -0.000487 0.000000
# 4 0.000000 0.000000 0.000000 -0.176290 0.000000 0.294568
# 5 0.000798 0.000539 -0.000487 0.000000 0.037266 0.000000
# 6 0.000000 0.000000 0.000000 0.294568 0.000000 -0.390485
#
#
# Mechanical properties :
#
#
# Convention : Reuss Voigt Hill
#
# Bulk Modulus (GPa) = 53.51122 57.60173 55.55647
# Shear Modulus (GPa) = -10.36580 30.79428 10.21424
#
# Velocity S-wave (km/s) = -2.13378 3.67775 2.11812
# Velocity P-wave (km/s) = 4.17531 6.58293 5.51218
#
# Compressibility (1/GPa) = 0.01868767
#
# Stress axis : x y z
#
# Youngs Moduli (GPa) = 101.99719 97.84756 102.23198
#
# Poissons Ratio (x) = 0.37813 0.34059
# Poissons Ratio (y) = 0.39416 -0.16735
# Poissons Ratio (z) = 0.33981 -0.16017
#
# Static dielectric constant tensor:
#      x y z
#    x 1.891440 0.000000 0.034640 
#    y 0.000000 1.865570 0.000000 
#    z 0.034640 0.000000 1.853130 
# 
# From -- ./inp_files/14759.got.cif
#   From: 2010.05.17/outbox.cif.g08.bks.cpg/sg13_8_cif.got.tgz:14759.got - 2010.06.03 16:44:36.
