data_PCOD9237497
_publ_section_title
;
Structure prediction by ZEFSAII (Michael W. Deem and Ramdas Pophale) SiO2 
 PCOD9237497
Probable space group: P 2/C
;
_chemical_formula_sum "Si O2"
_cell_formula_units_Z 28
_cell_length_a 12.873848
_cell_length_b 6.739952
_cell_length_c 15.623678
_cell_angle_alpha 90.000000
_cell_angle_beta 116.035623
_cell_angle_gamma 90.000000
_cell_volume 1218.082902
_symmetry_space_group_name_H-M "P 2/C"
_symmetry_group_IT_number 13
_symmetry_cell_setting 'monoclinic'
loop_
_space_group_symop_operation_xyz
x,y,z
-x,y,1/2-z
-x,-y,-z
x,-y,1/2+z
loop_
_atom_site_type_symbol
_atom_site_label
_atom_site_fract_x
_atom_site_fract_y
_atom_site_fract_z
Si Si1 0.500000 0.096127 0.250000
Si Si2 0.767769 0.763068 0.145901
Si Si3 0.732231 0.263070 0.354099
Si Si4 0.329496 0.559453 0.014069
Si Si5 0.000000 0.596125 0.250000
Si Si6 0.479315 0.864209 0.408532
Si Si7 0.829496 0.940548 0.514069
Si Si8 0.020685 0.364209 0.091467
O O1 0.532449 0.966810 0.344103
O O2 0.613053 0.218255 0.263537
O O3 0.886947 0.718253 0.236464
O O4 0.658149 0.848718 0.156054
O O5 0.807983 0.912926 0.085777
O O6 0.712772 0.567341 0.082056
O O7 0.692017 0.412929 0.414223
O O8 0.841852 0.348718 0.343946
O O9 0.787228 0.067342 0.417944
O O10 0.457124 0.653919 0.055725
O O11 0.250000 0.750001 1.000000
O O12 0.967551 0.466808 0.155897
O O13 0.500000 0.000000 0.500000
O O14 0.957124 0.846081 0.555724
O O15 0.000000 0.500000 0.000000
#
# Coordination Sequence:
#
# PCOD9237497 Si02
#       8
#     2   4   4   4   2   4   4   4
#     4  12  28  44  66 114 142 178 246 286 350 438
#     4  11  25  44  71 105 143 186 234 299 359 414
#     4  11  25  44  71 105 143 186 234 299 359 414
#     4  11  21  46  76 101 137 185 243 289 347 434
#     4  12  28  44  66 114 142 178 246 286 350 438
#     4  12  25  46  76 100 141 193 236 290 362 419
#     4  11  21  46  76 101 137 185 243 289 347 434
#     4  12  25  46  76 100 141 193 236 290 362 419
#
# _framework density 22.986941000000002
#
# number of rings (size 3 to 8) (size 9 to 14) (size 15 to 20)
#    0.000    0.571    5.714    2.571    0.000    8.000 
#    0.000    0.000    0.000    0.000    0.000    0.000 
#    0.000    0.000    0.000    0.000    0.000    0.000 
#
# Total GULP energy -156567.540409 kJ/mol
# GULP energy per Si atom -5591.697872 kJ/mol
# Density = 2.293462 g / cm^3
# Si number density = 22.986941 Si / 1000 Ang^3
#
#
#
# Elastic Constant Matrix: (Units=GPa)
#
#
# Indices 1 2 3 4 5 6 
#
# 1 147.5266 23.0064 19.0421 0.0000 40.1498 0.0000
# 2 23.0064 89.5632 19.7098 0.0000 10.0754 0.0000
# 3 19.0421 19.7098 48.1718 0.0000 7.9817 0.0000
# 4 0.0000 0.0000 0.0000 28.3055 0.0000 15.5319
# 5 40.1498 10.0754 7.9817 0.0000 47.0248 0.0000
# 6 0.0000 0.0000 0.0000 15.5319 0.0000 46.7395
#
#
#
# Elastic Compliance Matrix: (Units=1/GPa)
#
#
# Indices 1 2 3 4 5 6 
#
# 1 0.009184 -0.001107 -0.001973 0.000000 -0.007269 0.000000
# 2 -0.001107 0.012558 -0.004539 0.000000 -0.000975 0.000000
# 3 -0.001973 -0.004539 0.023620 0.000000 -0.001352 0.000000
# 4 0.000000 0.000000 0.000000 0.043208 0.000000 -0.014358
# 5 -0.007269 -0.000975 -0.001352 0.000000 0.027910 0.000000
# 6 0.000000 0.000000 0.000000 -0.014358 0.000000 0.026167
#
#
# Mechanical properties :
#
#
# Convention : Reuss Voigt Hill
#
# Bulk Modulus (GPa) = 33.19606 45.41979 39.30793
# Shear Modulus (GPa) = 29.77486 39.31416 34.54451
#
# Velocity S-wave (km/s) = 3.60292 4.14004 3.88079
# Velocity P-wave (km/s) = 5.63744 6.53109 6.10065
#
# Compressibility (1/GPa) = 0.03012405
#
# Stress axis : x y z
#
# Youngs Moduli (GPa) = 108.88346 79.62872 42.33675
#
# Poissons Ratio (x) = 0.08817 0.08353
# Poissons Ratio (y) = 0.12056 0.19217
# Poissons Ratio (z) = 0.21482 0.36144
#
# Static dielectric constant tensor:
#      x y z
#    x 1.791270 0.000000 0.069990 
#    y 0.000000 1.738650 0.000000 
#    z 0.069990 0.000000 1.829960 
# 
# From -- ./inp_files/67634.got.cif
#   From: 2010.05.17/outbox.cif.g08.bks.cpg/sg13_34_cif.got.tgz:67634.got - 2010.06.03 16:44:36.
