data_PCOD9237058
_publ_section_title
;
Structure prediction by ZEFSAII (Michael W. Deem and Ramdas Pophale) SiO2 
 PCOD9237058
Probable space group: P 2/C
;
_chemical_formula_sum "Si O2"
_cell_formula_units_Z 20
_cell_length_a 11.688176
_cell_length_b 6.163849
_cell_length_c 20.575093
_cell_angle_alpha 90.000000
_cell_angle_beta 34.787270
_cell_angle_gamma 90.000000
_cell_volume 845.706895
_symmetry_space_group_name_H-M "P 2/C"
_symmetry_group_IT_number 13
_symmetry_cell_setting 'monoclinic'
loop_
_space_group_symop_operation_xyz
x,y,z
-x,y,1/2-z
-x,-y,-z
x,-y,1/2+z
loop_
_atom_site_type_symbol
_atom_site_label
_atom_site_fract_x
_atom_site_fract_y
_atom_site_fract_z
Si Si1 0.831621 0.840139 0.601754
Si Si2 0.731600 0.423704 0.902698
Si Si3 0.000000 0.962400 0.250000
Si Si4 0.357291 0.534863 0.917618
Si Si5 0.500000 0.175142 0.750000
Si Si6 0.798800 0.688942 0.750152
O O1 0.757596 0.693673 0.577307
O O2 0.886640 0.690128 0.636785
O O3 0.662757 0.011063 0.702794
O O4 0.000000 0.000000 0.500000
O O5 0.831996 0.503732 0.788516
O O6 0.817476 0.179692 0.865733
O O7 0.500000 0.500000 0.000000
O O8 0.761085 0.519901 0.961080
O O9 0.888885 0.104900 0.246596
O O10 0.419068 0.328278 0.845367
O O11 0.560053 0.661701 0.845875
#
# Coordination Sequence:
#
# PCOD9237058 Si02
#       6
#     4   4   2   4   2   4
#     4  12  26  46  78 110 144 192 247 302 367 441
#     4  10  26  44  72 101 148 197 238 300 366 430
#     4  12  26  44  72 106 148 194 246 304 364 434
#     4  11  24  49  72 108 147 195 241 301 372 439
#     4  12  24  46  78 102 152 192 234 310 374 430
#     4  11  24  47  70 107 150 184 248 299 358 439
#
# _framework density 23.648854
#
# number of rings (size 3 to 8) (size 9 to 14) (size 15 to 20)
#    0.000    0.800    4.000    1.800    5.600    8.800 
#    3.600    0.000    0.000    0.000    0.000    0.000 
#    0.000    0.000    0.000    0.000    0.000    0.000 
#
# Total GULP energy -111587.524588 kJ/mol
# GULP energy per Si atom -5579.376229 kJ/mol
# Density = 2.359503 g / cm^3
# Si number density = 23.648854 Si / 1000 Ang^3
#
#
#
# Elastic Constant Matrix: (Units=GPa)
#
#
# Indices 1 2 3 4 5 6 
#
# 1 200.5490 49.6980 39.9470 0.0000 27.2483 0.0000
# 2 49.6980 76.1697 14.7756 0.0000 2.8775 0.0000
# 3 39.9470 14.7756 67.1119 0.0000 30.8039 0.0000
# 4 0.0000 0.0000 0.0000 28.8561 0.0000 15.9953
# 5 27.2483 2.8775 30.8039 0.0000 59.6362 0.0000
# 6 0.0000 0.0000 0.0000 15.9953 0.0000 16.5477
#
#
#
# Elastic Compliance Matrix: (Units=1/GPa)
#
#
# Indices 1 2 3 4 5 6 
#
# 1 0.006618 -0.003799 -0.002358 0.000000 -0.001622 0.000000
# 2 -0.003799 0.015959 -0.002222 0.000000 0.002114 0.000000
# 3 -0.002358 -0.002222 0.021299 0.000000 -0.009817 0.000000
# 4 0.000000 0.000000 0.000000 0.074656 0.000000 -0.072163
# 5 -0.001622 0.002114 -0.009817 0.000000 0.022479 0.000000
# 6 0.000000 0.000000 0.000000 -0.072163 0.000000 0.130185
#
#
# Mechanical properties :
#
#
# Convention : Reuss Voigt Hill
#
# Bulk Modulus (GPa) = 36.87757 61.40798 49.14278
# Shear Modulus (GPa) = 16.83540 36.96868 26.90204
#
# Velocity S-wave (km/s) = 2.67102 3.95806 3.37644
# Velocity P-wave (km/s) = 5.01399 6.84918 6.00214
#
# Compressibility (1/GPa) = 0.02711675
#
# Stress axis : x y z
#
# Youngs Moduli (GPa) = 151.10448 62.66179 46.94984
#
# Poissons Ratio (x) = 0.23807 0.11071
# Poissons Ratio (y) = 0.57408 0.10434
# Poissons Ratio (z) = 0.35631 0.13925
#
# Static dielectric constant tensor:
#      x y z
#    x 1.815790 0.000000 0.034720 
#    y 0.000000 1.872230 0.000000 
#    z 0.034720 0.000000 1.795350 
# 
# From -- ./inp_files/58102.got.cif
#   From: 2010.05.17/outbox.cif.g08.bks.cpg/sg13_30_cif.got.tgz:58102.got - 2010.06.03 16:44:36.
