data_PCOD9237603
_publ_section_title
;
Structure prediction by ZEFSAII (Michael W. Deem and Ramdas Pophale) SiO2 
 PCOD9237603
Probable space group: P 2/C
;
_chemical_formula_sum "Si O2"
_cell_formula_units_Z 30
_cell_length_a 11.422240
_cell_length_b 11.209835
_cell_length_c 17.017520
_cell_angle_alpha 90.000000
_cell_angle_beta 44.518270
_cell_angle_gamma 90.000000
_cell_volume 1527.739997
_symmetry_space_group_name_H-M "P 2/C"
_symmetry_group_IT_number 13
_symmetry_cell_setting 'monoclinic'
loop_
_space_group_symop_operation_xyz
x,y,z
-x,y,1/2-z
-x,-y,-z
x,-y,1/2+z
loop_
_atom_site_type_symbol
_atom_site_label
_atom_site_fract_x
_atom_site_fract_y
_atom_site_fract_z
Si Si1 0.748381 0.177396 0.200090
Si Si2 0.500000 0.012947 0.750000
Si Si3 0.979419 0.794433 0.058415
Si Si4 0.017001 0.020701 0.153525
Si Si5 0.965702 0.532394 0.107613
Si Si6 0.369251 0.588141 0.666473
Si Si7 0.707651 0.173367 0.553759
Si Si8 0.690200 0.432698 0.491357
O O1 0.645665 0.074043 0.207337
O O2 0.637653 0.279595 0.293106
O O3 0.868839 0.113557 0.205125
O O4 0.868908 0.228680 0.074732
O O5 0.549014 0.097370 0.654605
O O6 0.010910 0.911890 0.094911
O O7 0.820923 0.816117 0.078089
O O8 0.957891 0.675211 0.118707
O O9 0.000000 0.976489 0.250000
O O10 0.184147 0.096869 0.059249
O O11 0.788958 0.478812 0.219037
O O12 0.123687 0.480459 0.079700
O O13 0.000000 0.500000 0.000000
O O14 0.546807 0.522055 0.592116
O O15 0.336213 0.586521 0.588827
O O16 0.670964 0.304668 0.541383
#
# Coordination Sequence:
#
# PCOD9237603 Si02
#       8
#     4   2   4   4   4   4   4   4
#     4  11  22  42  67  92 129 167 219 263 318 385
#     4  12  24  38  68 104 124 162 218 274 312 386
#     4  11  22  42  63  98 127 166 223 267 313 385
#     4  11  22  41  66  92 127 172 214 260 324 383
#     4  12  23  41  68  98 126 173 220 267 322 384
#     4  11  26  44  66  99 135 173 216 267 329 394
#     4  11  22  42  67  92 129 167 219 263 318 385
#     4  11  26  44  66  99 135 173 216 267 329 394
#
# _framework density 19.636848000000001
#
# number of rings (size 3 to 8) (size 9 to 14) (size 15 to 20)
#    0.000    0.800    5.333    2.800    3.733    1.600 
#    0.000    5.333    0.000    0.000    0.000    0.000 
#    0.000    0.000    0.000    0.000    0.000    0.000 
#
# Total GULP energy -167697.712605 kJ/mol
# GULP energy per Si atom -5589.923753 kJ/mol
# Density = 1.959215 g / cm^3
# Si number density = 19.636848 Si / 1000 Ang^3
#
#
#
# Elastic Constant Matrix: (Units=GPa)
#
#
# Indices 1 2 3 4 5 6 
#
# 1 22.4442 -5.6583 13.4620 0.0000 13.9207 0.0000
# 2 -5.6583 113.7133 27.8813 0.0000 10.8912 0.0000
# 3 13.4620 27.8813 63.9128 0.0000 3.8969 0.0000
# 4 0.0000 0.0000 0.0000 38.4484 0.0000 -6.4693
# 5 13.9207 10.8912 3.8969 0.0000 26.9809 0.0000
# 6 0.0000 0.0000 0.0000 -6.4693 0.0000 34.4749
#
#
#
# Elastic Compliance Matrix: (Units=1/GPa)
#
#
# Indices 1 2 3 4 5 6 
#
# 1 0.094526 0.015403 -0.023484 0.000000 -0.051596 0.000000
# 2 0.015403 0.012673 -0.008047 0.000000 -0.011901 0.000000
# 3 -0.023484 -0.008047 0.023372 0.000000 0.011989 0.000000
# 4 0.000000 0.000000 0.000000 0.026857 0.000000 0.005040
# 5 -0.051596 -0.011901 0.011989 0.000000 0.066756 0.000000
# 6 0.000000 0.000000 0.000000 0.005040 0.000000 0.029952
#
#
# Mechanical properties :
#
#
# Convention : Reuss Voigt Hill
#
# Bulk Modulus (GPa) = 10.17132 30.16002 20.16567
# Shear Modulus (GPa) = 15.66590 30.93986 23.30288
#
# Velocity S-wave (km/s) = 2.82757 3.97369 3.44858
# Velocity P-wave (km/s) = 3.98135 6.03704 5.11356
#
# Compressibility (1/GPa) = 0.09831566
#
# Stress axis : x y z
#
# Youngs Moduli (GPa) = 10.57915 78.90501 42.78565
#
# Poissons Ratio (x) = -1.21539 1.00476
# Poissons Ratio (y) = -0.16295 0.34432
# Poissons Ratio (z) = 0.24844 0.63498
#
# Static dielectric constant tensor:
#      x y z
#    x 1.694750 0.000000 -0.022450 
#    y 0.000000 1.673730 0.000000 
#    z -0.022450 0.000000 1.689970 
# 
# From -- ./inp_files/66629.got.cif
#   From: 2010.05.17/outbox.cif.g08.bks.cpg/sg13_34_cif.got.tgz:66629.got - 2010.06.03 16:44:36.
