data_PCOD9237771
_publ_section_title
;
Structure prediction by ZEFSAII (Michael W. Deem and Ramdas Pophale) SiO2 
 PCOD9237771
Probable space group: P 2/C
;
_chemical_formula_sum "Si O2"
_cell_formula_units_Z 24
_cell_length_a 16.719640
_cell_length_b 11.600681
_cell_length_c 16.992456
_cell_angle_alpha 90.000000
_cell_angle_beta 157.456680
_cell_angle_gamma 90.000000
_cell_volume 1263.566507
_symmetry_space_group_name_H-M "P 2/C"
_symmetry_group_IT_number 13
_symmetry_cell_setting 'monoclinic'
loop_
_space_group_symop_operation_xyz
x,y,z
-x,y,1/2-z
-x,-y,-z
x,-y,1/2+z
loop_
_atom_site_type_symbol
_atom_site_label
_atom_site_fract_x
_atom_site_fract_y
_atom_site_fract_z
Si Si1 0.000000 0.960921 0.750000
Si Si2 0.500000 0.482733 0.250000
Si Si3 0.679027 0.905885 0.848829
Si Si4 0.521928 0.368185 0.928774
Si Si5 0.883189 0.685491 0.067047
Si Si6 0.167430 0.468004 0.716906
Si Si7 0.435129 0.879046 0.098998
O O1 0.814733 0.893974 0.626185
O O2 0.868626 0.031189 0.565993
O O3 0.513449 0.561953 0.184648
O O4 0.702711 0.400910 0.432403
O O5 0.500000 0.875482 0.750000
O O6 0.560185 0.003342 0.689096
O O7 0.776309 0.782979 0.914587
O O8 0.353999 0.403381 0.841633
O O9 0.511314 0.233290 0.901450
O O10 0.740923 0.417350 0.159558
O O11 0.000000 0.736546 0.250000
O O12 0.055412 0.613920 0.177112
O O13 0.000000 0.500000 0.500000
O O14 0.500000 0.861069 0.250000
#
# Coordination Sequence:
#
# PCOD9237771 Si02
#       7
#     2   2   4   4   4   4   4
#     4   8  16  30  52  88 112 144 186 248 298 340
#     4  12  22  36  64  92 116 152 210 256 298 380
#     4   9  18  33  56  89 116 148 198 256 297 351
#     4  11  23  41  59  91 125 158 205 254 305 370
#     4  12  22  37  62  92 120 160 206 249 309 375
#     4  11  25  40  58  86 131 165 198 254 314 357
#     4   9  19  34  59  89 117 151 198 253 298 356
#
# _framework density 18.993855
#
# number of rings (size 3 to 8) (size 9 to 14) (size 15 to 20)
#    0.000    2.000    5.833    0.000    0.000    4.000 
#    0.000    0.833    0.000    2.000    0.000    0.000 
#    0.000    0.000    0.000    0.000    0.000    0.000 
#
# Total GULP energy -133705.702271 kJ/mol
# GULP energy per Si atom -5571.070928 kJ/mol
# Density = 1.895062 g / cm^3
# Si number density = 18.993855 Si / 1000 Ang^3
#
#
#
# Elastic Constant Matrix: (Units=GPa)
#
#
# Indices 1 2 3 4 5 6 
#
# 1 54.9118 28.3567 19.7045 0.0000 13.9968 0.0000
# 2 28.3567 107.8964 32.4889 0.0000 13.1453 0.0000
# 3 19.7045 32.4889 103.8689 0.0000 12.9686 0.0000
# 4 0.0000 0.0000 0.0000 12.6989 0.0000 5.1293
# 5 13.9968 13.1453 12.9686 0.0000 27.5389 0.0000
# 6 0.0000 0.0000 0.0000 5.1293 0.0000 3.4207
#
#
#
# Elastic Compliance Matrix: (Units=1/GPa)
#
#
# Indices 1 2 3 4 5 6 
#
# 1 0.023499 -0.004511 -0.001939 0.000000 -0.008877 0.000000
# 2 -0.004511 0.011443 -0.002473 0.000000 -0.002005 0.000000
# 3 -0.001939 -0.002473 0.011154 0.000000 -0.003087 0.000000
# 4 0.000000 0.000000 0.000000 0.199701 0.000000 -0.299451
# 5 -0.008877 -0.002005 -0.003087 0.000000 0.043235 0.000000
# 6 0.000000 0.000000 0.000000 -0.299451 0.000000 0.741364
#
#
# Mechanical properties :
#
#
# Convention : Reuss Voigt Hill
#
# Bulk Modulus (GPa) = 35.39689 47.53081 41.46385
# Shear Modulus (GPa) = 4.72743 21.14015 12.93379
#
# Velocity S-wave (km/s) = 1.57934 3.33978 2.61232
# Velocity P-wave (km/s) = 4.69065 6.32067 5.56566
#
# Compressibility (1/GPa) = 0.02825107
#
# Stress axis : x y z
#
# Youngs Moduli (GPa) = 42.55549 87.39344 89.65178
#
# Poissons Ratio (x) = 0.39419 0.17380
# Poissons Ratio (y) = 0.19195 0.22172
# Poissons Ratio (z) = 0.08250 0.21613
#
# Static dielectric constant tensor:
#      x y z
#    x 1.632390 0.000000 -0.012860 
#    y 0.000000 1.690700 0.000000 
#    z -0.012860 0.000000 1.686370 
# 
# From -- ./inp_files/61171.got.cif
#   From: 2010.05.17/outbox.cif.g08.bks.cpg/sg13_31_cif.got.tgz:61171.got - 2010.06.03 16:44:36.
