data_PCOD9237007
_publ_section_title
;
Structure prediction by ZEFSAII (Michael W. Deem and Ramdas Pophale) SiO2 
 PCOD9237007
Probable space group: P 2/C
;
_chemical_formula_sum "Si O2"
_cell_formula_units_Z 24
_cell_length_a 9.003454
_cell_length_b 15.185445
_cell_length_c 7.789839
_cell_angle_alpha 90.000000
_cell_angle_beta 87.842589
_cell_angle_gamma 90.000000
_cell_volume 1064.283200
_symmetry_space_group_name_H-M "P 2/C"
_symmetry_group_IT_number 13
_symmetry_cell_setting 'monoclinic'
loop_
_space_group_symop_operation_xyz
x,y,z
-x,y,1/2-z
-x,-y,-z
x,-y,1/2+z
loop_
_atom_site_type_symbol
_atom_site_label
_atom_site_fract_x
_atom_site_fract_y
_atom_site_fract_z
Si Si1 0.659868 0.731285 0.044259
Si Si2 0.595940 0.077860 0.407707
Si Si3 0.846685 0.767165 0.362536
Si Si4 0.841484 0.343942 0.201784
Si Si5 0.875464 0.041497 0.884001
Si Si6 0.437797 0.592231 0.940043
O O1 0.629099 0.835361 0.016685
O O2 0.761996 0.696720 0.877177
O O3 0.511218 0.672274 0.041204
O O4 0.736355 0.724503 0.226807
O O5 0.500000 0.107742 0.250000
O O6 0.500000 0.000000 0.500000
O O7 0.752874 0.032006 0.348256
O O8 0.867470 0.728263 0.552068
O O9 0.792212 0.866521 0.413255
O O10 0.000000 0.757521 0.250000
O O11 0.736302 0.409061 0.095765
O O12 0.000000 0.381525 0.250000
O O13 0.000000 0.074235 0.750000
O O14 0.000000 0.000000 0.000000
O O15 0.500000 0.609192 0.750000
O O16 0.500000 0.500000 0.000000
#
# Coordination Sequence:
#
# PCOD9237007 Si02
#       6
#     4   4   4   4   4   4
#     4  11  25  46  67 103 140 181 242 288 356 428
#     4  12  25  42  63  96 142 186 239 300 351 417
#     4  11  23  42  69 102 138 184 238 291 345 414
#     4  11  24  44  75 102 139 183 227 292 356 413
#     4  11  25  41  61  97 135 189 243 287 348 420
#     4  10  25  48  73 105 139 181 231 290 363 434
#
# _framework density 22.550388999999999
#
# number of rings (size 3 to 8) (size 9 to 14) (size 15 to 20)
#    0.000    1.000    1.667    5.500    9.333    0.000 
#    0.000    4.167    0.000    0.000    0.000    0.000 
#    0.000    0.000    0.000    0.000    0.000    0.000 
#
# Total GULP energy -133608.167326 kJ/mol
# GULP energy per Si atom -5567.006972 kJ/mol
# Density = 2.249906 g / cm^3
# Si number density = 22.550389 Si / 1000 Ang^3
#
#
#
# Elastic Constant Matrix: (Units=GPa)
#
#
# Indices 1 2 3 4 5 6 
#
# 1 153.1576 48.7654 43.8378 0.0000 34.0625 0.0000
# 2 48.7654 76.9553 -2.0939 0.0000 17.0717 0.0000
# 3 43.8378 -2.0939 87.9826 0.0000 18.9369 0.0000
# 4 0.0000 0.0000 0.0000 7.5609 0.0000 6.8990
# 5 34.0625 17.0717 18.9369 0.0000 48.7269 0.0000
# 6 0.0000 0.0000 0.0000 6.8990 0.0000 14.3784
#
#
#
# Elastic Compliance Matrix: (Units=1/GPa)
#
#
# Indices 1 2 3 4 5 6 
#
# 1 0.010557 -0.006052 -0.004662 0.000000 -0.003448 0.000000
# 2 -0.006052 0.017749 0.004219 0.000000 -0.003627 0.000000
# 3 -0.004662 0.004219 0.014630 0.000000 -0.003904 0.000000
# 4 0.000000 0.000000 0.000000 0.235258 0.000000 -0.112881
# 5 -0.003448 -0.003627 -0.003904 0.000000 0.025721 0.000000
# 6 0.000000 0.000000 0.000000 -0.112881 0.000000 0.123711
#
#
# Mechanical properties :
#
#
# Convention : Reuss Voigt Hill
#
# Bulk Modulus (GPa) = 33.39479 55.45712 44.42595
# Shear Modulus (GPa) = 11.09635 29.30566 20.20100
#
# Velocity S-wave (km/s) = 2.22067 3.60886 2.99627
# Velocity P-wave (km/s) = 4.62777 6.48159 5.63149
#
# Compressibility (1/GPa) = 0.02994479
#
# Stress axis : x y z
#
# Youngs Moduli (GPa) = 94.71949 56.34083 68.35439
#
# Poissons Ratio (x) = 0.34098 0.31868
# Poissons Ratio (y) = 0.57325 -0.28836
# Poissons Ratio (z) = 0.44161 -0.23768
#
# Static dielectric constant tensor:
#      x y z
#    x 1.912990 0.000000 -0.019300 
#    y 0.000000 1.822090 0.000000 
#    z -0.019300 0.000000 1.858530 
# 
# From -- ./inp_files/12558.got.cif
#   From: 2010.05.17/outbox.cif.g08.bks.cpg/sg13_7_cif.got.tgz:12558.got - 2010.06.03 16:44:36.
