data_PCOD9237352
_publ_section_title
;
Structure prediction by ZEFSAII (Michael W. Deem and Ramdas Pophale) SiO2 
 PCOD9237352
Probable space group: P 2/C
;
_chemical_formula_sum "Si O2"
_cell_formula_units_Z 26
_cell_length_a 13.913076
_cell_length_b 11.807163
_cell_length_c 9.384310
_cell_angle_alpha 90.000000
_cell_angle_beta 52.321091
_cell_angle_gamma 90.000000
_cell_volume 1220.095345
_symmetry_space_group_name_H-M "P 2/C"
_symmetry_group_IT_number 13
_symmetry_cell_setting 'monoclinic'
loop_
_space_group_symop_operation_xyz
x,y,z
-x,y,1/2-z
-x,-y,-z
x,-y,1/2+z
loop_
_atom_site_type_symbol
_atom_site_label
_atom_site_fract_x
_atom_site_fract_y
_atom_site_fract_z
Si Si1 0.890065 0.352711 0.763119
Si Si2 0.619816 0.432567 0.344444
Si Si3 0.500000 0.700782 0.750000
Si Si4 0.641002 0.272322 0.568445
Si Si5 0.169897 0.556245 0.456782
Si Si6 0.314684 0.157328 0.568138
Si Si7 0.358396 0.034525 0.830585
O O1 0.926105 0.389295 0.567029
O O2 0.785385 0.256931 0.835270
O O3 0.000000 0.295103 0.750000
O O4 0.865716 0.461529 0.893706
O O5 0.500000 0.500000 0.500000
O O6 0.603168 0.387740 0.200925
O O7 0.635864 0.319842 0.417067
O O8 0.739790 0.503140 0.242870
O O9 0.558280 0.777598 0.575938
O O10 0.500000 0.283782 0.750000
O O11 0.739856 0.350630 0.556842
O O12 0.681108 0.144262 0.544644
O O13 0.334643 0.077537 0.689895
O O14 0.295117 0.077662 0.447547
O O15 0.500000 0.020298 0.750000
#
# Coordination Sequence:
#
# PCOD9237352 Si02
#       7
#     4   4   2   4   4   4   4
#     4  12  27  48  68  93 128 173 227 279 323 385
#     4  12  21  32  57  99 138 171 208 250 325 409
#     4  12  22  36  60  94 140 172 208 252 334 402
#     4  11  21  34  60  96 140 170 201 257 328 397
#     4  12  22  41  66  93 130 170 209 267 332 389
#     4  12  25  43  66  96 132 175 217 269 324 388
#     4  11  24  40  65  95 137 173 210 261 324 393
#
# _framework density 21.309809999999999
#
# number of rings (size 3 to 8) (size 9 to 14) (size 15 to 20)
#    0.000    0.308    6.923    4.615    2.154    0.000 
#    0.000    0.769    0.000    0.000    0.000    0.000 
#    0.000    0.000    0.000    0.000    0.000    0.000 
#
# Total GULP energy -144793.471411 kJ/mol
# GULP energy per Si atom -5568.979670 kJ/mol
# Density = 2.126131 g / cm^3
# Si number density = 21.309810 Si / 1000 Ang^3
#
#
#
# Elastic Constant Matrix: (Units=GPa)
#
#
# Indices 1 2 3 4 5 6 
#
# 1 96.7546 20.5659 25.8190 0.0000 25.6979 0.0000
# 2 20.5659 98.1815 29.9565 0.0000 6.8608 0.0000
# 3 25.8190 29.9565 40.2200 0.0000 16.1137 0.0000
# 4 0.0000 0.0000 0.0000 42.5951 0.0000 7.4545
# 5 25.6979 6.8608 16.1137 0.0000 29.1336 0.0000
# 6 0.0000 0.0000 0.0000 7.4545 0.0000 19.2278
#
#
#
# Elastic Compliance Matrix: (Units=1/GPa)
#
#
# Indices 1 2 3 4 5 6 
#
# 1 0.014394 -0.000928 -0.004560 0.000000 -0.009955 0.000000
# 2 -0.000928 0.013446 -0.010892 0.000000 0.003676 0.000000
# 3 -0.004560 -0.010892 0.042733 0.000000 -0.017048 0.000000
# 4 0.000000 0.000000 0.000000 0.025186 0.000000 -0.009764
# 5 -0.009955 0.003676 -0.017048 0.000000 0.051669 0.000000
# 6 0.000000 0.000000 0.000000 -0.009764 0.000000 0.055794
#
#
# Mechanical properties :
#
#
# Convention : Reuss Voigt Hill
#
# Bulk Modulus (GPa) = 26.44618 43.09320 34.76969
# Shear Modulus (GPa) = 20.11373 28.77897 24.44635
#
# Velocity S-wave (km/s) = 3.07558 3.67891 3.39069
# Velocity P-wave (km/s) = 5.00495 6.18966 5.62856
#
# Compressibility (1/GPa) = 0.03781265
#
# Stress axis : x y z
#
# Youngs Moduli (GPa) = 69.47463 74.37175 23.40094
#
# Poissons Ratio (x) = 0.06901 0.10672
# Poissons Ratio (y) = 0.06447 0.25488
# Poissons Ratio (z) = 0.31682 0.81005
#
# Static dielectric constant tensor:
#      x y z
#    x 1.958260 0.000000 0.088650 
#    y 0.000000 1.799270 0.000000 
#    z 0.088650 0.000000 1.861050 
# 
# From -- ./inp_files/18703.got.cif
#   From: 2010.05.17/outbox.cif.g08.bks.cpg/sg13_10_cif.got.tgz:18703.got - 2010.06.03 16:44:36.
