data_PCOD9237410
_publ_section_title
;
Structure prediction by ZEFSAII (Michael W. Deem and Ramdas Pophale) SiO2 
 PCOD9237410
Probable space group: P 2/C
;
_chemical_formula_sum "Si O2"
_cell_formula_units_Z 32
_cell_length_a 14.340688
_cell_length_b 13.906957
_cell_length_c 21.052377
_cell_angle_alpha 90.000000
_cell_angle_beta 19.009038
_cell_angle_gamma 90.000000
_cell_volume 1367.552673
_symmetry_space_group_name_H-M "P 2/C"
_symmetry_group_IT_number 13
_symmetry_cell_setting 'monoclinic'
loop_
_space_group_symop_operation_xyz
x,y,z
-x,y,1/2-z
-x,-y,-z
x,-y,1/2+z
loop_
_atom_site_type_symbol
_atom_site_label
_atom_site_fract_x
_atom_site_fract_y
_atom_site_fract_z
Si Si1 0.075347 0.267783 0.825715
Si Si2 0.884579 0.070654 0.757434
Si Si3 0.159825 0.526287 0.214327
Si Si4 0.330476 0.914880 0.689428
Si Si5 0.782415 0.602752 0.040661
Si Si6 0.293790 0.250480 0.022480
Si Si7 0.536048 0.923272 0.299372
Si Si8 0.037085 0.231582 0.464516
O O1 0.979707 0.171062 0.851340
O O2 0.078865 0.362905 0.781016
O O3 0.412185 0.256390 0.627759
O O4 0.898314 0.270102 0.006197
O O5 0.000000 0.034870 0.750000
O O6 0.895548 0.989074 0.697066
O O7 0.556099 0.097626 0.987184
O O8 0.000000 0.500882 0.250000
O O9 0.021829 0.468277 0.361764
O O10 0.500000 0.500000 0.000000
O O11 0.247118 0.815960 0.777145
O O12 0.451191 0.982293 0.667363
O O13 0.500000 0.552751 0.250000
O O14 0.697889 0.664305 0.033431
O O15 0.887397 0.680632 0.024358
O O16 0.000000 0.255192 0.250000
O O17 0.307927 0.151833 0.973956
O O18 0.500000 0.947584 0.250000
O O19 0.826262 0.858963 0.114405
#
# Coordination Sequence:
#
# PCOD9237410 Si02
#       8
#     4   4   4   4   4   4   4   4
#     4  11  24  48  67 102 146 187 240 302 377 457
#     4  11  26  44  64  96 144 191 246 297 359 446
#     4  12  29  52  82 115 153 201 255 318 392 473
#     4  11  26  42  66 104 138 195 246 296 365 444
#     4  12  23  46  75 112 144 188 254 321 386 450
#     4  11  21  38  71 105 141 186 241 309 373 432
#     4  11  21  39  64 101 142 184 242 297 365 431
#     4  11  23  42  70 100 145 189 239 308 371 440
#
# _framework density 23.399463999999998
#
# number of rings (size 3 to 8) (size 9 to 14) (size 15 to 20)
#    0.000    0.750    6.250    2.625    5.250    1.000 
#    0.000    0.000    0.000    0.000    0.000    0.000 
#    0.000    0.000    0.000    0.000    0.000    0.000 
#
# Total GULP energy -178879.705051 kJ/mol
# GULP energy per Si atom -5589.990783 kJ/mol
# Density = 2.334621 g / cm^3
# Si number density = 23.399464 Si / 1000 Ang^3
#
#
#
# Elastic Constant Matrix: (Units=GPa)
#
#
# Indices 1 2 3 4 5 6 
#
# 1 89.2927 13.8839 10.5249 0.0000 17.1919 0.0000
# 2 13.8839 72.1703 23.7501 0.0000 6.5141 0.0000
# 3 10.5249 23.7501 123.0441 0.0000 19.9420 0.0000
# 4 0.0000 0.0000 0.0000 33.5771 0.0000 -1.2721
# 5 17.1919 6.5141 19.9420 0.0000 27.8028 0.0000
# 6 0.0000 0.0000 0.0000 -1.2721 0.0000 12.9519
#
#
#
# Elastic Compliance Matrix: (Units=1/GPa)
#
#
# Indices 1 2 3 4 5 6 
#
# 1 0.012971 -0.001961 0.000559 0.000000 -0.007963 0.000000
# 2 -0.001961 0.015156 -0.002692 0.000000 -0.000408 0.000000
# 3 0.000559 -0.002692 0.009678 0.000000 -0.006657 0.000000
# 4 0.000000 0.000000 0.000000 0.029893 0.000000 0.002936
# 5 -0.007963 -0.000408 -0.006657 0.000000 0.045762 0.000000
# 6 0.000000 0.000000 0.000000 0.002936 0.000000 0.077497
#
#
# Mechanical properties :
#
#
# Convention : Reuss Voigt Hill
#
# Bulk Modulus (GPa) = 33.76207 42.31387 38.03797
# Shear Modulus (GPa) = 23.92162 30.62288 27.27225
#
# Velocity S-wave (km/s) = 3.20083 3.62152 3.41766
# Velocity P-wave (km/s) = 5.30286 5.96739 5.64491
#
# Compressibility (1/GPa) = 0.02961904
#
# Stress axis : x y z
#
# Youngs Moduli (GPa) = 77.09428 65.98090 103.33000
#
# Poissons Ratio (x) = 0.12937 -0.05781
# Poissons Ratio (y) = 0.15116 0.27812
# Poissons Ratio (z) = -0.04313 0.17759
#
# Static dielectric constant tensor:
#      x y z
#    x 1.911440 0.000000 -0.056020 
#    y 0.000000 1.862230 0.000000 
#    z -0.056020 0.000000 2.007940 
# 
# From -- ./inp_files/80359.got.cif
#   From: 2010.05.17/outbox.cif.g08.bks.cpg/sg13_41_cif.got.tgz:80359.got - 2010.06.03 16:44:36.
