data_PCOD9237568
_publ_section_title
;
Structure prediction by ZEFSAII (Michael W. Deem and Ramdas Pophale) SiO2 
 PCOD9237568
Probable space group: P 2/C
;
_chemical_formula_sum "Si O2"
_cell_formula_units_Z 28
_cell_length_a 25.547738
_cell_length_b 9.729264
_cell_length_c 26.210641
_cell_angle_alpha 90.000000
_cell_angle_beta 10.881606
_cell_angle_gamma 90.000000
_cell_volume 1229.890653
_symmetry_space_group_name_H-M "P 2/C"
_symmetry_group_IT_number 13
_symmetry_cell_setting 'monoclinic'
loop_
_space_group_symop_operation_xyz
x,y,z
-x,y,1/2-z
-x,-y,-z
x,-y,1/2+z
loop_
_atom_site_type_symbol
_atom_site_label
_atom_site_fract_x
_atom_site_fract_y
_atom_site_fract_z
Si Si1 0.344390 0.299259 0.042750
Si Si2 0.702676 0.875410 0.010879
Si Si3 0.003500 0.330078 0.804028
Si Si4 0.188170 0.246849 0.358387
Si Si5 0.443095 0.843234 0.719164
Si Si6 0.867872 0.518001 0.028792
Si Si7 0.606822 0.148938 0.881364
O O1 0.561301 0.421733 0.826031
O O2 0.502309 0.186320 0.925405
O O3 0.259030 0.234735 0.070696
O O4 0.085625 0.358260 0.321962
O O5 0.000000 0.910486 0.750000
O O6 0.500000 0.825137 0.250000
O O7 0.560157 0.009719 0.122630
O O8 0.925092 0.444504 0.920063
O O9 0.000000 0.383191 0.750000
O O10 0.299674 0.261636 0.531970
O O11 0.770015 0.212438 0.034385
O O12 0.278362 0.165499 0.323403
O O13 0.099211 0.398790 0.461027
O O14 0.932165 0.170459 0.577091
O O15 0.450858 0.250779 0.069931
O O16 0.500000 0.000000 0.000000
#
# Coordination Sequence:
#
# PCOD9237568 Si02
#       7
#     4   4   4   4   4   4   4
#     4  12  27  45  65  96 133 173 224 269 316 393
#     4  12  26  44  68  96 134 179 219 270 331 386
#     4  11  22  39  66  97 131 172 217 274 329 384
#     4  11  24  44  71 100 133 172 213 270 332 388
#     4  11  22  41  68 101 133 164 220 276 328 391
#     4  11  25  44  66  96 132 175 223 269 322 388
#     4  12  26  45  71 100 131 170 215 269 336 390
#
# _framework density 22.766252000000001
#
# number of rings (size 3 to 8) (size 9 to 14) (size 15 to 20)
#    0.000    0.571    0.000    9.857    0.000    7.429 
#    0.000    1.429    0.000    0.000    0.000    0.000 
#    0.000    0.000    0.000    0.000    0.000    0.000 
#
# Total GULP energy -156947.402011 kJ/mol
# GULP energy per Si atom -5605.264358 kJ/mol
# Density = 2.271443 g / cm^3
# Si number density = 22.766252 Si / 1000 Ang^3
#
#
#
# Elastic Constant Matrix: (Units=GPa)
#
#
# Indices 1 2 3 4 5 6 
#
# 1 83.2287 19.4208 9.3409 0.0000 -3.4150 0.0000
# 2 19.4208 78.4039 9.0145 0.0000 -10.8431 0.0000
# 3 9.3409 9.0145 109.0875 0.0000 -8.9322 0.0000
# 4 0.0000 0.0000 0.0000 33.7171 0.0000 4.4306
# 5 -3.4150 -10.8431 -8.9322 0.0000 40.9079 0.0000
# 6 0.0000 0.0000 0.0000 4.4306 0.0000 24.4974
#
#
#
# Elastic Compliance Matrix: (Units=1/GPa)
#
#
# Indices 1 2 3 4 5 6 
#
# 1 0.012829 -0.003071 -0.000839 0.000000 0.000074 0.000000
# 2 -0.003071 0.014048 -0.000625 0.000000 0.003331 0.000000
# 3 -0.000839 -0.000625 0.009440 0.000000 0.001825 0.000000
# 4 0.000000 0.000000 0.000000 0.030381 0.000000 -0.005495
# 5 0.000074 0.003331 0.001825 0.000000 0.025733 0.000000
# 6 0.000000 0.000000 0.000000 -0.005495 0.000000 0.041814
#
#
# Mechanical properties :
#
#
# Convention : Reuss Voigt Hill
#
# Bulk Modulus (GPa) = 36.70187 38.47473 37.58830
# Shear Modulus (GPa) = 32.80922 35.35408 34.08165
#
# Velocity S-wave (km/s) = 3.80035 3.94498 3.87334
# Velocity P-wave (km/s) = 5.95088 6.13898 6.04566
#
# Compressibility (1/GPa) = 0.02724657
#
# Stress axis : x y z
#
# Youngs Moduli (GPa) = 77.94931 71.18617 105.93337
#
# Poissons Ratio (x) = 0.21862 0.08884
# Poissons Ratio (y) = 0.23939 0.06622
# Poissons Ratio (z) = 0.06537 0.04450
#
# Static dielectric constant tensor:
#      x y z
#    x 1.844210 0.000000 -0.007030 
#    y 0.000000 1.858020 0.000000 
#    z -0.007030 0.000000 1.808590 
# 
# From -- ./inp_files/98033.got.cif
#   From: 2010.05.17/outbox.cif.g08.bks.cpg/sg13_50_cif.got.tgz:98033.got - 2010.06.03 16:44:36.
