data_PCOD9237267
_publ_section_title
;
Structure prediction by ZEFSAII (Michael W. Deem and Ramdas Pophale) SiO2 
 PCOD9237267
Probable space group: P 2/C
;
_chemical_formula_sum "Si O2"
_cell_formula_units_Z 30
_cell_length_a 18.676932
_cell_length_b 14.314202
_cell_length_c 9.313333
_cell_angle_alpha 90.000000
_cell_angle_beta 140.302413
_cell_angle_gamma 90.000000
_cell_volume 1590.372313
_symmetry_space_group_name_H-M "P 2/C"
_symmetry_group_IT_number 13
_symmetry_cell_setting 'monoclinic'
loop_
_space_group_symop_operation_xyz
x,y,z
-x,y,1/2-z
-x,-y,-z
x,-y,1/2+z
loop_
_atom_site_type_symbol
_atom_site_label
_atom_site_fract_x
_atom_site_fract_y
_atom_site_fract_z
Si Si1 0.803900 0.290866 0.152281
Si Si2 0.386771 0.055910 0.992427
Si Si3 0.084528 0.997332 0.259458
Si Si4 0.083977 0.528597 0.760358
Si Si5 0.314635 0.105978 0.572914
Si Si6 0.823810 0.175286 0.722236
Si Si7 0.000000 0.787904 0.750000
Si Si8 0.868668 0.677023 0.071795
O O1 0.817236 0.400275 0.130140
O O2 0.913740 0.253369 0.237921
O O3 0.812301 0.290910 0.337392
O O4 0.704271 0.217588 0.961742
O O5 0.500000 0.080273 0.250000
O O6 0.356845 0.949575 0.996518
O O7 0.386825 0.071997 0.821422
O O8 0.288387 0.123840 0.898880
O O9 0.128106 0.892113 0.329755
O O10 0.000000 0.027121 0.250000
O O11 0.190564 0.062850 0.405914
O O12 0.000000 0.000000 0.000000
O O13 0.132497 0.433951 0.903245
O O14 0.000000 0.571783 0.750000
O O15 0.000000 0.500000 0.500000
O O16 0.818187 0.273910 0.634508
O O17 0.904735 0.180611 0.984248
O O18 0.000000 0.700539 0.250000
#
# Coordination Sequence:
#
# PCOD9237267 Si02
#       8
#     4   4   4   4   4   4   2   4
#     4  12  23  35  57  86 129 164 208 245 297 368
#     4  11  25  46  64  86 118 162 217 269 313 363
#     4  11  23  32  50  79 122 156 188 232 294 367
#     4  11  20  34  52  83 127 175 208 235 292 365
#     4  11  25  39  61  88 117 161 207 258 310 366
#     4  11  23  36  56  85 118 162 204 243 313 358
#     4  12  20  32  56  84 126 156 194 248 286 378
#     4  11  22  35  54  85 127 169 199 246 296 371
#
# _framework density 18.863507999999999
#
# number of rings (size 3 to 8) (size 9 to 14) (size 15 to 20)
#    0.000    0.800    6.000    3.200    7.467    0.000 
#    0.000    0.000    0.000    0.000    0.000    1.867 
#    0.000    0.000    0.000    0.000    0.000    0.000 
#
# Total GULP energy -167056.840738 kJ/mol
# GULP energy per Si atom -5568.561358 kJ/mol
# Density = 1.882057 g / cm^3
# Si number density = 18.863508 Si / 1000 Ang^3
#
#
#
# Elastic Constant Matrix: (Units=GPa)
#
#
# Indices 1 2 3 4 5 6 
#
# 1 36.4148 18.0202 23.9594 0.0000 -16.1020 0.0000
# 2 18.0202 86.5977 34.6397 0.0000 -7.2870 0.0000
# 3 23.9594 34.6397 93.2140 0.0000 -20.7845 0.0000
# 4 0.0000 0.0000 0.0000 22.4283 0.0000 -10.4745
# 5 -16.1020 -7.2870 -20.7845 0.0000 30.9906 0.0000
# 6 0.0000 0.0000 0.0000 -10.4745 0.0000 24.5674
#
#
#
# Elastic Compliance Matrix: (Units=1/GPa)
#
#
# Indices 1 2 3 4 5 6 
#
# 1 0.040499 -0.005106 -0.004807 0.000000 0.016618 0.000000
# 2 -0.005106 0.014209 -0.004485 0.000000 -0.002320 0.000000
# 3 -0.004807 -0.004485 0.015096 0.000000 0.006572 0.000000
# 4 0.000000 0.000000 0.000000 0.055672 0.000000 0.023736
# 5 0.016618 -0.002320 0.006572 0.000000 0.044765 0.000000
# 6 0.000000 0.000000 0.000000 0.023736 0.000000 0.050824
#
#
# Mechanical properties :
#
#
# Convention : Reuss Voigt Hill
#
# Bulk Modulus (GPa) = 24.38580 41.05168 32.71874
# Shear Modulus (GPa) = 18.97316 24.90441 21.93878
#
# Velocity S-wave (km/s) = 3.17490 3.63746 3.41402
# Velocity P-wave (km/s) = 5.13766 6.28102 5.73789
#
# Compressibility (1/GPa) = 0.04100747
#
# Stress axis : x y z
#
# Youngs Moduli (GPa) = 24.69186 70.37745 66.24417
#
# Poissons Ratio (x) = 0.35938 0.31842
# Poissons Ratio (y) = 0.12609 0.29711
# Poissons Ratio (z) = 0.11869 0.31565
#
# Static dielectric constant tensor:
#      x y z
#    x 1.683640 0.000000 -0.028120 
#    y 0.000000 1.834930 0.000000 
#    z -0.028120 0.000000 1.641980 
# 
# From -- ./inp_files/23503.got.cif
#   From: 2010.05.17/outbox.cif.g08.bks.cpg/sg13_12_cif.got.tgz:23503.got - 2010.06.03 16:44:36.
