data_PCOD9237996
_publ_section_title
;
Structure prediction by ZEFSAII (Michael W. Deem and Ramdas Pophale) SiO2 
 PCOD9237996
Probable space group: P 2/C
;
_chemical_formula_sum "Si O2"
_cell_formula_units_Z 18
_cell_length_a 10.171679
_cell_length_b 9.062883
_cell_length_c 8.314163
_cell_angle_alpha 90.000000
_cell_angle_beta 65.713238
_cell_angle_gamma 90.000000
_cell_volume 698.607803
_symmetry_space_group_name_H-M "P 2/C"
_symmetry_group_IT_number 13
_symmetry_cell_setting 'monoclinic'
loop_
_space_group_symop_operation_xyz
x,y,z
-x,y,1/2-z
-x,-y,-z
x,-y,1/2+z
loop_
_atom_site_type_symbol
_atom_site_label
_atom_site_fract_x
_atom_site_fract_y
_atom_site_fract_z
Si Si1 0.500000 0.562350 0.250000
Si Si2 0.711589 0.227159 0.478030
Si Si3 0.199073 0.547789 0.787445
Si Si4 0.856493 0.734927 0.383424
Si Si5 0.670641 0.045455 0.174548
O O1 0.430339 0.675561 0.412748
O O2 0.632177 0.461122 0.241335
O O3 0.820757 0.351274 0.361179
O O4 0.697042 0.121698 0.331275
O O5 0.740666 0.114673 0.608082
O O6 0.177002 0.381716 0.740081
O O7 0.118706 0.629134 0.972575
O O8 0.733422 0.844322 0.507474
O O9 0.000000 0.816066 0.250000
O O10 0.500000 0.023893 0.250000
#
# Coordination Sequence:
#
# PCOD9237996 Si02
#       5
#     2   4   4   4   4
#     4  12  22  40  72 106 134 168 228 282 340 384
#     4  11  24  38  65 102 131 176 212 288 332 392
#     4  11  24  42  69  99 136 173 229 277 337 393
#     4  11  25  44  67  96 137 181 225 276 332 401
#     4  11  24  41  64  98 134 171 226 269 339 389
#
# _framework density 25.765530999999999
#
# number of rings (size 3 to 8) (size 9 to 14) (size 15 to 20)
#    0.000    0.889    3.333    3.333    9.333    0.000 
#    0.000    5.556    0.000    0.000    0.000    0.000 
#    0.000    0.000    0.000    0.000    0.000    0.000 
#
# Total GULP energy -100663.655427 kJ/mol
# GULP energy per Si atom -5592.425301 kJ/mol
# Density = 2.570689 g / cm^3
# Si number density = 25.765531 Si / 1000 Ang^3
#
#
#
# Elastic Constant Matrix: (Units=GPa)
#
#
# Indices 1 2 3 4 5 6 
#
# 1 44.1385 15.2638 32.2973 0.0000 -14.7221 0.0000
# 2 15.2638 155.4628 54.7662 0.0000 -2.5261 0.0000
# 3 32.2973 54.7662 155.4697 0.0000 -20.2301 0.0000
# 4 0.0000 0.0000 0.0000 50.3628 0.0000 22.4065
# 5 -14.7221 -2.5261 -20.2301 0.0000 27.5825 0.0000
# 6 0.0000 0.0000 0.0000 22.4065 0.0000 13.5430
#
#
#
# Elastic Compliance Matrix: (Units=1/GPa)
#
#
# Indices 1 2 3 4 5 6 
#
# 1 0.030541 -0.001315 -0.004174 0.000000 0.013119 0.000000
# 2 -0.001315 0.007446 -0.002601 0.000000 -0.001927 0.000000
# 3 -0.004174 -0.002601 0.008727 0.000000 0.003935 0.000000
# 4 0.000000 0.000000 0.000000 0.075234 0.000000 -0.124473
# 5 0.013119 -0.001927 0.003935 0.000000 0.045967 0.000000
# 6 0.000000 0.000000 0.000000 -0.124473 0.000000 0.279776
#
#
# Mechanical properties :
#
#
# Convention : Reuss Voigt Hill
#
# Bulk Modulus (GPa) = 32.74940 62.19173 47.47056
# Shear Modulus (GPa) = 10.54742 35.14723 22.84733
#
# Velocity S-wave (km/s) = 2.02546 3.69740 2.98105
# Velocity P-wave (km/s) = 4.26710 6.51289 5.50572
#
# Compressibility (1/GPa) = 0.03053491
#
# Stress axis : x y z
#
# Youngs Moduli (GPa) = 32.74296 134.29372 114.58125
#
# Poissons Ratio (x) = 0.17659 0.47829
# Poissons Ratio (y) = 0.04305 0.29799
# Poissons Ratio (z) = 0.13668 0.34926
#
# Static dielectric constant tensor:
#      x y z
#    x 2.039810 0.000000 0.045050 
#    y 0.000000 1.997390 0.000000 
#    z 0.045050 0.000000 2.055080 
# 
# From -- ./inp_files/11695.got.cif
#   From: 2010.05.17/outbox.cif.g08.bks.cpg/sg13_6_cif.got.tgz:11695.got - 2010.06.03 16:44:36.
