data_PCOD9237557
_publ_section_title
;
Structure prediction by ZEFSAII (Michael W. Deem and Ramdas Pophale) SiO2 
 PCOD9237557
Probable space group: P 2/C
;
_chemical_formula_sum "Si O2"
_cell_formula_units_Z 20
_cell_length_a 27.167105
_cell_length_b 6.928111
_cell_length_c 14.822237
_cell_angle_alpha 90.000000
_cell_angle_beta 159.530392
_cell_angle_gamma 90.000000
_cell_volume 975.619794
_symmetry_space_group_name_H-M "P 2/C"
_symmetry_group_IT_number 13
_symmetry_cell_setting 'monoclinic'
loop_
_space_group_symop_operation_xyz
x,y,z
-x,y,1/2-z
-x,-y,-z
x,-y,1/2+z
loop_
_atom_site_type_symbol
_atom_site_label
_atom_site_fract_x
_atom_site_fract_y
_atom_site_fract_z
Si Si1 0.343920 0.136079 0.457425
Si Si2 0.799124 0.561018 0.878800
Si Si3 0.926891 0.363161 0.776745
Si Si4 0.868692 0.211842 0.248115
Si Si5 0.162826 0.114252 0.508329
O O1 0.336957 0.351444 0.402561
O O2 0.246846 0.145442 0.379017
O O3 0.266463 0.006100 0.249617
O O4 0.500000 0.075115 0.750000
O O5 0.805686 0.336876 0.912050
O O6 0.824223 0.674383 0.016420
O O7 0.928819 0.594387 0.031973
O O8 0.868369 0.556469 0.724097
O O9 0.976940 0.208658 0.937589
O O10 0.835154 0.109965 0.096357
O O11 0.000000 0.066690 0.250000
#
# Coordination Sequence:
#
# PCOD9237557 Si02
#       5
#     4   4   4   4   4
#     4  11  26  40  56  88 129 166 195 234 300 370
#     4   9  17  38  61  85 123 148 193 254 297 342
#     4   8  14  32  62  93 113 140 196 256 300 340
#     4   9  18  36  61  87 123 150 197 249 300 348
#     4  11  22  39  63  93 117 149 207 260 295 341
#
# _framework density 20.499789
#
# number of rings (size 3 to 8) (size 9 to 14) (size 15 to 20)
#    0.000    2.400    4.000    0.000    5.600    2.400 
#    0.000    4.000    0.000    0.000    0.000    0.000 
#    0.000    0.000    0.000    0.000    0.000    0.000 
#
# Total GULP energy -111452.519456 kJ/mol
# GULP energy per Si atom -5572.625973 kJ/mol
# Density = 2.045313 g / cm^3
# Si number density = 20.499789 Si / 1000 Ang^3
#
#
#
# Elastic Constant Matrix: (Units=GPa)
#
#
# Indices 1 2 3 4 5 6 
#
# 1 141.2144 42.6758 67.4544 0.0000 -37.3590 0.0000
# 2 42.6758 73.1074 56.9528 0.0000 -15.8106 0.0000
# 3 67.4544 56.9528 147.2122 0.0000 -29.1476 0.0000
# 4 0.0000 0.0000 0.0000 18.9226 0.0000 -9.0444
# 5 -37.3590 -15.8106 -29.1476 0.0000 26.7570 0.0000
# 6 0.0000 0.0000 0.0000 -9.0444 0.0000 19.0699
#
#
#
# Elastic Compliance Matrix: (Units=1/GPa)
#
#
# Indices 1 2 3 4 5 6 
#
# 1 0.012459 -0.002834 -0.001912 0.000000 0.013639 0.000000
# 2 -0.002834 0.020607 -0.006434 0.000000 0.001211 0.000000
# 3 -0.001912 -0.006434 0.011318 0.000000 0.005857 0.000000
# 4 0.000000 0.000000 0.000000 0.068338 0.000000 0.032411
# 5 0.013639 0.001211 0.005857 0.000000 0.063513 0.000000
# 6 0.000000 0.000000 0.000000 0.032411 0.000000 0.067810
#
#
# Mechanical properties :
#
#
# Convention : Reuss Voigt Hill
#
# Bulk Modulus (GPa) = 45.40473 77.29999 61.35236
# Shear Modulus (GPa) = 18.26502 25.91331 22.08916
#
# Velocity S-wave (km/s) = 2.98818 3.55924 3.28614
# Velocity P-wave (km/s) = 5.83974 7.39463 6.66270
#
# Compressibility (1/GPa) = 0.02202414
#
# Stress axis : x y z
#
# Youngs Moduli (GPa) = 80.26029 48.52743 88.35404
#
# Poissons Ratio (x) = 0.13752 0.16896
# Poissons Ratio (y) = 0.22744 0.56847
# Poissons Ratio (z) = 0.15348 0.31223
#
# Static dielectric constant tensor:
#      x y z
#    x 1.748450 0.000000 -0.055680 
#    y 0.000000 1.841700 0.000000 
#    z -0.055680 0.000000 1.730780 
# 
# From -- ./inp_files/59437.got.cif
#   From: 2010.05.17/outbox.cif.g08.bks.cpg/sg13_30_cif.got.tgz:59437.got - 2010.06.03 16:44:36.
