data_PCOD9237781
_publ_section_title
;
Structure prediction by ZEFSAII (Michael W. Deem and Ramdas Pophale) SiO2 
 PCOD9237781
Probable space group: P 2/C
;
_chemical_formula_sum "Si O2"
_cell_formula_units_Z 26
_cell_length_a 20.306941
_cell_length_b 5.635408
_cell_length_c 11.361297
_cell_angle_alpha 90.000000
_cell_angle_beta 128.262856
_cell_angle_gamma 90.000000
_cell_volume 1020.859339
_symmetry_space_group_name_H-M "P 2/C"
_symmetry_group_IT_number 13
_symmetry_cell_setting 'monoclinic'
loop_
_space_group_symop_operation_xyz
x,y,z
-x,y,1/2-z
-x,-y,-z
x,-y,1/2+z
loop_
_atom_site_type_symbol
_atom_site_label
_atom_site_fract_x
_atom_site_fract_y
_atom_site_fract_z
Si Si1 0.925528 0.585785 0.831848
Si Si2 0.331367 0.637135 0.154876
Si Si3 0.712439 0.993443 0.574919
Si Si4 0.786964 0.264871 0.361075
Si Si5 0.117798 0.101189 0.822406
Si Si6 0.440139 0.193444 0.992235
Si Si7 0.500000 0.501171 0.250000
O O1 0.844354 0.604343 0.827939
O O2 0.926391 0.852671 0.770416
O O3 0.922061 0.362587 0.738884
O O4 0.000000 0.500000 0.000000
O O5 0.267227 0.425749 0.109836
O O6 0.376009 0.706811 0.325374
O O7 0.409798 0.622534 0.150993
O O8 0.278281 0.835313 0.030569
O O9 0.716264 0.858805 0.702964
O O10 0.799701 0.129276 0.668983
O O11 0.623071 0.117609 0.473272
O O12 0.850710 0.102905 0.507371
O O13 0.502006 0.366787 0.128569
O O14 0.500000 0.000000 0.000000
#
# Coordination Sequence:
#
# PCOD9237781 Si02
#       7
#     4   4   4   4   4   4   2
#     4  11  26  48  74 107 146 181 230 285 344 417
#     4  12  23  41  64  93 132 182 234 291 354 419
#     4  11  23  41  64  94 132 175 229 287 340 415
#     4  11  23  43  70 100 135 182 229 285 349 415
#     4  11  24  45  72 105 139 183 230 282 345 416
#     4  12  23  38  59  89 130 180 232 293 359 419
#     4  12  24  38  58  90 128 172 230 292 346 416
#
# _framework density 25.468737000000001
#
# number of rings (size 3 to 8) (size 9 to 14) (size 15 to 20)
#    0.000    0.615    0.000    9.231    0.000    4.308 
#    0.000    3.077    0.000    0.000    0.000    0.000 
#    0.000    0.000    0.000    0.000    0.000    0.000 
#
# Total GULP energy -145130.109513 kJ/mol
# GULP energy per Si atom -5581.927289 kJ/mol
# Density = 2.541077 g / cm^3
# Si number density = 25.468737 Si / 1000 Ang^3
#
#
#
# Elastic Constant Matrix: (Units=GPa)
#
#
# Indices 1 2 3 4 5 6 
#
# 1 108.2807 21.7533 -21.3474 0.0000 8.7958 0.0000
# 2 21.7533 133.2724 61.5529 0.0000 1.0152 0.0000
# 3 -21.3474 61.5529 141.7744 0.0000 -8.1869 0.0000
# 4 0.0000 0.0000 0.0000 52.9212 0.0000 8.0959
# 5 8.7958 1.0152 -8.1869 0.0000 39.7741 0.0000
# 6 0.0000 0.0000 0.0000 8.0959 0.0000 5.0409
#
#
#
# Elastic Compliance Matrix: (Units=1/GPa)
#
#
# Indices 1 2 3 4 5 6 
#
# 1 0.010522 -0.002991 0.002786 0.000000 -0.001677 0.000000
# 2 -0.002991 0.010283 -0.004951 0.000000 -0.000620 0.000000
# 3 0.002786 -0.004951 0.009710 0.000000 0.001509 0.000000
# 4 0.000000 0.000000 0.000000 0.025051 0.000000 -0.040232
# 5 -0.001677 -0.000620 0.001509 0.000000 0.025839 0.000000
# 6 0.000000 0.000000 0.000000 -0.040232 0.000000 0.262989
#
#
# Mechanical properties :
#
#
# Convention : Reuss Voigt Hill
#
# Bulk Modulus (GPa) = 49.49915 56.36055 52.92985
# Shear Modulus (GPa) = 13.83359 40.97184 27.40271
#
# Velocity S-wave (km/s) = 2.33311 4.01523 3.28370
# Velocity P-wave (km/s) = 5.17062 6.60858 5.93333
#
# Compressibility (1/GPa) = 0.02020237
#
# Stress axis : x y z
#
# Youngs Moduli (GPa) = 95.04110 97.24844 102.99182
#
# Poissons Ratio (x) = 0.29092 -0.28696
# Poissons Ratio (y) = 0.28431 0.50988
# Poissons Ratio (z) = -0.26481 0.48145
#
# Static dielectric constant tensor:
#      x y z
#    x 2.008580 0.000000 0.048780 
#    y 0.000000 2.110580 0.000000 
#    z 0.048780 0.000000 2.086650 
# 
# From -- ./inp_files/41297.got.cif
#   From: 2010.05.17/outbox.cif.g08.bks.cpg/sg13_21_cif.got.tgz:41297.got - 2010.06.03 16:44:36.
