data_PCOD9237644
_publ_section_title
;
Structure prediction by ZEFSAII (Michael W. Deem and Ramdas Pophale) SiO2 
 PCOD9237644
Probable space group: P 2/C
;
_chemical_formula_sum "Si O2"
_cell_formula_units_Z 28
_cell_length_a 28.235701
_cell_length_b 8.873003
_cell_length_c 9.220881
_cell_angle_alpha 90.000000
_cell_angle_beta 144.794766
_cell_angle_gamma 90.000000
_cell_volume 1331.821971
_symmetry_space_group_name_H-M "P 2/C"
_symmetry_group_IT_number 13
_symmetry_cell_setting 'monoclinic'
loop_
_space_group_symop_operation_xyz
x,y,z
-x,y,1/2-z
-x,-y,-z
x,-y,1/2+z
loop_
_atom_site_type_symbol
_atom_site_label
_atom_site_fract_x
_atom_site_fract_y
_atom_site_fract_z
Si Si1 0.253308 0.439927 0.538851
Si Si2 0.201551 0.832715 0.107599
Si Si3 0.445728 0.911430 0.974578
Si Si4 0.938299 0.955546 0.219743
Si Si5 0.204521 0.294295 0.105795
Si Si6 0.562012 0.570760 0.540206
Si Si7 0.723845 0.936775 0.905358
O O1 0.231225 0.323971 0.614267
O O2 0.225068 0.371672 0.311959
O O3 0.202359 0.585649 0.468268
O O4 0.350501 0.486012 0.769349
O O5 0.253455 0.874463 0.380332
O O6 0.213850 0.939577 0.997145
O O7 0.111922 0.888629 0.935690
O O8 0.500000 0.893609 0.250000
O O9 0.418611 0.742847 0.863758
O O10 0.365231 0.007512 0.806955
O O11 0.500000 0.000000 0.000000
O O12 0.000000 0.906538 0.250000
O O13 0.873715 0.817853 0.081501
O O14 0.000000 0.000000 0.500000
O O15 0.276947 0.185169 0.227094
O O16 0.500000 0.500000 0.500000
O O17 0.500000 0.573892 0.250000
#
# Coordination Sequence:
#
# PCOD9237644 Si02
#       7
#     4   4   4   4   4   4   4
#     4  12  24  44  69 101 142 188 238 286 342 424
#     4  11  24  40  72  99 132 181 226 279 347 423
#     4  11  25  42  63  94 134 177 234 296 344 397
#     4  11  23  46  73 103 137 169 219 286 348 421
#     4  11  24  43  69 100 138 180 232 280 349 423
#     4  11  26  42  65  96 139 186 233 294 352 396
#     4  11  22  43  63  97 132 180 238 284 339 410
#
# _framework density 21.023831999999999
#
# number of rings (size 3 to 8) (size 9 to 14) (size 15 to 20)
#    0.000    0.857    1.429    6.857    6.000    0.571 
#    0.000    3.571    0.000    0.000    0.000    0.000 
#    0.000    0.000    0.000    0.000    0.000    0.000 
#
# Total GULP energy -155974.311042 kJ/mol
# GULP energy per Si atom -5570.511109 kJ/mol
# Density = 2.097598 g / cm^3
# Si number density = 21.023832 Si / 1000 Ang^3
#
#
#
# Elastic Constant Matrix: (Units=GPa)
#
#
# Indices 1 2 3 4 5 6 
#
# 1 146.2540 53.2760 46.5917 0.0000 12.7423 0.0000
# 2 53.2760 90.5910 27.4281 0.0000 4.2793 0.0000
# 3 46.5917 27.4281 121.4679 0.0000 6.5090 0.0000
# 4 0.0000 0.0000 0.0000 27.4437 0.0000 4.4408
# 5 12.7423 4.2793 6.5090 0.0000 42.1247 0.0000
# 6 0.0000 0.0000 0.0000 4.4408 0.0000 41.4942
#
#
#
# Elastic Compliance Matrix: (Units=1/GPa)
#
#
# Indices 1 2 3 4 5 6 
#
# 1 0.009537 -0.004764 -0.002474 0.000000 -0.002019 0.000000
# 2 -0.004764 0.014255 -0.001403 0.000000 0.000210 0.000000
# 3 -0.002474 -0.001403 0.009530 0.000000 -0.000582 0.000000
# 4 0.000000 0.000000 0.000000 0.037080 0.000000 -0.003968
# 5 -0.002019 0.000210 -0.000582 0.000000 0.024418 0.000000
# 6 0.000000 0.000000 0.000000 -0.003968 0.000000 0.024524
#
#
# Mechanical properties :
#
#
# Convention : Reuss Voigt Hill
#
# Bulk Modulus (GPa) = 62.34585 68.10051 65.22318
# Shear Modulus (GPa) = 35.21790 37.61366 36.41578
#
# Velocity S-wave (km/s) = 4.09729 4.23436 4.16639
# Velocity P-wave (km/s) = 7.21824 7.50791 7.36450
#
# Compressibility (1/GPa) = 0.01603956
#
# Stress axis : x y z
#
# Youngs Moduli (GPa) = 104.85582 70.14990 104.93673
#
# Poissons Ratio (x) = 0.33420 0.25963
# Poissons Ratio (y) = 0.49955 0.14720
# Poissons Ratio (z) = 0.25943 0.09840
#
# Static dielectric constant tensor:
#      x y z
#    x 1.862910 0.000000 0.007880 
#    y 0.000000 1.917770 0.000000 
#    z 0.007880 0.000000 1.742830 
# 
# From -- ./inp_files/24615.got.cif
#   From: 2010.05.17/outbox.cif.g08.bks.cpg/sg13_13_cif.got.tgz:24615.got - 2010.06.03 16:44:36.
