data_PCOD9237657
_publ_section_title
;
Structure prediction by ZEFSAII (Michael W. Deem and Ramdas Pophale) SiO2 
 PCOD9237657
Probable space group: P 2/C
;
_chemical_formula_sum "Si O2"
_cell_formula_units_Z 22
_cell_length_a 22.321809
_cell_length_b 9.263048
_cell_length_c 14.112502
_cell_angle_alpha 90.000000
_cell_angle_beta 159.055373
_cell_angle_gamma 90.000000
_cell_volume 1043.089300
_symmetry_space_group_name_H-M "P 2/C"
_symmetry_group_IT_number 13
_symmetry_cell_setting 'monoclinic'
loop_
_space_group_symop_operation_xyz
x,y,z
-x,y,1/2-z
-x,-y,-z
x,-y,1/2+z
loop_
_atom_site_type_symbol
_atom_site_label
_atom_site_fract_x
_atom_site_fract_y
_atom_site_fract_z
Si Si1 0.848035 0.110797 0.256671
Si Si2 0.744293 0.413287 0.390617
Si Si3 0.488023 0.842755 0.532196
Si Si4 0.500000 0.043144 0.250000
Si Si5 0.040323 0.393212 0.971420
Si Si6 0.186660 0.276194 0.490941
O O1 0.889912 0.248899 0.380627
O O2 0.831122 0.168123 0.123760
O O3 0.666978 0.048055 0.016221
O O4 0.000000 0.000000 0.500000
O O5 0.605691 0.289637 0.172304
O O6 0.823342 0.446052 0.403941
O O7 0.714598 0.575182 0.387544
O O8 0.880741 0.358556 0.668845
O O9 0.500000 0.000000 0.500000
O O10 0.534234 0.862763 0.708961
O O11 0.296176 0.797485 0.233739
O O12 0.000000 0.500000 0.000000
O O13 0.000000 0.310672 0.250000
#
# Coordination Sequence:
#
# PCOD9237657 Si02
#       6
#     4   4   4   2   4   4
#     4  12  25  45  72 102 143 191 239 299 369 435
#     4  11  24  45  70 104 143 185 236 300 358 430
#     4  12  26  47  70 104 147 187 242 299 363 442
#     4  12  26  48  70 106 144 186 246 294 374 436
#     4  11  22  43  73 104 141 183 241 293 359 437
#     4  12  24  47  71 103 143 186 241 303 362 433
#
# _framework density 21.091196
#
# number of rings (size 3 to 8) (size 9 to 14) (size 15 to 20)
#    0.000    0.364    5.455    3.818    0.000    1.455 
#    0.000    0.000    0.000    0.000    0.000    0.000 
#    0.000    0.000    0.000    0.000    0.000    0.000 
#
# Total GULP energy -122805.453718 kJ/mol
# GULP energy per Si atom -5582.066078 kJ/mol
# Density = 2.104319 g / cm^3
# Si number density = 21.091196 Si / 1000 Ang^3
#
#
#
# Elastic Constant Matrix: (Units=GPa)
#
#
# Indices 1 2 3 4 5 6 
#
# 1 94.6489 30.2250 26.7166 0.0000 -4.9097 0.0000
# 2 30.2250 114.8981 68.0594 0.0000 13.9113 0.0000
# 3 26.7166 68.0594 119.9284 0.0000 3.5457 0.0000
# 4 0.0000 0.0000 0.0000 57.7990 0.0000 -8.6867
# 5 -4.9097 13.9113 3.5457 0.0000 35.3093 0.0000
# 6 0.0000 0.0000 0.0000 -8.6867 0.0000 32.3907
#
#
#
# Elastic Compliance Matrix: (Units=1/GPa)
#
#
# Indices 1 2 3 4 5 6 
#
# 1 0.011936 -0.002807 -0.001151 0.000000 0.002881 0.000000
# 2 -0.002807 0.014500 -0.007445 0.000000 -0.005356 0.000000
# 3 -0.001151 -0.007445 0.012776 0.000000 0.001490 0.000000
# 4 0.000000 0.000000 0.000000 0.018028 0.000000 0.004835
# 5 0.002881 -0.005356 0.001490 0.000000 0.030682 0.000000
# 6 0.000000 0.000000 0.000000 0.004835 0.000000 0.032170
#
#
# Mechanical properties :
#
#
# Convention : Reuss Voigt Hill
#
# Bulk Modulus (GPa) = 60.95512 64.38639 62.67075
# Shear Modulus (GPa) = 33.70007 38.73142 36.21574
#
# Velocity S-wave (km/s) = 4.00162 4.28995 4.14829
# Velocity P-wave (km/s) = 7.09324 7.42510 7.26107
#
# Compressibility (1/GPa) = 0.01640551
#
# Stress axis : x y z
#
# Youngs Moduli (GPa) = 83.77935 68.96388 78.27182
#
# Poissons Ratio (x) = 0.19356 0.09012
# Poissons Ratio (y) = 0.23514 0.58276
# Poissons Ratio (z) = 0.09646 0.51346
#
# Static dielectric constant tensor:
#      x y z
#    x 1.792300 0.000000 0.029150 
#    y 0.000000 1.802240 0.000000 
#    z 0.029150 0.000000 1.867100 
# 
# From -- ./inp_files/58762.got.cif
#   From: 2010.05.17/outbox.cif.g08.bks.cpg/sg13_30_cif.got.tgz:58762.got - 2010.06.03 16:44:36.
