data_PCOD9237780
_publ_section_title
;
Structure prediction by ZEFSAII (Michael W. Deem and Ramdas Pophale) SiO2 
 PCOD9237780
Probable space group: P 2/C
;
_chemical_formula_sum "Si O2"
_cell_formula_units_Z 20
_cell_length_a 14.752856
_cell_length_b 5.493256
_cell_length_c 9.217644
_cell_angle_alpha 90.000000
_cell_angle_beta 95.939125
_cell_angle_gamma 90.000000
_cell_volume 742.999415
_symmetry_space_group_name_H-M "P 2/C"
_symmetry_group_IT_number 13
_symmetry_cell_setting 'monoclinic'
loop_
_space_group_symop_operation_xyz
x,y,z
-x,y,1/2-z
-x,-y,-z
x,-y,1/2+z
loop_
_atom_site_type_symbol
_atom_site_label
_atom_site_fract_x
_atom_site_fract_y
_atom_site_fract_z
Si Si1 0.760869 0.687499 0.389761
Si Si2 0.922668 0.337831 0.319489
Si Si3 0.116739 0.053591 0.937448
Si Si4 0.469361 0.246404 0.076672
Si Si5 0.706846 0.652250 0.095939
O O1 0.829624 0.472713 0.347640
O O2 0.826699 0.909788 0.430028
O O3 0.719971 0.620127 0.540196
O O4 0.680482 0.693210 0.258089
O O5 0.000000 0.497591 0.250000
O O6 0.951885 0.218022 0.478262
O O7 0.909486 0.133889 0.192333
O O8 0.194035 0.227578 0.885879
O O9 0.500000 0.250081 0.250000
O O10 0.360337 0.237449 0.033112
O O11 0.500000 0.500000 0.000000
O O12 0.500000 0.000000 0.000000
#
# Coordination Sequence:
#
# PCOD9237780 Si02
#       5
#     4   4   4   4   4
#     4  11  23  42  67  96 126 182 223 274 346 405
#     4  11  24  41  63  96 132 171 226 287 339 408
#     4  11  23  41  64  94 124 178 223 269 348 401
#     4  12  29  49  77 116 152 197 246 310 385 440
#     4  11  25  43  72  93 139 173 234 283 336 442
#
# _framework density 26.917922000000001
#
# number of rings (size 3 to 8) (size 9 to 14) (size 15 to 20)
#    0.000    0.800    4.000    2.400    5.600    1.600 
#    0.000    0.000    0.000    0.000    0.000    0.000 
#    0.000    0.000    0.000    0.000    0.000    0.000 
#
# Total GULP energy -111748.251144 kJ/mol
# GULP energy per Si atom -5587.412557 kJ/mol
# Density = 2.685666 g / cm^3
# Si number density = 26.917922 Si / 1000 Ang^3
#
#
#
# Elastic Constant Matrix: (Units=GPa)
#
#
# Indices 1 2 3 4 5 6 
#
# 1 42.9501 -2.2950 2.1255 0.0000 7.2833 0.0000
# 2 -2.2950 96.2620 57.9545 0.0000 -9.2622 0.0000
# 3 2.1255 57.9545 215.5376 0.0000 24.3621 0.0000
# 4 0.0000 0.0000 0.0000 69.1384 0.0000 -3.9620
# 5 7.2833 -9.2622 24.3621 0.0000 36.6571 0.0000
# 6 0.0000 0.0000 0.0000 -3.9620 0.0000 26.8932
#
#
#
# Elastic Compliance Matrix: (Units=1/GPa)
#
#
# Indices 1 2 3 4 5 6 
#
# 1 0.024118 -0.000138 0.000373 0.000000 -0.005074 0.000000
# 2 -0.000138 0.013643 -0.004389 0.000000 0.006392 0.000000
# 3 0.000373 -0.004389 0.006433 0.000000 -0.005459 0.000000
# 4 0.000000 0.000000 0.000000 0.014587 0.000000 0.002149
# 5 -0.005074 0.006392 -0.005459 0.000000 0.033531 0.000000
# 6 0.000000 0.000000 0.000000 0.002149 0.000000 0.037501
#
#
# Mechanical properties :
#
#
# Convention : Reuss Voigt Hill
#
# Bulk Modulus (GPa) = 27.86705 52.25774 40.06240
# Shear Modulus (GPa) = 33.31519 46.33540 39.82529
#
# Velocity S-wave (km/s) = 3.52185 4.15343 3.85061
# Velocity P-wave (km/s) = 5.18778 6.51592 5.88940
#
# Compressibility (1/GPa) = 0.03588468
#
# Stress axis : x y z
#
# Youngs Moduli (GPa) = 41.46361 73.29962 155.44641
#
# Poissons Ratio (x) = 0.01009 -0.05794
# Poissons Ratio (y) = 0.00571 0.68231
# Poissons Ratio (z) = -0.01546 0.32174
#
# Static dielectric constant tensor:
#      x y z
#    x 2.203780 0.000000 -0.083200 
#    y 0.000000 2.214020 0.000000 
#    z -0.083200 0.000000 2.301540 
# 
# From -- ./inp_files/20473.got.cif
#   From: 2010.05.17/outbox.cif.g08.bks.cpg/sg13_11_cif.got.tgz:20473.got - 2010.06.03 16:44:36.
