data_PCOD9237840
_publ_section_title
;
Structure prediction by ZEFSAII (Michael W. Deem and Ramdas Pophale) SiO2 
 PCOD9237840
Probable space group: P 2/C
;
_chemical_formula_sum "Si O2"
_cell_formula_units_Z 18
_cell_length_a 11.799592
_cell_length_b 6.134437
_cell_length_c 10.356667
_cell_angle_alpha 90.000000
_cell_angle_beta 108.400664
_cell_angle_gamma 90.000000
_cell_volume 711.327350
_symmetry_space_group_name_H-M "P 2/C"
_symmetry_group_IT_number 13
_symmetry_cell_setting 'monoclinic'
loop_
_space_group_symop_operation_xyz
x,y,z
-x,y,1/2-z
-x,-y,-z
x,-y,1/2+z
loop_
_atom_site_type_symbol
_atom_site_label
_atom_site_fract_x
_atom_site_fract_y
_atom_site_fract_z
Si Si1 0.156445 0.735117 0.717034
Si Si2 0.407131 0.175261 0.012968
Si Si3 0.000000 0.634458 0.250000
Si Si4 0.405294 0.495134 0.794482
Si Si5 0.846886 0.024270 0.533997
O O1 0.073254 0.523911 0.681110
O O2 0.288813 0.644447 0.727463
O O3 0.116348 0.927230 0.602920
O O4 0.145105 0.822762 0.861153
O O5 0.355674 0.327945 0.881972
O O6 0.295592 0.050696 0.029939
O O7 0.487974 0.344607 0.120399
O O8 0.500000 0.000000 0.000000
O O9 0.909956 0.781239 0.135067
O O10 0.500000 0.341784 0.750000
#
# Coordination Sequence:
#
# PCOD9237840 Si02
#       5
#     4   4   2   4   4
#     4  12  27  49  78 111 150 197 253 313 370 454
#     4  11  23  43  70 109 146 191 237 303 372 442
#     4  12  28  52  72 104 150 208 258 308 364 444
#     4  11  23  42  73 110 148 191 240 301 380 444
#     4  12  27  48  77 111 150 198 253 308 380 440
#
# _framework density 25.304803
#
# number of rings (size 3 to 8) (size 9 to 14) (size 15 to 20)
#    0.000    0.444    6.667    1.333    0.000    8.000 
#    0.000    0.000    0.000    0.000    0.000    0.000 
#    0.000    0.000    0.000    0.000    0.000    0.000 
#
# Total GULP energy -100313.079104 kJ/mol
# GULP energy per Si atom -5572.948839 kJ/mol
# Density = 2.524721 g / cm^3
# Si number density = 25.304803 Si / 1000 Ang^3
#
#
#
# Elastic Constant Matrix: (Units=GPa)
#
#
# Indices 1 2 3 4 5 6 
#
# 1 135.8163 21.5679 8.3286 0.0000 11.5461 0.0000
# 2 21.5679 52.6031 7.6717 0.0000 10.2087 0.0000
# 3 8.3286 7.6717 68.2713 0.0000 -4.0321 0.0000
# 4 0.0000 0.0000 0.0000 44.5470 0.0000 19.1583
# 5 11.5461 10.2087 -4.0321 0.0000 27.1330 0.0000
# 6 0.0000 0.0000 0.0000 19.1583 0.0000 40.2277
#
#
#
# Elastic Compliance Matrix: (Units=1/GPa)
#
#
# Indices 1 2 3 4 5 6 
#
# 1 0.008057 -0.002689 -0.000831 0.000000 -0.002540 0.000000
# 2 -0.002689 0.021944 -0.002580 0.000000 -0.007495 0.000000
# 3 -0.000831 -0.002580 0.015251 0.000000 0.003591 0.000000
# 4 0.000000 0.000000 0.000000 0.028230 0.000000 -0.013445
# 5 -0.002540 -0.007495 0.003591 0.000000 0.041290 0.000000
# 6 0.000000 0.000000 0.000000 -0.013445 0.000000 0.031261
#
#
# Mechanical properties :
#
#
# Convention : Reuss Voigt Hill
#
# Bulk Modulus (GPa) = 30.25659 36.86966 33.56312
# Shear Modulus (GPa) = 29.54191 36.98971 33.26581
#
# Velocity S-wave (km/s) = 3.42049 3.82745 3.62968
# Velocity P-wave (km/s) = 5.25191 5.84246 5.55504
#
# Compressibility (1/GPa) = 0.03305065
#
# Stress axis : x y z
#
# Youngs Moduli (GPa) = 124.11828 45.57082 65.57025
#
# Poissons Ratio (x) = 0.12255 0.05447
# Poissons Ratio (y) = 0.33379 0.16920
# Poissons Ratio (z) = 0.10310 0.11759
#
# Static dielectric constant tensor:
#      x y z
#    x 1.903830 0.000000 0.001460 
#    y 0.000000 1.751450 0.000000 
#    z 0.001460 0.000000 2.013960 
# 
# From -- ./inp_files/31438.got.cif
#   From: 2010.05.17/outbox.cif.g08.bks.cpg/sg13_16_cif.got.tgz:31438.got - 2010.06.03 16:44:36.
