data_PCOD9237074
_publ_section_title
;
Structure prediction by ZEFSAII (Michael W. Deem and Ramdas Pophale) SiO2 
 PCOD9237074
Probable space group: P 2/C
;
_chemical_formula_sum "Si O2"
_cell_formula_units_Z 20
_cell_length_a 23.550908
_cell_length_b 4.979697
_cell_length_c 15.409654
_cell_angle_alpha 90.000000
_cell_angle_beta 26.049834
_cell_angle_gamma 90.000000
_cell_volume 793.631763
_symmetry_space_group_name_H-M "P 2/C"
_symmetry_group_IT_number 13
_symmetry_cell_setting 'monoclinic'
loop_
_space_group_symop_operation_xyz
x,y,z
-x,y,1/2-z
-x,-y,-z
x,-y,1/2+z
loop_
_atom_site_type_symbol
_atom_site_label
_atom_site_fract_x
_atom_site_fract_y
_atom_site_fract_z
Si Si1 0.648450 0.485369 0.450375
Si Si2 0.723501 0.981129 0.237347
Si Si3 0.012842 0.072399 0.879111
Si Si4 0.180834 0.574945 0.613498
Si Si5 0.406386 0.363895 0.200787
O O1 0.662433 0.187212 0.392120
O O2 0.726818 0.473429 0.430957
O O3 0.502808 0.600708 0.649334
O O4 0.716779 0.690868 0.290004
O O5 0.638633 0.070009 0.270149
O O6 0.874639 0.043217 0.023421
O O7 0.119705 0.867752 0.696337
O O8 0.064457 0.368421 0.789232
O O9 0.000000 0.000000 0.000000
O O10 0.271828 0.509091 0.407175
O O11 0.500000 0.500000 0.000000
#
# Coordination Sequence:
#
# PCOD9237074 Si02
#       5
#     4   4   4   4   4
#     4  11  21  42  70  98 134 178 229 281 341 412
#     4  11  23  42  68  97 138 181 217 285 348 402
#     4  12  23  43  71 102 139 172 236 289 342 413
#     4  12  24  42  73 104 131 185 232 283 348 416
#     4  10  26  46  66 100 144 182 227 284 348 415
#
# _framework density 25.200602
#
# number of rings (size 3 to 8) (size 9 to 14) (size 15 to 20)
#    0.000    0.800    4.000    3.000    0.000    7.200 
#    0.000    8.000    0.000    0.000    0.000    0.000 
#    0.000    0.000    0.000    0.000    0.000    0.000 
#
# Total GULP energy -111917.528391 kJ/mol
# GULP energy per Si atom -5595.876420 kJ/mol
# Density = 2.514324 g / cm^3
# Si number density = 25.200602 Si / 1000 Ang^3
#
#
#
# Elastic Constant Matrix: (Units=GPa)
#
#
# Indices 1 2 3 4 5 6 
#
# 1 106.0170 22.5006 41.9988 0.0000 -17.7312 0.0000
# 2 22.5006 52.0472 -15.1754 0.0000 10.5754 0.0000
# 3 41.9988 -15.1754 108.1216 0.0000 -12.2612 0.0000
# 4 0.0000 0.0000 0.0000 41.7074 0.0000 -12.6626
# 5 -17.7312 10.5754 -12.2612 0.0000 54.3767 0.0000
# 6 0.0000 0.0000 0.0000 -12.6626 0.0000 27.2113
#
#
#
# Elastic Compliance Matrix: (Units=1/GPa)
#
#
# Indices 1 2 3 4 5 6 
#
# 1 0.014871 -0.009383 -0.006503 0.000000 0.005208 0.000000
# 2 -0.009383 0.026566 0.006610 0.000000 -0.006736 0.000000
# 3 -0.006503 0.006610 0.012639 0.000000 -0.000556 0.000000
# 4 0.000000 0.000000 0.000000 0.027921 0.000000 0.012993
# 5 0.005208 -0.006736 -0.000556 0.000000 0.021273 0.000000
# 6 0.000000 0.000000 0.000000 0.012993 0.000000 0.042796
#
#
# Mechanical properties :
#
#
# Convention : Reuss Voigt Hill
#
# Bulk Modulus (GPa) = 28.15074 40.53709 34.34391
# Shear Modulus (GPa) = 28.33505 39.11654 33.72580
#
# Velocity S-wave (km/s) = 3.35682 3.94408 3.66224
# Velocity P-wave (km/s) = 5.12047 6.07138 5.61609
#
# Compressibility (1/GPa) = 0.03552305
#
# Stress axis : x y z
#
# Youngs Moduli (GPa) = 67.24499 37.64276 79.11719
#
# Poissons Ratio (x) = 0.35321 0.51449
# Poissons Ratio (y) = 0.63097 -0.52293
# Poissons Ratio (z) = 0.43729 -0.24880
#
# Static dielectric constant tensor:
#      x y z
#    x 2.063330 0.000000 -0.022110 
#    y 0.000000 1.967430 0.000000 
#    z -0.022110 0.000000 1.864110 
# 
# From -- ./inp_files/65230.got.cif
#   From: 2010.05.17/outbox.cif.g08.bks.cpg/sg13_33_cif.got.tgz:65230.got - 2010.06.03 16:44:36.
