data_PCOD9237454
_publ_section_title
;
Structure prediction by ZEFSAII (Michael W. Deem and Ramdas Pophale) SiO2 
 PCOD9237454
Probable space group: P 2/C
;
_chemical_formula_sum "Si O2"
_cell_formula_units_Z 16
_cell_length_a 13.954347
_cell_length_b 4.955676
_cell_length_c 11.136539
_cell_angle_alpha 90.000000
_cell_angle_beta 125.628654
_cell_angle_gamma 90.000000
_cell_volume 625.967024
_symmetry_space_group_name_H-M "P 2/C"
_symmetry_group_IT_number 13
_symmetry_cell_setting 'monoclinic'
loop_
_space_group_symop_operation_xyz
x,y,z
-x,y,1/2-z
-x,-y,-z
x,-y,1/2+z
loop_
_atom_site_type_symbol
_atom_site_label
_atom_site_fract_x
_atom_site_fract_y
_atom_site_fract_z
Si Si1 0.023077 0.225280 0.389314
Si Si2 0.764362 0.471198 0.816070
Si Si3 0.361495 0.979097 0.655243
Si Si4 0.182534 0.091198 0.837444
O O1 0.107390 0.402968 0.532285
O O2 0.000000 0.391161 0.250000
O O3 0.101616 0.974850 0.394858
O O4 0.896050 0.080585 0.318832
O O5 0.703025 0.736703 0.821001
O O6 0.788239 0.383273 0.695490
O O7 0.675156 0.242760 0.798890
O O8 0.500000 0.936622 0.750000
O O9 0.306662 0.008711 0.481012
#
# Coordination Sequence:
#
# PCOD9237454 Si02
#       4
#     4   4   4   4
#     4   7  17  38  59  93 121 149 193 251 297 358
#     4  11  21  41  64  87 121 163 201 245 308 358
#     4  11  25  41  60  90 124 160 208 251 290 356
#     4   8  19  39  61  90 122 158 197 248 302 360
#
# _framework density 25.560452000000002
#
# number of rings (size 3 to 8) (size 9 to 14) (size 15 to 20)
#    1.500    1.000    0.000    1.500    0.000    6.000 
#    9.000   12.500    0.000    0.000    0.000    0.000 
#    0.000    0.000    0.000    0.000    0.000    0.000 
#
# Total GULP energy -89123.451967 kJ/mol
# GULP energy per Si atom -5570.215748 kJ/mol
# Density = 2.550228 g / cm^3
# Si number density = 25.560452 Si / 1000 Ang^3
#
#
#
# Elastic Constant Matrix: (Units=GPa)
#
#
# Indices 1 2 3 4 5 6 
#
# 1 170.7383 50.5872 63.9657 0.0000 47.4379 0.0000
# 2 50.5872 124.0430 6.5821 0.0000 12.1442 0.0000
# 3 63.9657 6.5821 104.3565 0.0000 39.4871 0.0000
# 4 0.0000 0.0000 0.0000 18.5731 0.0000 1.2221
# 5 47.4379 12.1442 39.4871 0.0000 51.9744 0.0000
# 6 0.0000 0.0000 0.0000 1.2221 0.0000 40.6014
#
#
#
# Elastic Compliance Matrix: (Units=1/GPa)
#
#
# Indices 1 2 3 4 5 6 
#
# 1 0.009670 -0.003233 -0.003747 0.000000 -0.005224 0.000000
# 2 -0.003233 0.009338 0.001546 0.000000 -0.000406 0.000000
# 3 -0.003747 0.001546 0.014911 0.000000 -0.008270 0.000000
# 4 0.000000 0.000000 0.000000 0.053948 0.000000 -0.001624
# 5 -0.005224 -0.000406 -0.008270 0.000000 0.030386 0.000000
# 6 0.000000 0.000000 0.000000 -0.001624 0.000000 0.024679
#
#
# Mechanical properties :
#
#
# Convention : Reuss Voigt Hill
#
# Bulk Modulus (GPa) = 43.38093 71.26755 57.32424
# Shear Modulus (GPa) = 30.96306 40.76330 35.86318
#
# Velocity S-wave (km/s) = 3.48424 3.99780 3.74983
# Velocity P-wave (km/s) = 5.76154 7.01800 6.42058
#
# Compressibility (1/GPa) = 0.02305160
#
# Stress axis : x y z
#
# Youngs Moduli (GPa) = 103.41269 107.08932 67.06555
#
# Poissons Ratio (x) = 0.34626 0.25127
# Poissons Ratio (y) = 0.33437 -0.10371
# Poissons Ratio (z) = 0.38745 -0.16560
#
# Static dielectric constant tensor:
#      x y z
#    x 2.076550 0.000000 -0.130510 
#    y 0.000000 2.108160 0.000000 
#    z -0.130510 0.000000 2.202840 
# 
# From -- ./inp_files/31489.got.cif
#   From: 2010.05.17/outbox.cif.g08.bks.cpg/sg13_16_cif.got.tgz:31489.got - 2010.06.03 16:44:36.
