data_PCOD9237038
_publ_section_title
;
Structure prediction by ZEFSAII (Michael W. Deem and Ramdas Pophale) SiO2 
 PCOD9237038
Probable space group: P 2/C
;
_chemical_formula_sum "Si O2"
_cell_formula_units_Z 20
_cell_length_a 8.618269
_cell_length_b 6.615535
_cell_length_c 18.578263
_cell_angle_alpha 90.000000
_cell_angle_beta 126.577275
_cell_angle_gamma 90.000000
_cell_volume 850.618480
_symmetry_space_group_name_H-M "P 2/C"
_symmetry_group_IT_number 13
_symmetry_cell_setting 'monoclinic'
loop_
_space_group_symop_operation_xyz
x,y,z
-x,y,1/2-z
-x,-y,-z
x,-y,1/2+z
loop_
_atom_site_type_symbol
_atom_site_label
_atom_site_fract_x
_atom_site_fract_y
_atom_site_fract_z
Si Si1 0.254434 0.420730 0.897491
Si Si2 0.000000 0.871604 0.250000
Si Si3 0.500000 0.524260 0.750000
Si Si4 0.563106 0.095155 0.941945
Si Si5 0.214350 0.422900 0.541610
Si Si6 0.311605 0.207558 0.309431
O O1 0.417802 0.287444 0.903124
O O2 0.255301 0.639230 0.858920
O O3 0.068457 0.283052 0.830543
O O4 0.280347 0.446051 0.989736
O O5 0.160562 0.025673 0.265864
O O6 0.362131 0.423276 0.650673
O O7 0.657445 0.655273 0.750440
O O8 0.769671 0.193271 0.984890
O O9 0.511113 0.915952 0.874021
O O10 0.500000 0.000000 0.000000
O O11 0.000000 0.500000 0.500000
#
# Coordination Sequence:
#
# PCOD9237038 Si02
#       6
#     4   2   2   4   4   4
#     4  11  23  47  73 104 151 205 254 313 396 467
#     4  10  26  40  80 112 144 200 270 324 370 486
#     4  12  28  48  72 112 160 202 244 332 396 450
#     4  11  22  44  76 104 139 209 263 303 389 482
#     4  12  28  45  77 113 156 203 257 329 393 458
#     4  11  24  45  76 106 155 201 259 316 390 468
#
# _framework density 23.512302999999999
#
# number of rings (size 3 to 8) (size 9 to 14) (size 15 to 20)
#    0.000    0.800    4.000    2.400    5.600    2.400 
#    0.000    3.000    0.000    0.000    0.000    0.000 
#    0.000    0.000    0.000    0.000    0.000    0.000 
#
# Total GULP energy -111525.199527 kJ/mol
# GULP energy per Si atom -5576.259976 kJ/mol
# Density = 2.345879 g / cm^3
# Si number density = 23.512303 Si / 1000 Ang^3
#
#
#
# Elastic Constant Matrix: (Units=GPa)
#
#
# Indices 1 2 3 4 5 6 
#
# 1 93.0555 46.9223 33.5503 0.0000 -10.5211 0.0000
# 2 46.9223 132.4169 46.5256 0.0000 11.3816 0.0000
# 3 33.5503 46.5256 109.2741 0.0000 -10.5368 0.0000
# 4 0.0000 0.0000 0.0000 32.7845 0.0000 9.0238
# 5 -10.5211 11.3816 -10.5368 0.0000 34.6020 0.0000
# 6 0.0000 0.0000 0.0000 9.0238 0.0000 48.0520
#
#
#
# Elastic Compliance Matrix: (Units=1/GPa)
#
#
# Indices 1 2 3 4 5 6 
#
# 1 0.014537 -0.004990 -0.001807 0.000000 0.005511 0.000000
# 2 -0.004990 0.011227 -0.003864 0.000000 -0.006387 0.000000
# 3 -0.001807 -0.003864 0.011766 0.000000 0.004304 0.000000
# 4 0.000000 0.000000 0.000000 0.032165 0.000000 -0.006040
# 5 0.005511 -0.006387 0.004304 0.000000 0.033987 0.000000
# 6 0.000000 0.000000 0.000000 -0.006040 0.000000 0.021945
#
#
# Mechanical properties :
#
#
# Convention : Reuss Voigt Hill
#
# Bulk Modulus (GPa) = 61.69780 65.41587 63.55684
# Shear Modulus (GPa) = 32.81881 36.93760 34.87820
#
# Velocity S-wave (km/s) = 3.74011 3.96787 3.85567
# Velocity P-wave (km/s) = 6.70439 6.99102 6.84921
#
# Compressibility (1/GPa) = 0.01620803
#
# Stress axis : x y z
#
# Youngs Moduli (GPa) = 68.78945 89.07430 84.98847
#
# Poissons Ratio (x) = 0.44448 0.15360
# Poissons Ratio (y) = 0.34326 0.32837
# Poissons Ratio (z) = 0.12433 0.34416
#
# Static dielectric constant tensor:
#      x y z
#    x 1.987100 0.000000 0.071790 
#    y 0.000000 1.951110 0.000000 
#    z 0.071790 0.000000 2.057160 
# 
# From -- ./inp_files/74440.got.cif
#   From: 2010.05.17/outbox.cif.g08.bks.cpg/sg13_38_cif.got.tgz:74440.got - 2010.06.03 16:44:36.
