data_PCOD9237537
_publ_section_title
;
Structure prediction by ZEFSAII (Michael W. Deem and Ramdas Pophale) SiO2 
 PCOD9237537
Probable space group: P 2/C
;
_chemical_formula_sum "Si O2"
_cell_formula_units_Z 24
_cell_length_a 21.012126
_cell_length_b 11.419193
_cell_length_c 21.590904
_cell_angle_alpha 90.000000
_cell_angle_beta 13.296167
_cell_angle_gamma 90.000000
_cell_volume 1191.447893
_symmetry_space_group_name_H-M "P 2/C"
_symmetry_group_IT_number 13
_symmetry_cell_setting 'monoclinic'
loop_
_space_group_symop_operation_xyz
x,y,z
-x,y,1/2-z
-x,-y,-z
x,-y,1/2+z
loop_
_atom_site_type_symbol
_atom_site_label
_atom_site_fract_x
_atom_site_fract_y
_atom_site_fract_z
Si Si1 0.394375 0.776625 0.490427
Si Si2 0.888375 0.638531 0.034884
Si Si3 0.041853 0.638533 0.034888
Si Si4 0.295236 0.000000 0.000000
Si Si5 0.747241 0.915479 0.252758
Si Si6 0.375232 0.776627 0.009572
O O1 0.601044 0.674571 0.272511
O O2 0.633541 0.840848 0.304195
O O3 0.283993 0.882130 0.552435
O O4 0.145235 0.715441 0.764261
O O5 0.914301 0.499999 0.999997
O O6 0.905235 0.649809 0.094765
O O7 0.326240 0.715442 0.764263
O O8 0.853933 0.674572 0.272512
O O9 0.388863 0.882134 0.947568
O O10 0.000000 0.975409 0.250000
O O11 0.500000 0.024589 0.750000
O O12 0.758067 0.840845 0.304195
O O13 0.500000 0.000000 0.500000
O O14 0.000000 0.000000 0.000000
#
# Coordination Sequence:
#
# PCOD9237537 Si02
#       6
#     4   4   4   4   4   4
#     4  12  23  40  65  91 132 165 206 258 319 384
#     4  11  22  38  63 100 136 164 196 247 320 397
#     4  11  22  38  63 100 136 164 196 247 320 397
#     4  12  28  45  64  89 122 170 220 268 312 356
#     4  12  22  34  59  98 129 160 198 253 331 390
#     4  12  23  40  65  91 132 165 206 258 319 384
#
# _framework density 20.143557999999999
#
# number of rings (size 3 to 8) (size 9 to 14) (size 15 to 20)
#    0.000    0.333    5.000    5.000    2.333    2.667 
#    0.000    0.000    0.000   20.000    0.000    0.000 
#    0.000    0.000    0.000    0.000    0.000    0.000 
#
# Total GULP energy -133615.640951 kJ/mol
# GULP energy per Si atom -5567.318373 kJ/mol
# Density = 2.009771 g / cm^3
# Si number density = 20.143558 Si / 1000 Ang^3
#
#
#
# Elastic Constant Matrix: (Units=GPa)
#
#
# Indices 1 2 3 4 5 6 
#
# 1 39.5671 28.5335 -9.2527 0.0000 -0.1600 0.0000
# 2 28.5335 118.5861 13.2071 0.0000 0.5698 0.0000
# 3 -9.2527 13.2071 96.8915 0.0000 -1.9665 0.0000
# 4 0.0000 0.0000 0.0000 38.1109 0.0000 -0.4055
# 5 -0.1600 0.5698 -1.9665 0.0000 26.6425 0.0000
# 6 0.0000 0.0000 0.0000 -0.4055 0.0000 27.1852
#
#
#
# Elastic Compliance Matrix: (Units=1/GPa)
#
#
# Indices 1 2 3 4 5 6 
#
# 1 0.032185 -0.008216 0.004207 0.000000 0.000679 0.000000
# 2 -0.008216 0.010662 -0.002247 0.000000 -0.000443 0.000000
# 3 0.004207 -0.002247 0.011047 0.000000 0.000889 0.000000
# 4 0.000000 0.000000 0.000000 0.026243 0.000000 0.000391
# 5 0.000679 -0.000443 0.000889 0.000000 0.037613 0.000000
# 6 0.000000 0.000000 0.000000 0.000391 0.000000 0.036791
#
#
# Mechanical properties :
#
#
# Convention : Reuss Voigt Hill
#
# Bulk Modulus (GPa) = 24.16480 35.55785 29.86133
# Shear Modulus (GPa) = 27.64777 33.22485 30.43631
#
# Velocity S-wave (km/s) = 3.70880 4.06569 3.89134
# Velocity P-wave (km/s) = 5.51022 6.30320 5.92000
#
# Compressibility (1/GPa) = 0.04138250
#
# Stress axis : x y z
#
# Youngs Moduli (GPa) = 31.07036 93.79154 90.52317
#
# Poissons Ratio (x) = 0.77059 -0.38085
# Poissons Ratio (y) = 0.25527 0.20340
# Poissons Ratio (z) = -0.13072 0.21074
#
# Static dielectric constant tensor:
#      x y z
#    x 1.708920 0.000000 -0.003960 
#    y 0.000000 1.953690 0.000000 
#    z -0.003960 0.000000 1.815720 
# 
# From -- ./inp_files/89088.got.cif
#   From: 2010.05.17/outbox.cif.g08.bks.cpg/sg13_45_cif.got.tgz:89088.got - 2010.06.03 16:44:36.
