data_PCOD9237602
_publ_section_title
;
Structure prediction by ZEFSAII (Michael W. Deem and Ramdas Pophale) SiO2 
 PCOD9237602
Probable space group: P 2/C
;
_chemical_formula_sum "Si O2"
_cell_formula_units_Z 28
_cell_length_a 13.571064
_cell_length_b 8.328774
_cell_length_c 20.786815
_cell_angle_alpha 90.000000
_cell_angle_beta 31.061309
_cell_angle_gamma 90.000000
_cell_volume 1212.257114
_symmetry_space_group_name_H-M "P 2/C"
_symmetry_group_IT_number 13
_symmetry_cell_setting 'monoclinic'
loop_
_space_group_symop_operation_xyz
x,y,z
-x,y,1/2-z
-x,-y,-z
x,-y,1/2+z
loop_
_atom_site_type_symbol
_atom_site_label
_atom_site_fract_x
_atom_site_fract_y
_atom_site_fract_z
Si Si1 0.990290 0.347817 0.960773
Si Si2 0.342030 0.198398 0.413176
Si Si3 0.096949 0.116691 0.015960
Si Si4 0.668234 0.966815 0.781578
Si Si5 0.521526 0.251971 0.028622
Si Si6 0.680545 0.565668 0.320102
Si Si7 0.553921 0.279984 0.645250
O O1 0.125008 0.383503 0.824098
O O2 0.772145 0.329858 0.061353
O O3 0.000000 0.500000 0.000000
O O4 0.062193 0.197197 0.965036
O O5 0.567385 0.159786 0.287793
O O6 0.323568 0.238241 0.499785
O O7 0.235887 0.036224 0.447830
O O8 0.891683 0.061324 0.154982
O O9 0.220726 0.247915 0.985623
O O10 0.571885 0.132586 0.813873
O O11 0.590945 0.913092 0.894530
O O12 0.625148 0.307408 0.906378
O O13 0.355850 0.388179 0.131795
O O14 0.520664 0.572423 0.353502
O O15 0.500000 0.290695 0.750000
#
# Coordination Sequence:
#
# PCOD9237602 Si02
#       7
#     4   4   4   4   4   4   4
#     4  12  25  38  67 106 132 172 220 278 337 403
#     4   9  23  43  66  97 131 180 215 270 339 397
#     4  11  22  41  66 101 134 167 216 273 340 393
#     4   9  22  41  66  95 131 169 220 262 330 402
#     4   9  23  46  65  89 130 185 216 271 332 389
#     4  11  23  44  66  91 138 168 227 277 324 402
#     4  11  23  38  66  98 129 171 206 279 343 386
#
# _framework density 23.097411999999998
#
# number of rings (size 3 to 8) (size 9 to 14) (size 15 to 20)
#    0.857    0.857    1.429    2.143    6.000    1.143 
#    0.000    0.714    0.000    0.000    0.000    0.000 
#    0.000    0.000    0.000    0.000    0.000    0.000 
#
# Total GULP energy -156071.864544 kJ/mol
# GULP energy per Si atom -5573.995162 kJ/mol
# Density = 2.304484 g / cm^3
# Si number density = 23.097412 Si / 1000 Ang^3
#
#
#
# Elastic Constant Matrix: (Units=GPa)
#
#
# Indices 1 2 3 4 5 6 
#
# 1 76.7718 13.9797 34.3891 0.0000 -7.1956 0.0000
# 2 13.9797 42.0227 24.6831 0.0000 21.8688 0.0000
# 3 34.3891 24.6831 123.7132 0.0000 11.0464 0.0000
# 4 0.0000 0.0000 0.0000 19.0400 0.0000 2.2033
# 5 -7.1956 21.8688 11.0464 0.0000 55.4597 0.0000
# 6 0.0000 0.0000 0.0000 2.2033 0.0000 39.7508
#
#
#
# Elastic Compliance Matrix: (Units=1/GPa)
#
#
# Indices 1 2 3 4 5 6 
#
# 1 0.016294 -0.005879 -0.003820 0.000000 0.005193 0.000000
# 2 -0.005879 0.035456 -0.004198 0.000000 -0.013908 0.000000
# 3 -0.003820 -0.004198 0.010058 0.000000 -0.000844 0.000000
# 4 0.000000 0.000000 0.000000 0.052860 0.000000 -0.002930
# 5 0.005193 -0.013908 -0.000844 0.000000 0.024357 0.000000
# 6 0.000000 0.000000 0.000000 -0.002930 0.000000 0.025319
#
#
# Mechanical properties :
#
#
# Convention : Reuss Voigt Hill
#
# Bulk Modulus (GPa) = 29.40031 43.17906 36.28969
# Shear Modulus (GPa) = 24.57283 34.14715 29.35999
#
# Velocity S-wave (km/s) = 3.26525 3.84916 3.56917
# Velocity P-wave (km/s) = 5.19349 6.20400 5.72110
#
# Compressibility (1/GPa) = 0.03401324
#
# Stress axis : x y z
#
# Youngs Moduli (GPa) = 61.37190 28.20403 99.42352
#
# Poissons Ratio (x) = 0.16582 0.37980
# Poissons Ratio (y) = 0.36083 0.41738
# Poissons Ratio (z) = 0.23444 0.11840
#
# Static dielectric constant tensor:
#      x y z
#    x 1.918010 0.000000 0.027700 
#    y 0.000000 2.019100 0.000000 
#    z 0.027700 0.000000 1.880140 
# 
# From -- ./inp_files/79937.got.cif
#   From: 2010.05.17/outbox.cif.g08.bks.cpg/sg13_40_cif.got.tgz:79937.got - 2010.06.03 16:44:36.
