data_PCOD9237576
_publ_section_title
;
Structure prediction by ZEFSAII (Michael W. Deem and Ramdas Pophale) SiO2 
 PCOD9237576
Probable space group: P 2/C
;
_chemical_formula_sum "Si O2"
_cell_formula_units_Z 26
_cell_length_a 17.527528
_cell_length_b 5.332850
_cell_length_c 11.853788
_cell_angle_alpha 90.000000
_cell_angle_beta 74.293013
_cell_angle_gamma 90.000000
_cell_volume 1066.619580
_symmetry_space_group_name_H-M "P 2/C"
_symmetry_group_IT_number 13
_symmetry_cell_setting 'monoclinic'
loop_
_space_group_symop_operation_xyz
x,y,z
-x,y,1/2-z
-x,-y,-z
x,-y,1/2+z
loop_
_atom_site_type_symbol
_atom_site_label
_atom_site_fract_x
_atom_site_fract_y
_atom_site_fract_z
Si Si1 0.656720 0.642452 0.281108
Si Si2 0.717211 0.007565 0.089557
Si Si3 0.763892 0.306860 0.346409
Si Si4 0.080025 0.835937 0.651124
Si Si5 0.852603 0.663281 0.452080
Si Si6 0.500000 0.509429 0.250000
Si Si7 0.562431 0.181953 0.035988
O O1 0.695163 0.369627 0.286982
O O2 0.582721 0.648295 0.225774
O O3 0.618816 0.717647 0.414754
O O4 0.717546 0.833667 0.199499
O O5 0.733858 0.830121 0.972223
O O6 0.786503 0.217185 0.060430
O O7 0.628792 0.104499 0.100868
O O8 0.846691 0.171881 0.289165
O O9 0.795859 0.584183 0.369667
O O10 0.101575 0.605000 0.556359
O O11 0.000000 0.790276 0.750000
O O12 0.086419 0.110788 0.594190
O O13 0.506427 0.362090 0.130590
O O14 0.500000 0.000000 0.000000
#
# Coordination Sequence:
#
# PCOD9237576 Si02
#       7
#     4   4   4   4   4   2   4
#     4  12  23  40  63  88 128 171 221 274 331 396
#     4  11  22  40  62  91 125 170 223 271 329 393
#     4   9  21  40  60  95 126 168 216 267 326 391
#     4   9  17  34  65  97 129 173 218 262 333 401
#     4   9  19  36  60  93 130 166 216 269 323 394
#     4  12  26  40  62  96 128 176 224 280 338 390
#     4  12  23  41  59  89 127 168 222 278 337 393
#
# _framework density 24.376076999999999
#
# number of rings (size 3 to 8) (size 9 to 14) (size 15 to 20)
#    0.923    0.615    1.538    4.615    0.000    0.000 
#    0.000    0.000    0.000    4.615    0.000    0.000 
#    0.000    0.000    0.000    0.000    0.000    0.000 
#
# Total GULP energy -144947.371483 kJ/mol
# GULP energy per Si atom -5574.898903 kJ/mol
# Density = 2.432060 g / cm^3
# Si number density = 24.376077 Si / 1000 Ang^3
#
#
#
# Elastic Constant Matrix: (Units=GPa)
#
#
# Indices 1 2 3 4 5 6 
#
# 1 55.6015 6.6749 23.1971 0.0000 -24.6020 0.0000
# 2 6.6749 114.3876 30.4944 0.0000 -14.4130 0.0000
# 3 23.1971 30.4944 84.8371 0.0000 -12.3243 0.0000
# 4 0.0000 0.0000 0.0000 43.0039 0.0000 -5.1962
# 5 -24.6020 -14.4130 -12.3243 0.0000 42.7920 0.0000
# 6 0.0000 0.0000 0.0000 -5.1962 0.0000 34.4587
#
#
#
# Elastic Compliance Matrix: (Units=1/GPa)
#
#
# Indices 1 2 3 4 5 6 
#
# 1 0.026454 0.001790 -0.005823 0.000000 0.014135 0.000000
# 2 0.001790 0.010022 -0.003603 0.000000 0.003367 0.000000
# 3 -0.005823 -0.003603 0.014624 0.000000 -0.000350 0.000000
# 4 0.000000 0.000000 0.000000 0.023685 0.000000 0.003572
# 5 0.014135 0.003367 -0.000350 0.000000 0.032529 0.000000
# 6 0.000000 0.000000 0.000000 0.003572 0.000000 0.029559
#
#
# Mechanical properties :
#
#
# Convention : Reuss Voigt Hill
#
# Bulk Modulus (GPa) = 27.91156 41.72879 34.82018
# Shear Modulus (GPa) = 30.47145 37.01490 33.74318
#
# Velocity S-wave (km/s) = 3.53945 3.90101 3.72462
# Velocity P-wave (km/s) = 5.30837 6.11935 5.72823
#
# Compressibility (1/GPa) = 0.03582745
#
# Stress axis : x y z
#
# Youngs Moduli (GPa) = 37.80158 99.77570 68.38180
#
# Poissons Ratio (x) = -0.17857 0.39821
# Poissons Ratio (y) = -0.06765 0.24636
# Poissons Ratio (z) = 0.22013 0.35947
#
# Static dielectric constant tensor:
#      x y z
#    x 2.027160 0.000000 0.041410 
#    y 0.000000 2.080340 0.000000 
#    z 0.041410 0.000000 1.973420 
# 
# From -- ./inp_files/40033.got.cif
#   From: 2010.05.17/outbox.cif.g08.bks.cpg/sg13_21_cif.got.tgz:40033.got - 2010.06.03 16:44:36.
