data_PCOD9237292
_publ_section_title
;
Structure prediction by ZEFSAII (Michael W. Deem and Ramdas Pophale) SiO2 
 PCOD9237292
Probable space group: P 2/C
;
_chemical_formula_sum "Si O2"
_cell_formula_units_Z 20
_cell_length_a 4.913614
_cell_length_b 7.987299
_cell_length_c 24.021951
_cell_angle_alpha 90.000000
_cell_angle_beta 64.447143
_cell_angle_gamma 90.000000
_cell_volume 850.562394
_symmetry_space_group_name_H-M "P 2/C"
_symmetry_group_IT_number 13
_symmetry_cell_setting 'monoclinic'
loop_
_space_group_symop_operation_xyz
x,y,z
-x,y,1/2-z
-x,-y,-z
x,-y,1/2+z
loop_
_atom_site_type_symbol
_atom_site_label
_atom_site_fract_x
_atom_site_fract_y
_atom_site_fract_z
Si Si1 0.128309 0.039453 0.390144
Si Si2 0.340049 0.842888 0.208996
Si Si3 0.145113 0.414902 0.431342
Si Si4 0.271226 0.582284 0.112415
Si Si5 0.515346 0.102445 0.943484
O O1 0.082450 0.223006 0.419847
O O2 0.178870 0.024418 0.610601
O O3 0.421777 0.992191 0.327353
O O4 0.215734 0.920481 0.434468
O O5 0.500000 0.767453 0.250000
O O6 0.298110 0.696524 0.165533
O O7 0.000000 0.902912 0.250000
O O8 0.505495 0.427535 0.403143
O O9 0.000000 0.500000 0.500000
O O10 0.038581 0.524847 0.387282
O O11 0.419321 0.704990 0.053431
O O12 0.500000 0.000000 0.000000
#
# Coordination Sequence:
#
# PCOD9237292 Si02
#       5
#     4   4   4   4   4
#     4  11  23  38  62  92 124 164 212 257 316 383
#     4  11  23  44  68  88 117 167 226 282 314 352
#     4  12  23  40  62  98 140 168 193 255 329 395
#     4  11  23  39  63  92 124 166 215 256 313 387
#     4  11  20  37  60  90 124 167 212 254 304 381
#
# _framework density 23.513850999999999
#
# number of rings (size 3 to 8) (size 9 to 14) (size 15 to 20)
#    0.000    0.800    0.000   10.800    0.000    0.000 
#    0.000    4.000    0.000    2.400    0.000    0.000 
#    0.000    0.000    0.000    0.000    0.000    0.000 
#
# Total GULP energy -111549.945822 kJ/mol
# GULP energy per Si atom -5577.497291 kJ/mol
# Density = 2.346033 g / cm^3
# Si number density = 23.513851 Si / 1000 Ang^3
#
#
#
# Elastic Constant Matrix: (Units=GPa)
#
#
# Indices 1 2 3 4 5 6 
#
# 1 120.1490 17.7639 39.3700 0.0000 1.2409 0.0000
# 2 17.7639 91.7333 6.0999 0.0000 2.6141 0.0000
# 3 39.3700 6.0999 93.1074 0.0000 -6.5363 0.0000
# 4 0.0000 0.0000 0.0000 23.2912 0.0000 -0.3202
# 5 1.2409 2.6141 -6.5363 0.0000 44.0842 0.0000
# 6 0.0000 0.0000 0.0000 -0.3202 0.0000 48.3268
#
#
#
# Elastic Compliance Matrix: (Units=1/GPa)
#
#
# Indices 1 2 3 4 5 6 
#
# 1 0.009931 -0.001624 -0.004149 0.000000 -0.000798 0.000000
# 2 -0.001624 0.011240 -0.000094 0.000000 -0.000635 0.000000
# 3 -0.004149 -0.000094 0.012641 0.000000 0.001997 0.000000
# 4 0.000000 0.000000 0.000000 0.042939 0.000000 0.000285
# 5 -0.000798 -0.000635 0.001997 0.000000 0.023040 0.000000
# 6 0.000000 0.000000 0.000000 0.000285 0.000000 0.020694
#
#
# Mechanical properties :
#
#
# Convention : Reuss Voigt Hill
#
# Bulk Modulus (GPa) = 45.29563 47.93971 46.61767
# Shear Modulus (GPa) = 35.82208 39.25749 37.53978
#
# Velocity S-wave (km/s) = 3.90737 4.09044 3.99995
# Velocity P-wave (km/s) = 6.29777 6.53767 6.41884
#
# Compressibility (1/GPa) = 0.02207718
#
# Stress axis : x y z
#
# Youngs Moduli (GPa) = 100.69580 88.96730 79.10806
#
# Poissons Ratio (x) = 0.14452 0.32821
# Poissons Ratio (y) = 0.16358 0.00744
# Poissons Ratio (z) = 0.41777 0.00837
#
# Static dielectric constant tensor:
#      x y z
#    x 1.869480 0.000000 -0.025550 
#    y 0.000000 1.833820 0.000000 
#    z -0.025550 0.000000 2.095670 
# 
# From -- ./inp_files/83178.got.cif
#   From: 2010.05.17/outbox.cif.g08.bks.cpg/sg13_42_cif.got.tgz:83178.got - 2010.06.03 16:44:36.
