data_PCOD9237438
_publ_section_title
;
Structure prediction by ZEFSAII (Michael W. Deem and Ramdas Pophale) SiO2 
 PCOD9237438
Probable space group: P 2/C
;
_chemical_formula_sum "Si O2"
_cell_formula_units_Z 32
_cell_length_a 11.412945
_cell_length_b 11.270646
_cell_length_c 19.915318
_cell_angle_alpha 90.000000
_cell_angle_beta 38.314888
_cell_angle_gamma 90.000000
_cell_volume 1588.230427
_symmetry_space_group_name_H-M "P 2/C"
_symmetry_group_IT_number 13
_symmetry_cell_setting 'monoclinic'
loop_
_space_group_symop_operation_xyz
x,y,z
-x,y,1/2-z
-x,-y,-z
x,-y,1/2+z
loop_
_atom_site_type_symbol
_atom_site_label
_atom_site_fract_x
_atom_site_fract_y
_atom_site_fract_z
Si Si1 0.634302 0.766908 0.129364
Si Si2 0.020213 0.142262 0.814357
Si Si3 0.149372 0.998541 0.993744
Si Si4 0.998325 0.632181 0.528196
Si Si5 0.299895 0.347155 0.532550
Si Si6 0.336218 0.661871 0.167202
Si Si7 0.358429 0.760345 0.874670
Si Si8 0.983669 0.541585 0.679297
O O1 0.500000 0.808985 0.250000
O O2 0.739057 0.878610 0.048601
O O3 0.513797 0.682174 0.134843
O O4 0.804841 0.689828 0.081317
O O5 0.856594 0.242196 0.893274
O O6 0.000000 0.088898 0.750000
O O7 0.211466 0.218227 0.733341
O O8 0.979356 0.043046 0.886674
O O9 0.306566 0.896221 0.913404
O O10 0.000000 0.000000 0.000000
O O11 0.835274 0.702290 0.563857
O O12 0.971700 0.629603 0.621194
O O13 0.000000 0.500000 0.500000
O O14 0.395805 0.348992 0.562221
O O15 0.420356 0.312128 0.413395
O O16 0.174973 0.465045 0.580696
O O17 0.193888 0.551247 0.244109
O O18 0.500000 0.751064 0.750000
O O19 0.000000 0.584084 0.750000
#
# Coordination Sequence:
#
# PCOD9237438 Si02
#       8
#     4   4   4   4   4   4   4   4
#     4  12  25  39  61  93 121 158 202 254 300 361
#     4   8  16  33  62  88 113 158 198 238 293 352
#     4  11  21  40  62  85 124 160 200 248 304 363
#     4  12  24  41  62  89 125 158 207 255 302 361
#     4   8  16  36  62  86 119 159 200 245 290 366
#     4   9  18  37  65  92 115 153 211 248 295 356
#     4  11  23  40  62  90 122 163 204 249 309 357
#     4   9  18  38  63  87 122 167 202 248 308 364
#
# _framework density 20.148209000000001
#
# number of rings (size 3 to 8) (size 9 to 14) (size 15 to 20)
#    0.000    2.000    2.500    3.375    1.750    1.500 
#    2.250    8.750    0.000    0.000    0.000    0.000 
#    0.000    0.000    0.000    0.000    0.000    0.000 
#
# Total GULP energy -178640.169336 kJ/mol
# GULP energy per Si atom -5582.505292 kJ/mol
# Density = 2.010235 g / cm^3
# Si number density = 20.148209 Si / 1000 Ang^3
#
#
#
# Elastic Constant Matrix: (Units=GPa)
#
#
# Indices 1 2 3 4 5 6 
#
# 1 51.7100 -5.4907 12.1578 0.0000 5.2282 0.0000
# 2 -5.4907 48.4957 3.8176 0.0000 -3.4823 0.0000
# 3 12.1578 3.8176 84.9698 0.0000 17.5143 0.0000
# 4 0.0000 0.0000 0.0000 14.8091 0.0000 12.6514
# 5 5.2282 -3.4823 17.5143 0.0000 41.1480 0.0000
# 6 0.0000 0.0000 0.0000 12.6514 0.0000 6.8645
#
#
#
# Elastic Compliance Matrix: (Units=1/GPa)
#
#
# Indices 1 2 3 4 5 6 
#
# 1 0.020372 0.002439 -0.002777 0.000000 -0.001200 0.000000
# 2 0.002439 0.021196 -0.001762 0.000000 0.002234 0.000000
# 3 -0.002777 -0.001762 0.013377 0.000000 -0.005490 0.000000
# 4 0.000000 0.000000 0.000000 -0.117539 0.000000 0.216628
# 5 -0.001200 0.002234 -0.005490 0.000000 0.026981 0.000000
# 6 0.000000 0.000000 0.000000 0.216628 0.000000 -0.253574
#
#
# Mechanical properties :
#
#
# Convention : Reuss Voigt Hill
#
# Bulk Modulus (GPa) = 19.70648 22.90500 21.30574
# Shear Modulus (GPa) = -18.65161 24.21038 2.77938
#
# Velocity S-wave (km/s) = -3.04587 3.47019 1.17578
# Velocity P-wave (km/s) = 1.60242 5.23920 3.52714
#
# Compressibility (1/GPa) = 0.05074474
#
# Stress axis : x y z
#
# Youngs Moduli (GPa) = 49.08734 47.17959 74.75497
#
# Poissons Ratio (x) = -0.11507 0.20760
# Poissons Ratio (y) = -0.11972 0.13170
# Poissons Ratio (z) = 0.13632 0.08312
#
# Static dielectric constant tensor:
#      x y z
#    x 1.717070 0.000000 0.044410 
#    y 0.000000 1.715890 0.000000 
#    z 0.044410 0.000000 1.749390 
# 
# From -- ./inp_files/78479.got.cif
#   From: 2010.05.17/outbox.cif.g08.bks.cpg/sg13_40_cif.got.tgz:78479.got - 2010.06.03 16:44:36.
