data_PCOD9237082
_publ_section_title
;
Structure prediction by ZEFSAII (Michael W. Deem and Ramdas Pophale) SiO2 
 PCOD9237082
Probable space group: P 2/C
;
_chemical_formula_sum "Si O2"
_cell_formula_units_Z 14
_cell_length_a 10.617105
_cell_length_b 4.867243
_cell_length_c 15.715823
_cell_angle_alpha 90.000000
_cell_angle_beta 42.152388
_cell_angle_gamma 90.000000
_cell_volume 545.025208
_symmetry_space_group_name_H-M "P 2/C"
_symmetry_group_IT_number 13
_symmetry_cell_setting 'monoclinic'
loop_
_space_group_symop_operation_xyz
x,y,z
-x,y,1/2-z
-x,-y,-z
x,-y,1/2+z
loop_
_atom_site_type_symbol
_atom_site_label
_atom_site_fract_x
_atom_site_fract_y
_atom_site_fract_z
Si Si1 0.122278 0.572922 0.772011
Si Si2 0.377682 0.083304 0.640332
Si Si3 0.500000 0.848512 0.750000
Si Si4 0.927819 0.753309 0.528983
O O1 0.031783 0.466571 0.909614
O O2 0.079999 0.936055 0.511426
O O3 0.000000 0.521620 0.750000
O O4 0.306855 0.390520 0.669956
O O5 0.483502 0.029610 0.674284
O O6 0.196095 0.883389 0.734762
O O7 0.500000 0.000000 0.500000
O O8 0.701474 0.693496 0.646545
#
# Coordination Sequence:
#
# PCOD9237082 Si02
#       4
#     4   4   2   4
#     4  11  25  44  68 104 142 174 244 292 353 443
#     4  11  25  44  71 102 138 193 226 299 369 408
#     4  10  26  46  70 104 146 174 254 290 344 454
#     4  11  25  43  71 101 136 191 227 292 363 408
#
# _framework density 25.686886999999999
#
# number of rings (size 3 to 8) (size 9 to 14) (size 15 to 20)
#    0.000    1.143    0.000    5.143    8.000   10.286 
#    0.000    0.000    0.000    0.000    0.000    0.000 
#    0.000    0.000    0.000    0.000    0.000    0.000 
#
# Total GULP energy -77977.884654 kJ/mol
# GULP energy per Si atom -5569.848904 kJ/mol
# Density = 2.562842 g / cm^3
# Si number density = 25.686887 Si / 1000 Ang^3
#
#
#
# Elastic Constant Matrix: (Units=GPa)
#
#
# Indices 1 2 3 4 5 6 
#
# 1 171.4729 20.5899 62.0334 0.0000 3.6877 0.0000
# 2 20.5899 126.9016 -9.2466 0.0000 -9.4387 0.0000
# 3 62.0334 -9.2466 188.0062 0.0000 18.2266 0.0000
# 4 0.0000 0.0000 0.0000 34.4569 0.0000 -0.9718
# 5 3.6877 -9.4387 18.2266 0.0000 61.8809 0.0000
# 6 0.0000 0.0000 0.0000 -0.9718 0.0000 24.1188
#
#
#
# Elastic Compliance Matrix: (Units=1/GPa)
#
#
# Indices 1 2 3 4 5 6 
#
# 1 0.006822 -0.001270 -0.002322 0.000000 0.000084 0.000000
# 2 -0.001270 0.008221 0.000715 0.000000 0.001119 0.000000
# 3 -0.002322 0.000715 0.006275 0.000000 -0.001601 0.000000
# 4 0.000000 0.000000 0.000000 0.029055 0.000000 0.001171
# 5 0.000084 0.001119 -0.001601 0.000000 0.016797 0.000000
# 6 0.000000 0.000000 0.000000 0.001171 0.000000 0.041509
#
#
# Mechanical properties :
#
#
# Convention : Reuss Voigt Hill
#
# Bulk Modulus (GPa) = 64.24285 70.34825 67.29555
# Shear Modulus (GPa) = 41.79836 51.62493 46.71164
#
# Velocity S-wave (km/s) = 4.03826 4.48792 4.26902
# Velocity P-wave (km/s) = 6.84162 7.36895 7.11018
#
# Compressibility (1/GPa) = 0.01556593
#
# Stress axis : x y z
#
# Youngs Moduli (GPa) = 146.57585 121.63247 159.35298
#
# Poissons Ratio (x) = 0.15446 0.36996
# Poissons Ratio (y) = 0.18614 -0.11392
# Poissons Ratio (z) = 0.34030 -0.08695
#
# Static dielectric constant tensor:
#      x y z
#    x 1.951520 0.000000 0.077240 
#    y 0.000000 2.044440 0.000000 
#    z 0.077240 0.000000 2.298940 
# 
# From -- ./inp_files/31041.got.cif
#   From: 2010.05.17/outbox.cif.g08.bks.cpg/sg13_16_cif.got.tgz:31041.got - 2010.06.03 16:44:36.
