data_PCOD9237274
_publ_section_title
;
Structure prediction by ZEFSAII (Michael W. Deem and Ramdas Pophale) SiO2 
 PCOD9237274
Probable space group: P 2/C
;
_chemical_formula_sum "Si O2"
_cell_formula_units_Z 32
_cell_length_a 17.524964
_cell_length_b 11.159450
_cell_length_c 22.987996
_cell_angle_alpha 90.000000
_cell_angle_beta 22.239092
_cell_angle_gamma 90.000000
_cell_volume 1701.512950
_symmetry_space_group_name_H-M "P 2/C"
_symmetry_group_IT_number 13
_symmetry_cell_setting 'monoclinic'
loop_
_space_group_symop_operation_xyz
x,y,z
-x,y,1/2-z
-x,-y,-z
x,-y,1/2+z
loop_
_atom_site_type_symbol
_atom_site_label
_atom_site_fract_x
_atom_site_fract_y
_atom_site_fract_z
Si Si1 0.314913 0.805759 0.423923
Si Si2 0.285218 0.089300 0.434008
Si Si3 0.093470 0.772159 0.844329
Si Si4 0.973885 0.871863 0.049167
Si Si5 0.780711 0.786638 0.396503
Si Si6 0.276861 0.024064 0.134225
Si Si7 0.489827 0.796861 0.100854
Si Si8 0.480962 0.636677 0.532175
O O1 0.500000 0.805847 0.250000
O O2 0.409753 0.742743 0.413023
O O3 0.118381 0.745243 0.536529
O O4 0.262887 0.948247 0.465819
O O5 0.500000 0.102573 0.250000
O O6 0.287724 0.161603 0.492782
O O7 0.109898 0.128129 0.511715
O O8 0.167931 0.898067 0.761154
O O9 0.260153 0.675270 0.709969
O O10 0.057659 0.785773 0.938644
O O11 0.734144 0.849775 0.228962
O O12 0.000000 0.000000 0.000000
O O13 0.630309 0.690774 0.475224
O O14 0.000000 0.731977 0.250000
O O15 0.805271 0.900387 0.334360
O O16 0.332887 0.109978 0.041490
O O17 0.500000 0.000000 0.000000
O O18 0.471079 0.710866 0.059837
O O19 0.500000 0.500000 0.500000
#
# Coordination Sequence:
#
# PCOD9237274 Si02
#       8
#     4   4   4   4   4   4   4   4
#     4  11  20  35  57 100 131 162 197 252 317 400
#     4  11  22  32  55  96 139 165 195 243 316 406
#     4  11  22  38  65  92 133 168 207 259 326 385
#     4  12  21  34  63  99 136 172 197 245 334 408
#     4  12  23  39  62  90 131 162 213 269 326 379
#     4  11  21  33  58  92 128 166 201 247 326 401
#     4  11  22  38  62  91 132 162 209 260 314 388
#     4  11  27  48  65  86 119 176 234 272 315 368
#
# _framework density 18.806792000000002
#
# number of rings (size 3 to 8) (size 9 to 14) (size 15 to 20)
#    0.000    0.750    6.250    3.750    0.000    1.500 
#    2.250    0.625    0.000    0.750    0.000    0.000 
#    0.000    0.000    0.000    0.000    0.000    0.000 
#
# Total GULP energy -178488.993901 kJ/mol
# GULP energy per Si atom -5577.781059 kJ/mol
# Density = 1.876399 g / cm^3
# Si number density = 18.806792 Si / 1000 Ang^3
#
#
#
# Elastic Constant Matrix: (Units=GPa)
#
#
# Indices 1 2 3 4 5 6 
#
# 1 147.4221 31.2953 50.1467 0.0000 -8.9922 0.0000
# 2 31.2953 67.3155 46.3261 0.0000 -2.2370 0.0000
# 3 50.1467 46.3261 101.9808 0.0000 -8.6905 0.0000
# 4 0.0000 0.0000 0.0000 12.8406 0.0000 2.1691
# 5 -8.9922 -2.2370 -8.6905 0.0000 43.4390 0.0000
# 6 0.0000 0.0000 0.0000 2.1691 0.0000 5.1505
#
#
#
# Elastic Compliance Matrix: (Units=1/GPa)
#
#
# Indices 1 2 3 4 5 6 
#
# 1 0.008292 -0.001562 -0.003284 0.000000 0.000979 0.000000
# 2 -0.001562 0.021938 -0.009287 0.000000 -0.001052 0.000000
# 3 -0.003284 -0.009287 0.015810 0.000000 0.002005 0.000000
# 4 0.000000 0.000000 0.000000 0.083842 0.000000 -0.035309
# 5 0.000979 -0.001052 0.002005 0.000000 0.023570 0.000000
# 6 0.000000 0.000000 0.000000 -0.035309 0.000000 0.209028
#
#
# Mechanical properties :
#
#
# Convention : Reuss Voigt Hill
#
# Bulk Modulus (GPa) = 56.26457 63.58384 59.92420
# Shear Modulus (GPa) = 12.60486 24.88270 18.74378
#
# Velocity S-wave (km/s) = 2.59169 3.64135 3.16040
# Velocity P-wave (km/s) = 6.24002 7.18064 6.72679
#
# Compressibility (1/GPa) = 0.01777317
#
# Stress axis : x y z
#
# Youngs Moduli (GPa) = 120.60219 45.58291 63.24969
#
# Poissons Ratio (x) = 0.07121 0.20773
# Poissons Ratio (y) = 0.18840 0.58741
# Poissons Ratio (z) = 0.39608 0.42333
#
# Static dielectric constant tensor:
#      x y z
#    x 1.713650 0.000000 0.008450 
#    y 0.000000 1.414530 0.000000 
#    z 0.008450 0.000000 1.654490 
# 
# From -- ./inp_files/88154.got.cif
#   From: 2010.05.17/outbox.cif.g08.bks.cpg/sg13_45_cif.got.tgz:88154.got - 2010.06.03 16:44:36.
