data_PCOD9237620
_publ_section_title
;
Structure prediction by ZEFSAII (Michael W. Deem and Ramdas Pophale) SiO2 
 PCOD9237620
Probable space group: P 2/C
;
_chemical_formula_sum "Si O2"
_cell_formula_units_Z 26
_cell_length_a 14.987615
_cell_length_b 14.740502
_cell_length_c 9.141252
_cell_angle_alpha 90.000000
_cell_angle_beta 39.980900
_cell_angle_gamma 90.000000
_cell_volume 1297.613591
_symmetry_space_group_name_H-M "P 2/C"
_symmetry_group_IT_number 13
_symmetry_cell_setting 'monoclinic'
loop_
_space_group_symop_operation_xyz
x,y,z
-x,y,1/2-z
-x,-y,-z
x,-y,1/2+z
loop_
_atom_site_type_symbol
_atom_site_label
_atom_site_fract_x
_atom_site_fract_y
_atom_site_fract_z
Si Si1 0.088527 0.934942 0.992671
Si Si2 0.728110 0.777595 0.763483
Si Si3 0.161747 0.585849 0.882030
Si Si4 0.500000 0.152103 0.750000
Si Si5 0.835970 0.400295 0.771158
Si Si6 0.357461 0.942928 0.191512
Si Si7 0.659326 0.225099 0.014123
O O1 0.000000 0.916707 0.250000
O O2 0.143569 0.841769 0.851469
O O3 0.228523 0.990565 0.849374
O O4 0.000000 0.000000 0.000000
O O5 0.755483 0.674177 0.769078
O O6 0.722313 0.793492 0.595758
O O7 0.578977 0.799270 0.019593
O O8 0.209984 0.490880 0.754847
O O9 0.174965 0.583641 0.040948
O O10 0.001809 0.605362 0.037697
O O11 0.624094 0.098165 0.670808
O O12 0.748936 0.310104 0.841159
O O13 0.342068 0.863440 0.089054
O O14 0.500000 0.000000 0.000000
O O15 0.500000 0.251318 0.250000
#
# Coordination Sequence:
#
# PCOD9237620 Si02
#       7
#     4   4   4   2   4   4   4
#     4  12  26  42  65  99 130 169 217 279 327 381
#     4  11  24  41  65  94 130 168 218 265 327 388
#     4   9  20  40  64  94 122 169 204 263 327 388
#     4  12  24  42  62  92 126 176 218 264 316 388
#     4   9  20  39  66  91 126 162 213 256 328 395
#     4  12  26  43  67  91 135 177 223 265 330 398
#     4  11  22  42  65  94 122 175 218 263 322 390
#
# _framework density 20.036781000000001
#
# number of rings (size 3 to 8) (size 9 to 14) (size 15 to 20)
#    0.000    1.231    3.077    1.846    9.692    1.231 
#    1.385    1.538    0.000    0.000    0.000    0.000 
#    0.000    0.000    0.000    0.000    0.000    0.000 
#
# Total GULP energy -145137.749030 kJ/mol
# GULP energy per Si atom -5582.221117 kJ/mol
# Density = 1.999118 g / cm^3
# Si number density = 20.036781 Si / 1000 Ang^3
#
#
#
# Elastic Constant Matrix: (Units=GPa)
#
#
# Indices 1 2 3 4 5 6 
#
# 1 52.9689 37.8401 6.4968 0.0000 -10.6718 0.0000
# 2 37.8401 138.8962 45.8251 0.0000 -7.5050 0.0000
# 3 6.4968 45.8251 84.5221 0.0000 -13.4001 0.0000
# 4 0.0000 0.0000 0.0000 28.1399 0.0000 -6.3391
# 5 -10.6718 -7.5050 -13.4001 0.0000 25.1381 0.0000
# 6 0.0000 0.0000 0.0000 -6.3391 0.0000 35.5382
#
#
#
# Elastic Compliance Matrix: (Units=1/GPa)
#
#
# Indices 1 2 3 4 5 6 
#
# 1 0.026203 -0.007861 0.003976 0.000000 0.010896 0.000000
# 2 -0.007861 0.011127 -0.005932 0.000000 -0.003178 0.000000
# 3 0.003976 -0.005932 0.016088 0.000000 0.008493 0.000000
# 4 0.000000 0.000000 0.000000 0.037025 0.000000 0.006604
# 5 0.010896 -0.003178 0.008493 0.000000 0.047984 0.000000
# 6 0.000000 0.000000 0.000000 0.006604 0.000000 0.029317
#
#
# Mechanical properties :
#
#
# Convention : Reuss Voigt Hill
#
# Bulk Modulus (GPa) = 29.60168 50.74569 40.17369
# Shear Modulus (GPa) = 25.17120 30.17825 27.67473
#
# Velocity S-wave (km/s) = 3.54821 3.88512 3.72048
# Velocity P-wave (km/s) = 5.62069 6.74587 6.20882
#
# Compressibility (1/GPa) = 0.03378186
#
# Stress axis : x y z
#
# Youngs Moduli (GPa) = 38.16408 89.87340 62.15714
#
# Poissons Ratio (x) = 0.70653 -0.24711
# Poissons Ratio (y) = 0.30002 0.36872
# Poissons Ratio (z) = -0.15172 0.53314
#
# Static dielectric constant tensor:
#      x y z
#    x 1.723320 0.000000 0.041150 
#    y 0.000000 1.743970 0.000000 
#    z 0.041150 0.000000 1.719550 
# 
# From -- ./inp_files/19857.got.cif
#   From: 2010.05.17/outbox.cif.g08.bks.cpg/sg13_10_cif.got.tgz:19857.got - 2010.06.03 16:44:36.
