data_PCOD9237691
_publ_section_title
;
Structure prediction by ZEFSAII (Michael W. Deem and Ramdas Pophale) SiO2 
 PCOD9237691
Probable space group: P 2/C
;
_chemical_formula_sum "Si O2"
_cell_formula_units_Z 24
_cell_length_a 9.321904
_cell_length_b 9.749899
_cell_length_c 11.487107
_cell_angle_alpha 90.000000
_cell_angle_beta 56.992942
_cell_angle_gamma 90.000000
_cell_volume 875.532082
_symmetry_space_group_name_H-M "P 2/C"
_symmetry_group_IT_number 13
_symmetry_cell_setting 'monoclinic'
loop_
_space_group_symop_operation_xyz
x,y,z
-x,y,1/2-z
-x,-y,-z
x,-y,1/2+z
loop_
_atom_site_type_symbol
_atom_site_label
_atom_site_fract_x
_atom_site_fract_y
_atom_site_fract_z
Si Si1 0.009445 0.256054 0.481014
Si Si2 0.712209 0.454108 0.177874
Si Si3 0.808415 0.893260 0.878979
Si Si4 0.490870 0.298477 0.075148
Si Si5 0.716172 0.747680 0.247733
Si Si6 0.315049 0.044012 0.356159
O O1 0.098471 0.396005 0.407596
O O2 0.867900 0.218165 0.448013
O O3 0.922846 0.255445 0.646035
O O4 0.147948 0.134357 0.407910
O O5 0.626062 0.356463 0.115981
O O6 0.642034 0.420977 0.338555
O O7 0.681692 0.615020 0.179659
O O8 0.000000 0.938060 0.750000
O O9 0.656849 0.822628 0.871526
O O10 0.711890 0.009392 0.995862
O O11 0.500000 0.109390 0.250000
O O12 0.608779 0.276308 0.911062
O O13 0.678970 0.901024 0.217260
#
# Coordination Sequence:
#
# PCOD9237691 Si02
#       6
#     4   4   4   4   4   4
#     4  11  26  48  72 113 155 194 255 328 378 451
#     4  11  26  47  74 117 161 192 251 330 374 459
#     4  11  22  46  74 106 147 205 251 303 386 455
#     4  11  25  45  77 116 153 202 257 309 388 467
#     4  11  24  48  78 108 152 207 252 309 393 462
#     4  11  25  47  78 109 154 198 264 320 377 457
#
# _framework density 27.411904
#
# number of rings (size 3 to 8) (size 9 to 14) (size 15 to 20)
#    0.000    1.000    3.333    3.000    4.667    3.333 
#    6.000    2.500    0.000    0.000    0.000    0.000 
#    0.000    0.000    0.000    0.000    0.000    0.000 
#
# Total GULP energy -133666.679118 kJ/mol
# GULP energy per Si atom -5569.444963 kJ/mol
# Density = 2.734951 g / cm^3
# Si number density = 27.411904 Si / 1000 Ang^3
#
#
#
# Elastic Constant Matrix: (Units=GPa)
#
#
# Indices 1 2 3 4 5 6 
#
# 1 138.1198 71.5365 67.6079 0.0000 -3.9442 0.0000
# 2 71.5365 160.4639 56.0941 0.0000 0.0614 0.0000
# 3 67.6079 56.0941 245.0669 0.0000 -54.9611 0.0000
# 4 0.0000 0.0000 0.0000 21.4674 0.0000 -37.6357
# 5 -3.9442 0.0614 -54.9611 0.0000 45.7533 0.0000
# 6 0.0000 0.0000 0.0000 -37.6357 0.0000 -172.1940
#
#
#
# Elastic Compliance Matrix: (Units=1/GPa)
#
#
# Indices 1 2 3 4 5 6 
#
# 1 0.010319 -0.003744 -0.002449 0.000000 -0.002047 0.000000
# 2 -0.003744 0.008359 -0.001308 0.000000 -0.001905 0.000000
# 3 -0.002449 -0.001308 0.006855 0.000000 0.008026 0.000000
# 4 0.000000 0.000000 0.000000 0.033678 0.000000 -0.007361
# 5 -0.002047 -0.001905 0.008026 0.000000 0.031323 0.000000
# 6 0.000000 0.000000 0.000000 -0.007361 0.000000 -0.004199
#
#
# Mechanical properties :
#
#
# Convention : Reuss Voigt Hill
#
# Bulk Modulus (GPa) = 94.94234 103.79197 99.36715
# Shear Modulus (GPa) = 47.68830 2.23280 24.96055
#
# Velocity S-wave (km/s) = 4.17549 0.90350 3.02084
# Velocity P-wave (km/s) = 7.61294 6.24775 6.96388
#
# Compressibility (1/GPa) = 0.01053271
#
# Stress axis : x y z
#
# Youngs Moduli (GPa) = 96.90532 119.63584 145.86982
#
# Poissons Ratio (x) = 0.44786 0.35726
# Poissons Ratio (y) = 0.36277 0.19075
# Poissons Ratio (z) = 0.23734 0.15645
#
# Static dielectric constant tensor:
#      x y z
#    x 2.291010 0.000000 0.083070 
#    y 0.000000 2.162070 0.000000 
#    z 0.083070 0.000000 2.411000 
# 
# From -- ./inp_files/33724.got.cif
#   From: 2010.05.17/outbox.cif.g08.bks.cpg/sg13_17_cif.got.tgz:33724.got - 2010.06.03 16:44:36.
