data_PCOD9237934
_publ_section_title
;
Structure prediction by ZEFSAII (Michael W. Deem and Ramdas Pophale) SiO2 
 PCOD9237934
Probable space group: P 2/C
;
_chemical_formula_sum "Si O2"
_cell_formula_units_Z 30
_cell_length_a 8.583212
_cell_length_b 15.316525
_cell_length_c 11.549741
_cell_angle_alpha 90.000000
_cell_angle_beta 66.998622
_cell_angle_gamma 90.000000
_cell_volume 1397.667858
_symmetry_space_group_name_H-M "P 2/C"
_symmetry_group_IT_number 13
_symmetry_cell_setting 'monoclinic'
loop_
_space_group_symop_operation_xyz
x,y,z
-x,y,1/2-z
-x,-y,-z
x,-y,1/2+z
loop_
_atom_site_type_symbol
_atom_site_label
_atom_site_fract_x
_atom_site_fract_y
_atom_site_fract_z
Si Si1 0.115276 0.738387 0.557181
Si Si2 0.282615 0.089301 0.587304
Si Si3 0.500000 0.314814 0.250000
Si Si4 0.239595 0.181942 0.374449
Si Si5 0.406615 0.592450 0.154835
Si Si6 0.704778 0.414657 0.380310
Si Si7 0.175531 0.754618 0.266238
Si Si8 0.329503 0.106614 0.109139
O O1 0.150040 0.644828 0.605942
O O2 0.152502 0.738904 0.409282
O O3 0.236329 0.811529 0.578171
O O4 0.923433 0.769264 0.627648
O O5 0.188939 0.129052 0.502750
O O6 0.236256 0.148559 0.710992
O O7 0.480940 0.099758 0.496291
O O8 0.245091 0.987361 0.611411
O O9 0.383169 0.252884 0.363125
O O10 0.628287 0.369849 0.288607
O O11 0.317078 0.123046 0.250211
O O12 0.500000 0.575029 0.250000
O O13 0.274254 0.515922 0.158911
O O14 0.314721 0.684995 0.184912
O O15 0.553870 0.590791 0.017533
O O16 0.000000 0.738703 0.250000
#
# Coordination Sequence:
#
# PCOD9237934 Si02
#       8
#     4   4   2   4   4   4   4   4
#     4  12  25  44  69 102 139 176 225 279 349 401
#     4  11  25  45  68  95 136 182 232 281 341 394
#     4  12  22  42  72  94 132 182 222 274 338 406
#     4  12  23  43  67  98 140 177 227 278 336 416
#     4  11  23  45  71 100 133 175 231 275 334 413
#     4  11  24  43  71 103 130 176 223 284 339 397
#     4  12  26  46  67  99 139 183 221 280 341 407
#     4  11  25  42  68 102 130 180 233 285 332 407
#
# _framework density 21.464328999999999
#
# number of rings (size 3 to 8) (size 9 to 14) (size 15 to 20)
#    0.000    0.533    6.000    2.000    1.867    1.600 
#    2.400    0.667    0.000    0.000    0.000    0.000 
#    0.000    0.000    0.000    0.000    0.000    0.000 
#
# Total GULP energy -167792.471998 kJ/mol
# GULP energy per Si atom -5593.082400 kJ/mol
# Density = 2.141547 g / cm^3
# Si number density = 21.464329 Si / 1000 Ang^3
#
#
#
# Elastic Constant Matrix: (Units=GPa)
#
#
# Indices 1 2 3 4 5 6 
#
# 1 58.6624 12.9337 -9.1027 0.0000 3.2683 0.0000
# 2 12.9337 79.7549 -2.1861 0.0000 7.5342 0.0000
# 3 -9.1027 -2.1861 75.0274 0.0000 14.0668 0.0000
# 4 0.0000 0.0000 0.0000 22.2365 0.0000 4.8663
# 5 3.2683 7.5342 14.0668 0.0000 30.8900 0.0000
# 6 0.0000 0.0000 0.0000 4.8663 0.0000 24.8746
#
#
#
# Elastic Compliance Matrix: (Units=1/GPa)
#
#
# Indices 1 2 3 4 5 6 
#
# 1 0.018168 -0.002643 0.002588 0.000000 -0.002456 0.000000
# 2 -0.002643 0.013295 0.000680 0.000000 -0.003273 0.000000
# 3 0.002588 0.000680 0.015028 0.000000 -0.007283 0.000000
# 4 0.000000 0.000000 0.000000 0.046983 0.000000 -0.009191
# 5 -0.002456 -0.003273 -0.007283 0.000000 0.036748 0.000000
# 6 0.000000 0.000000 0.000000 -0.009191 0.000000 0.042000
#
#
# Mechanical properties :
#
#
# Convention : Reuss Voigt Hill
#
# Bulk Modulus (GPa) = 20.94690 24.08160 22.51425
# Shear Modulus (GPa) = 26.75450 29.72021 28.23736
#
# Velocity S-wave (km/s) = 3.53436 3.72510 3.63098
# Velocity P-wave (km/s) = 5.14157 5.45395 5.30006
#
# Compressibility (1/GPa) = 0.04773975
#
# Stress axis : x y z
#
# Youngs Moduli (GPa) = 55.04230 75.21687 66.54362
#
# Poissons Ratio (x) = 0.19882 -0.17219
# Poissons Ratio (y) = 0.14549 -0.04527
# Poissons Ratio (z) = -0.14243 -0.05117
#
# Static dielectric constant tensor:
#      x y z
#    x 1.789280 0.000000 0.006150 
#    y 0.000000 1.788550 0.000000 
#    z 0.006150 0.000000 1.781230 
# 
# From -- ./inp_files/30372.got.cif
#   From: 2010.05.17/outbox.cif.g08.bks.cpg/sg13_16_cif.got.tgz:30372.got - 2010.06.03 16:44:36.
