data_PCOD9237577
_publ_section_title
;
Structure prediction by ZEFSAII (Michael W. Deem and Ramdas Pophale) SiO2 
 PCOD9237577
Probable space group: P 2/C
;
_chemical_formula_sum "Si O2"
_cell_formula_units_Z 18
_cell_length_a 7.807225
_cell_length_b 6.796312
_cell_length_c 14.243292
_cell_angle_alpha 90.000000
_cell_angle_beta 94.503663
_cell_angle_gamma 90.000000
_cell_volume 753.420343
_symmetry_space_group_name_H-M "P 2/C"
_symmetry_group_IT_number 13
_symmetry_cell_setting 'monoclinic'
loop_
_space_group_symop_operation_xyz
x,y,z
-x,y,1/2-z
-x,-y,-z
x,-y,1/2+z
loop_
_atom_site_type_symbol
_atom_site_label
_atom_site_fract_x
_atom_site_fract_y
_atom_site_fract_z
Si Si1 0.000000 0.659573 0.750000
Si Si2 0.776146 0.012141 0.801265
Si Si3 0.941619 0.210728 0.963029
Si Si4 0.550392 0.195152 0.653442
Si Si5 0.772460 0.494648 0.573467
O O1 0.124014 0.808289 0.696861
O O2 0.126620 0.544069 0.825266
O O3 0.890658 0.181129 0.852609
O O4 0.716010 0.068560 0.693666
O O5 0.603831 0.035380 0.858590
O O6 0.105463 0.348104 0.978647
O O7 0.783755 0.305252 0.014096
O O8 0.000000 0.000000 0.000000
O O9 0.500000 0.301153 0.750000
O O10 0.602870 0.366855 0.585906
#
# Coordination Sequence:
#
# PCOD9237577 Si02
#       5
#     2   4   4   4   4
#     4  12  20  38  70  96 120 174 222 264 306 390
#     4   9  20  39  64  88 128 168 204 265 326 371
#     4  11  22  40  62  93 131 165 213 269 323 376
#     4   8  21  41  59  91 129 166 213 265 313 385
#     4  11  23  37  65  95 121 168 222 262 312 387
#
# _framework density 23.891044999999998
#
# number of rings (size 3 to 8) (size 9 to 14) (size 15 to 20)
#    1.333    0.444    2.222    2.667    0.000    0.889 
#    4.000    1.111    0.000    0.000    0.000    0.000 
#    0.000    0.000    0.000    0.000    0.000    0.000 
#
# Total GULP energy -100212.038520 kJ/mol
# GULP energy per Si atom -5567.335473 kJ/mol
# Density = 2.383667 g / cm^3
# Si number density = 23.891045 Si / 1000 Ang^3
#
#
#
# Elastic Constant Matrix: (Units=GPa)
#
#
# Indices 1 2 3 4 5 6 
#
# 1 108.2780 36.1675 10.8244 0.0000 -13.8333 0.0000
# 2 36.1675 90.7496 20.0530 0.0000 -8.8076 0.0000
# 3 10.8244 20.0530 43.0834 0.0000 -2.5158 0.0000
# 4 0.0000 0.0000 0.0000 42.0087 0.0000 -17.1758
# 5 -13.8333 -8.8076 -2.5158 0.0000 29.5617 0.0000
# 6 0.0000 0.0000 0.0000 -17.1758 0.0000 25.8374
#
#
#
# Elastic Compliance Matrix: (Units=1/GPa)
#
#
# Indices 1 2 3 4 5 6 
#
# 1 0.011114 -0.003876 -0.000756 0.000000 0.003982 0.000000
# 2 -0.003876 0.013941 -0.005405 0.000000 0.001880 0.000000
# 3 -0.000756 -0.005405 0.025931 0.000000 0.000243 0.000000
# 4 0.000000 0.000000 0.000000 0.032689 0.000000 0.021731
# 5 0.003982 0.001880 0.000243 0.000000 0.036272 0.000000
# 6 0.000000 0.000000 0.000000 0.021731 0.000000 0.053149
#
#
# Mechanical properties :
#
#
# Convention : Reuss Voigt Hill
#
# Bulk Modulus (GPa) = 32.34995 41.80008 37.07502
# Shear Modulus (GPa) = 24.57311 31.15265 27.86288
#
# Velocity S-wave (km/s) = 3.21058 3.61494 3.41874
# Velocity P-wave (km/s) = 5.22626 5.91251 5.57995
#
# Compressibility (1/GPa) = 0.03091194
#
# Stress axis : x y z
#
# Youngs Moduli (GPa) = 89.97282 71.73112 38.56440
#
# Poissons Ratio (x) = 0.27804 0.02915
# Poissons Ratio (y) = 0.34875 0.20845
# Poissons Ratio (z) = 0.06800 0.38772
#
# Static dielectric constant tensor:
#      x y z
#    x 2.023910 0.000000 0.031740 
#    y 0.000000 1.882850 0.000000 
#    z 0.031740 0.000000 2.011340 
# 
# From -- ./inp_files/62113.got.cif
#   From: 2010.05.17/outbox.cif.g08.bks.cpg/sg13_32_cif.got.tgz:62113.got - 2010.06.03 16:44:36.
