data_PCOD9237024
_publ_section_title
;
Structure prediction by ZEFSAII (Michael W. Deem and Ramdas Pophale) SiO2 
 PCOD9237024
Probable space group: P 2/C
;
_chemical_formula_sum "Si O2"
_cell_formula_units_Z 20
_cell_length_a 4.808516
_cell_length_b 5.742073
_cell_length_c 30.072804
_cell_angle_alpha 90.000000
_cell_angle_beta 69.533237
_cell_angle_gamma 90.000000
_cell_volume 777.920891
_symmetry_space_group_name_H-M "P 2/C"
_symmetry_group_IT_number 13
_symmetry_cell_setting 'monoclinic'
loop_
_space_group_symop_operation_xyz
x,y,z
-x,y,1/2-z
-x,-y,-z
x,-y,1/2+z
loop_
_atom_site_type_symbol
_atom_site_label
_atom_site_fract_x
_atom_site_fract_y
_atom_site_fract_z
Si Si1 0.172858 0.901955 0.947372
Si Si2 0.323563 0.409513 0.052419
Si Si3 0.005600 0.225383 0.624039
Si Si4 0.674515 0.580772 0.697234
Si Si5 0.172049 0.908273 0.697020
O O1 0.731171 0.389094 0.909290
O O2 0.003085 0.665204 0.944279
O O3 0.121182 0.073226 0.909374
O O4 0.000000 0.000000 0.000000
O O5 0.495411 0.180599 0.060239
O O6 0.740844 0.613282 0.157634
O O7 0.500000 0.500000 0.000000
O O8 0.131324 0.075555 0.657839
O O9 0.500000 0.489810 0.750000
O O10 0.496344 0.810096 0.690546
O O11 0.992460 0.673335 0.695125
O O12 0.000000 0.005889 0.750000
#
# Coordination Sequence:
#
# PCOD9237024 Si02
#       5
#     4   4   4   4   4
#     4  12  28  51  77 111 152 202 256 314 382 457
#     4  12  28  51  77 111 152 202 256 314 382 457
#     4  12  28  48  82 114 156 204 258 318 392 448
#     4  10  25  50  76 111 156 202 257 317 383 464
#     4  10  25  50  76 111 156 202 257 317 383 464
#
# _framework density 25.709553
#
# number of rings (size 3 to 8) (size 9 to 14) (size 15 to 20)
#    0.000    0.800    2.000    2.400    0.000   16.000 
#    0.000    4.000    0.000    0.000    0.000    0.000 
#    0.000    0.000    0.000    0.000    0.000    0.000 
#
# Total GULP energy -112302.364279 kJ/mol
# GULP energy per Si atom -5615.118214 kJ/mol
# Density = 2.565104 g / cm^3
# Si number density = 25.709553 Si / 1000 Ang^3
#
#
#
# Elastic Constant Matrix: (Units=GPa)
#
#
# Indices 1 2 3 4 5 6 
#
# 1 79.9006 5.6893 30.1916 0.0000 5.2814 0.0000
# 2 5.6893 86.6646 101.1222 0.0000 9.2910 0.0000
# 3 30.1916 101.1222 245.8442 0.0000 21.3362 0.0000
# 4 0.0000 0.0000 0.0000 53.5298 0.0000 4.0703
# 5 5.2814 9.2910 21.3362 0.0000 40.1705 0.0000
# 6 0.0000 0.0000 0.0000 4.0703 0.0000 41.0542
#
#
#
# Elastic Compliance Matrix: (Units=1/GPa)
#
#
# Indices 1 2 3 4 5 6 
#
# 1 0.013335 0.002002 -0.002378 0.000000 -0.000953 0.000000
# 2 0.002002 0.022491 -0.009459 0.000000 -0.000441 0.000000
# 3 -0.002378 -0.009459 0.008422 0.000000 -0.001973 0.000000
# 4 0.000000 0.000000 0.000000 0.018823 0.000000 -0.001866
# 5 -0.000953 -0.000441 -0.001973 0.000000 0.026169 0.000000
# 6 0.000000 0.000000 0.000000 -0.001866 0.000000 0.024543
#
#
# Mechanical properties :
#
#
# Convention : Reuss Voigt Hill
#
# Bulk Modulus (GPa) = 40.68844 76.26840 58.47842
# Shear Modulus (GPa) = 35.29932 45.31131 40.30531
#
# Velocity S-wave (km/s) = 3.70943 4.20269 3.96374
# Velocity P-wave (km/s) = 5.84868 7.29931 6.61388
#
# Compressibility (1/GPa) = 0.02457701
#
# Stress axis : x y z
#
# Youngs Moduli (GPa) = 74.99247 44.46139 118.74276
#
# Poissons Ratio (x) = -0.08900 0.28241
# Poissons Ratio (y) = -0.15012 1.12317
# Poissons Ratio (z) = 0.17835 0.42055
#
# Static dielectric constant tensor:
#      x y z
#    x 1.944580 0.000000 0.038420 
#    y 0.000000 2.030290 0.000000 
#    z 0.038420 0.000000 1.763100 
# 
# From -- ./inp_files/90203.got.cif
#   From: 2010.05.17/outbox.cif.g08.bks.cpg/sg13_46_cif.got.tgz:90203.got - 2010.06.03 16:44:36.
