data_PCOD9237527
_publ_section_title
;
Structure prediction by ZEFSAII (Michael W. Deem and Ramdas Pophale) SiO2 
 PCOD9237527
Probable space group: P 2/C
;
_chemical_formula_sum "Si O2"
_cell_formula_units_Z 18
_cell_length_a 10.089345
_cell_length_b 9.315672
_cell_length_c 19.558316
_cell_angle_alpha 90.000000
_cell_angle_beta 29.826353
_cell_angle_gamma 90.000000
_cell_volume 914.304497
_symmetry_space_group_name_H-M "P 2/C"
_symmetry_group_IT_number 13
_symmetry_cell_setting 'monoclinic'
loop_
_space_group_symop_operation_xyz
x,y,z
-x,y,1/2-z
-x,-y,-z
x,-y,1/2+z
loop_
_atom_site_type_symbol
_atom_site_label
_atom_site_fract_x
_atom_site_fract_y
_atom_site_fract_z
Si Si1 0.369338 0.859556 0.738032
Si Si2 0.278682 0.618952 0.666461
Si Si3 0.205974 0.066368 0.025082
Si Si4 0.575028 0.696487 0.398414
Si Si5 0.000000 0.079609 0.750000
O O1 0.500000 0.810084 0.750000
O O2 0.296157 0.732199 0.719092
O O3 0.086460 0.937600 0.876935
O O4 0.582294 0.962994 0.605739
O O5 0.496370 0.665076 0.512436
O O6 0.335581 0.458425 0.667776
O O7 0.000000 0.619035 0.750000
O O8 0.161724 0.016790 0.123807
O O9 0.328853 0.226306 0.971639
O O10 0.806011 0.814868 0.295564
#
# Coordination Sequence:
#
# PCOD9237527 Si02
#       5
#     4   4   4   4   2
#     4  12  26  44  64  94 134 174 211 260 323 387
#     4  11  22  40  65  93 128 165 214 268 317 375
#     4  12  23  41  67  97 128 168 216 269 315 379
#     4  11  22  37  66  99 123 160 215 275 318 368
#     4  12  20  36  70 102 128 152 222 274 322 362
#
# _framework density 19.687094999999999
#
# number of rings (size 3 to 8) (size 9 to 14) (size 15 to 20)
#    0.000    0.444    7.778    2.667    0.000    0.000 
#    0.000    2.222    0.000    0.000    0.000    0.000 
#    0.000    0.000    0.000    0.000    0.000    0.000 
#
# Total GULP energy -100606.892020 kJ/mol
# GULP energy per Si atom -5589.271779 kJ/mol
# Density = 1.964229 g / cm^3
# Si number density = 19.687095 Si / 1000 Ang^3
#
#
#
# Elastic Constant Matrix: (Units=GPa)
#
#
# Indices 1 2 3 4 5 6 
#
# 1 80.4960 47.6814 42.3949 0.0000 -12.2229 0.0000
# 2 47.6814 123.8239 50.1051 0.0000 -9.8863 0.0000
# 3 42.3949 50.1051 105.9302 0.0000 -26.8956 0.0000
# 4 0.0000 0.0000 0.0000 29.0036 0.0000 -11.1781
# 5 -12.2229 -9.8863 -26.8956 0.0000 25.8843 0.0000
# 6 0.0000 0.0000 0.0000 -11.1781 0.0000 15.0222
#
#
#
# Elastic Compliance Matrix: (Units=1/GPa)
#
#
# Indices 1 2 3 4 5 6 
#
# 1 0.017973 -0.005020 -0.004280 0.000000 0.002123 0.000000
# 2 -0.005020 0.011432 -0.003928 0.000000 -0.002085 0.000000
# 3 -0.004280 -0.003928 0.016459 0.000000 0.013581 0.000000
# 4 0.000000 0.000000 0.000000 0.048342 0.000000 0.035971
# 5 0.002123 -0.002085 0.013581 0.000000 0.052951 0.000000
# 6 0.000000 0.000000 0.000000 0.035971 0.000000 0.093335
#
#
# Mechanical properties :
#
#
# Convention : Reuss Voigt Hill
#
# Bulk Modulus (GPa) = 51.52146 65.62366 58.57256
# Shear Modulus (GPa) = 18.28722 25.31992 21.80357
#
# Velocity S-wave (km/s) = 3.05108 3.59014 3.33153
# Velocity P-wave (km/s) = 6.21604 7.11275 6.67946
#
# Compressibility (1/GPa) = 0.01940939
#
# Stress axis : x y z
#
# Youngs Moduli (GPa) = 55.64023 87.47557 60.75687
#
# Poissons Ratio (x) = 0.43909 0.26002
# Poissons Ratio (y) = 0.27929 0.23864
# Poissons Ratio (z) = 0.23812 0.34359
#
# Static dielectric constant tensor:
#      x y z
#    x 1.665660 0.000000 -0.035020 
#    y 0.000000 1.700030 0.000000 
#    z -0.035020 0.000000 1.742920 
# 
# From -- ./inp_files/14497.got.cif
#   From: 2010.05.17/outbox.cif.g08.bks.cpg/sg13_8_cif.got.tgz:14497.got - 2010.06.03 16:44:36.
