data_PCOD9237169
_publ_section_title
;
Structure prediction by ZEFSAII (Michael W. Deem and Ramdas Pophale) SiO2 
 PCOD9237169
Probable space group: P 2/C
;
_chemical_formula_sum "Si O2"
_cell_formula_units_Z 20
_cell_length_a 8.823894
_cell_length_b 4.715245
_cell_length_c 18.770615
_cell_angle_alpha 90.000000
_cell_angle_beta 112.243146
_cell_angle_gamma 90.000000
_cell_volume 722.869212
_symmetry_space_group_name_H-M "P 2/C"
_symmetry_group_IT_number 13
_symmetry_cell_setting 'monoclinic'
loop_
_space_group_symop_operation_xyz
x,y,z
-x,y,1/2-z
-x,-y,-z
x,-y,1/2+z
loop_
_atom_site_type_symbol
_atom_site_label
_atom_site_fract_x
_atom_site_fract_y
_atom_site_fract_z
Si Si1 0.179869 0.569461 0.410285
Si Si2 0.178917 0.579243 0.133254
Si Si3 0.820411 0.034559 0.726590
Si Si4 0.511938 0.155357 0.329446
Si Si5 0.721758 0.103114 0.982584
O O1 0.197684 0.735225 0.339540
O O2 0.303264 0.326251 0.458519
O O3 0.997315 0.434983 0.385532
O O4 0.204725 0.819533 0.472274
O O5 0.187709 0.799731 0.200075
O O6 0.344153 0.388489 0.155108
O O7 0.167025 0.749646 0.057427
O O8 0.000000 0.907479 0.750000
O O9 0.681121 0.795673 0.695235
O O10 0.500000 0.004117 0.250000
O O11 0.565102 0.972064 0.406534
#
# Coordination Sequence:
#
# PCOD9237169 Si02
#       5
#     4   4   4   4   4
#     4  11  27  48  79 116 165 201 263 330 412 463
#     4  11  25  48  79 115 155 218 266 322 388 493
#     4  10  26  53  78 116 165 215 265 337 405 475
#     4  12  27  45  81 112 156 208 275 323 391 480
#     4  12  25  47  77 117 156 211 263 328 395 478
#
# _framework density 27.667522999999999
#
# number of rings (size 3 to 8) (size 9 to 14) (size 15 to 20)
#    0.000    0.800    4.000    1.200    5.600    3.200 
#    0.000    4.000    0.000    0.000    0.000    0.000 
#    0.000    0.000    0.000    0.000    0.000    0.000 
#
# Total GULP energy -111966.977215 kJ/mol
# GULP energy per Si atom -5598.348861 kJ/mol
# Density = 2.760455 g / cm^3
# Si number density = 27.667523 Si / 1000 Ang^3
#
#
#
# Elastic Constant Matrix: (Units=GPa)
#
#
# Indices 1 2 3 4 5 6 
#
# 1 93.5948 33.9416 26.7508 0.0000 11.7602 0.0000
# 2 33.9416 102.4325 49.7306 0.0000 3.4256 0.0000
# 3 26.7508 49.7306 162.6994 0.0000 -30.3389 0.0000
# 4 0.0000 0.0000 0.0000 46.3648 0.0000 2.4057
# 5 11.7602 3.4256 -30.3389 0.0000 52.4035 0.0000
# 6 0.0000 0.0000 0.0000 2.4057 0.0000 39.3304
#
#
#
# Elastic Compliance Matrix: (Units=1/GPa)
#
#
# Indices 1 2 3 4 5 6 
#
# 1 0.012850 -0.003254 -0.001812 0.000000 -0.003720 0.000000
# 2 -0.003254 0.012760 -0.003794 0.000000 -0.002300 0.000000
# 3 -0.001812 -0.003794 0.008661 0.000000 0.005669 0.000000
# 4 0.000000 0.000000 0.000000 0.021637 0.000000 -0.001323
# 5 -0.003720 -0.002300 0.005669 0.000000 0.023350 0.000000
# 6 0.000000 0.000000 0.000000 -0.001323 0.000000 0.025507
#
#
# Mechanical properties :
#
#
# Convention : Reuss Voigt Hill
#
# Bulk Modulus (GPa) = 60.41989 64.39697 62.40843
# Shear Modulus (GPa) = 39.06260 44.17332 41.61796
#
# Velocity S-wave (km/s) = 3.76155 4.00005 3.88263
# Velocity P-wave (km/s) = 6.38364 6.68279 6.53493
#
# Compressibility (1/GPa) = 0.01655084
#
# Stress axis : x y z
#
# Youngs Moduli (GPa) = 77.82368 78.37216 115.46013
#
# Poissons Ratio (x) = 0.25500 0.20919
# Poissons Ratio (y) = 0.25322 0.43807
# Poissons Ratio (z) = 0.14100 0.29735
#
# Static dielectric constant tensor:
#      x y z
#    x 2.231150 0.000000 0.009140 
#    y 0.000000 2.120960 0.000000 
#    z 0.009140 0.000000 2.117060 
# 
# From -- ./inp_files/74681.got.cif
#   From: 2010.05.17/outbox.cif.g08.bks.cpg/sg13_38_cif.got.tgz:74681.got - 2010.06.03 16:44:36.
