data_PCOD9237079
_publ_section_title
;
Structure prediction by ZEFSAII (Michael W. Deem and Ramdas Pophale) SiO2 
 PCOD9237079
Probable space group: P 2/C
;
_chemical_formula_sum "Si O2"
_cell_formula_units_Z 18
_cell_length_a 13.747073
_cell_length_b 5.377250
_cell_length_c 19.433853
_cell_angle_alpha 90.000000
_cell_angle_beta 154.332867
_cell_angle_gamma 90.000000
_cell_volume 622.242685
_symmetry_space_group_name_H-M "P 2/C"
_symmetry_group_IT_number 13
_symmetry_cell_setting 'monoclinic'
loop_
_space_group_symop_operation_xyz
x,y,z
-x,y,1/2-z
-x,-y,-z
x,-y,1/2+z
loop_
_atom_site_type_symbol
_atom_site_label
_atom_site_fract_x
_atom_site_fract_y
_atom_site_fract_z
Si Si1 0.792318 0.737945 0.584961
Si Si2 0.095476 0.723537 0.074573
Si Si3 0.842526 0.004852 0.252558
Si Si4 0.584125 0.656514 0.689283
Si Si5 0.500000 0.963160 0.250000
O O1 0.768080 0.962935 0.625140
O O2 0.582504 0.563579 0.439004
O O3 0.000000 0.579355 0.750000
O O4 0.914859 0.857526 0.597488
O O5 0.134438 0.761956 0.184832
O O6 0.325792 0.779721 0.175990
O O7 0.162808 0.411051 0.116008
O O8 0.000000 0.000000 0.000000
O O9 0.667929 0.184679 0.178826
O O10 0.459293 0.835639 0.662898
#
# Coordination Sequence:
#
# PCOD9237079 Si02
#       5
#     4   4   4   4   2
#     4   8  20  43  74 110 145 194 252 319 376 444
#     4  11  25  44  70 107 153 202 248 310 380 451
#     4   8  21  43  70 110 145 190 254 309 374 458
#     4  11  21  42  75 103 150 195 247 319 381 449
#     4  10  26  46  68 110 144 198 254 306 378 460
#
# _framework density 28.927620999999998
#
# number of rings (size 3 to 8) (size 9 to 14) (size 15 to 20)
#    1.333    0.889    0.000    1.333    0.000    9.778 
#    0.000   10.000    0.000    0.000    5.778    6.222 
#    0.000    0.000    0.000    0.000    0.000    0.000 
#
# Total GULP energy -100453.699951 kJ/mol
# GULP energy per Si atom -5580.761108 kJ/mol
# Density = 2.886178 g / cm^3
# Si number density = 28.927621 Si / 1000 Ang^3
#
#
#
# Elastic Constant Matrix: (Units=GPa)
#
#
# Indices 1 2 3 4 5 6 
#
# 1 214.8523 72.0197 67.8564 0.0000 7.3096 0.0000
# 2 72.0197 244.4218 103.6646 0.0000 16.6027 0.0000
# 3 67.8564 103.6646 211.1866 0.0000 18.7824 0.0000
# 4 0.0000 0.0000 0.0000 80.8989 0.0000 9.7257
# 5 7.3096 16.6027 18.7824 0.0000 60.4085 0.0000
# 6 0.0000 0.0000 0.0000 9.7257 0.0000 30.9635
#
#
#
# Elastic Compliance Matrix: (Units=1/GPa)
#
#
# Indices 1 2 3 4 5 6 
#
# 1 0.005396 -0.001080 -0.001205 0.000000 0.000019 0.000000
# 2 -0.001080 0.005408 -0.002249 0.000000 -0.000656 0.000000
# 3 -0.001205 -0.002249 0.006334 0.000000 -0.001205 0.000000
# 4 0.000000 0.000000 0.000000 0.012846 0.000000 -0.004035
# 5 0.000019 -0.000656 -0.001205 0.000000 0.017107 0.000000
# 6 0.000000 0.000000 0.000000 -0.004035 0.000000 0.033563
#
#
# Mechanical properties :
#
#
# Convention : Reuss Voigt Hill
#
# Bulk Modulus (GPa) = 123.93449 128.61581 126.27515
# Shear Modulus (GPa) = 54.10441 62.91552 58.50996
#
# Velocity S-wave (km/s) = 4.32943 4.66867 4.50225
# Velocity P-wave (km/s) = 8.24184 8.58020 8.41272
#
# Compressibility (1/GPa) = 0.00806878
#
# Stress axis : x y z
#
# Youngs Moduli (GPa) = 185.30563 184.90869 157.88498
#
# Poissons Ratio (x) = 0.19972 0.19032
# Poissons Ratio (y) = 0.20015 0.35512
# Poissons Ratio (z) = 0.22337 0.41590
#
# Static dielectric constant tensor:
#      x y z
#    x 2.185550 0.000000 -0.016720 
#    y 0.000000 2.122610 0.000000 
#    z -0.016720 0.000000 2.769990 
# 
# From -- ./inp_files/79165.got.cif
#   From: 2010.05.17/outbox.cif.g08.bks.cpg/sg13_40_cif.got.tgz:79165.got - 2010.06.03 16:44:36.
