data_PCOD9237362
_publ_section_title
;
Structure prediction by ZEFSAII (Michael W. Deem and Ramdas Pophale) SiO2 
 PCOD9237362
Probable space group: P 2/C
;
_chemical_formula_sum "Si O2"
_cell_formula_units_Z 32
_cell_length_a 7.974242
_cell_length_b 12.948904
_cell_length_c 21.093777
_cell_angle_alpha 90.000000
_cell_angle_beta 136.049958
_cell_angle_gamma 90.000000
_cell_volume 1511.665057
_symmetry_space_group_name_H-M "P 2/C"
_symmetry_group_IT_number 13
_symmetry_cell_setting 'monoclinic'
loop_
_space_group_symop_operation_xyz
x,y,z
-x,y,1/2-z
-x,-y,-z
x,-y,1/2+z
loop_
_atom_site_type_symbol
_atom_site_label
_atom_site_fract_x
_atom_site_fract_y
_atom_site_fract_z
Si Si1 0.378669 0.930384 0.911737
Si Si2 0.261547 0.246671 0.009090
Si Si3 0.750167 0.210687 0.344688
Si Si4 0.001831 0.590409 0.590203
Si Si5 0.774641 0.788764 0.298362
Si Si6 0.365605 0.466079 0.072564
Si Si7 0.283392 0.565005 0.244974
Si Si8 0.815191 0.024498 0.273815
O O1 0.528262 0.825717 0.960415
O O2 0.377792 0.957821 0.835706
O O3 0.500000 0.000000 0.000000
O O4 0.910275 0.064611 0.160625
O O5 0.241057 0.215474 0.077511
O O6 0.350978 0.363970 0.027078
O O7 0.994557 0.232060 0.907289
O O8 0.500000 0.257591 0.250000
O O9 0.951767 0.292606 0.376188
O O10 0.755506 0.095743 0.318149
O O11 0.189276 0.565700 0.583398
O O12 0.067025 0.501640 0.657587
O O13 0.743589 0.565545 0.491352
O O14 0.500000 0.796489 0.250000
O O15 0.774339 0.684168 0.256522
O O16 0.827747 0.901435 0.284925
O O17 0.616530 0.499288 0.169831
O O18 0.500000 0.568279 0.250000
#
# Coordination Sequence:
#
# PCOD9237362 Si02
#       8
#     4   4   4   4   4   4   4   4
#     4  11  24  45  66  84 116 173 217 255 310 387
#     4  11  21  39  66  93 128 168 213 261 320 378
#     4  11  21  35  60  97 126 155 202 269 318 356
#     4   9  16  28  51  83 123 157 193 240 310 378
#     4  11  23  36  58  95 134 165 204 265 319 380
#     4   9  17  30  52  87 125 163 201 248 310 383
#     4   9  17  30  49  83 126 163 195 241 315 369
#     4  11  25  43  62  92 124 163 219 262 319 377
#
# _framework density 21.168710000000001
#
# number of rings (size 3 to 8) (size 9 to 14) (size 15 to 20)
#    0.000    1.750    3.750    2.250    5.250    1.500 
#    0.000    0.000    0.000    0.750    6.500    0.000 
#    0.000    0.000    0.000    0.000    0.000    0.000 
#
# Total GULP energy -178170.910665 kJ/mol
# GULP energy per Si atom -5567.840958 kJ/mol
# Density = 2.112053 g / cm^3
# Si number density = 21.168710 Si / 1000 Ang^3
#
#
#
# Elastic Constant Matrix: (Units=GPa)
#
#
# Indices 1 2 3 4 5 6 
#
# 1 24.9492 14.6494 9.7708 0.0000 10.9666 0.0000
# 2 14.6494 121.2734 25.7177 0.0000 5.0589 0.0000
# 3 9.7708 25.7177 127.9818 0.0000 11.8978 0.0000
# 4 0.0000 0.0000 0.0000 33.5547 0.0000 -2.7290
# 5 10.9666 5.0589 11.8978 0.0000 13.5385 0.0000
# 6 0.0000 0.0000 0.0000 -2.7290 0.0000 -3.1096
#
#
#
# Elastic Compliance Matrix: (Units=1/GPa)
#
#
# Indices 1 2 3 4 5 6 
#
# 1 0.066197 -0.006032 0.001017 0.000000 -0.052262 0.000000
# 2 -0.006032 0.009205 -0.001659 0.000000 0.002905 0.000000
# 3 0.001017 -0.001659 0.008808 0.000000 -0.007944 0.000000
# 4 0.000000 0.000000 0.000000 0.027817 0.000000 -0.024412
# 5 -0.052262 0.002905 -0.007944 0.000000 0.122094 0.000000
# 6 0.000000 0.000000 0.000000 -0.024412 0.000000 -0.300158
#
#
# Mechanical properties :
#
#
# Convention : Reuss Voigt Hill
#
# Bulk Modulus (GPa) = 14.11203 41.60890 27.86046
# Shear Modulus (GPa) = -172.01124 23.73447 -74.13838
#
# Velocity S-wave (km/s) = -9.02406 3.35207 -5.92441
# Velocity P-wave (km/s) = 10.09442 5.88900 5.79728
#
# Compressibility (1/GPa) = 0.07086155
#
# Stress axis : x y z
#
# Youngs Moduli (GPa) = 15.10637 108.63462 113.53392
#
# Poissons Ratio (x) = 0.65527 -0.11544
# Poissons Ratio (y) = 0.09112 0.18838
# Poissons Ratio (z) = -0.01536 0.18025
#
# Static dielectric constant tensor:
#      x y z
#    x 1.804120 0.000000 -0.013530 
#    y 0.000000 1.766460 0.000000 
#    z -0.013530 0.000000 1.734420 
# 
# From -- ./inp_files/92380.got.cif
#   From: 2010.05.17/outbox.cif.g08.bks.cpg/sg13_47_cif.got.tgz:92380.got - 2010.06.03 16:44:36.
