data_PCOD9237744
_publ_section_title
;
Structure prediction by ZEFSAII (Michael W. Deem and Ramdas Pophale) SiO2 
 PCOD9237744
Probable space group: P 2/C
;
_chemical_formula_sum "Si O2"
_cell_formula_units_Z 28
_cell_length_a 6.893321
_cell_length_b 14.066632
_cell_length_c 18.623805
_cell_angle_alpha 90.000000
_cell_angle_beta 125.367309
_cell_angle_gamma 90.000000
_cell_volume 1472.613367
_symmetry_space_group_name_H-M "P 2/C"
_symmetry_group_IT_number 13
_symmetry_cell_setting 'monoclinic'
loop_
_space_group_symop_operation_xyz
x,y,z
-x,y,1/2-z
-x,-y,-z
x,-y,1/2+z
loop_
_atom_site_type_symbol
_atom_site_label
_atom_site_fract_x
_atom_site_fract_y
_atom_site_fract_z
Si Si1 0.712112 0.989111 0.940412
Si Si2 0.000000 0.538360 0.250000
Si Si3 0.470094 0.848073 0.998302
Si Si4 0.369801 0.637954 0.435360
Si Si5 0.743168 0.401176 0.306952
Si Si6 0.500000 0.906422 0.750000
Si Si7 0.721884 0.491861 0.448584
Si Si8 0.973188 0.220442 0.327747
O O1 0.588513 0.966687 0.837784
O O2 0.593330 0.082630 0.949548
O O3 0.639193 0.903356 0.978591
O O4 0.000000 0.000000 0.000000
O O5 0.844274 0.602315 0.162125
O O6 0.843248 0.467749 0.265740
O O7 0.589133 0.749477 0.048100
O O8 0.215855 0.827283 0.906145
O O9 0.598001 0.586188 0.450058
O O10 0.338865 0.590643 0.507433
O O11 0.500000 0.341099 0.250000
O O12 0.658839 0.466461 0.354245
O O13 0.936812 0.319693 0.362259
O O14 0.260065 0.845819 0.715823
O O15 0.000000 0.500000 0.500000
O O16 0.000000 0.246744 0.250000
#
# Coordination Sequence:
#
# PCOD9237744 Si02
#       8
#     4   2   4   4   4   2   4   4
#     4  11  25  48  71  99 132 172 219 284 345 415
#     4  12  24  46  58  92 144 180 230 278 320 402
#     4  11  26  46  67  97 138 172 221 282 342 400
#     4  11  26  42  65  95 133 181 226 271 333 397
#     4  12  24  38  63  97 136 176 223 277 328 383
#     4  12  24  44  72 102 128 170 224 278 354 410
#     4  11  23  40  63  93 129 176 220 268 327 391
#     4  12  24  39  69 105 134 167 223 288 340 396
#
# _framework density 19.013815999999998
#
# number of rings (size 3 to 8) (size 9 to 14) (size 15 to 20)
#    0.000    0.571    7.143    0.857    6.000    1.143 
#    2.571    0.000    0.000    0.000    0.000    0.000 
#    0.000    0.000    0.000    0.000    0.000    0.000 
#
# Total GULP energy -156156.243212 kJ/mol
# GULP energy per Si atom -5577.008686 kJ/mol
# Density = 1.897054 g / cm^3
# Si number density = 19.013816 Si / 1000 Ang^3
#
#
#
# Elastic Constant Matrix: (Units=GPa)
#
#
# Indices 1 2 3 4 5 6 
#
# 1 153.6497 73.9721 65.2859 0.0000 0.2068 0.0000
# 2 73.9721 146.5361 55.5805 0.0000 -6.7987 0.0000
# 3 65.2859 55.5805 102.1868 0.0000 -4.4536 0.0000
# 4 0.0000 0.0000 0.0000 25.5626 0.0000 6.7776
# 5 0.2068 -6.7987 -4.4536 0.0000 44.9782 0.0000
# 6 0.0000 0.0000 0.0000 6.7776 0.0000 20.6676
#
#
#
# Elastic Compliance Matrix: (Units=1/GPa)
#
#
# Indices 1 2 3 4 5 6 
#
# 1 0.010125 -0.003387 -0.004671 0.000000 -0.001021 0.000000
# 2 -0.003387 0.009763 -0.003095 0.000000 0.001185 0.000000
# 3 -0.004671 -0.003095 0.014497 0.000000 0.000989 0.000000
# 4 0.000000 0.000000 0.000000 0.042845 0.000000 -0.014050
# 5 -0.001021 0.001185 0.000989 0.000000 0.022515 0.000000
# 6 0.000000 0.000000 0.000000 -0.014050 0.000000 0.052993
#
#
# Mechanical properties :
#
#
# Convention : Reuss Voigt Hill
#
# Bulk Modulus (GPa) = 82.78660 88.00554 85.39607
# Shear Modulus (GPa) = 27.92239 32.07728 29.99983
#
# Velocity S-wave (km/s) = 3.83630 4.11183 3.97645
# Velocity P-wave (km/s) = 7.95347 8.30231 8.12976
#
# Compressibility (1/GPa) = 0.01207925
#
# Stress axis : x y z
#
# Youngs Moduli (GPa) = 98.76601 102.43115 68.98158
#
# Poissons Ratio (x) = 0.34691 0.32222
# Poissons Ratio (y) = 0.33450 0.21347
# Poissons Ratio (z) = 0.46135 0.31699
#
# Static dielectric constant tensor:
#      x y z
#    x 1.663230 0.000000 -0.009450 
#    y 0.000000 1.623110 0.000000 
#    z -0.009450 0.000000 1.632640 
# 
# From -- ./inp_files/61715.got.cif
#   From: 2010.05.17/outbox.cif.g08.bks.cpg/sg13_31_cif.got.tgz:61715.got - 2010.06.03 16:44:36.
