data_PCOD9237662
_publ_section_title
;
Structure prediction by ZEFSAII (Michael W. Deem and Ramdas Pophale) SiO2 
 PCOD9237662
Probable space group: P 2/C
;
_chemical_formula_sum "Si O2"
_cell_formula_units_Z 30
_cell_length_a 7.756564
_cell_length_b 10.300382
_cell_length_c 20.238446
_cell_angle_alpha 90.000000
_cell_angle_beta 58.575005
_cell_angle_gamma 90.000000
_cell_volume 1379.791748
_symmetry_space_group_name_H-M "P 2/C"
_symmetry_group_IT_number 13
_symmetry_cell_setting 'monoclinic'
loop_
_space_group_symop_operation_xyz
x,y,z
-x,y,1/2-z
-x,-y,-z
x,-y,1/2+z
loop_
_atom_site_type_symbol
_atom_site_label
_atom_site_fract_x
_atom_site_fract_y
_atom_site_fract_z
Si Si1 0.000000 0.672923 0.750000
Si Si2 0.610109 0.633814 0.163881
Si Si3 0.393710 0.385661 0.983178
Si Si4 0.969557 0.506584 0.384071
Si Si5 0.314070 0.134676 0.721311
Si Si6 0.903502 0.788399 0.368499
Si Si7 0.572518 0.865961 0.519814
Si Si8 0.401625 0.163004 0.200376
O O1 0.138840 0.192194 0.804009
O O2 0.998624 0.582522 0.685858
O O3 0.500000 0.576651 0.250000
O O4 0.142208 0.636121 0.119307
O O5 0.521838 0.783084 0.180517
O O6 0.544640 0.595228 0.104422
O O7 0.156642 0.418960 0.040083
O O8 0.453109 0.249423 0.004981
O O9 0.500000 0.500000 0.000000
O O10 0.166590 0.574966 0.375040
O O11 0.798003 0.240741 0.282520
O O12 0.218710 0.149417 0.667593
O O13 0.340811 0.984423 0.729825
O O14 0.809048 0.848249 0.453540
O O15 0.534577 0.850166 0.606062
O O16 0.500000 0.000000 0.500000
O O17 0.500000 0.215423 0.250000
#
# Coordination Sequence:
#
# PCOD9237662 Si02
#       8
#     2   4   4   4   4   4   4   4
#     4  12  28  50  72 114 156 214 250 310 404 474
#     4  12  25  43  73 113 144 184 254 326 379 455
#     4  12  25  46  71 104 150 193 249 315 382 457
#     4  12  26  44  74 107 150 198 254 312 392 458
#     4  11  22  45  76 110 143 189 259 323 379 449
#     4  11  22  43  77 107 140 197 258 315 383 456
#     4  12  24  47  77 107 151 207 257 314 395 472
#     4  12  28  50  75 110 157 208 253 317 388 471
#
# _framework density 21.742412000000002
#
# number of rings (size 3 to 8) (size 9 to 14) (size 15 to 20)
#    0.000    0.267    6.667    2.400    1.867    1.600 
#    2.400    0.667    0.000    0.000    0.000    0.000 
#    0.000    0.000    0.000    0.000    0.000    0.000 
#
# Total GULP energy -167325.407856 kJ/mol
# GULP energy per Si atom -5577.513595 kJ/mol
# Density = 2.169292 g / cm^3
# Si number density = 21.742412 Si / 1000 Ang^3
#
#
#
# Elastic Constant Matrix: (Units=GPa)
#
#
# Indices 1 2 3 4 5 6 
#
# 1 108.6584 34.4641 18.3672 0.0000 12.9630 0.0000
# 2 34.4641 124.5795 31.9471 0.0000 1.3362 0.0000
# 3 18.3672 31.9471 156.1992 0.0000 7.7285 0.0000
# 4 0.0000 0.0000 0.0000 22.4309 0.0000 -11.2028
# 5 12.9630 1.3362 7.7285 0.0000 42.2261 0.0000
# 6 0.0000 0.0000 0.0000 -11.2028 0.0000 22.6050
#
#
#
# Elastic Compliance Matrix: (Units=1/GPa)
#
#
# Indices 1 2 3 4 5 6 
#
# 1 0.010526 -0.002745 -0.000526 0.000000 -0.003048 0.000000
# 2 -0.002745 0.009187 -0.001598 0.000000 0.000844 0.000000
# 3 -0.000526 -0.001598 0.006842 0.000000 -0.001040 0.000000
# 4 0.000000 0.000000 0.000000 0.059245 0.000000 0.029361
# 5 -0.003048 0.000844 -0.001040 0.000000 0.024782 0.000000
# 6 0.000000 0.000000 0.000000 0.029361 0.000000 0.058789
#
#
# Mechanical properties :
#
#
# Convention : Reuss Voigt Hill
#
# Bulk Modulus (GPa) = 59.45635 62.11043 60.78339
# Shear Modulus (GPa) = 27.06884 37.76300 32.41592
#
# Velocity S-wave (km/s) = 3.53225 4.17206 3.86542
# Velocity P-wave (km/s) = 6.63633 7.19976 6.92378
#
# Compressibility (1/GPa) = 0.01681906
#
# Stress axis : x y z
#
# Youngs Moduli (GPa) = 95.00130 108.84942 146.15165
#
# Poissons Ratio (x) = 0.29874 0.07682
# Poissons Ratio (y) = 0.26073 0.23356
# Poissons Ratio (z) = 0.04993 0.17395
#
# Static dielectric constant tensor:
#      x y z
#    x 1.881150 0.000000 -0.057860 
#    y 0.000000 1.775400 0.000000 
#    z -0.057860 0.000000 1.753140 
# 
# From -- ./inp_files/77795.got.cif
#   From: 2010.05.17/outbox.cif.g08.bks.cpg/sg13_39_cif.got.tgz:77795.got - 2010.06.03 16:44:36.
