data_PCOD9237664
_publ_section_title
;
Structure prediction by ZEFSAII (Michael W. Deem and Ramdas Pophale) SiO2 
 PCOD9237664
Probable space group: P 2/C
;
_chemical_formula_sum "Si O2"
_cell_formula_units_Z 22
_cell_length_a 7.303099
_cell_length_b 6.927822
_cell_length_c 25.365016
_cell_angle_alpha 90.000000
_cell_angle_beta 49.859255
_cell_angle_gamma 90.000000
_cell_volume 981.060080
_symmetry_space_group_name_H-M "P 2/C"
_symmetry_group_IT_number 13
_symmetry_cell_setting 'monoclinic'
loop_
_space_group_symop_operation_xyz
x,y,z
-x,y,1/2-z
-x,-y,-z
x,-y,1/2+z
loop_
_atom_site_type_symbol
_atom_site_label
_atom_site_fract_x
_atom_site_fract_y
_atom_site_fract_z
Si Si1 0.500000 0.806180 0.250000
Si Si2 0.860738 0.480511 0.853846
Si Si3 0.619253 0.090313 0.897748
Si Si4 0.634552 0.550099 0.791174
Si Si5 0.685992 0.907340 0.641221
Si Si6 0.793208 0.222623 0.450553
O O1 0.445617 0.659893 0.212905
O O2 0.303298 0.947789 0.311068
O O3 0.829165 0.250167 0.852524
O O4 0.670453 0.557274 0.846963
O O5 0.821448 0.566241 0.919046
O O6 0.111372 0.564855 0.785652
O O7 0.488544 0.001293 0.870615
O O8 0.715147 0.919002 0.917161
O O9 0.412089 0.204978 0.968025
O O10 0.442506 0.712810 0.815789
O O11 0.953024 0.852498 0.574276
#
# Coordination Sequence:
#
# PCOD9237664 Si02
#       6
#     2   4   4   4   4   4
#     4  12  22  40  64  94 132 174 218 280 338 406
#     4  11  22  44  65  95 135 175 222 276 338 401
#     4  11  24  45  68  99 133 180 229 271 341 411
#     4  11  24  40  67  97 133 173 225 281 335 407
#     4  12  24  44  67 100 137 175 229 284 345 398
#     4  11  24  43  70  96 135 178 225 283 331 407
#
# _framework density 22.424724000000001
#
# number of rings (size 3 to 8) (size 9 to 14) (size 15 to 20)
#    0.000    0.727    3.636    4.909    0.000    0.000 
#    0.000    0.909    0.000    0.000    0.000    0.000 
#    0.000    0.000    0.000    0.000    0.000    0.000 
#
# Total GULP energy -122848.334244 kJ/mol
# GULP energy per Si atom -5584.015193 kJ/mol
# Density = 2.237368 g / cm^3
# Si number density = 22.424724 Si / 1000 Ang^3
#
#
#
# Elastic Constant Matrix: (Units=GPa)
#
#
# Indices 1 2 3 4 5 6 
#
# 1 89.4723 40.7399 12.3783 0.0000 -5.5204 0.0000
# 2 40.7399 83.8473 15.5321 0.0000 -1.9814 0.0000
# 3 12.3783 15.5321 45.0125 0.0000 -2.6262 0.0000
# 4 0.0000 0.0000 0.0000 32.9536 0.0000 8.7077
# 5 -5.5204 -1.9814 -2.6262 0.0000 25.9619 0.0000
# 6 0.0000 0.0000 0.0000 8.7077 0.0000 28.6053
#
#
#
# Elastic Compliance Matrix: (Units=1/GPa)
#
#
# Indices 1 2 3 4 5 6 
#
# 1 0.014618 -0.006759 -0.001546 0.000000 0.002436 0.000000
# 2 -0.006759 0.015873 -0.003653 0.000000 -0.000595 0.000000
# 3 -0.001546 -0.003653 0.024008 0.000000 0.001821 0.000000
# 4 0.000000 0.000000 0.000000 0.033000 0.000000 -0.010046
# 5 0.002436 -0.000595 0.001821 0.000000 0.039175 0.000000
# 6 0.000000 0.000000 0.000000 -0.010046 0.000000 0.038017
#
#
# Mechanical properties :
#
#
# Convention : Reuss Voigt Hill
#
# Bulk Modulus (GPa) = 32.69700 39.51474 36.10587
# Shear Modulus (GPa) = 25.15077 27.48296 26.31686
#
# Velocity S-wave (km/s) = 3.35261 3.50460 3.42945
# Velocity P-wave (km/s) = 5.44050 5.83401 5.64069
#
# Compressibility (1/GPa) = 0.03058385
#
# Stress axis : x y z
#
# Youngs Moduli (GPa) = 68.40709 62.99942 41.65289
#
# Poissons Ratio (x) = 0.42581 0.06438
# Poissons Ratio (y) = 0.46236 0.15217
# Poissons Ratio (z) = 0.10573 0.23015
#
# Static dielectric constant tensor:
#      x y z
#    x 1.858650 0.000000 0.001140 
#    y 0.000000 1.835840 0.000000 
#    z 0.001140 0.000000 1.828780 
# 
# From -- ./inp_files/74597.got.cif
#   From: 2010.05.17/outbox.cif.g08.bks.cpg/sg13_38_cif.got.tgz:74597.got - 2010.06.03 16:44:36.
