data_PCOD9237161
_publ_section_title
;
Structure prediction by ZEFSAII (Michael W. Deem and Ramdas Pophale) SiO2 
 PCOD9237161
Probable space group: P 2/C
;
_chemical_formula_sum "Si O2"
_cell_formula_units_Z 20
_cell_length_a 5.477328
_cell_length_b 4.861306
_cell_length_c 28.880454
_cell_angle_alpha 90.000000
_cell_angle_beta 112.504725
_cell_angle_gamma 90.000000
_cell_volume 710.438082
_symmetry_space_group_name_H-M "P 2/C"
_symmetry_group_IT_number 13
_symmetry_cell_setting 'monoclinic'
loop_
_space_group_symop_operation_xyz
x,y,z
-x,y,1/2-z
-x,-y,-z
x,-y,1/2+z
loop_
_atom_site_type_symbol
_atom_site_label
_atom_site_fract_x
_atom_site_fract_y
_atom_site_fract_z
Si Si1 0.773270 0.008169 0.759442
Si Si2 0.752550 0.825667 0.500888
Si Si3 0.443902 0.368232 0.338373
Si Si4 0.190418 0.099238 0.636654
Si Si5 0.285671 0.587065 0.419754
O O1 0.500000 0.156713 0.750000
O O2 0.869093 0.957002 0.817995
O O3 0.000000 0.172225 0.750000
O O4 0.693977 0.762327 0.717889
O O5 0.809442 0.612828 0.546333
O O6 0.596515 0.649342 0.450003
O O7 0.500000 0.000000 0.500000
O O8 0.000000 0.000000 0.500000
O O9 0.651156 0.614970 0.344972
O O10 0.257972 0.478494 0.365485
O O11 0.606981 0.111912 0.371593
O O12 0.914823 0.158224 0.592763
#
# Coordination Sequence:
#
# PCOD9237161 Si02
#       5
#     4   4   4   4   4
#     4  10  26  52  74 120 166 224 280 354 416 508
#     4  11  30  55  89 126 180 224 294 376 462 530
#     4  11  29  52  84 123 175 231 294 357 440 523
#     4  11  29  52  84 123 175 231 294 357 440 523
#     4  11  30  52  87 130 172 230 301 365 446 542
#
# _framework density 28.15164
#
# number of rings (size 3 to 8) (size 9 to 14) (size 15 to 20)
#    0.000    1.200    0.000    0.000   22.400    8.800 
#    0.000    3.000    0.000    0.000    0.000    0.000 
#    0.000    0.000    0.000    0.000    0.000    0.000 
#
# Total GULP energy -112027.541876 kJ/mol
# GULP energy per Si atom -5601.377094 kJ/mol
# Density = 2.808757 g / cm^3
# Si number density = 28.151640 Si / 1000 Ang^3
#
#
#
# Elastic Constant Matrix: (Units=GPa)
#
#
# Indices 1 2 3 4 5 6 
#
# 1 200.2861 59.5773 52.9808 0.0000 -8.0140 0.0000
# 2 59.5773 141.3461 45.5195 0.0000 17.4061 0.0000
# 3 52.9808 45.5195 148.7148 0.0000 1.9227 0.0000
# 4 0.0000 0.0000 0.0000 58.2300 0.0000 9.8100
# 5 -8.0140 17.4061 1.9227 0.0000 46.4814 0.0000
# 6 0.0000 0.0000 0.0000 9.8100 0.0000 60.1072
#
#
#
# Elastic Compliance Matrix: (Units=1/GPa)
#
#
# Indices 1 2 3 4 5 6 
#
# 1 0.006175 -0.002367 -0.001501 0.000000 0.002013 0.000000
# 2 -0.002367 0.009150 -0.001909 0.000000 -0.003755 0.000000
# 3 -0.001501 -0.001909 0.007842 0.000000 0.000132 0.000000
# 4 0.000000 0.000000 0.000000 0.017659 0.000000 -0.002882
# 5 0.002013 -0.003755 0.000132 0.000000 0.023262 0.000000
# 6 0.000000 0.000000 0.000000 -0.002882 0.000000 0.017107
#
#
# Mechanical properties :
#
#
# Convention : Reuss Voigt Hill
#
# Bulk Modulus (GPa) = 86.11885 89.61138 87.86511
# Shear Modulus (GPa) = 51.74973 55.11501 53.43237
#
# Velocity S-wave (km/s) = 4.29213 4.42949 4.36135
# Velocity P-wave (km/s) = 7.43106 7.61980 7.52602
#
# Compressibility (1/GPa) = 0.01161186
#
# Stress axis : x y z
#
# Youngs Moduli (GPa) = 161.95294 109.29307 127.52395
#
# Poissons Ratio (x) = 0.25870 0.19145
# Poissons Ratio (y) = 0.38335 0.24341
# Poissons Ratio (z) = 0.24314 0.20862
#
# Static dielectric constant tensor:
#      x y z
#    x 2.212530 0.000000 0.066600 
#    y 0.000000 2.185450 0.000000 
#    z 0.066600 0.000000 2.268200 
# 
# From -- ./inp_files/94609.got.cif
#   From: 2010.05.17/outbox.cif.g08.bks.cpg/sg13_48_cif.got.tgz:94609.got - 2010.06.03 16:44:36.
