data_PCOD9237750
_publ_section_title
;
Structure prediction by ZEFSAII (Michael W. Deem and Ramdas Pophale) SiO2 
 PCOD9237750
Probable space group: P 2/C
;
_chemical_formula_sum "Si O2"
_cell_formula_units_Z 16
_cell_length_a 11.854430
_cell_length_b 9.444900
_cell_length_c 5.058096
_cell_angle_alpha 90.000000
_cell_angle_beta 83.575821
_cell_angle_gamma 90.000000
_cell_volume 562.768116
_symmetry_space_group_name_H-M "P 2/C"
_symmetry_group_IT_number 13
_symmetry_cell_setting 'monoclinic'
loop_
_space_group_symop_operation_xyz
x,y,z
-x,y,1/2-z
-x,-y,-z
x,-y,1/2+z
loop_
_atom_site_type_symbol
_atom_site_label
_atom_site_fract_x
_atom_site_fract_y
_atom_site_fract_z
Si Si1 0.669666 0.078931 0.784140
Si Si2 0.076750 0.142186 0.937751
Si Si3 0.831327 0.591514 0.804009
Si Si4 0.428056 0.343389 0.007684
O O1 0.805056 0.096836 0.727210
O O2 0.613826 0.212249 0.663099
O O3 0.639765 0.951840 0.592269
O O4 0.117510 0.251728 0.154195
O O5 0.000000 0.225959 0.750000
O O6 0.000000 0.000000 0.000000
O O7 0.863528 0.482090 0.024894
O O8 0.693869 0.600119 0.859760
O O9 0.500000 0.423344 0.750000
O O10 0.500000 0.305161 0.250000
#
# Coordination Sequence:
#
# PCOD9237750 Si02
#       4
#     4   4   4   4
#     4  11  23  40  65 103 143 186 243 311 362 438
#     4  11  24  45  78 110 144 200 253 305 382 450
#     4  11  27  49  73 110 154 193 252 316 364 446
#     4  11  24  42  69 104 141 195 248 300 370 436
#
# _framework density 28.430896000000001
#
# number of rings (size 3 to 8) (size 9 to 14) (size 15 to 20)
#    0.000    1.000    2.500    3.000    0.000   15.000 
#    0.000    0.000    0.000    0.000    0.000    0.000 
#    0.000    0.000    0.000    0.000    0.000    0.000 
#
# Total GULP energy -89657.342256 kJ/mol
# GULP energy per Si atom -5603.583891 kJ/mol
# Density = 2.836619 g / cm^3
# Si number density = 28.430896 Si / 1000 Ang^3
#
#
#
# Elastic Constant Matrix: (Units=GPa)
#
#
# Indices 1 2 3 4 5 6 
#
# 1 204.0587 71.5429 56.8683 0.0000 8.4075 0.0000
# 2 71.5429 141.8777 8.2711 0.0000 9.9959 0.0000
# 3 56.8683 8.2711 153.3518 0.0000 27.4416 0.0000
# 4 0.0000 0.0000 0.0000 28.9526 0.0000 -22.2393
# 5 8.4075 9.9959 27.4416 0.0000 50.4793 0.0000
# 6 0.0000 0.0000 0.0000 -22.2393 0.0000 33.7302
#
#
#
# Elastic Compliance Matrix: (Units=1/GPa)
#
#
# Indices 1 2 3 4 5 6 
#
# 1 0.006709 -0.003301 -0.002467 0.000000 0.000877 0.000000
# 2 -0.003301 0.008775 0.001067 0.000000 -0.001768 0.000000
# 3 -0.002467 0.001067 0.008134 0.000000 -0.004222 0.000000
# 4 0.000000 0.000000 0.000000 0.069981 0.000000 0.046141
# 5 0.000877 -0.001768 -0.004222 0.000000 0.022309 0.000000
# 6 0.000000 0.000000 0.000000 0.046141 0.000000 0.060069
#
#
# Mechanical properties :
#
#
# Convention : Reuss Voigt Hill
#
# Bulk Modulus (GPa) = 70.34041 85.85031 78.09536
# Shear Modulus (GPa) = 26.29940 46.80615 36.55278
#
# Velocity S-wave (km/s) = 3.04473 4.06188 3.58952
# Velocity P-wave (km/s) = 6.09549 7.22912 6.68637
#
# Compressibility (1/GPa) = 0.01421658
#
# Stress axis : x y z
#
# Youngs Moduli (GPa) = 149.04628 113.95580 122.94414
#
# Poissons Ratio (x) = 0.37619 0.30330
# Poissons Ratio (y) = 0.49203 -0.13122
# Poissons Ratio (z) = 0.36770 -0.12162
#
# Static dielectric constant tensor:
#      x y z
#    x 2.229270 0.000000 -0.012060 
#    y 0.000000 2.304690 0.000000 
#    z -0.012060 0.000000 2.417720 
# 
# From -- ./inp_files/2979.got.cif
#   From: 2010.05.17/outbox.cif.g08.bks.cpg/sg13_2_cif.got.tgz:2979.got - 2010.06.03 16:44:36.
