data_PCOD9237200
_publ_section_title
;
Structure prediction by ZEFSAII (Michael W. Deem and Ramdas Pophale) SiO2 
 PCOD9237200
Probable space group: P 2/C
;
_chemical_formula_sum "Si O2"
_cell_formula_units_Z 32
_cell_length_a 21.802643
_cell_length_b 11.876381
_cell_length_c 20.359895
_cell_angle_alpha 90.000000
_cell_angle_beta 159.039500
_cell_angle_gamma 90.000000
_cell_volume 1885.893572
_symmetry_space_group_name_H-M "P 2/C"
_symmetry_group_IT_number 13
_symmetry_cell_setting 'monoclinic'
loop_
_space_group_symop_operation_xyz
x,y,z
-x,y,1/2-z
-x,-y,-z
x,-y,1/2+z
loop_
_atom_site_type_symbol
_atom_site_label
_atom_site_fract_x
_atom_site_fract_y
_atom_site_fract_z
Si Si1 0.302300 0.786848 0.474502
Si Si2 0.695250 0.334253 0.749623
Si Si3 0.695247 0.665746 0.640877
Si Si4 0.000002 0.164609 0.055917
Si Si5 0.999996 0.089600 0.903650
Si Si6 0.697709 0.213153 0.369913
Si Si7 0.793822 0.578250 0.203590
Si Si8 0.793822 0.578248 0.884058
O O1 0.274880 0.796080 0.524879
O O2 0.500005 0.815865 0.657352
O O3 0.267986 0.659507 0.415817
O O4 0.167065 0.863198 0.300354
O O5 0.500001 0.297440 0.563085
O O6 0.725483 0.369176 0.703613
O O7 0.729930 0.450217 0.823302
O O8 0.833268 0.239439 0.904350
O O9 0.833268 0.760557 0.762189
O O10 0.729928 0.549780 0.636560
O O11 0.725476 0.630823 0.747349
O O12 0.000001 0.137969 0.977802
O O13 0.000001 0.044971 0.091753
O O14 0.167054 0.136802 0.033762
O O15 0.732022 0.340494 0.379857
O O16 1.000000 0.577992 0.413179
#
# Coordination Sequence:
#
# PCOD9237200 Si02
#       8
#     4   4   4   4   4   4   4   4
#     4  11  22  37  58  82 109 142 184 231 274 324
#     4  11  19  32  54  80 116 146 170 217 274 327
#     4  11  19  32  54  80 116 146 170 217 274 327
#     4  11  22  36  52  82 109 150 183 229 268 332
#     4  11  23  37  55  75 115 144 190 230 273 315
#     4  11  22  37  58  82 109 142 184 231 274 324
#     4  11  18  32  55  82 115 142 175 215 272 335
#     4  11  18  32  55  82 115 142 175 215 272 335
#
# _framework density 16.968083
#
# number of rings (size 3 to 8) (size 9 to 14) (size 15 to 20)
#    0.000    1.000    6.250    4.125    0.000    1.000 
#    0.000    2.500    0.000    3.000    0.000    3.500 
#    0.000    0.000    0.000    0.000    0.000    0.000 
#
# Total GULP energy -178750.487027 kJ/mol
# GULP energy per Si atom -5585.952720 kJ/mol
# Density = 1.692946 g / cm^3
# Si number density = 16.968083 Si / 1000 Ang^3
#
#
#
# Elastic Constant Matrix: (Units=GPa)
#
#
# Indices 1 2 3 4 5 6 
#
# 1 59.9701 42.7485 51.7564 0.0000 6.1759 0.0000
# 2 42.7485 144.5981 75.6633 0.0000 9.6888 0.0000
# 3 51.7564 75.6633 164.7393 0.0000 24.6663 0.0000
# 4 0.0000 0.0000 0.0000 7.1921 0.0000 -3.3849
# 5 6.1759 9.6888 24.6663 0.0000 20.0398 0.0000
# 6 0.0000 0.0000 0.0000 -3.3849 0.0000 18.6807
#
#
#
# Elastic Compliance Matrix: (Units=1/GPa)
#
#
# Indices 1 2 3 4 5 6 
#
# 1 0.024796 -0.004255 -0.006130 0.000000 0.001960 0.000000
# 2 -0.004255 0.009847 -0.003273 0.000000 0.000579 0.000000
# 3 -0.006130 -0.003273 0.011008 0.000000 -0.010078 0.000000
# 4 0.000000 0.000000 0.000000 0.152005 0.000000 0.027543
# 5 0.001960 0.000579 -0.010078 0.000000 0.061422 0.000000
# 6 0.000000 0.000000 0.000000 0.027543 0.000000 0.058522
#
#
# Mechanical properties :
#
#
# Convention : Reuss Voigt Hill
#
# Bulk Modulus (GPa) = 54.53279 78.84931 66.69105
# Shear Modulus (GPa) = 14.24393 22.45844 18.35118
#
# Velocity S-wave (km/s) = 2.90048 3.64204 3.29220
# Velocity P-wave (km/s) = 6.58978 8.01598 7.33762
#
# Compressibility (1/GPa) = 0.01833759
#
# Stress axis : x y z
#
# Youngs Moduli (GPa) = 40.32915 101.55104 90.84233
#
# Poissons Ratio (x) = 0.43205 0.55683
# Poissons Ratio (y) = 0.17158 0.29730
# Poissons Ratio (z) = 0.24720 0.33235
#
# Static dielectric constant tensor:
#      x y z
#    x 1.552710 0.000000 0.007580 
#    y 0.000000 1.565470 0.000000 
#    z 0.007580 0.000000 1.578450 
# 
# From -- ./inp_files/81826.got.cif
#   From: 2010.05.17/outbox.cif.g08.bks.cpg/sg13_41_cif.got.tgz:81826.got - 2010.06.03 16:44:36.
