data_PCOD9237107
_publ_section_title
;
Structure prediction by ZEFSAII (Michael W. Deem and Ramdas Pophale) SiO2 
 PCOD9237107
Probable space group: P 2/C
;
_chemical_formula_sum "Si O2"
_cell_formula_units_Z 18
_cell_length_a 5.220146
_cell_length_b 8.103350
_cell_length_c 18.627282
_cell_angle_alpha 90.000000
_cell_angle_beta 85.557367
_cell_angle_gamma 90.000000
_cell_volume 785.579039
_symmetry_space_group_name_H-M "P 2/C"
_symmetry_group_IT_number 13
_symmetry_cell_setting 'monoclinic'
loop_
_space_group_symop_operation_xyz
x,y,z
-x,y,1/2-z
-x,-y,-z
x,-y,1/2+z
loop_
_atom_site_type_symbol
_atom_site_label
_atom_site_fract_x
_atom_site_fract_y
_atom_site_fract_z
Si Si1 0.266081 0.243275 0.877149
Si Si2 0.227193 0.582443 0.158986
Si Si3 0.500000 0.675051 0.750000
Si Si4 0.274430 0.853316 0.892262
Si Si5 0.249264 0.687798 0.541674
O O1 0.545619 0.285084 0.841027
O O2 0.045104 0.327867 0.834720
O O3 0.238092 0.048538 0.887482
O O4 0.242008 0.322973 0.956618
O O5 0.293804 0.440900 0.214578
O O6 0.260003 0.486418 0.082239
O O7 0.357782 0.781487 0.813325
O O8 0.505220 0.797279 0.939909
O O9 0.010398 0.773893 0.924859
#
# Coordination Sequence:
#
# PCOD9237107 Si02
#       5
#     4   4   2   4   4
#     4  12  23  41  68 104 125 162 218 272 321 372
#     4  11  24  41  66  92 132 170 210 269 315 387
#     4  10  26  48  60  88 128 182 220 250 330 380
#     4  11  24  42  68  92 132 173 210 265 315 391
#     4  11  22  42  67  99 133 168 204 261 336 388
#
# _framework density 22.913032999999999
#
# number of rings (size 3 to 8) (size 9 to 14) (size 15 to 20)
#    0.000    0.889    0.000    8.000    0.000    8.889 
#    0.000    4.444    0.000    0.000    0.000    0.000 
#    0.000    0.000    0.000    0.000    0.000    0.000 
#
# Total GULP energy -100941.473015 kJ/mol
# GULP energy per Si atom -5607.859612 kJ/mol
# Density = 2.286088 g / cm^3
# Si number density = 22.913033 Si / 1000 Ang^3
#
#
#
# Elastic Constant Matrix: (Units=GPa)
#
#
# Indices 1 2 3 4 5 6 
#
# 1 160.4410 57.3960 24.4662 0.0000 17.4885 0.0000
# 2 57.3960 61.8662 -9.3708 0.0000 19.5504 0.0000
# 3 24.4662 -9.3708 89.3607 0.0000 19.9098 0.0000
# 4 0.0000 0.0000 0.0000 6.5713 0.0000 1.7150
# 5 17.4885 19.5504 19.9098 0.0000 30.4406 0.0000
# 6 0.0000 0.0000 0.0000 1.7150 0.0000 19.4495
#
#
#
# Elastic Compliance Matrix: (Units=1/GPa)
#
#
# Indices 1 2 3 4 5 6 
#
# 1 0.011112 -0.012943 -0.005653 0.000000 0.005626 0.000000
# 2 -0.012943 0.038398 0.013354 0.000000 -0.025960 0.000000
# 3 -0.005653 0.013354 0.017940 0.000000 -0.017063 0.000000
# 4 0.000000 0.000000 0.000000 0.155761 0.000000 -0.013735
# 5 0.005626 -0.025960 -0.017063 0.000000 0.057451 0.000000
# 6 0.000000 0.000000 0.000000 -0.013735 0.000000 0.052626
#
#
# Mechanical properties :
#
#
# Convention : Reuss Voigt Hill
#
# Bulk Modulus (GPa) = 17.55432 50.73897 34.14664
# Shear Modulus (GPa) = 13.78314 27.23738 20.51026
#
# Velocity S-wave (km/s) = 2.45530 3.45153 2.99513
# Velocity P-wave (km/s) = 3.96433 6.17060 5.18615
#
# Compressibility (1/GPa) = 0.05696605
#
# Stress axis : x y z
#
# Youngs Moduli (GPa) = 89.99330 26.04284 55.73995
#
# Poissons Ratio (x) = 0.33708 0.31511
# Poissons Ratio (y) = 1.16481 -0.74436
# Poissons Ratio (z) = 0.50875 -0.34778
#
# Static dielectric constant tensor:
#      x y z
#    x 1.824070 0.000000 0.007090 
#    y 0.000000 1.783430 0.000000 
#    z 0.007090 0.000000 1.866560 
# 
# From -- ./inp_files/60437.got.cif
#   From: 2010.05.17/outbox.cif.g08.bks.cpg/sg13_31_cif.got.tgz:60437.got - 2010.06.03 16:44:36.
