data_PCOD9237339
_publ_section_title
;
Structure prediction by ZEFSAII (Michael W. Deem and Ramdas Pophale) SiO2 
 PCOD9237339
Probable space group: P 2/C
;
_chemical_formula_sum "Si O2"
_cell_formula_units_Z 26
_cell_length_a 21.058464
_cell_length_b 5.337445
_cell_length_c 21.950129
_cell_angle_alpha 90.000000
_cell_angle_beta 34.711850
_cell_angle_gamma 90.000000
_cell_volume 1404.922712
_symmetry_space_group_name_H-M "P 2/C"
_symmetry_group_IT_number 13
_symmetry_cell_setting 'monoclinic'
loop_
_space_group_symop_operation_xyz
x,y,z
-x,y,1/2-z
-x,-y,-z
x,-y,1/2+z
loop_
_atom_site_type_symbol
_atom_site_label
_atom_site_fract_x
_atom_site_fract_y
_atom_site_fract_z
Si Si1 0.430738 0.787437 0.389785
Si Si2 0.622031 0.988814 0.869655
Si Si3 0.711145 0.499775 0.587436
Si Si4 0.373812 0.488847 0.714744
Si Si5 0.762779 0.061890 0.374950
Si Si6 0.867270 0.562650 0.351864
Si Si7 0.500000 0.846857 0.750000
O O1 0.346020 0.735704 0.401237
O O2 0.502274 0.550388 0.354043
O O3 0.357904 0.902532 0.499397
O O4 0.516583 0.984630 0.296301
O O5 0.636822 0.246677 0.820425
O O6 0.627733 0.742785 0.822532
O O7 0.726880 0.964213 0.833299
O O8 0.500000 0.000000 0.000000
O O9 0.712123 0.479650 0.659923
O O10 0.816294 0.554938 0.461084
O O11 0.614135 0.700687 0.652215
O O12 0.827573 0.313540 0.345971
O O13 0.820265 0.811987 0.355900
O O14 0.000000 0.569239 0.250000
#
# Coordination Sequence:
#
# PCOD9237339 Si02
#       7
#     4   4   4   4   4   4   2
#     4  11  21  31  57  90 127 166 190 251 309 374
#     4  12  26  37  59  89 135 180 200 235 299 390
#     4  11  23  33  61  91 125 160 203 259 322 358
#     4  12  23  37  56  89 135 162 207 235 299 389
#     4  11  24  41  63  90 127 163 213 251 307 369
#     4  11  25  45  69  92 118 160 214 275 318 353
#     4  12  16  34  52  94 126 156 186 244 336 374
#
# _framework density 18.506354999999999
#
# number of rings (size 3 to 8) (size 9 to 14) (size 15 to 20)
#    0.000    0.615    6.154    2.769    4.308    0.000 
#    0.000    0.000    0.000    5.538    0.000    0.000 
#    0.000    0.000    0.000    0.000    0.000    0.000 
#
# Total GULP energy -144915.609787 kJ/mol
# GULP energy per Si atom -5573.677300 kJ/mol
# Density = 1.846423 g / cm^3
# Si number density = 18.506355 Si / 1000 Ang^3
#
#
#
# Elastic Constant Matrix: (Units=GPa)
#
#
# Indices 1 2 3 4 5 6 
#
# 1 98.1163 59.3696 70.4845 0.0000 14.5593 0.0000
# 2 59.3696 139.8772 53.0231 0.0000 16.8448 0.0000
# 3 70.4845 53.0231 134.0613 0.0000 2.6337 0.0000
# 4 0.0000 0.0000 0.0000 17.8510 0.0000 11.3718
# 5 14.5593 16.8448 2.6337 0.0000 31.3533 0.0000
# 6 0.0000 0.0000 0.0000 11.3718 0.0000 23.2094
#
#
#
# Elastic Compliance Matrix: (Units=1/GPa)
#
#
# Indices 1 2 3 4 5 6 
#
# 1 0.020020 -0.004483 -0.008631 0.000000 -0.006163 0.000000
# 2 -0.004483 0.010019 -0.001543 0.000000 -0.003171 0.000000
# 3 -0.008631 -0.001543 0.012533 0.000000 0.003784 0.000000
# 4 0.000000 0.000000 0.000000 0.081438 0.000000 -0.039902
# 5 -0.006163 -0.003171 0.003784 0.000000 0.036142 0.000000
# 6 0.000000 0.000000 0.000000 -0.039902 0.000000 0.062637
#
#
# Mechanical properties :
#
#
# Convention : Reuss Voigt Hill
#
# Bulk Modulus (GPa) = 75.43525 81.97881 78.70703
# Shear Modulus (GPa) = 19.49139 27.09459 23.29299
#
# Velocity S-wave (km/s) = 3.24887 3.83047 3.55159
# Velocity P-wave (km/s) = 7.41106 7.99732 7.70976
#
# Compressibility (1/GPa) = 0.01325640
#
# Stress axis : x y z
#
# Youngs Moduli (GPa) = 49.95038 99.81181 79.78677
#
# Poissons Ratio (x) = 0.44747 0.68868
# Poissons Ratio (y) = 0.22394 0.12313
# Poissons Ratio (z) = 0.43115 0.15403
#
# Static dielectric constant tensor:
#      x y z
#    x 1.695950 0.000000 0.056310 
#    y 0.000000 1.708680 0.000000 
#    z 0.056310 0.000000 1.657050 
# 
# From -- ./inp_files/81173.got.cif
#   From: 2010.05.17/outbox.cif.g08.bks.cpg/sg13_41_cif.got.tgz:81173.got - 2010.06.03 16:44:36.
