data_PCOD9237860
_publ_section_title
;
Structure prediction by ZEFSAII (Michael W. Deem and Ramdas Pophale) SiO2 
 PCOD9237860
Probable space group: P 2/C
;
_chemical_formula_sum "Si O2"
_cell_formula_units_Z 18
_cell_length_a 8.325941
_cell_length_b 7.711401
_cell_length_c 18.194950
_cell_angle_alpha 90.000000
_cell_angle_beta 45.629842
_cell_angle_gamma 90.000000
_cell_volume 835.073119
_symmetry_space_group_name_H-M "P 2/C"
_symmetry_group_IT_number 13
_symmetry_cell_setting 'monoclinic'
loop_
_space_group_symop_operation_xyz
x,y,z
-x,y,1/2-z
-x,-y,-z
x,-y,1/2+z
loop_
_atom_site_type_symbol
_atom_site_label
_atom_site_fract_x
_atom_site_fract_y
_atom_site_fract_z
Si Si1 0.236413 0.763377 0.462018
Si Si2 0.500000 0.738065 0.750000
Si Si3 0.174700 0.558802 0.088693
Si Si4 0.784021 0.856314 0.527033
Si Si5 0.679412 0.436561 0.793721
O O1 0.164818 0.611854 0.541070
O O2 0.469749 0.694623 0.353028
O O3 0.038339 0.800487 0.466966
O O4 0.253183 0.952825 0.493034
O O5 0.655470 0.847405 0.646067
O O6 0.631633 0.608514 0.762102
O O7 0.294032 0.527482 0.127990
O O8 0.923529 0.623551 0.188798
O O9 0.293269 0.709384 0.004272
#
# Coordination Sequence:
#
# PCOD9237860 Si02
#       5
#     4   2   4   4   4
#     4  11  23  43  67  97 130 174 217 273 325 393
#     4  12  22  42  64  98 126 174 220 272 330 392
#     4  11  23  46  64 100 131 177 216 271 333 390
#     4  11  25  41  69  96 133 170 222 267 332 393
#     4  11  24  41  72  93 136 172 220 275 328 389
#
# _framework density 21.554997
#
# number of rings (size 3 to 8) (size 9 to 14) (size 15 to 20)
#    0.000    0.889    4.444    2.667    0.000    5.333 
#    0.000    2.222    0.000    0.000    0.000    0.000 
#    0.000    0.000    0.000    0.000    0.000    0.000 
#
# Total GULP energy -100554.256777 kJ/mol
# GULP energy per Si atom -5586.347599 kJ/mol
# Density = 2.150594 g / cm^3
# Si number density = 21.554997 Si / 1000 Ang^3
#
#
#
# Elastic Constant Matrix: (Units=GPa)
#
#
# Indices 1 2 3 4 5 6 
#
# 1 34.4423 4.2648 34.5699 0.0000 -15.7983 0.0000
# 2 4.2648 132.5648 50.1444 0.0000 12.9805 0.0000
# 3 34.5699 50.1444 120.0652 0.0000 -4.0224 0.0000
# 4 0.0000 0.0000 0.0000 13.2320 0.0000 -7.6582
# 5 -15.7983 12.9805 -4.0224 0.0000 45.5934 0.0000
# 6 0.0000 0.0000 0.0000 -7.6582 0.0000 10.8578
#
#
#
# Elastic Compliance Matrix: (Units=1/GPa)
#
#
# Indices 1 2 3 4 5 6 
#
# 1 0.051293 0.002616 -0.015336 0.000000 0.015676 0.000000
# 2 0.002616 0.009488 -0.004790 0.000000 -0.002218 0.000000
# 3 -0.015336 -0.004790 0.014656 0.000000 -0.002657 0.000000
# 4 0.000000 0.000000 0.000000 0.127706 0.000000 0.090074
# 5 0.015676 -0.002218 -0.002657 0.000000 0.027762 0.000000
# 6 0.000000 0.000000 0.000000 0.090074 0.000000 0.155631
#
#
# Mechanical properties :
#
#
# Convention : Reuss Voigt Hill
#
# Bulk Modulus (GPa) = 24.74205 51.67007 38.20606
# Shear Modulus (GPa) = 11.49347 27.14285 19.31816
#
# Velocity S-wave (km/s) = 2.31165 3.55242 2.99695
# Velocity P-wave (km/s) = 4.31607 6.39137 5.45335
#
# Compressibility (1/GPa) = 0.04041702
#
# Stress axis : x y z
#
# Youngs Moduli (GPa) = 19.49575 105.39136 68.23115
#
# Poissons Ratio (x) = -0.27570 1.04640
# Poissons Ratio (y) = -0.05100 0.32685
# Poissons Ratio (z) = 0.29899 0.50485
#
# Static dielectric constant tensor:
#      x y z
#    x 1.819860 0.000000 -0.044800 
#    y 0.000000 1.771350 0.000000 
#    z -0.044800 0.000000 1.814760 
# 
# From -- ./inp_files/45477.got.cif
#   From: 2010.05.17/outbox.cif.g08.bks.cpg/sg13_23_cif.got.tgz:45477.got - 2010.06.03 16:44:36.
