data_PCOD9237504
_publ_section_title
;
Structure prediction by ZEFSAII (Michael W. Deem and Ramdas Pophale) SiO2 
 PCOD9237504
Probable space group: P 2/C
;
_chemical_formula_sum "Si O2"
_cell_formula_units_Z 28
_cell_length_a 29.878570
_cell_length_b 8.022966
_cell_length_c 9.680147
_cell_angle_alpha 90.000000
_cell_angle_beta 35.951108
_cell_angle_gamma 90.000000
_cell_volume 1362.337965
_symmetry_space_group_name_H-M "P 2/C"
_symmetry_group_IT_number 13
_symmetry_cell_setting 'monoclinic'
loop_
_space_group_symop_operation_xyz
x,y,z
-x,y,1/2-z
-x,-y,-z
x,-y,1/2+z
loop_
_atom_site_type_symbol
_atom_site_label
_atom_site_fract_x
_atom_site_fract_y
_atom_site_fract_z
Si Si1 0.334828 0.175986 0.494155
Si Si2 0.924456 0.295788 0.223673
Si Si3 0.170009 0.811060 0.788014
Si Si4 0.499850 0.171572 0.414239
Si Si5 0.823786 0.798474 0.213019
Si Si6 0.334892 0.827987 0.324525
Si Si7 0.906553 0.316141 0.758084
O O1 0.418455 0.257070 0.261454
O O2 0.258129 0.265899 0.634572
O O3 0.328009 0.144309 0.676035
O O4 0.336722 0.004002 0.401633
O O5 0.867189 0.195360 0.269542
O O6 0.894088 0.279134 0.454059
O O7 0.914977 0.488651 0.206377
O O8 0.010965 0.240121 0.983661
O O9 0.256349 0.742633 0.567469
O O10 0.173716 0.004251 0.820883
O O11 0.116050 0.713964 0.027755
O O12 0.500000 0.131670 0.250000
O O13 0.417402 0.254823 0.646802
O O14 0.500000 0.000000 0.500000
O O15 0.839971 0.761214 0.331569
#
# Coordination Sequence:
#
# PCOD9237504 Si02
#       7
#     4   4   4   4   4   4   4
#     4   9  17  29  49  77 112 144 178 224 273 323
#     4  11  23  43  57  78 109 144 192 223 275 337
#     4  11  22  36  58  86 113 139 182 232 280 323
#     4   8  14  26  44  72 107 145 176 212 270 323
#     4  11  22  36  58  86 113 139 182 232 280 323
#     4   9  17  29  49  77 112 144 178 224 273 323
#     4  11  25  39  59  78 107 152 184 229 271 333
#
# _framework density 20.552900999999999
#
# number of rings (size 3 to 8) (size 9 to 14) (size 15 to 20)
#    0.000    2.000    1.429    2.571    6.000    5.714 
#    0.000    0.000    0.000    0.000    0.000    6.000 
#    0.000    0.000    0.000    0.000    0.000    0.000 
#
# Total GULP energy -156053.736555 kJ/mol
# GULP energy per Si atom -5573.347734 kJ/mol
# Density = 2.050612 g / cm^3
# Si number density = 20.552901 Si / 1000 Ang^3
#
#
#
# Elastic Constant Matrix: (Units=GPa)
#
#
# Indices 1 2 3 4 5 6 
#
# 1 51.8403 11.1896 -0.1033 0.0000 -16.4276 0.0000
# 2 11.1896 18.1916 12.1894 0.0000 -9.2747 0.0000
# 3 -0.1033 12.1894 73.1257 0.0000 -24.5170 0.0000
# 4 0.0000 0.0000 0.0000 121.1324 0.0000 -24.2706
# 5 -16.4276 -9.2747 -24.5170 0.0000 43.0119 0.0000
# 6 0.0000 0.0000 0.0000 -24.2706 0.0000 24.2784
#
#
#
# Elastic Compliance Matrix: (Units=1/GPa)
#
#
# Indices 1 2 3 4 5 6 
#
# 1 0.025594 -0.014558 0.005795 0.000000 0.009939 0.000000
# 2 -0.014558 0.073275 -0.010881 0.000000 0.004038 0.000000
# 3 0.005795 -0.010881 0.019103 0.000000 0.010756 0.000000
# 4 0.000000 0.000000 0.000000 0.010323 0.000000 0.010320
# 5 0.009939 0.004038 0.010756 0.000000 0.034047 0.000000
# 6 0.000000 0.000000 0.000000 0.010320 0.000000 0.051505
#
#
# Mechanical properties :
#
#
# Convention : Reuss Voigt Hill
#
# Bulk Modulus (GPa) = 12.70921 21.07875 16.89398
# Shear Modulus (GPa) = 17.89787 45.67666 31.78727
#
# Velocity S-wave (km/s) = 2.95417 4.71934 3.93696
# Velocity P-wave (km/s) = 4.22294 6.32253 5.37623
#
# Compressibility (1/GPa) = 0.07868309
#
# Stress axis : x y z
#
# Youngs Moduli (GPa) = 39.07241 13.64731 52.34716
#
# Poissons Ratio (x) = 0.19868 -0.30336
# Poissons Ratio (y) = 0.56883 0.56959
# Poissons Ratio (z) = -0.22643 0.14850
#
# Static dielectric constant tensor:
#      x y z
#    x 1.728470 0.000000 -0.068680 
#    y 0.000000 1.700720 0.000000 
#    z -0.068680 0.000000 1.768360 
# 
# From -- ./inp_files/24505.got.cif
#   From: 2010.05.17/outbox.cif.g08.bks.cpg/sg13_13_cif.got.tgz:24505.got - 2010.06.03 16:44:36.
