data_PCOD9237917
_publ_section_title
;
Structure prediction by ZEFSAII (Michael W. Deem and Ramdas Pophale) SiO2 
 PCOD9237917
Probable space group: P 2/C
;
_chemical_formula_sum "Si O2"
_cell_formula_units_Z 12
_cell_length_a 5.457816
_cell_length_b 9.365794
_cell_length_c 13.815800
_cell_angle_alpha 90.000000
_cell_angle_beta 137.409882
_cell_angle_gamma 90.000000
_cell_volume 477.933148
_symmetry_space_group_name_H-M "P 2/C"
_symmetry_group_IT_number 13
_symmetry_cell_setting 'monoclinic'
loop_
_space_group_symop_operation_xyz
x,y,z
-x,y,1/2-z
-x,-y,-z
x,-y,1/2+z
loop_
_atom_site_type_symbol
_atom_site_label
_atom_site_fract_x
_atom_site_fract_y
_atom_site_fract_z
Si Si1 0.393080 0.701609 0.832138
Si Si2 0.636809 0.406273 0.895898
Si Si3 0.335725 0.848816 0.421916
O O1 0.500000 0.715387 0.750000
O O2 0.375002 0.534451 0.854114
O O3 0.000000 0.763551 0.750000
O O4 0.712898 0.773957 0.987898
O O5 0.500000 0.367254 0.750000
O O6 0.605117 0.265666 0.950324
O O7 0.000000 0.500000 0.000000
O O8 0.000000 0.861305 0.250000
O O9 0.500000 0.000000 0.500000
#
# Coordination Sequence:
#
# PCOD9237917 Si02
#       3
#     4   4   4
#     4  11  24  47  77 110 146 194 257 327 392 464
#     4  11  23  44  76 109 145 196 259 324 387 464
#     4  12  26  45  71 111 158 206 254 317 395 474
#
# _framework density 25.108115000000002
#
# number of rings (size 3 to 8) (size 9 to 14) (size 15 to 20)
#    0.000    0.667    0.000    9.000    0.000    1.333 
#    0.000   11.667    0.000    0.000    0.000    0.000 
#    0.000    0.000    0.000    0.000    0.000    0.000 
#
# Total GULP energy -67049.918569 kJ/mol
# GULP energy per Si atom -5587.493214 kJ/mol
# Density = 2.505097 g / cm^3
# Si number density = 25.108115 Si / 1000 Ang^3
#
#
#
# Elastic Constant Matrix: (Units=GPa)
#
#
# Indices 1 2 3 4 5 6 
#
# 1 119.7722 76.2923 94.5028 0.0000 4.7567 0.0000
# 2 76.2923 198.8017 85.6901 0.0000 -25.7788 0.0000
# 3 94.5028 85.6901 240.6468 0.0000 -23.0027 0.0000
# 4 0.0000 0.0000 0.0000 56.4606 0.0000 -16.0712
# 5 4.7567 -25.7788 -23.0027 0.0000 65.8977 0.0000
# 6 0.0000 0.0000 0.0000 -16.0712 0.0000 10.3215
#
#
#
# Elastic Compliance Matrix: (Units=1/GPa)
#
#
# Indices 1 2 3 4 5 6 
#
# 1 0.015043 -0.004275 -0.004809 0.000000 -0.004437 0.000000
# 2 -0.004275 0.007334 -0.000650 0.000000 0.002951 0.000000
# 3 -0.004809 -0.000650 0.006502 0.000000 0.002362 0.000000
# 4 0.000000 0.000000 0.000000 0.031810 0.000000 0.049530
# 5 -0.004437 0.002951 0.002362 0.000000 0.017474 0.000000
# 6 0.000000 0.000000 0.000000 0.049530 0.000000 0.174007
#
#
# Mechanical properties :
#
#
# Convention : Reuss Voigt Hill
#
# Bulk Modulus (GPa) = 106.28871 119.13234 112.71052
# Shear Modulus (GPa) = 18.19664 46.71831 32.45747
#
# Velocity S-wave (km/s) = 2.69500 4.31825 3.59933
# Velocity P-wave (km/s) = 7.21861 8.50963 7.89057
#
# Compressibility (1/GPa) = 0.00940834
#
# Stress axis : x y z
#
# Youngs Moduli (GPa) = 66.47399 136.35385 153.81045
#
# Poissons Ratio (x) = 0.58298 0.73973
# Poissons Ratio (y) = 0.28421 0.10004
# Poissons Ratio (z) = 0.31970 0.08869
#
# Static dielectric constant tensor:
#      x y z
#    x 2.215210 0.000000 0.040310 
#    y 0.000000 2.001250 0.000000 
#    z 0.040310 0.000000 2.117880 
# 
# From -- ./inp_files/43125.got.cif
#   From: 2010.05.17/outbox.cif.g08.bks.cpg/sg13_22_cif.got.tgz:43125.got - 2010.06.03 16:44:36.
