data_PCOD9237472
_publ_section_title
;
Structure prediction by ZEFSAII (Michael W. Deem and Ramdas Pophale) SiO2 
 PCOD9237472
Probable space group: P 2/C
;
_chemical_formula_sum "Si O2"
_cell_formula_units_Z 16
_cell_length_a 9.906359
_cell_length_b 15.555643
_cell_length_c 10.625276
_cell_angle_alpha 90.000000
_cell_angle_beta 152.070470
_cell_angle_gamma 90.000000
_cell_volume 766.911856
_symmetry_space_group_name_H-M "P 2/C"
_symmetry_group_IT_number 13
_symmetry_cell_setting 'monoclinic'
loop_
_space_group_symop_operation_xyz
x,y,z
-x,y,1/2-z
-x,-y,-z
x,-y,1/2+z
loop_
_atom_site_type_symbol
_atom_site_label
_atom_site_fract_x
_atom_site_fract_y
_atom_site_fract_z
Si Si1 0.381002 0.726123 0.282852
Si Si2 0.192689 0.186141 0.200480
Si Si3 0.186256 0.462722 0.534120
Si Si4 0.000000 0.949276 0.750000
Si Si5 0.500000 0.075157 0.250000
O O1 0.500000 0.765641 0.250000
O O2 0.639615 0.735675 0.593691
O O3 0.278380 0.631334 0.161380
O O4 0.104593 0.778881 0.100655
O O5 0.397080 0.138385 0.273516
O O6 0.114872 0.113818 0.237674
O O7 0.500000 0.503467 0.750000
O O8 0.000000 0.500000 0.500000
O O9 0.000000 0.458965 0.250000
O O10 0.754575 0.012074 0.498613
#
# Coordination Sequence:
#
# PCOD9237472 Si02
#       5
#     4   4   4   2   2
#     4  11  21  42  68  92 125 174 220 255 312 401
#     4  12  23  41  65  91 126 167 220 265 326 385
#     4  11  24  45  73 105 140 176 226 276 335 406
#     4  12  22  42  64  88 124 172 220 262 332 400
#     4  12  26  40  58  98 130 160 212 286 336 374
#
# _framework density 20.862894000000001
#
# number of rings (size 3 to 8) (size 9 to 14) (size 15 to 20)
#    0.000    0.500    2.500    8.250    0.000    0.000 
#    6.750    0.000    0.000    0.000    0.000    0.000 
#    0.000    0.000    0.000    0.000    0.000    0.000 
#
# Total GULP energy -89364.342357 kJ/mol
# GULP energy per Si atom -5585.271397 kJ/mol
# Density = 2.081541 g / cm^3
# Si number density = 20.862894 Si / 1000 Ang^3
#
#
#
# Elastic Constant Matrix: (Units=GPa)
#
#
# Indices 1 2 3 4 5 6 
#
# 1 167.3770 44.0413 26.1771 0.0000 11.1911 0.0000
# 2 44.0413 67.7351 36.5091 0.0000 -6.0849 0.0000
# 3 26.1771 36.5091 164.6420 0.0000 -18.7513 0.0000
# 4 0.0000 0.0000 0.0000 270.3469 0.0000 -208.8604
# 5 11.1911 -6.0849 -18.7513 0.0000 66.6567 0.0000
# 6 0.0000 0.0000 0.0000 -208.8604 0.0000 225.7820
#
#
#
# Elastic Compliance Matrix: (Units=1/GPa)
#
#
# Indices 1 2 3 4 5 6 
#
# 1 0.007406 -0.004806 -0.000314 0.000000 -0.001770 0.000000
# 2 -0.004806 0.019902 -0.003461 0.000000 0.001650 0.000000
# 3 -0.000314 -0.003461 0.007088 0.000000 0.001731 0.000000
# 4 0.000000 0.000000 0.000000 0.012963 0.000000 0.011992
# 5 -0.001770 0.001650 0.001731 0.000000 0.015937 0.000000
# 6 0.000000 0.000000 0.000000 0.011992 0.000000 0.015522
#
#
# Mechanical properties :
#
#
# Convention : Reuss Voigt Hill
#
# Bulk Modulus (GPa) = 58.01932 68.13433 63.07682
# Shear Modulus (GPa) = 49.15192 132.09222 90.62207
#
# Velocity S-wave (km/s) = 4.85908 7.96567 6.59782
# Velocity P-wave (km/s) = 7.70396 10.83197 9.39900
#
# Compressibility (1/GPa) = 0.01723564
#
# Stress axis : x y z
#
# Youngs Moduli (GPa) = 135.01727 50.24653 141.07823
#
# Poissons Ratio (x) = 0.24147 0.04424
# Poissons Ratio (y) = 0.64885 0.48830
# Poissons Ratio (z) = 0.04234 0.17391
#
# Static dielectric constant tensor:
#      x y z
#    x 1.742900 0.000000 0.017190 
#    y 0.000000 1.736480 0.000000 
#    z 0.017190 0.000000 1.747170 
# 
# From -- ./inp_files/12999.got.cif
#   From: 2010.05.17/outbox.cif.g08.bks.cpg/sg13_7_cif.got.tgz:12999.got - 2010.06.03 16:44:36.
