data_PCOD9237998
_publ_section_title
;
Structure prediction by ZEFSAII (Michael W. Deem and Ramdas Pophale) SiO2 
 PCOD9237998
Probable space group: P 2/C
;
_chemical_formula_sum "Si O2"
_cell_formula_units_Z 22
_cell_length_a 11.779011
_cell_length_b 5.943694
_cell_length_c 14.712689
_cell_angle_alpha 90.000000
_cell_angle_beta 105.021492
_cell_angle_gamma 90.000000
_cell_volume 994.849576
_symmetry_space_group_name_H-M "P 2/C"
_symmetry_group_IT_number 13
_symmetry_cell_setting 'monoclinic'
loop_
_space_group_symop_operation_xyz
x,y,z
-x,y,1/2-z
-x,-y,-z
x,-y,1/2+z
loop_
_atom_site_type_symbol
_atom_site_label
_atom_site_fract_x
_atom_site_fract_y
_atom_site_fract_z
Si Si1 0.288016 0.934319 0.118162
Si Si2 0.959362 0.183002 0.918046
Si Si3 0.742672 0.930674 0.682821
Si Si4 0.799465 0.698929 0.046063
Si Si5 0.606334 0.329015 0.009598
Si Si6 0.000000 0.114946 0.250000
O O1 0.176316 0.762551 0.098437
O O2 0.300583 0.017371 0.224042
O O3 0.392243 0.817024 0.083013
O O4 0.243385 0.139231 0.045221
O O5 0.063223 0.362328 0.935811
O O6 0.970565 0.043074 0.828259
O O7 0.000000 0.000000 0.000000
O O8 0.636232 0.825197 0.602519
O O9 0.867016 0.784814 0.707700
O O10 0.778182 0.154417 0.633166
O O11 0.719610 0.485483 0.029651
O O12 0.500000 0.500000 0.000000
#
# Coordination Sequence:
#
# PCOD9237998 Si02
#       6
#     4   4   4   4   4   2
#     4   9  19  37  61  86 116 157 198 243 301 359
#     4   8  14  29  55  83 113 149 190 236 297 357
#     4   9  19  38  61  85 118 159 198 248 307 355
#     4   9  19  36  57  86 121 153 192 251 303 345
#     4  11  24  40  58  87 123 160 205 246 289 356
#     4   8  14  30  56  84 114 148 192 244 300 356
#
# _framework density 22.113894999999999
#
# number of rings (size 3 to 8) (size 9 to 14) (size 15 to 20)
#    0.000    2.909    0.000    1.091    0.000    5.091 
#    0.000   10.909    0.000    0.000    0.000    0.000 
#    0.000    0.000    0.000    0.000    0.000    0.000 
#
# Total GULP energy -122533.087264 kJ/mol
# GULP energy per Si atom -5569.685785 kJ/mol
# Density = 2.206356 g / cm^3
# Si number density = 22.113895 Si / 1000 Ang^3
#
#
#
# Elastic Constant Matrix: (Units=GPa)
#
#
# Indices 1 2 3 4 5 6 
#
# 1 94.4716 25.3166 51.7584 0.0000 -9.5218 0.0000
# 2 25.3166 23.1912 26.7544 0.0000 -7.1049 0.0000
# 3 51.7584 26.7544 176.7659 0.0000 -37.8199 0.0000
# 4 0.0000 0.0000 0.0000 6.7236 0.0000 3.2985
# 5 -9.5218 -7.1049 -37.8199 0.0000 23.6787 0.0000
# 6 0.0000 0.0000 0.0000 3.2985 0.0000 45.7549
#
#
#
# Elastic Compliance Matrix: (Units=1/GPa)
#
#
# Indices 1 2 3 4 5 6 
#
# 1 0.015914 -0.014743 -0.003047 0.000000 -0.002891 0.000000
# 2 -0.014743 0.066236 -0.004139 0.000000 0.007335 0.000000
# 3 -0.003047 -0.004139 0.010099 0.000000 0.013663 0.000000
# 4 0.000000 0.000000 0.000000 0.154184 0.000000 -0.011115
# 5 -0.002891 0.007335 0.013663 0.000000 0.065094 0.000000
# 6 0.000000 0.000000 0.000000 -0.011115 0.000000 0.022657
#
#
# Mechanical properties :
#
#
# Convention : Reuss Voigt Hill
#
# Bulk Modulus (GPa) = 20.66474 55.78751 38.22613
# Shear Modulus (GPa) = 12.68484 27.93805 20.31144
#
# Velocity S-wave (km/s) = 2.39762 3.55825 3.03395
# Velocity P-wave (km/s) = 4.12671 6.49335 5.44028
#
# Compressibility (1/GPa) = 0.04839160
#
# Stress axis : x y z
#
# Youngs Moduli (GPa) = 62.83803 15.09754 99.01899
#
# Poissons Ratio (x) = 0.22258 0.30169
# Poissons Ratio (y) = 0.92643 0.40983
# Poissons Ratio (z) = 0.19145 0.06249
#
# Static dielectric constant tensor:
#      x y z
#    x 1.922930 0.000000 0.030420 
#    y 0.000000 1.839420 0.000000 
#    z 0.030420 0.000000 1.833940 
# 
# From -- ./inp_files/48844.got.cif
#   From: 2010.05.17/outbox.cif.g08.bks.cpg/sg13_25_cif.got.tgz:48844.got - 2010.06.03 16:44:36.
