data_PCOD9237316
_publ_section_title
;
Structure prediction by ZEFSAII (Michael W. Deem and Ramdas Pophale) SiO2 
 PCOD9237316
Probable space group: P 2/C
;
_chemical_formula_sum "Si O2"
_cell_formula_units_Z 20
_cell_length_a 12.107179
_cell_length_b 11.435326
_cell_length_c 14.027937
_cell_angle_alpha 90.000000
_cell_angle_beta 32.421846
_cell_angle_gamma 90.000000
_cell_volume 1041.287286
_symmetry_space_group_name_H-M "P 2/C"
_symmetry_group_IT_number 13
_symmetry_cell_setting 'monoclinic'
loop_
_space_group_symop_operation_xyz
x,y,z
-x,y,1/2-z
-x,-y,-z
x,-y,1/2+z
loop_
_atom_site_type_symbol
_atom_site_label
_atom_site_fract_x
_atom_site_fract_y
_atom_site_fract_z
Si Si1 0.262260 0.469994 0.153928
Si Si2 0.306671 0.281087 0.957329
Si Si3 0.083937 0.738754 0.892519
Si Si4 0.118774 0.732243 0.256859
Si Si5 0.451158 0.135548 0.026356
O O1 0.171724 0.390711 0.305060
O O2 0.149076 0.592664 0.227756
O O3 0.500000 0.500000 0.000000
O O4 0.252422 0.388869 0.066944
O O5 0.500000 0.312716 0.750000
O O6 0.375325 0.176247 0.977009
O O7 0.112115 0.248143 0.034630
O O8 0.266769 0.825729 0.730368
O O9 0.008481 0.755180 0.054455
O O10 0.000000 0.774820 0.250000
O O11 0.342804 0.790931 0.101920
O O12 0.500000 0.000000 0.000000
#
# Coordination Sequence:
#
# PCOD9237316 Si02
#       5
#     4   4   4   4   4
#     4  11  20  39  67  99 133 167 213 269 330 401
#     4  11  21  43  72  98 128 174 223 267 327 402
#     4  11  23  44  69  94 132 176 218 270 329 391
#     4  12  25  42  62  99 138 170 216 271 335 386
#     4  11  25  46  67  97 129 173 229 272 322 385
#
# _framework density 19.206994999999999
#
# number of rings (size 3 to 8) (size 9 to 14) (size 15 to 20)
#    0.000    0.800    6.000    4.200    0.000    4.800 
#    3.600    0.000    0.000    0.000    0.000    0.000 
#    0.000    0.000    0.000    0.000    0.000    0.000 
#
# Total GULP energy -111835.942936 kJ/mol
# GULP energy per Si atom -5591.797147 kJ/mol
# Density = 1.916328 g / cm^3
# Si number density = 19.206995 Si / 1000 Ang^3
#
#
#
# Elastic Constant Matrix: (Units=GPa)
#
#
# Indices 1 2 3 4 5 6 
#
# 1 158.8443 41.8504 88.5541 0.0000 3.9497 0.0000
# 2 41.8504 124.2226 50.3388 0.0000 0.5123 0.0000
# 3 88.5541 50.3388 178.4741 0.0000 3.7676 0.0000
# 4 0.0000 0.0000 0.0000 9.3391 0.0000 -6.2846
# 5 3.9497 0.5123 3.7676 0.0000 37.1969 0.0000
# 6 0.0000 0.0000 0.0000 -6.2846 0.0000 9.0653
#
#
#
# Elastic Compliance Matrix: (Units=1/GPa)
#
#
# Indices 1 2 3 4 5 6 
#
# 1 0.008913 -0.001370 -0.004025 0.000000 -0.000520 0.000000
# 2 -0.001370 0.009300 -0.001948 0.000000 0.000215 0.000000
# 3 -0.004025 -0.001948 0.008158 0.000000 -0.000372 0.000000
# 4 0.000000 0.000000 0.000000 0.200712 0.000000 0.139145
# 5 -0.000520 0.000215 -0.000372 0.000000 0.026974 0.000000
# 6 0.000000 0.000000 0.000000 0.139145 0.000000 0.206774
#
#
# Mechanical properties :
#
#
# Convention : Reuss Voigt Hill
#
# Bulk Modulus (GPa) = 85.57925 91.44751 88.51338
# Shear Modulus (GPa) = 10.42944 29.84012 20.13478
#
# Velocity S-wave (km/s) = 2.33277 3.94586 3.24127
# Velocity P-wave (km/s) = 7.20477 8.27494 7.75833
#
# Compressibility (1/GPa) = 0.01168508
#
# Stress axis : x y z
#
# Youngs Moduli (GPa) = 112.19209 107.52687 122.58510
#
# Poissons Ratio (x) = 0.14726 0.49344
# Poissons Ratio (y) = 0.15365 0.23880
# Poissons Ratio (z) = 0.45160 0.20947
#
# Static dielectric constant tensor:
#      x y z
#    x 1.667910 0.000000 -0.000350 
#    y 0.000000 1.645980 0.000000 
#    z -0.000350 0.000000 1.661040 
# 
# From -- ./inp_files/50973.got.cif
#   From: 2010.05.17/outbox.cif.g08.bks.cpg/sg13_26_cif.got.tgz:50973.got - 2010.06.03 16:44:36.
