data_PCOD9237272
_publ_section_title
;
Structure prediction by ZEFSAII (Michael W. Deem and Ramdas Pophale) SiO2 
 PCOD9237272
Probable space group: P 2/C
;
_chemical_formula_sum "Si O2"
_cell_formula_units_Z 22
_cell_length_a 10.362637
_cell_length_b 14.328068
_cell_length_c 8.061648
_cell_angle_alpha 90.000000
_cell_angle_beta 96.201700
_cell_angle_gamma 90.000000
_cell_volume 1189.960892
_symmetry_space_group_name_H-M "P 2/C"
_symmetry_group_IT_number 13
_symmetry_cell_setting 'monoclinic'
loop_
_space_group_symop_operation_xyz
x,y,z
-x,y,1/2-z
-x,-y,-z
x,-y,1/2+z
loop_
_atom_site_type_symbol
_atom_site_label
_atom_site_fract_x
_atom_site_fract_y
_atom_site_fract_z
Si Si1 0.000000 0.955491 0.250000
Si Si2 0.257287 0.624585 0.735700
Si Si3 0.500000 0.293411 0.750000
Si Si4 0.000000 0.726387 0.750000
Si Si5 0.631988 0.448602 0.584065
Si Si6 0.853827 0.884216 0.529951
Si Si7 0.586509 0.799532 0.598977
O O1 0.899268 0.896872 0.347006
O O2 0.089252 0.024007 0.372632
O O3 0.113067 0.661926 0.697269
O O4 0.274252 0.529902 0.840814
O O5 0.315561 0.604704 0.565882
O O6 0.342942 0.704879 0.832115
O O7 0.611382 0.369866 0.722393
O O8 0.484115 0.230838 0.582549
O O9 0.067524 0.795262 0.890431
O O10 0.500000 0.500000 0.500000
O O11 0.703575 0.868820 0.559440
O O12 0.500000 0.829019 0.750000
#
# Coordination Sequence:
#
# PCOD9237272 Si02
#       7
#     2   4   2   2   4   4   4
#     4   9  18  42  68  85 110 150 192 225 280 376
#     4  11  20  35  54  76 120 152 202 250 281 338
#     4  12  22  34  56  86 112 162 202 226 298 334
#     4   9  22  36  54  85 114 154 182 245 300 324
#     4  12  19  32  54  78 106 160 205 240 282 332
#     4   9  20  39  65  88 113 149 190 231 294 355
#     4  11  21  38  57  89 122 150 191 248 291 342
#
# _framework density 18.488002000000002
#
# number of rings (size 3 to 8) (size 9 to 14) (size 15 to 20)
#    0.000    1.455    5.455    0.000    0.000    2.182 
#    6.545    0.909    0.000    0.000    0.000    0.000 
#    0.000    0.000    0.000    0.000    0.000    0.000 
#
# Total GULP energy -122551.876458 kJ/mol
# GULP energy per Si atom -5570.539839 kJ/mol
# Density = 1.844592 g / cm^3
# Si number density = 18.488002 Si / 1000 Ang^3
#
#
#
# Elastic Constant Matrix: (Units=GPa)
#
#
# Indices 1 2 3 4 5 6 
#
# 1 110.2599 40.9788 45.7595 0.0000 -24.6130 0.0000
# 2 40.9788 54.4459 28.6103 0.0000 -16.8248 0.0000
# 3 45.7595 28.6103 102.6071 0.0000 -34.1262 0.0000
# 4 0.0000 0.0000 0.0000 -16.0215 0.0000 -31.2345
# 5 -24.6130 -16.8248 -34.1262 0.0000 26.0282 0.0000
# 6 0.0000 0.0000 0.0000 -31.2345 0.0000 25.1995
#
#
#
# Elastic Compliance Matrix: (Units=1/GPa)
#
#
# Indices 1 2 3 4 5 6 
#
# 1 0.014104 -0.007753 -0.002410 0.000000 0.005166 0.000000
# 2 -0.007753 0.027610 -0.001319 0.000000 0.008787 0.000000
# 3 -0.002410 -0.001319 0.017993 0.000000 0.020460 0.000000
# 4 0.000000 0.000000 0.000000 -0.018269 0.000000 -0.022645
# 5 0.005166 0.008787 0.020460 0.000000 0.075811 0.000000
# 6 0.000000 0.000000 0.000000 -0.022645 0.000000 0.011615
#
#
# Mechanical properties :
#
#
# Convention : Reuss Voigt Hill
#
# Bulk Modulus (GPa) = 27.21476 55.33448 41.27462
# Shear Modulus (GPa) = 30.47372 17.17219 23.82295
#
# Velocity S-wave (km/s) = 4.06433 3.05098 3.59355
# Velocity P-wave (km/s) = 6.06442 6.51200 6.29219
#
# Compressibility (1/GPa) = 0.03674477
#
# Stress axis : x y z
#
# Youngs Moduli (GPa) = 70.90041 36.21831 55.57656
#
# Poissons Ratio (x) = 0.28079 0.13395
# Poissons Ratio (y) = 0.54967 0.07328
# Poissons Ratio (z) = 0.17088 0.04776
#
# Static dielectric constant tensor:
#      x y z
#    x 1.641440 0.000000 -0.014510 
#    y 0.000000 1.624920 0.000000 
#    z -0.014510 0.000000 1.671850 
# 
# From -- ./inp_files/12292.got.cif
#   From: 2010.05.17/outbox.cif.g08.bks.cpg/sg13_7_cif.got.tgz:12292.got - 2010.06.03 16:44:36.
