data_PCOD9237720
_publ_section_title
;
Structure prediction by ZEFSAII (Michael W. Deem and Ramdas Pophale) SiO2 
 PCOD9237720
Probable space group: P 2/C
;
_chemical_formula_sum "Si O2"
_cell_formula_units_Z 28
_cell_length_a 5.078951
_cell_length_b 13.242006
_cell_length_c 19.108980
_cell_angle_alpha 90.000000
_cell_angle_beta 64.213202
_cell_angle_gamma 90.000000
_cell_volume 1157.204132
_symmetry_space_group_name_H-M "P 2/C"
_symmetry_group_IT_number 13
_symmetry_cell_setting 'monoclinic'
loop_
_space_group_symop_operation_xyz
x,y,z
-x,y,1/2-z
-x,-y,-z
x,-y,1/2+z
loop_
_atom_site_type_symbol
_atom_site_label
_atom_site_fract_x
_atom_site_fract_y
_atom_site_fract_z
Si Si1 0.243773 0.243285 0.072057
Si Si2 0.750820 0.475022 0.167978
Si Si3 0.611447 0.904635 0.442421
Si Si4 0.612460 0.415799 0.540652
Si Si5 0.950798 0.342172 0.834108
Si Si6 0.377940 0.242551 0.335284
Si Si7 0.727112 0.152372 0.658887
O O1 0.369126 0.257738 0.136201
O O2 0.926323 0.189924 0.107423
O O3 0.509013 0.182769 0.007011
O O4 0.194981 0.342823 0.029985
O O5 0.500000 0.513728 0.250000
O O6 0.731964 0.521824 0.092664
O O7 0.020136 0.535948 0.167885
O O8 0.731169 0.355693 0.172373
O O9 0.432785 0.885801 0.391933
O O10 0.952483 0.901049 0.380519
O O11 0.500000 0.000000 0.500000
O O12 0.500000 0.500000 0.500000
O O13 0.369159 0.338869 0.598210
O O14 0.173756 0.271597 0.851361
O O15 0.000000 0.305588 0.750000
O O16 0.500000 0.194899 0.250000
O O17 0.500000 0.137154 0.750000
#
# Coordination Sequence:
#
# PCOD9237720 Si02
#       7
#     4   4   4   4   4   4   4
#     4  12  25  46  69 102 137 181 241 302 362 431
#     4  11  23  38  60  93 141 194 242 290 350 429
#     4  12  27  51  79 111 147 189 238 308 383 444
#     4  12  24  39  62 100 140 188 245 293 353 424
#     4  12  24  40  67 103 147 198 243 300 374 435
#     4  11  26  45  68  94 140 194 245 294 352 423
#     4  12  26  48  77 114 152 190 239 301 381 458
#
# _framework density 24.196248000000001
#
# number of rings (size 3 to 8) (size 9 to 14) (size 15 to 20)
#    0.000    0.286    4.286    5.143    2.000    1.143 
#    0.000    4.286    0.000    0.000    0.000    0.000 
#    0.000    0.000    0.000    0.000    0.000    0.000 
#
# Total GULP energy -156323.617609 kJ/mol
# GULP energy per Si atom -5582.986343 kJ/mol
# Density = 2.414118 g / cm^3
# Si number density = 24.196248 Si / 1000 Ang^3
#
#
#
# Elastic Constant Matrix: (Units=GPa)
#
#
# Indices 1 2 3 4 5 6 
#
# 1 140.9271 3.7931 60.1119 0.0000 -1.5119 0.0000
# 2 3.7931 48.8200 5.6968 0.0000 3.2001 0.0000
# 3 60.1119 5.6968 154.4080 0.0000 -10.1282 0.0000
# 4 0.0000 0.0000 0.0000 15.6809 0.0000 -0.4935
# 5 -1.5119 3.2001 -10.1282 0.0000 54.2382 0.0000
# 6 0.0000 0.0000 0.0000 -0.4935 0.0000 8.9815
#
#
#
# Elastic Compliance Matrix: (Units=1/GPa)
#
#
# Indices 1 2 3 4 5 6 
#
# 1 0.008520 -0.000249 -0.003332 0.000000 -0.000370 0.000000
# 2 -0.000249 0.020681 -0.000756 0.000000 -0.001368 0.000000
# 3 -0.003332 -0.000756 0.007895 0.000000 0.001426 0.000000
# 4 0.000000 0.000000 0.000000 0.063882 0.000000 0.003510
# 5 -0.000370 -0.001368 0.001426 0.000000 0.018774 0.000000
# 6 0.000000 0.000000 0.000000 0.003510 0.000000 0.111533
#
#
# Mechanical properties :
#
#
# Convention : Reuss Voigt Hill
#
# Bulk Modulus (GPa) = 35.18395 53.70652 44.44524
# Shear Modulus (GPa) = 20.04559 34.08368 27.06463
#
# Velocity S-wave (km/s) = 2.88142 3.75725 3.34810
# Velocity P-wave (km/s) = 5.06387 6.40835 5.77537
#
# Compressibility (1/GPa) = 0.02842205
#
# Stress axis : x y z
#
# Youngs Moduli (GPa) = 117.37356 48.35437 126.66411
#
# Poissons Ratio (x) = 0.01204 0.42203
# Poissons Ratio (y) = 0.02921 0.09574
# Poissons Ratio (z) = 0.39108 0.03655
#
# Static dielectric constant tensor:
#      x y z
#    x 1.991060 0.000000 -0.049180 
#    y 0.000000 2.023710 0.000000 
#    z -0.049180 0.000000 2.073210 
# 
# From -- ./inp_files/61526.got.cif
#   From: 2010.05.17/outbox.cif.g08.bks.cpg/sg13_31_cif.got.tgz:61526.got - 2010.06.03 16:44:36.
