data_PCOD9237227
_publ_section_title
;
Structure prediction by ZEFSAII (Michael W. Deem and Ramdas Pophale) SiO2 
 PCOD9237227
Probable space group: P 2/C
;
_chemical_formula_sum "Si O2"
_cell_formula_units_Z 24
_cell_length_a 8.329027
_cell_length_b 8.486942
_cell_length_c 19.726189
_cell_angle_alpha 90.000000
_cell_angle_beta 43.383571
_cell_angle_gamma 90.000000
_cell_volume 957.787190
_symmetry_space_group_name_H-M "P 2/C"
_symmetry_group_IT_number 13
_symmetry_cell_setting 'monoclinic'
loop_
_space_group_symop_operation_xyz
x,y,z
-x,y,1/2-z
-x,-y,-z
x,-y,1/2+z
loop_
_atom_site_type_symbol
_atom_site_label
_atom_site_fract_x
_atom_site_fract_y
_atom_site_fract_z
Si Si1 0.500000 0.044977 0.750000
Si Si2 0.088442 0.859220 0.927496
Si Si3 0.677975 0.445074 0.133211
Si Si4 0.682190 0.728836 0.957154
Si Si5 0.000000 0.255045 0.250000
Si Si6 0.388898 0.277693 0.662645
Si Si7 0.984509 0.476438 0.656955
O O1 0.484130 0.152052 0.687747
O O2 0.271961 0.937152 0.820075
O O3 0.229518 0.720560 0.922170
O O4 0.870953 0.785210 0.955248
O O5 0.000000 0.000000 0.000000
O O6 0.500000 0.415096 0.250000
O O7 0.551220 0.567591 0.124172
O O8 0.890721 0.527200 0.109361
O O9 0.780961 0.816031 0.858760
O O10 0.751171 0.543521 0.922992
O O11 0.437760 0.764714 0.069077
O O12 0.115779 0.372202 0.269998
O O13 0.133365 0.330165 0.768412
#
# Coordination Sequence:
#
# PCOD9237227 Si02
#       7
#     2   4   4   4   2   4   4
#     4  12  22  32  54  88 120 134 178 240 288 340
#     4  11  21  33  52  84 113 146 182 226 287 335
#     4   9  17  32  53  80 109 139 177 229 283 329
#     4   9  20  35  55  81 108 152 185 223 280 330
#     4   8  18  36  52  80 108 156 190 218 262 328
#     4  11  19  34  58  86 111 144 180 239 291 320
#     4   8  17  32  52  80 106 140 188 223 260 328
#
# _framework density 25.057756999999999
#
# number of rings (size 3 to 8) (size 9 to 14) (size 15 to 20)
#    1.000    1.333    5.000    0.000    0.000    4.667 
#    0.000    0.000    0.000    2.000    0.000    0.000 
#    0.000    0.000    0.000    0.000    0.000    0.000 
#
# Total GULP energy -133631.214092 kJ/mol
# GULP energy per Si atom -5567.967254 kJ/mol
# Density = 2.500072 g / cm^3
# Si number density = 25.057757 Si / 1000 Ang^3
#
#
#
# Elastic Constant Matrix: (Units=GPa)
#
#
# Indices 1 2 3 4 5 6 
#
# 1 48.2939 11.5005 2.4017 0.0000 -2.1566 0.0000
# 2 11.5005 78.5121 34.2773 0.0000 -11.4885 0.0000
# 3 2.4017 34.2773 173.2323 0.0000 -6.9382 0.0000
# 4 0.0000 0.0000 0.0000 39.3483 0.0000 -8.9844
# 5 -2.1566 -11.4885 -6.9382 0.0000 33.5250 0.0000
# 6 0.0000 0.0000 0.0000 -8.9844 0.0000 17.0571
#
#
#
# Elastic Compliance Matrix: (Units=1/GPa)
#
#
# Indices 1 2 3 4 5 6 
#
# 1 0.021479 -0.003253 0.000360 0.000000 0.000341 0.000000
# 2 -0.003253 0.015059 -0.002759 0.000000 0.004380 0.000000
# 3 0.000360 -0.002759 0.006329 0.000000 0.000387 0.000000
# 4 0.000000 0.000000 0.000000 0.028888 0.000000 0.015216
# 5 0.000341 0.004380 0.000387 0.000000 0.031432 0.000000
# 6 0.000000 0.000000 0.000000 0.015216 0.000000 0.066641
#
#
# Mechanical properties :
#
#
# Convention : Reuss Voigt Hill
#
# Bulk Modulus (GPa) = 31.68463 44.04414 37.86439
# Shear Modulus (GPa) = 26.08867 34.77666 30.43266
#
# Velocity S-wave (km/s) = 3.23017 3.72944 3.48875
# Velocity P-wave (km/s) = 5.15598 6.01333 5.60108
#
# Compressibility (1/GPa) = 0.03156104
#
# Stress axis : x y z
#
# Youngs Moduli (GPa) = 46.55793 66.40553 158.00083
#
# Poissons Ratio (x) = 0.21603 -0.05682
# Poissons Ratio (y) = 0.15146 0.43595
# Poissons Ratio (z) = -0.01674 0.18322
#
# Static dielectric constant tensor:
#      x y z
#    x 2.043020 0.000000 -0.033160 
#    y 0.000000 1.948720 0.000000 
#    z -0.033160 0.000000 2.184920 
# 
# From -- ./inp_files/49789.got.cif
#   From: 2010.05.17/outbox.cif.g08.bks.cpg/sg13_25_cif.got.tgz:49789.got - 2010.06.03 16:44:36.
