data_PCOD9237590
_publ_section_title
;
Structure prediction by ZEFSAII (Michael W. Deem and Ramdas Pophale) SiO2 
 PCOD9237590
Probable space group: P 2/C
;
_chemical_formula_sum "Si O2"
_cell_formula_units_Z 18
_cell_length_a 24.069937
_cell_length_b 5.420895
_cell_length_c 8.853965
_cell_angle_alpha 90.000000
_cell_angle_beta 36.347103
_cell_angle_gamma 90.000000
_cell_volume 684.700665
_symmetry_space_group_name_H-M "P 2/C"
_symmetry_group_IT_number 13
_symmetry_cell_setting 'monoclinic'
loop_
_space_group_symop_operation_xyz
x,y,z
-x,y,1/2-z
-x,-y,-z
x,-y,1/2+z
loop_
_atom_site_type_symbol
_atom_site_label
_atom_site_fract_x
_atom_site_fract_y
_atom_site_fract_z
Si Si1 0.000000 0.336524 0.250000
Si Si2 0.759524 0.736582 0.811002
Si Si3 0.874667 0.377069 0.778114
Si Si4 0.391369 0.530288 0.026153
Si Si5 0.611744 0.973656 0.792590
O O1 0.924715 0.218912 0.533115
O O2 0.943910 0.498809 0.250318
O O3 0.823395 0.602469 0.799455
O O4 0.811583 0.773492 0.535694
O O5 0.679365 0.534993 0.950880
O O6 0.697784 0.972702 0.990983
O O7 0.371570 0.795550 0.134830
O O8 0.381335 0.293569 0.153648
O O9 0.500000 0.532019 0.750000
O O10 0.500000 0.000000 0.000000
#
# Coordination Sequence:
#
# PCOD9237590 Si02
#       5
#     2   4   4   4   4
#     4   8  16  34  70 114 150 196 238 324 408 464
#     4  11  22  40  67 105 155 199 261 311 378 453
#     4   9  18  37  67 113 155 193 255 316 392 475
#     4  12  26  44  69 104 148 207 265 314 373 429
#     4  12  26  44  69 102 150 208 262 315 370 439
#
# _framework density 26.288862999999999
#
# number of rings (size 3 to 8) (size 9 to 14) (size 15 to 20)
#    0.000    1.333    4.444    1.333    0.000    0.000 
#    0.000    0.000    0.000    0.000    0.000   77.778 
#    0.000    0.000    0.000    0.000    0.000    0.000 
#
# Total GULP energy -100520.233824 kJ/mol
# GULP energy per Si atom -5584.457435 kJ/mol
# Density = 2.622903 g / cm^3
# Si number density = 26.288863 Si / 1000 Ang^3
#
#
#
# Elastic Constant Matrix: (Units=GPa)
#
#
# Indices 1 2 3 4 5 6 
#
# 1 183.2492 35.8413 38.7800 0.0000 6.6065 0.0000
# 2 35.8413 127.6205 57.3389 0.0000 38.8836 0.0000
# 3 38.7800 57.3389 248.2050 0.0000 43.1855 0.0000
# 4 0.0000 0.0000 0.0000 46.8254 0.0000 26.9818
# 5 6.6065 38.8836 43.1855 0.0000 44.1402 0.0000
# 6 0.0000 0.0000 0.0000 26.9818 0.0000 30.0693
#
#
#
# Elastic Compliance Matrix: (Units=1/GPa)
#
#
# Indices 1 2 3 4 5 6 
#
# 1 0.005909 -0.001742 -0.000764 0.000000 0.001398 0.000000
# 2 -0.001742 0.011435 -0.000798 0.000000 -0.009032 0.000000
# 3 -0.000764 -0.000798 0.005050 0.000000 -0.004124 0.000000
# 4 0.000000 0.000000 0.000000 0.044220 0.000000 -0.039680
# 5 0.001398 -0.009032 -0.004124 0.000000 0.034437 0.000000
# 6 0.000000 0.000000 0.000000 -0.039680 0.000000 0.068862
#
#
# Mechanical properties :
#
#
# Convention : Reuss Voigt Hill
#
# Bulk Modulus (GPa) = 63.34587 91.44388 77.39487
# Shear Modulus (GPa) = 27.50519 52.68129 40.09324
#
# Velocity S-wave (km/s) = 3.23812 4.48139 3.90949
# Velocity P-wave (km/s) = 6.17486 7.85092 7.06279
#
# Compressibility (1/GPa) = 0.01578635
#
# Stress axis : x y z
#
# Youngs Moduli (GPa) = 169.23124 87.44711 198.01543
#
# Poissons Ratio (x) = 0.15234 0.15128
# Poissons Ratio (y) = 0.29482 0.15803
# Poissons Ratio (z) = 0.12929 0.06979
#
# Static dielectric constant tensor:
#      x y z
#    x 2.149650 0.000000 0.000610 
#    y 0.000000 2.235820 0.000000 
#    z 0.000610 0.000000 2.359290 
# 
# From -- ./inp_files/23691.got.cif
#   From: 2010.05.17/outbox.cif.g08.bks.cpg/sg13_12_cif.got.tgz:23691.got - 2010.06.03 16:44:36.
