data_PCOD9237491
_publ_section_title
;
Structure prediction by ZEFSAII (Michael W. Deem and Ramdas Pophale) SiO2 
 PCOD9237491
Probable space group: P 2/C
;
_chemical_formula_sum "Si O2"
_cell_formula_units_Z 26
_cell_length_a 8.515716
_cell_length_b 9.961942
_cell_length_c 19.048528
_cell_angle_alpha 90.000000
_cell_angle_beta 49.882700
_cell_angle_gamma 90.000000
_cell_volume 1235.756642
_symmetry_space_group_name_H-M "P 2/C"
_symmetry_group_IT_number 13
_symmetry_cell_setting 'monoclinic'
loop_
_space_group_symop_operation_xyz
x,y,z
-x,y,1/2-z
-x,-y,-z
x,-y,1/2+z
loop_
_atom_site_type_symbol
_atom_site_label
_atom_site_fract_x
_atom_site_fract_y
_atom_site_fract_z
Si Si1 0.500000 0.459101 0.750000
Si Si2 0.845050 0.971087 0.107741
Si Si3 0.533296 0.404538 0.377154
Si Si4 0.446180 0.097467 0.632594
Si Si5 0.209856 0.147180 0.232622
Si Si6 0.126019 0.729996 0.310237
Si Si7 0.665185 0.670717 0.425038
O O1 0.571437 0.546589 0.663758
O O2 0.698502 0.372614 0.715411
O O3 0.630242 0.923095 0.134499
O O4 0.937886 0.836576 0.113159
O O5 0.812578 0.082928 0.180588
O O6 0.000000 0.000000 0.000000
O O7 0.703028 0.297894 0.300919
O O8 0.608373 0.539848 0.395266
O O9 0.387129 0.342993 0.478053
O O10 0.251488 0.173148 0.722528
O O11 0.472065 0.201511 0.561650
O O12 0.367594 0.947849 0.644300
O O13 0.000000 0.137997 0.250000
O O14 0.910879 0.675077 0.346668
#
# Coordination Sequence:
#
# PCOD9237491 Si02
#       7
#     2   4   4   4   4   4   4
#     4  12  24  44  70  98 144 190 232 286 362 424
#     4  11  25  43  72 107 138 179 237 294 351 426
#     4  11  28  44  67 106 141 182 228 310 347 419
#     4  11  22  45  73  98 137 181 236 285 348 434
#     4  11  26  44  66 101 141 183 226 292 364 410
#     4  11  21  44  73 100 130 197 231 284 346 438
#     4  11  25  46  73 101 136 184 248 283 355 426
#
# _framework density 21.039743000000001
#
# number of rings (size 3 to 8) (size 9 to 14) (size 15 to 20)
#    0.000    0.923    3.077    3.692    8.615    1.231 
#    0.000    0.000    0.000    0.000    0.000    0.000 
#    0.000    0.000    0.000    0.000    0.000    0.000 
#
# Total GULP energy -144779.048661 kJ/mol
# GULP energy per Si atom -5568.424948 kJ/mol
# Density = 2.099186 g / cm^3
# Si number density = 21.039743 Si / 1000 Ang^3
#
#
#
# Elastic Constant Matrix: (Units=GPa)
#
#
# Indices 1 2 3 4 5 6 
#
# 1 65.8444 13.8273 31.6872 0.0000 0.9334 0.0000
# 2 13.8273 63.6205 24.9911 0.0000 19.8758 0.0000
# 3 31.6872 24.9911 122.4525 0.0000 28.8776 0.0000
# 4 0.0000 0.0000 0.0000 36.6171 0.0000 5.9114
# 5 0.9334 19.8758 28.8776 0.0000 30.7969 0.0000
# 6 0.0000 0.0000 0.0000 5.9114 0.0000 22.0381
#
#
#
# Elastic Compliance Matrix: (Units=1/GPa)
#
#
# Indices 1 2 3 4 5 6 
#
# 1 0.018732 -0.004155 -0.005775 0.000000 0.007529 0.000000
# 2 -0.004155 0.020775 -0.000042 0.000000 -0.013243 0.000000
# 3 -0.005775 -0.000042 0.012353 0.000000 -0.011382 0.000000
# 4 0.000000 0.000000 0.000000 0.028546 0.000000 -0.007657
# 5 0.007529 -0.013243 -0.011382 0.000000 0.051461 0.000000
# 6 0.000000 0.000000 0.000000 -0.007657 0.000000 0.047430
#
#
# Mechanical properties :
#
#
# Convention : Reuss Voigt Hill
#
# Bulk Modulus (GPa) = 31.33090 43.65872 37.49481
# Shear Modulus (GPa) = 23.82320 29.98454 26.90387
#
# Velocity S-wave (km/s) = 3.36861 3.77920 3.57979
# Velocity P-wave (km/s) = 5.48212 6.31179 5.91153
#
# Compressibility (1/GPa) = 0.03191737
#
# Stress axis : x y z
#
# Youngs Moduli (GPa) = 53.38391 48.13540 80.94930
#
# Poissons Ratio (x) = 0.20000 0.46747
# Poissons Ratio (y) = 0.22180 0.00338
# Poissons Ratio (z) = 0.30829 0.00201
#
# Static dielectric constant tensor:
#      x y z
#    x 1.738350 0.000000 0.091730 
#    y 0.000000 1.890030 0.000000 
#    z 0.091730 0.000000 1.836940 
# 
# From -- ./inp_files/75641.got.cif
#   From: 2010.05.17/outbox.cif.g08.bks.cpg/sg13_38_cif.got.tgz:75641.got - 2010.06.03 16:44:36.
