data_PCOD9237050
_publ_section_title
;
Structure prediction by ZEFSAII (Michael W. Deem and Ramdas Pophale) SiO2 
 PCOD9237050
Probable space group: P 2/C
;
_chemical_formula_sum "Si O2"
_cell_formula_units_Z 30
_cell_length_a 23.410430
_cell_length_b 8.860064
_cell_length_c 8.068302
_cell_angle_alpha 90.000000
_cell_angle_beta 55.832070
_cell_angle_gamma 90.000000
_cell_volume 1384.654170
_symmetry_space_group_name_H-M "P 2/C"
_symmetry_group_IT_number 13
_symmetry_cell_setting 'monoclinic'
loop_
_space_group_symop_operation_xyz
x,y,z
-x,y,1/2-z
-x,-y,-z
x,-y,1/2+z
loop_
_atom_site_type_symbol
_atom_site_label
_atom_site_fract_x
_atom_site_fract_y
_atom_site_fract_z
Si Si1 0.500000 0.635815 0.750000
Si Si2 0.341720 0.554811 0.035301
Si Si3 0.211879 0.102241 0.245502
Si Si4 0.777224 0.226650 0.910472
Si Si5 0.925688 0.849635 0.692601
Si Si6 0.527630 0.842470 0.387428
Si Si7 0.326205 0.264978 0.894877
Si Si8 0.075246 0.802297 0.412400
O O1 0.423477 0.563821 0.854499
O O2 0.508781 0.727006 0.563796
O O3 0.327194 0.378098 0.048186
O O4 0.284118 0.656517 0.032615
O O5 0.332619 0.620624 0.232862
O O6 0.233325 0.157840 0.390570
O O7 0.137743 0.174826 0.326159
O O8 0.219234 0.921573 0.214707
O O9 0.258945 0.168751 0.023928
O O10 0.857209 0.284552 0.765119
O O11 0.994510 0.759122 0.528055
O O12 0.928951 0.033036 0.670030
O O13 0.914342 0.819968 0.905784
O O14 0.500000 0.803380 0.250000
O O15 0.609441 0.845360 0.228832
O O16 0.500000 0.000000 0.500000
#
# Coordination Sequence:
#
# PCOD9237050 Si02
#       8
#     2   4   4   4   4   4   4   4
#     4  10  26  44  66  94 124 164 208 258 322 374
#     4  11  25  45  64  90 121 160 205 259 307 386
#     4  11  22  36  59  92 121 169 203 263 306 372
#     4  11  22  36  61  87 128 161 214 254 315 366
#     4   9  16  28  49  80 124 154 210 245 313 359
#     4  11  25  42  68  96 127 160 201 260 314 378
#     4  11  26  42  66  90 122 161 204 254 316 370
#     4   9  16  28  49  82 117 166 195 260 300 368
#
# _framework density 21.666058
#
# number of rings (size 3 to 8) (size 9 to 14) (size 15 to 20)
#    0.000    1.600    0.667    5.600    6.533    2.667 
#    0.000    0.000    0.000    0.800    0.000    0.000 
#    0.000    0.000    0.000    0.000    0.000    0.000 
#
# Total GULP energy -167156.474611 kJ/mol
# GULP energy per Si atom -5571.882487 kJ/mol
# Density = 2.161674 g / cm^3
# Si number density = 21.666058 Si / 1000 Ang^3
#
#
#
# Elastic Constant Matrix: (Units=GPa)
#
#
# Indices 1 2 3 4 5 6 
#
# 1 104.6000 35.2464 45.4391 0.0000 -16.5627 0.0000
# 2 35.2464 43.7085 18.8554 0.0000 -19.5052 0.0000
# 3 45.4391 18.8554 91.2295 0.0000 -9.7486 0.0000
# 4 0.0000 0.0000 0.0000 6.1033 0.0000 8.4307
# 5 -16.5627 -19.5052 -9.7486 0.0000 45.5294 0.0000
# 6 0.0000 0.0000 0.0000 8.4307 0.0000 7.1501
#
#
#
# Elastic Compliance Matrix: (Units=1/GPa)
#
#
# Indices 1 2 3 4 5 6 
#
# 1 0.015344 -0.009901 -0.005580 0.000000 0.000145 0.000000
# 2 -0.009901 0.036752 -0.001399 0.000000 0.011843 0.000000
# 3 -0.005580 -0.001399 0.014071 0.000000 0.000383 0.000000
# 4 0.000000 0.000000 0.000000 -0.260594 0.000000 0.307269
# 5 0.000145 0.011843 0.000383 0.000000 0.027173 0.000000
# 6 0.000000 0.000000 0.000000 0.307269 0.000000 -0.222444
#
#
# Mechanical properties :
#
#
# Convention : Reuss Voigt Hill
#
# Bulk Modulus (GPa) = 30.85879 48.73553 39.79716
# Shear Modulus (GPa) = -14.48699 21.08971 3.30136
#
# Velocity S-wave (km/s) = -2.58863 3.12332 1.23574
# Velocity P-wave (km/s) = 2.31066 5.96235 4.52155
#
# Compressibility (1/GPa) = 0.03240568
#
# Stress axis : x y z
#
# Youngs Moduli (GPa) = 65.17343 27.20971 71.06852
#
# Poissons Ratio (x) = 0.26940 0.39659
# Poissons Ratio (y) = 0.64528 0.09942
# Poissons Ratio (z) = 0.36370 0.03806
#
# Static dielectric constant tensor:
#      x y z
#    x 1.861180 0.000000 -0.026740 
#    y 0.000000 1.751830 0.000000 
#    z -0.026740 0.000000 1.809980 
# 
# From -- ./inp_files/23952.got.cif
#   From: 2010.05.17/outbox.cif.g08.bks.cpg/sg13_12_cif.got.tgz:23952.got - 2010.06.03 16:44:36.
