data_PCOD9237910
_publ_section_title
;
Structure prediction by ZEFSAII (Michael W. Deem and Ramdas Pophale) SiO2 
 PCOD9237910
Probable space group: P 2/C
;
_chemical_formula_sum "Si O2"
_cell_formula_units_Z 16
_cell_length_a 9.380738
_cell_length_b 10.407512
_cell_length_c 12.363927
_cell_angle_alpha 90.000000
_cell_angle_beta 148.506413
_cell_angle_gamma 90.000000
_cell_volume 630.588617
_symmetry_space_group_name_H-M "P 2/C"
_symmetry_group_IT_number 13
_symmetry_cell_setting 'monoclinic'
loop_
_space_group_symop_operation_xyz
x,y,z
-x,y,1/2-z
-x,-y,-z
x,-y,1/2+z
loop_
_atom_site_type_symbol
_atom_site_label
_atom_site_fract_x
_atom_site_fract_y
_atom_site_fract_z
Si Si1 0.700812 0.062164 0.783126
Si Si2 0.200812 0.437836 0.283126
Si Si3 0.713004 0.142716 0.568657
Si Si4 0.213004 0.357284 0.068657
O O1 0.500000 0.104566 0.750000
O O2 0.536080 0.942692 0.627352
O O3 0.695480 0.170520 0.685390
O O4 0.000000 0.000000 0.000000
O O5 0.500000 0.500000 0.500000
O O6 0.195480 0.329479 0.185390
O O7 0.963919 0.557308 0.372648
O O8 0.000000 0.395434 0.250000
O O9 0.750001 0.250000 0.500000
O O10 0.000000 0.065650 0.750000
O O11 0.500000 0.434350 0.250000
#
# Coordination Sequence:
#
# PCOD9237910 Si02
#       4
#     4   4   4   4
#     4  11  23  44  73 104 145 199 246 303 378 444
#     4  11  23  44  73 104 145 199 246 303 378 444
#     4  11  24  41  72 107 144 192 245 307 370 444
#     4  11  24  41  72 107 144 192 245 307 370 444
#
# _framework density 25.373121000000001
#
# number of rings (size 3 to 8) (size 9 to 14) (size 15 to 20)
#    0.000    1.000    5.000    1.500    0.000    0.000 
#    0.000    2.500    0.000    0.000    0.000    0.000 
#    0.000    0.000    0.000    0.000    0.000    0.000 
#
# Total GULP energy -89230.127783 kJ/mol
# GULP energy per Si atom -5576.882986 kJ/mol
# Density = 2.531537 g / cm^3
# Si number density = 25.373121 Si / 1000 Ang^3
#
#
#
# Elastic Constant Matrix: (Units=GPa)
#
#
# Indices 1 2 3 4 5 6 
#
# 1 253.5974 39.1833 89.5010 0.0000 -38.9736 0.0000
# 2 39.1833 78.3679 37.7554 0.0000 -7.9896 0.0000
# 3 89.5010 37.7554 208.7398 0.0000 32.7233 0.0000
# 4 0.0000 0.0000 0.0000 21.8939 0.0000 -2.2746
# 5 -38.9736 -7.9896 32.7233 0.0000 75.3014 0.0000
# 6 0.0000 0.0000 0.0000 -2.2746 0.0000 58.4301
#
#
#
# Elastic Compliance Matrix: (Units=1/GPa)
#
#
# Indices 1 2 3 4 5 6 
#
# 1 0.005783 -0.001050 -0.002942 0.000000 0.004160 0.000000
# 2 -0.001050 0.014729 -0.002547 0.000000 0.002126 0.000000
# 3 -0.002942 -0.002547 0.007290 0.000000 -0.004961 0.000000
# 4 0.000000 0.000000 0.000000 0.045860 0.000000 0.001785
# 5 0.004160 0.002126 -0.004961 0.000000 0.017815 0.000000
# 6 0.000000 0.000000 0.000000 0.001785 0.000000 0.017184
#
#
# Mechanical properties :
#
#
# Convention : Reuss Voigt Hill
#
# Bulk Modulus (GPa) = 67.91360 97.06492 82.48926
# Shear Modulus (GPa) = 39.47941 56.07611 47.77776
#
# Velocity S-wave (km/s) = 3.94884 4.70623 4.34407
# Velocity P-wave (km/s) = 6.90037 8.23829 7.59884
#
# Compressibility (1/GPa) = 0.01472459
#
# Stress axis : x y z
#
# Youngs Moduli (GPa) = 172.91751 67.89189 137.16547
#
# Poissons Ratio (x) = 0.07129 0.40352
# Poissons Ratio (y) = 0.18158 0.34939
# Poissons Ratio (z) = 0.50870 0.17293
#
# Static dielectric constant tensor:
#      x y z
#    x 2.217470 0.000000 -0.067040 
#    y 0.000000 2.055750 0.000000 
#    z -0.067040 0.000000 2.038100 
# 
# From -- ./inp_files/29219.got.cif
#   From: 2010.05.17/outbox.cif.g08.bks.cpg/sg13_15_cif.got.tgz:29219.got - 2010.06.03 16:44:36.
