data_PCOD9237672
_publ_section_title
;
Structure prediction by ZEFSAII (Michael W. Deem and Ramdas Pophale) SiO2 
 PCOD9237672
Probable space group: P 2/C
;
_chemical_formula_sum "Si O2"
_cell_formula_units_Z 12
_cell_length_a 16.279890
_cell_length_b 4.437800
_cell_length_c 8.696430
_cell_angle_alpha 90.000000
_cell_angle_beta 37.105522
_cell_angle_gamma 90.000000
_cell_volume 379.037884
_symmetry_space_group_name_H-M "P 2/C"
_symmetry_group_IT_number 13
_symmetry_cell_setting 'monoclinic'
loop_
_space_group_symop_operation_xyz
x,y,z
-x,y,1/2-z
-x,-y,-z
x,-y,1/2+z
loop_
_atom_site_type_symbol
_atom_site_label
_atom_site_fract_x
_atom_site_fract_y
_atom_site_fract_z
Si Si1 0.899985 0.361090 0.775393
Si Si2 0.500000 0.545127 0.250000
Si Si3 0.500000 0.000000 0.500000
Si Si4 0.731699 0.189090 0.741955
O O1 0.805184 0.181448 0.797159
O O2 0.000000 0.197637 0.750000
O O3 0.000000 0.500000 0.500000
O O4 0.824434 0.622418 0.986932
O O5 0.431529 0.773103 0.235577
O O6 0.423671 0.305771 0.475014
O O7 0.663992 0.127437 0.293714
#
# Coordination Sequence:
#
# PCOD9237672 Si02
#       4
#     4   2   2   4
#     4   9  20  41  75 101 142 203 242 304 360 433
#     4  12  26  42  68 108 148 194 234 314 372 434
#     4  12  26  40  70 108 148 190 236 310 370 446
#     4  11  22  44  69 110 145 187 248 297 385 427
#
# _framework density 31.659102000000001
#
# number of rings (size 3 to 8) (size 9 to 14) (size 15 to 20)
#    0.000    1.333    3.333    2.000    4.667    0.000 
#    0.000    0.000    0.000   40.000    0.000    0.000 
#    0.000    0.000    0.000    0.000    0.000    0.000 
#
# Total GULP energy -66829.942498 kJ/mol
# GULP energy per Si atom -5569.161875 kJ/mol
# Density = 3.158704 g / cm^3
# Si number density = 31.659102 Si / 1000 Ang^3
#
#
#
# Elastic Constant Matrix: (Units=GPa)
#
#
# Indices 1 2 3 4 5 6 
#
# 1 265.7795 33.5725 98.3382 0.0000 -12.4953 0.0000
# 2 33.5725 143.6068 99.1807 0.0000 11.6415 0.0000
# 3 98.3382 99.1807 218.4869 0.0000 47.2292 0.0000
# 4 0.0000 0.0000 0.0000 72.1116 0.0000 -5.2673
# 5 -12.4953 11.6415 47.2292 0.0000 83.6793 0.0000
# 6 0.0000 0.0000 0.0000 -5.2673 0.0000 59.6500
#
#
#
# Elastic Compliance Matrix: (Units=1/GPa)
#
#
# Indices 1 2 3 4 5 6 
#
# 1 0.004913 0.000786 -0.003079 0.000000 0.002362 0.000000
# 2 0.000786 0.010406 -0.005456 0.000000 0.001749 0.000000
# 3 -0.003079 -0.005456 0.009538 0.000000 -0.005084 0.000000
# 4 0.000000 0.000000 0.000000 0.013957 0.000000 0.001232
# 5 0.002362 0.001749 -0.005084 0.000000 0.014929 0.000000
# 6 0.000000 0.000000 0.000000 0.001232 0.000000 0.016873
#
#
# Mechanical properties :
#
#
# Convention : Reuss Voigt Hill
#
# Bulk Modulus (GPa) = 106.82677 121.11732 113.97204
# Shear Modulus (GPa) = 56.03204 69.54031 62.78617
#
# Velocity S-wave (km/s) = 4.21153 4.69180 4.45814
# Velocity P-wave (km/s) = 7.58059 8.22742 7.91062
#
# Compressibility (1/GPa) = 0.00936095
#
# Stress axis : x y z
#
# Youngs Moduli (GPa) = 203.52092 96.10117 104.83961
#
# Poissons Ratio (x) = -0.07557 0.32281
# Poissons Ratio (y) = -0.16004 0.57196
# Poissons Ratio (z) = 0.62666 0.52429
#
# Static dielectric constant tensor:
#      x y z
#    x 5.236400 0.000000 -0.052060 
#    y 0.000000 3.086200 0.000000 
#    z -0.052060 0.000000 2.682500 
# 
# From -- ./inp_files/14042.got.cif
#   From: 2010.05.17/outbox.cif.g08.bks.cpg/sg13_8_cif.got.tgz:14042.got - 2010.06.03 16:44:36.
