data_PCOD9237819
_publ_section_title
;
Structure prediction by ZEFSAII (Michael W. Deem and Ramdas Pophale) SiO2 
 PCOD9237819
Probable space group: P 2/C
;
_chemical_formula_sum "Si O2"
_cell_formula_units_Z 16
_cell_length_a 9.383527
_cell_length_b 4.849030
_cell_length_c 16.654314
_cell_angle_alpha 90.000000
_cell_angle_beta 129.123349
_cell_angle_gamma 90.000000
_cell_volume 587.883851
_symmetry_space_group_name_H-M "P 2/C"
_symmetry_group_IT_number 13
_symmetry_cell_setting 'monoclinic'
loop_
_space_group_symop_operation_xyz
x,y,z
-x,y,1/2-z
-x,-y,-z
x,-y,1/2+z
loop_
_atom_site_type_symbol
_atom_site_label
_atom_site_fract_x
_atom_site_fract_y
_atom_site_fract_z
Si Si1 0.614884 0.380205 0.115801
Si Si2 0.933276 0.497931 0.841785
Si Si3 0.359636 0.315013 0.636242
Si Si4 0.188836 0.002696 0.428254
O O1 0.795400 0.526757 0.217613
O O2 0.472349 0.431456 0.137169
O O3 0.693155 0.093125 0.107873
O O4 0.500000 0.500000 0.000000
O O5 0.816375 0.423490 0.878541
O O6 0.006530 0.808078 0.865107
O O7 0.111580 0.303277 0.904581
O O8 0.500000 0.183229 0.750000
O O9 0.299560 0.107219 0.545165
#
# Coordination Sequence:
#
# PCOD9237819 Si02
#       4
#     4   4   4   4
#     4   9  21  43  66  97 137 182 232 289 352 421
#     4  11  23  42  68  98 133 180 232 290 351 419
#     4   9  20  43  67  98 136 180 231 290 354 422
#     4  11  23  42  67  99 135 178 230 291 353 420
#
# _framework density 27.216259000000001
#
# number of rings (size 3 to 8) (size 9 to 14) (size 15 to 20)
#    0.000    2.000    0.000    2.250    0.000    4.000 
#    0.000   50.000    0.000    3.000    0.000    5.250 
#    0.000    0.000    0.000    0.000    0.000    0.000 
#
# Total GULP energy -89688.147094 kJ/mol
# GULP energy per Si atom -5605.509193 kJ/mol
# Density = 2.715431 g / cm^3
# Si number density = 27.216259 Si / 1000 Ang^3
#
#
#
# Elastic Constant Matrix: (Units=GPa)
#
#
# Indices 1 2 3 4 5 6 
#
# 1 157.2019 6.4973 59.7255 0.0000 -5.4237 0.0000
# 2 6.4973 33.3417 26.8913 0.0000 2.6801 0.0000
# 3 59.7255 26.8913 202.8501 0.0000 8.7580 0.0000
# 4 0.0000 0.0000 0.0000 37.9438 0.0000 13.8891
# 5 -5.4237 2.6801 8.7580 0.0000 52.9294 0.0000
# 6 0.0000 0.0000 0.0000 13.8891 0.0000 19.5015
#
#
#
# Elastic Compliance Matrix: (Units=1/GPa)
#
#
# Indices 1 2 3 4 5 6 
#
# 1 0.007228 0.000289 -0.002214 0.000000 0.001092 0.000000
# 2 0.000289 0.033644 -0.004505 0.000000 -0.000929 0.000000
# 3 -0.002214 -0.004505 0.006223 0.000000 -0.001028 0.000000
# 4 0.000000 0.000000 0.000000 0.035648 0.000000 -0.025389
# 5 0.001092 -0.000929 -0.001028 0.000000 0.019222 0.000000
# 6 0.000000 0.000000 0.000000 -0.025389 0.000000 0.069360
#
#
# Mechanical properties :
#
#
# Convention : Reuss Voigt Hill
#
# Bulk Modulus (GPa) = 29.20897 64.40244 46.80571
# Shear Modulus (GPa) = 25.56266 42.09357 33.82812
#
# Velocity S-wave (km/s) = 3.06803 3.93699 3.52936
# Velocity P-wave (km/s) = 4.82762 6.66192 5.81752
#
# Compressibility (1/GPa) = 0.03423606
#
# Stress axis : x y z
#
# Youngs Moduli (GPa) = 138.35067 29.72263 160.69024
#
# Poissons Ratio (x) = -0.00859 0.35571
# Poissons Ratio (y) = -0.03999 0.72394
# Poissons Ratio (z) = 0.30626 0.13391
#
# Static dielectric constant tensor:
#      x y z
#    x 2.100720 0.000000 -0.009820 
#    y 0.000000 2.070440 0.000000 
#    z -0.009820 0.000000 2.100520 
# 
# From -- ./inp_files/62518.got.cif
#   From: 2010.05.17/outbox.cif.g08.bks.cpg/sg13_32_cif.got.tgz:62518.got - 2010.06.03 16:44:36.
