data_PCOD9237463
_publ_section_title
;
Structure prediction by ZEFSAII (Michael W. Deem and Ramdas Pophale) SiO2 
 PCOD9237463
Probable space group: P 2/C
;
_chemical_formula_sum "Si O2"
_cell_formula_units_Z 26
_cell_length_a 20.325751
_cell_length_b 6.406355
_cell_length_c 16.467806
_cell_angle_alpha 90.000000
_cell_angle_beta 143.373587
_cell_angle_gamma 90.000000
_cell_volume 1279.301427
_symmetry_space_group_name_H-M "P 2/C"
_symmetry_group_IT_number 13
_symmetry_cell_setting 'monoclinic'
loop_
_space_group_symop_operation_xyz
x,y,z
-x,y,1/2-z
-x,-y,-z
x,-y,1/2+z
loop_
_atom_site_type_symbol
_atom_site_label
_atom_site_fract_x
_atom_site_fract_y
_atom_site_fract_z
Si Si1 0.574565 0.739424 0.220954
Si Si2 0.915415 0.891320 0.354266
Si Si3 0.500000 0.121648 0.250000
Si Si4 0.222796 0.578980 0.169898
Si Si5 0.974704 0.536000 0.130771
Si Si6 0.367797 0.505898 0.056954
Si Si7 0.820937 0.690598 0.732360
O O1 0.663994 0.691312 0.241433
O O2 0.460333 0.617151 0.092145
O O3 0.622751 0.628273 0.349152
O O4 0.548179 0.972412 0.226600
O O5 0.843798 0.732275 0.336568
O O6 0.987593 0.766437 0.359848
O O7 0.833094 0.062283 0.234193
O O8 0.000000 0.000000 0.500000
O O9 0.407805 0.273064 0.118497
O O10 0.227939 0.367505 0.228076
O O11 0.148493 0.521713 0.018249
O O12 0.054509 0.389085 0.156369
O O13 0.000000 0.503797 0.250000
O O14 0.251614 0.556873 0.902249
#
# Coordination Sequence:
#
# PCOD9237463 Si02
#       7
#     4   4   2   4   4   4   4
#     4   9  20  37  59  90 120 153 207 256 303 367
#     4  11  21  42  60  84 123 164 197 248 313 361
#     4   8  18  40  62  82 128 158 200 262 312 368
#     4  11  22  38  60  87 121 161 203 253 308 368
#     4  11  23  39  60  90 119 157 212 251 303 369
#     4   9  20  39  60  86 119 159 198 253 313 359
#     4  11  22  40  61  84 124 160 199 255 305 369
#
# _framework density 20.323592000000001
#
# number of rings (size 3 to 8) (size 9 to 14) (size 15 to 20)
#    0.000    2.154    3.077    1.846    0.000    8.615 
#    5.538    1.538    0.000    0.000    0.000    0.000 
#    0.000    0.000    0.000    0.000    0.000    0.000 
#
# Total GULP energy -144949.984916 kJ/mol
# GULP energy per Si atom -5574.999420 kJ/mol
# Density = 2.027733 g / cm^3
# Si number density = 20.323592 Si / 1000 Ang^3
#
#
#
# Elastic Constant Matrix: (Units=GPa)
#
#
# Indices 1 2 3 4 5 6 
#
# 1 60.9003 16.6605 -8.5452 0.0000 12.7177 0.0000
# 2 16.6605 114.1453 8.0849 0.0000 6.9140 0.0000
# 3 -8.5452 8.0849 34.2173 0.0000 8.7786 0.0000
# 4 0.0000 0.0000 0.0000 11.9436 0.0000 -1.5960
# 5 12.7177 6.9140 8.7786 0.0000 29.0305 0.0000
# 6 0.0000 0.0000 0.0000 -1.5960 0.0000 10.8626
#
#
#
# Elastic Compliance Matrix: (Units=1/GPa)
#
#
# Indices 1 2 3 4 5 6 
#
# 1 0.020760 -0.002980 0.008716 0.000000 -0.011020 0.000000
# 2 -0.002980 0.009408 -0.002956 0.000000 -0.000041 0.000000
# 3 0.008716 -0.002956 0.035666 0.000000 -0.013899 0.000000
# 4 0.000000 0.000000 0.000000 0.085403 0.000000 0.012548
# 5 -0.011020 -0.000041 -0.013899 0.000000 0.043487 0.000000
# 6 0.000000 0.000000 0.000000 0.012548 0.000000 0.093903
#
#
# Mechanical properties :
#
#
# Convention : Reuss Voigt Hill
#
# Bulk Modulus (GPa) = 14.00706 26.85147 20.42927
# Shear Modulus (GPa) = 16.29379 23.23819 19.76599
#
# Velocity S-wave (km/s) = 2.83453 3.38510 3.12198
# Velocity P-wave (km/s) = 4.19759 5.34034 4.80307
#
# Compressibility (1/GPa) = 0.07139255
#
# Stress axis : x y z
#
# Youngs Moduli (GPa) = 48.16991 106.29704 28.03784
#
# Poissons Ratio (x) = 0.31675 -0.24437
# Poissons Ratio (y) = 0.14354 0.08289
# Poissons Ratio (z) = -0.41984 0.31426
#
# Static dielectric constant tensor:
#      x y z
#    x 1.735620 0.000000 0.012320 
#    y 0.000000 1.773820 0.000000 
#    z 0.012320 0.000000 1.750070 
# 
# From -- ./inp_files/70235.got.cif
#   From: 2010.05.17/outbox.cif.g08.bks.cpg/sg13_36_cif.got.tgz:70235.got - 2010.06.03 16:44:36.
