data_PCOD9237311
_publ_section_title
;
Structure prediction by ZEFSAII (Michael W. Deem and Ramdas Pophale) SiO2 
 PCOD9237311
Probable space group: P 2/C
;
_chemical_formula_sum "Si O2"
_cell_formula_units_Z 28
_cell_length_a 17.297274
_cell_length_b 9.231596
_cell_length_c 16.540251
_cell_angle_alpha 90.000000
_cell_angle_beta 151.707881
_cell_angle_gamma 90.000000
_cell_volume 1251.828237
_symmetry_space_group_name_H-M "P 2/C"
_symmetry_group_IT_number 13
_symmetry_cell_setting 'monoclinic'
loop_
_space_group_symop_operation_xyz
x,y,z
-x,y,1/2-z
-x,-y,-z
x,-y,1/2+z
loop_
_atom_site_type_symbol
_atom_site_label
_atom_site_fract_x
_atom_site_fract_y
_atom_site_fract_z
Si Si1 0.084910 0.075304 0.254000
Si Si2 0.408300 0.184498 0.874612
Si Si3 0.103866 0.222855 0.958882
Si Si4 0.195448 0.586869 0.254728
Si Si5 0.427943 0.037552 0.061502
Si Si6 0.634709 0.660366 0.926920
Si Si7 0.222857 0.260259 0.241079
O O1 0.267448 0.034138 0.450489
O O2 0.108369 0.167688 0.194928
O O3 0.000000 0.156322 0.250000
O O4 0.983603 0.928002 0.144459
O O5 0.428401 0.078695 0.816506
O O6 0.590076 0.246506 0.057212
O O7 0.278704 0.311964 0.762986
O O8 0.372449 0.081900 0.919050
O O9 0.962940 0.333503 0.856754
O O10 0.210680 0.291672 0.985031
O O11 0.208925 0.204513 0.137054
O O12 0.313567 0.583910 0.442494
O O13 0.171896 0.426984 0.200462
O O14 0.452972 0.190138 0.126347
O O15 0.500000 0.577656 0.750000
#
# Coordination Sequence:
#
# PCOD9237311 Si02
#       7
#     4   4   4   4   4   4   4
#     4  11  20  39  62  90 124 162 205 260 314 366
#     4   9  18  35  60  81 122 159 208 246 312 364
#     4  12  21  40  64  92 123 166 211 257 309 381
#     4  11  22  41  60  90 128 171 206 257 315 376
#     4   9  17  34  57  89 112 159 202 261 303 362
#     4  11  22  38  65  90 119 164 221 259 313 378
#     4  11  25  37  61  95 128 163 208 256 314 376
#
# _framework density 22.367284999999999
#
# number of rings (size 3 to 8) (size 9 to 14) (size 15 to 20)
#    0.000    1.429    4.286    3.429    0.000    1.143 
#    2.571    0.000    0.000    3.429    0.000    0.000 
#    0.000    0.000    0.000    0.000    0.000    0.000 
#
# Total GULP energy -156488.983475 kJ/mol
# GULP energy per Si atom -5588.892267 kJ/mol
# Density = 2.231638 g / cm^3
# Si number density = 22.367285 Si / 1000 Ang^3
#
#
#
# Elastic Constant Matrix: (Units=GPa)
#
#
# Indices 1 2 3 4 5 6 
#
# 1 122.6041 34.9354 20.1396 0.0000 18.6748 0.0000
# 2 34.9354 90.9866 14.7939 0.0000 11.9864 0.0000
# 3 20.1396 14.7939 50.9483 0.0000 2.9331 0.0000
# 4 0.0000 0.0000 0.0000 5.6304 0.0000 -6.5335
# 5 18.6748 11.9864 2.9331 0.0000 40.6603 0.0000
# 6 0.0000 0.0000 0.0000 -6.5335 0.0000 13.0829
#
#
#
# Elastic Compliance Matrix: (Units=1/GPa)
#
#
# Indices 1 2 3 4 5 6 
#
# 1 0.009998 -0.002902 -0.002906 0.000000 -0.003527 0.000000
# 2 -0.002902 0.012800 -0.002439 0.000000 -0.002265 0.000000
# 3 -0.002906 -0.002439 0.021456 0.000000 0.000506 0.000000
# 4 0.000000 0.000000 0.000000 0.422360 0.000000 0.210923
# 5 -0.003527 -0.002265 0.000506 0.000000 0.026845 0.000000
# 6 0.000000 0.000000 0.000000 0.210923 0.000000 0.181769
#
#
# Mechanical properties :
#
#
# Convention : Reuss Voigt Hill
#
# Bulk Modulus (GPa) = 36.02495 44.91964 40.47230
# Shear Modulus (GPa) = 7.13293 24.85272 15.99282
#
# Velocity S-wave (km/s) = 1.78771 3.33696 2.67687
# Velocity P-wave (km/s) = 4.51689 5.91383 5.26193
#
# Compressibility (1/GPa) = 0.02775854
#
# Stress axis : x y z
#
# Youngs Moduli (GPa) = 100.02248 78.12701 46.60741
#
# Poissons Ratio (x) = 0.22669 0.13546
# Poissons Ratio (y) = 0.29022 0.11369
# Poissons Ratio (z) = 0.29071 0.19058
#
# Static dielectric constant tensor:
#      x y z
#    x 1.842560 0.000000 -0.015340 
#    y 0.000000 1.809330 0.000000 
#    z -0.015340 0.000000 1.930180 
# 
# From -- ./inp_files/69703.got.cif
#   From: 2010.05.17/outbox.cif.g08.bks.cpg/sg13_35_cif.got.tgz:69703.got - 2010.06.03 16:44:36.
