data_PCOD9237826
_publ_section_title
;
Structure prediction by ZEFSAII (Michael W. Deem and Ramdas Pophale) SiO2 
 PCOD9237826
Probable space group: P 2/C
;
_chemical_formula_sum "Si O2"
_cell_formula_units_Z 28
_cell_length_a 9.046988
_cell_length_b 6.416204
_cell_length_c 32.758251
_cell_angle_alpha 90.000000
_cell_angle_beta 137.047845
_cell_angle_gamma 90.000000
_cell_volume 1295.677702
_symmetry_space_group_name_H-M "P 2/C"
_symmetry_group_IT_number 13
_symmetry_cell_setting 'monoclinic'
loop_
_space_group_symop_operation_xyz
x,y,z
-x,y,1/2-z
-x,-y,-z
x,-y,1/2+z
loop_
_atom_site_type_symbol
_atom_site_label
_atom_site_fract_x
_atom_site_fract_y
_atom_site_fract_z
Si Si1 0.745980 0.669306 0.300476
Si Si2 0.664929 0.659830 0.513051
Si Si3 0.510573 0.014038 0.912167
Si Si4 0.047149 0.254259 0.136420
Si Si5 0.763375 0.951183 0.383956
Si Si6 0.003676 0.977245 0.202361
Si Si7 0.876870 0.671336 0.003449
O O1 0.500000 0.585061 0.250000
O O2 0.910287 0.491291 0.345857
O O3 0.735662 0.825352 0.336697
O O4 0.849634 0.778653 0.281468
O O5 0.500000 0.500000 0.500000
O O6 0.798535 0.790388 0.573300
O O7 0.827359 0.487899 0.528985
O O8 0.589587 0.815121 0.461773
O O9 0.571725 0.066183 0.877507
O O10 0.652583 0.797366 0.946740
O O11 0.749212 0.973853 0.139000
O O12 0.182337 0.176390 0.124164
O O13 0.100720 0.146095 0.190374
O O14 0.963913 0.854874 0.449863
O O15 0.000000 0.017006 0.250000
O O16 0.000000 0.500000 0.000000
#
# Coordination Sequence:
#
# PCOD9237826 Si02
#       7
#     4   4   4   4   4   4   4
#     4  11  25  46  72  97 130 182 236 287 347 421
#     4  12  24  39  66 101 142 181 227 283 354 418
#     4  12  25  41  70 104 144 185 223 290 357 413
#     4  11  24  44  68  97 136 178 230 283 346 415
#     4  11  23  42  68  99 139 177 227 286 342 413
#     4  11  27  49  68 100 139 178 232 290 347 419
#     4  12  23  41  66 104 142 183 233 280 346 424
#
# _framework density 21.610310999999999
#
# number of rings (size 3 to 8) (size 9 to 14) (size 15 to 20)
#    0.000    0.571    4.286    3.857    2.000    5.143 
#    0.000    0.000    0.000    0.000    0.000    0.000 
#    0.000    0.000    0.000    0.000    0.000    0.000 
#
# Total GULP energy -155872.551636 kJ/mol
# GULP energy per Si atom -5566.876844 kJ/mol
# Density = 2.156113 g / cm^3
# Si number density = 21.610311 Si / 1000 Ang^3
#
#
#
# Elastic Constant Matrix: (Units=GPa)
#
#
# Indices 1 2 3 4 5 6 
#
# 1 120.7450 16.6112 36.2437 0.0000 -25.2670 0.0000
# 2 16.6112 56.5254 12.4728 0.0000 -22.5526 0.0000
# 3 36.2437 12.4728 72.0432 0.0000 -22.0209 0.0000
# 4 0.0000 0.0000 0.0000 17.0484 0.0000 -6.0581
# 5 -25.2670 -22.5526 -22.0209 0.0000 41.1433 0.0000
# 6 0.0000 0.0000 0.0000 -6.0581 0.0000 31.3542
#
#
#
# Elastic Compliance Matrix: (Units=1/GPa)
#
#
# Indices 1 2 3 4 5 6 
#
# 1 0.010362 -0.000612 -0.003903 0.000000 0.003939 0.000000
# 2 -0.000612 0.022681 0.000080 0.000000 0.012099 0.000000
# 3 -0.003903 0.000080 0.018067 0.000000 0.007316 0.000000
# 4 0.000000 0.000000 0.000000 0.062981 0.000000 0.012169
# 5 0.003939 0.012099 0.007316 0.000000 0.037272 0.000000
# 6 0.000000 0.000000 0.000000 0.012169 0.000000 0.034245
#
#
# Mechanical properties :
#
#
# Convention : Reuss Voigt Hill
#
# Bulk Modulus (GPa) = 23.67539 42.21876 32.94708
# Shear Modulus (GPa) = 23.97416 30.17492 27.07454
#
# Velocity S-wave (km/s) = 3.33436 3.74079 3.54341
# Velocity P-wave (km/s) = 5.07969 6.18359 5.65863
#
# Compressibility (1/GPa) = 0.04223795
#
# Stress axis : x y z
#
# Youngs Moduli (GPa) = 96.50698 44.09017 55.35062
#
# Poissons Ratio (x) = 0.02700 0.21603
# Poissons Ratio (y) = 0.05909 -0.00440
# Poissons Ratio (z) = 0.37666 -0.00351
#
# Static dielectric constant tensor:
#      x y z
#    x 1.800750 0.000000 -0.011240 
#    y 0.000000 1.793470 0.000000 
#    z -0.011240 0.000000 1.996520 
# 
# From -- ./inp_files/95546.got.cif
#   From: 2010.05.17/outbox.cif.g08.bks.cpg/sg13_48_cif.got.tgz:95546.got - 2010.06.03 16:44:36.
