data_PCOD9237814
_publ_section_title
;
Structure prediction by ZEFSAII (Michael W. Deem and Ramdas Pophale) SiO2 
 PCOD9237814
Probable space group: P 2/C
;
_chemical_formula_sum "Si O2"
_cell_formula_units_Z 20
_cell_length_a 5.525669
_cell_length_b 8.480094
_cell_length_c 23.911535
_cell_angle_alpha 90.000000
_cell_angle_beta 50.406058
_cell_angle_gamma 90.000000
_cell_volume 863.398082
_symmetry_space_group_name_H-M "P 2/C"
_symmetry_group_IT_number 13
_symmetry_cell_setting 'monoclinic'
loop_
_space_group_symop_operation_xyz
x,y,z
-x,y,1/2-z
-x,-y,-z
x,-y,1/2+z
loop_
_atom_site_type_symbol
_atom_site_label
_atom_site_fract_x
_atom_site_fract_y
_atom_site_fract_z
Si Si1 0.428118 0.899688 0.438099
Si Si2 0.362952 0.212958 0.707955
Si Si3 0.219783 0.385058 0.558219
Si Si4 0.609277 0.443458 0.175529
Si Si5 0.225570 0.781086 0.947528
O O1 0.430191 0.868711 0.370817
O O2 0.671260 0.771211 0.425413
O O3 0.100242 0.867870 0.518706
O O4 0.464930 0.088172 0.436250
O O5 0.500000 0.178846 0.750000
O O6 0.399083 0.402071 0.694650
O O7 0.000000 0.168378 0.750000
O O8 0.500000 0.500000 0.500000
O O9 0.103623 0.331392 0.514697
O O10 0.956619 0.481092 0.629453
O O11 0.500000 0.371773 0.250000
O O12 0.624896 0.319371 0.123527
#
# Coordination Sequence:
#
# PCOD9237814 Si02
#       5
#     4   4   4   4   4
#     4  11  23  42  66  96 140 178 228 285 357 418
#     4  11  24  44  70 102 140 188 238 290 351 425
#     4  12  22  42  71 100 133 181 234 294 347 424
#     4  11  23  43  68 100 134 180 239 291 350 420
#     4  11  24  41  65 100 132 179 230 289 351 422
#
# _framework density 23.164285
#
# number of rings (size 3 to 8) (size 9 to 14) (size 15 to 20)
#    0.000    0.800    4.000    4.800    0.000    0.800 
#    0.000    3.000    0.000    0.000    0.000    0.000 
#    0.000    0.000    0.000    0.000    0.000    0.000 
#
# Total GULP energy -111783.374969 kJ/mol
# GULP energy per Si atom -5589.168748 kJ/mol
# Density = 2.311156 g / cm^3
# Si number density = 23.164285 Si / 1000 Ang^3
#
#
#
# Elastic Constant Matrix: (Units=GPa)
#
#
# Indices 1 2 3 4 5 6 
#
# 1 87.9323 27.8813 42.3208 0.0000 0.0505 0.0000
# 2 27.8813 62.8748 32.2391 0.0000 4.2063 0.0000
# 3 42.3208 32.2391 159.1109 0.0000 12.6480 0.0000
# 4 0.0000 0.0000 0.0000 36.9904 0.0000 8.6120
# 5 0.0505 4.2063 12.6480 0.0000 38.6688 0.0000
# 6 0.0000 0.0000 0.0000 8.6120 0.0000 16.4643
#
#
#
# Elastic Compliance Matrix: (Units=1/GPa)
#
#
# Indices 1 2 3 4 5 6 
#
# 1 0.014355 -0.004962 -0.002930 0.000000 0.001480 0.000000
# 2 -0.004962 0.019486 -0.002526 0.000000 -0.001287 0.000000
# 3 -0.002930 -0.002526 0.007756 0.000000 -0.002258 0.000000
# 4 0.000000 0.000000 0.000000 0.030783 0.000000 -0.016101
# 5 0.001480 -0.001287 -0.002258 0.000000 0.026737 0.000000
# 6 0.000000 0.000000 0.000000 -0.016101 0.000000 0.069160
#
#
# Mechanical properties :
#
#
# Convention : Reuss Voigt Hill
#
# Bulk Modulus (GPa) = 48.16974 57.20004 52.68489
# Shear Modulus (GPa) = 25.50569 32.25649 28.88109
#
# Velocity S-wave (km/s) = 3.32185 3.73568 3.53483
# Velocity P-wave (km/s) = 5.96262 6.58437 6.28119
#
# Compressibility (1/GPa) = 0.02075992
#
# Stress axis : x y z
#
# Youngs Moduli (GPa) = 69.66058 51.31769 128.93678
#
# Poissons Ratio (x) = 0.25465 0.37784
# Poissons Ratio (y) = 0.34567 0.32572
# Poissons Ratio (z) = 0.20414 0.12964
#
# Static dielectric constant tensor:
#      x y z
#    x 2.038960 0.000000 0.034270 
#    y 0.000000 1.933530 0.000000 
#    z 0.034270 0.000000 1.878280 
# 
# From -- ./inp_files/83262.got.cif
#   From: 2010.05.17/outbox.cif.g08.bks.cpg/sg13_42_cif.got.tgz:83262.got - 2010.06.03 16:44:36.
