data_PCOD9237921
_publ_section_title
;
Structure prediction by ZEFSAII (Michael W. Deem and Ramdas Pophale) SiO2 
 PCOD9237921
Probable space group: P 2/C
;
_chemical_formula_sum "Si O2"
_cell_formula_units_Z 28
_cell_length_a 28.216916
_cell_length_b 9.090938
_cell_length_c 9.145409
_cell_angle_alpha 90.000000
_cell_angle_beta 35.472010
_cell_angle_gamma 90.000000
_cell_volume 1361.375149
_symmetry_space_group_name_H-M "P 2/C"
_symmetry_group_IT_number 13
_symmetry_cell_setting 'monoclinic'
loop_
_space_group_symop_operation_xyz
x,y,z
-x,y,1/2-z
-x,-y,-z
x,-y,1/2+z
loop_
_atom_site_type_symbol
_atom_site_label
_atom_site_fract_x
_atom_site_fract_y
_atom_site_fract_z
Si Si1 0.499328 0.159224 0.574281
Si Si2 0.897719 0.834713 0.211471
Si Si3 0.916373 0.823552 0.655682
Si Si4 0.827076 0.320353 0.143710
Si Si5 0.644016 0.658210 0.563804
Si Si6 0.646552 0.338356 0.704589
Si Si7 0.167719 0.668124 0.386926
O O1 0.500000 0.157048 0.750000
O O2 0.577694 0.243127 0.311597
O O3 0.419161 0.237776 0.711177
O O4 0.500000 0.000000 0.500000
O O5 0.833100 0.734759 0.462274
O O6 0.885711 0.776087 0.078295
O O7 0.885586 0.009755 0.256667
O O8 0.990762 0.809609 0.027372
O O9 0.897930 0.778157 0.537192
O O10 0.863041 0.703525 0.874615
O O11 0.738815 0.288568 0.434913
O O12 0.842652 0.494762 0.117871
O O13 0.636833 0.497361 0.653619
O O14 0.633431 0.655272 0.413414
O O15 0.736879 0.706550 0.362326
#
# Coordination Sequence:
#
# PCOD9237921 Si02
#       7
#     4   4   4   4   4   4   4
#     4  12  27  46  71 104 142 178 224 274 331 400
#     4  11  25  39  67  90 135 178 223 281 344 411
#     4  11  23  45  59  96 131 178 225 277 346 411
#     4  11  24  41  67  97 131 173 228 280 337 401
#     4  11  24  45  71  99 136 177 224 276 340 406
#     4  11  24  45  71  99 136 177 224 276 340 406
#     4  11  24  41  67  97 131 173 228 280 337 401
#
# _framework density 20.567440000000001
#
# number of rings (size 3 to 8) (size 9 to 14) (size 15 to 20)
#    0.000    0.857    1.429    5.143    8.000    8.000 
#    0.000    0.000    0.000    0.000    0.000    0.000 
#    0.000    0.000    0.000    0.000    0.000    0.000 
#
# Total GULP energy -156458.899023 kJ/mol
# GULP energy per Si atom -5587.817822 kJ/mol
# Density = 2.052063 g / cm^3
# Si number density = 20.567440 Si / 1000 Ang^3
#
#
#
# Elastic Constant Matrix: (Units=GPa)
#
#
# Indices 1 2 3 4 5 6 
#
# 1 111.8353 49.1635 39.6370 0.0000 -1.6104 0.0000
# 2 49.1635 83.6550 57.0657 0.0000 -24.1252 0.0000
# 3 39.6370 57.0657 110.0322 0.0000 3.7990 0.0000
# 4 0.0000 0.0000 0.0000 26.8879 0.0000 -0.6597
# 5 -1.6104 -24.1252 3.7990 0.0000 35.9120 0.0000
# 6 0.0000 0.0000 0.0000 -0.6597 0.0000 55.9305
#
#
#
# Elastic Compliance Matrix: (Units=1/GPa)
#
#
# Indices 1 2 3 4 5 6 
#
# 1 0.012927 -0.009755 0.000611 0.000000 -0.006038 0.000000
# 2 -0.009755 0.035911 -0.015987 0.000000 0.025378 0.000000
# 3 0.000611 -0.015987 0.017593 0.000000 -0.012573 0.000000
# 4 0.000000 0.000000 0.000000 0.037202 0.000000 0.000439
# 5 -0.006038 0.025378 -0.012573 0.000000 0.045954 0.000000
# 6 0.000000 0.000000 0.000000 0.000439 0.000000 0.017885
#
#
# Mechanical properties :
#
#
# Convention : Reuss Voigt Hill
#
# Bulk Modulus (GPa) = 61.84358 66.36163 64.10261
# Shear Modulus (GPa) = 22.40919 34.38983 28.39951
#
# Velocity S-wave (km/s) = 3.30441 4.09351 3.71994
# Velocity P-wave (km/s) = 6.68527 7.39445 7.04878
#
# Compressibility (1/GPa) = 0.01616983
#
# Stress axis : x y z
#
# Youngs Moduli (GPa) = 77.35989 27.84651 56.84010
#
# Poissons Ratio (x) = 0.27165 -0.03475
# Poissons Ratio (y) = 0.75467 0.90868
# Poissons Ratio (z) = -0.04729 0.44517
#
# Static dielectric constant tensor:
#      x y z
#    x 1.719990 0.000000 -0.010320 
#    y 0.000000 1.714990 0.000000 
#    z -0.010320 0.000000 1.720350 
# 
# From -- ./inp_files/24560.got.cif
#   From: 2010.05.17/outbox.cif.g08.bks.cpg/sg13_13_cif.got.tgz:24560.got - 2010.06.03 16:44:36.
