data_PCOD9237044
_publ_section_title
;
Structure prediction by ZEFSAII (Michael W. Deem and Ramdas Pophale) SiO2 
 PCOD9237044
Probable space group: P 2/C
;
_chemical_formula_sum "Si O2"
_cell_formula_units_Z 20
_cell_length_a 9.829709
_cell_length_b 10.577991
_cell_length_c 13.083339
_cell_angle_alpha 90.000000
_cell_angle_beta 31.530352
_cell_angle_gamma 90.000000
_cell_volume 711.414574
_symmetry_space_group_name_H-M "P 2/C"
_symmetry_group_IT_number 13
_symmetry_cell_setting 'monoclinic'
loop_
_space_group_symop_operation_xyz
x,y,z
-x,y,1/2-z
-x,-y,-z
x,-y,1/2+z
loop_
_atom_site_type_symbol
_atom_site_label
_atom_site_fract_x
_atom_site_fract_y
_atom_site_fract_z
Si Si1 0.274144 0.145498 0.478248
Si Si2 0.362911 0.507726 0.750868
Si Si3 0.686547 0.236104 0.344105
Si Si4 0.771020 0.857970 0.015181
Si Si5 0.984081 0.417466 0.876466
O O1 0.500000 0.156920 0.250000
O O2 0.437782 0.151306 0.477542
O O3 0.106508 0.271067 0.572113
O O4 0.163119 0.006128 0.540345
O O5 0.360045 0.632593 0.684061
O O6 0.292437 0.400304 0.715663
O O7 0.676197 0.512949 0.594801
O O8 0.000000 0.500000 0.000000
O O9 0.733689 0.216368 0.433102
O O10 0.959623 0.195894 0.114289
O O11 0.500000 0.844846 0.250000
O O12 0.000000 0.470035 0.750000
#
# Coordination Sequence:
#
# PCOD9237044 Si02
#       5
#     4   4   4   4   4
#     4  11  22  48  71 103 151 200 243 319 380 449
#     4  11  24  51  72 105 152 198 249 322 380 448
#     4  11  22  47  76 102 158 198 246 322 376 444
#     4  10  26  42  73 113 151 200 259 307 377 457
#     4  11  25  43  80 106 143 200 256 310 386 454
#
# _framework density 28.113005999999999
#
# number of rings (size 3 to 8) (size 9 to 14) (size 15 to 20)
#    0.000    1.200    4.000    0.600    5.600    5.600 
#    0.000    5.000    0.000    0.000    0.000    0.000 
#    0.000    0.000    0.000    0.000    0.000    0.000 
#
# Total GULP energy -111541.383634 kJ/mol
# GULP energy per Si atom -5577.069182 kJ/mol
# Density = 2.804902 g / cm^3
# Si number density = 28.113006 Si / 1000 Ang^3
#
#
#
# Elastic Constant Matrix: (Units=GPa)
#
#
# Indices 1 2 3 4 5 6 
#
# 1 251.7053 99.8912 74.9917 0.0000 -57.6564 0.0000
# 2 99.8912 113.8991 47.0417 0.0000 -36.7125 0.0000
# 3 74.9917 47.0417 197.5469 0.0000 6.3362 0.0000
# 4 0.0000 0.0000 0.0000 19.4540 0.0000 14.7204
# 5 -57.6564 -36.7125 6.3362 0.0000 44.7959 0.0000
# 6 0.0000 0.0000 0.0000 14.7204 0.0000 13.8559
#
#
#
# Elastic Compliance Matrix: (Units=1/GPa)
#
#
# Indices 1 2 3 4 5 6 
#
# 1 0.007752 -0.003387 -0.002378 0.000000 0.007539 0.000000
# 2 -0.003387 0.015778 -0.002759 0.000000 0.008962 0.000000
# 3 -0.002378 -0.002759 0.006824 0.000000 -0.006287 0.000000
# 4 0.000000 0.000000 0.000000 0.262115 0.000000 -0.278469
# 5 0.007539 0.008962 -0.006287 0.000000 0.040261 0.000000
# 6 0.000000 0.000000 0.000000 -0.278469 0.000000 0.368015
#
#
# Mechanical properties :
#
#
# Convention : Reuss Voigt Hill
#
# Bulk Modulus (GPa) = 75.15367 111.88893 93.52130
# Shear Modulus (GPa) = 6.92301 38.36960 22.64630
#
# Velocity S-wave (km/s) = 1.57096 3.69837 2.84129
# Velocity P-wave (km/s) = 5.48464 7.62387 6.64096
#
# Compressibility (1/GPa) = 0.01330607
#
# Stress axis : x y z
#
# Youngs Moduli (GPa) = 128.99260 63.37850 146.55079
#
# Poissons Ratio (x) = 0.21465 0.34853
# Poissons Ratio (y) = 0.43687 0.40434
# Poissons Ratio (z) = 0.30677 0.17486
#
# Static dielectric constant tensor:
#      x y z
#    x 1.707210 0.000000 -0.567400 
#    y 0.000000 1.743540 0.000000 
#    z -0.567400 0.000000 2.385890 
# 
# From -- ./inp_files/50733.got.cif
#   From: 2010.05.17/outbox.cif.g08.bks.cpg/sg13_26_cif.got.tgz:50733.got - 2010.06.03 16:44:36.
