data_PCOD9237965
_publ_section_title
;
Structure prediction by ZEFSAII (Michael W. Deem and Ramdas Pophale) SiO2 
 PCOD9237965
Probable space group: P 2/C
;
_chemical_formula_sum "Si O2"
_cell_formula_units_Z 26
_cell_length_a 8.291343
_cell_length_b 13.121488
_cell_length_c 13.921342
_cell_angle_alpha 90.000000
_cell_angle_beta 132.983951
_cell_angle_gamma 90.000000
_cell_volume 1107.974955
_symmetry_space_group_name_H-M "P 2/C"
_symmetry_group_IT_number 13
_symmetry_cell_setting 'monoclinic'
loop_
_space_group_symop_operation_xyz
x,y,z
-x,y,1/2-z
-x,-y,-z
x,-y,1/2+z
loop_
_atom_site_type_symbol
_atom_site_label
_atom_site_fract_x
_atom_site_fract_y
_atom_site_fract_z
Si Si1 0.690208 0.298930 0.760345
Si Si2 0.429473 0.615644 0.486456
Si Si3 0.843545 0.285661 0.447795
Si Si4 0.401948 0.060612 0.808162
Si Si5 0.000000 0.930055 0.250000
Si Si6 0.653215 0.894918 0.962351
Si Si7 0.228093 0.755616 0.797501
O O1 0.500000 0.346260 0.750000
O O2 0.706748 0.351172 0.663270
O O3 0.619797 0.181253 0.712080
O O4 0.912002 0.299975 0.912517
O O5 0.500000 0.500000 0.500000
O O6 0.308204 0.649911 0.537593
O O7 0.658094 0.677898 0.582197
O O8 0.782217 0.165147 0.432435
O O9 0.808695 0.301347 0.320099
O O10 0.500000 0.016116 0.750000
O O11 0.157532 0.021020 0.734267
O O12 0.601248 0.014930 0.952475
O O13 0.187382 0.869641 0.383745
O O14 0.416619 0.841290 0.866295
O O15 0.000000 0.792394 0.750000
#
# Coordination Sequence:
#
# PCOD9237965 Si02
#       7
#     4   4   4   4   2   4   4
#     4  11  24  45  72 106 143 190 245 300 359 438
#     4  11  25  46  73 104 140 186 239 293 371 449
#     4  11  23  46  74 102 142 195 234 302 362 426
#     4  11  24  43  66 102 143 191 249 291 354 431
#     4  12  24  42  64  96 138 190 248 298 350 422
#     4  11  24  45  68 100 145 192 250 288 364 420
#     4  11  25  45  71 105 149 184 242 302 363 432
#
# _framework density 23.466235000000001
#
# number of rings (size 3 to 8) (size 9 to 14) (size 15 to 20)
#    0.000    0.923    1.538    6.462    1.077    4.308 
#    5.538    2.308    0.000    0.000    0.000    0.000 
#    0.000    0.000    0.000    0.000    0.000    0.000 
#
# Total GULP energy -144891.823744 kJ/mol
# GULP energy per Si atom -5572.762452 kJ/mol
# Density = 2.341282 g / cm^3
# Si number density = 23.466235 Si / 1000 Ang^3
#
#
#
# Elastic Constant Matrix: (Units=GPa)
#
#
# Indices 1 2 3 4 5 6 
#
# 1 138.9954 -7.5338 32.2824 0.0000 9.3566 0.0000
# 2 -7.5338 52.1912 24.5612 0.0000 14.5329 0.0000
# 3 32.2824 24.5612 132.3135 0.0000 0.5855 0.0000
# 4 0.0000 0.0000 0.0000 24.2578 0.0000 5.6885
# 5 9.3566 14.5329 0.5855 0.0000 40.6225 0.0000
# 6 0.0000 0.0000 0.0000 5.6885 0.0000 10.2305
#
#
#
# Elastic Compliance Matrix: (Units=1/GPa)
#
#
# Indices 1 2 3 4 5 6 
#
# 1 0.008171 0.003229 -0.002580 0.000000 -0.003000 0.000000
# 2 0.003229 0.024800 -0.005349 0.000000 -0.009539 0.000000
# 3 -0.002580 -0.005349 0.009170 0.000000 0.002376 0.000000
# 4 0.000000 0.000000 0.000000 0.047405 0.000000 -0.026359
# 5 -0.003000 -0.009539 0.002376 0.000000 0.028686 0.000000
# 6 0.000000 0.000000 0.000000 -0.026359 0.000000 0.112403
#
#
# Mechanical properties :
#
#
# Convention : Reuss Voigt Hill
#
# Bulk Modulus (GPa) = 30.54368 46.90218 38.72293
# Shear Modulus (GPa) = 19.92449 33.30152 26.61300
#
# Velocity S-wave (km/s) = 2.91704 3.77121 3.37129
# Velocity P-wave (km/s) = 4.93860 6.24446 5.62952
#
# Compressibility (1/GPa) = 0.03274000
#
# Stress axis : x y z
#
# Youngs Moduli (GPa) = 122.39110 40.32293 109.05594
#
# Poissons Ratio (x) = -0.13019 0.28131
# Poissons Ratio (y) = -0.39516 0.58335
# Poissons Ratio (z) = 0.31571 0.21569
#
# Static dielectric constant tensor:
#      x y z
#    x 2.092010 0.000000 -0.143890 
#    y 0.000000 1.947020 0.000000 
#    z -0.143890 0.000000 2.105130 
# 
# From -- ./inp_files/47927.got.cif
#   From: 2010.05.17/outbox.cif.g08.bks.cpg/sg13_24_cif.got.tgz:47927.got - 2010.06.03 16:44:36.
