data_PCOD9237254
_publ_section_title
;
Structure prediction by ZEFSAII (Michael W. Deem and Ramdas Pophale) SiO2 
 PCOD9237254
Probable space group: P 2/C
;
_chemical_formula_sum "Si O2"
_cell_formula_units_Z 30
_cell_length_a 13.226365
_cell_length_b 13.934853
_cell_length_c 13.562088
_cell_angle_alpha 90.000000
_cell_angle_beta 32.679942
_cell_angle_gamma 90.000000
_cell_volume 1349.644951
_symmetry_space_group_name_H-M "P 2/C"
_symmetry_group_IT_number 13
_symmetry_cell_setting 'monoclinic'
loop_
_space_group_symop_operation_xyz
x,y,z
-x,y,1/2-z
-x,-y,-z
x,-y,1/2+z
loop_
_atom_site_type_symbol
_atom_site_label
_atom_site_fract_x
_atom_site_fract_y
_atom_site_fract_z
Si Si1 0.803555 0.480751 0.756734
Si Si2 0.293728 0.763527 0.454164
Si Si3 0.667572 0.653702 0.533629
Si Si4 0.813604 0.848658 0.335547
Si Si5 0.000000 0.393226 0.250000
Si Si6 0.128414 0.637325 0.938662
Si Si7 0.808885 0.057833 0.342308
Si Si8 0.000155 0.829350 0.971330
O O1 0.958283 0.540171 0.691638
O O2 0.746138 0.559012 0.721882
O O3 0.913043 0.397299 0.609535
O O4 0.677597 0.429217 0.942540
O O5 0.500000 0.737001 0.250000
O O6 0.305388 0.852579 0.520619
O O7 0.156366 0.798472 0.479541
O O8 0.180911 0.674395 0.591904
O O9 0.500000 0.649761 0.750000
O O10 0.687201 0.756995 0.465098
O O11 0.836391 0.644550 0.473727
O O12 0.893089 0.848503 0.159994
O O13 0.000000 0.843053 0.250000
O O14 0.719686 0.953103 0.426488
O O15 0.138296 0.740040 0.879513
O O16 0.000000 0.054580 0.250000
O O17 0.878988 0.085394 0.175502
#
# Coordination Sequence:
#
# PCOD9237254 Si02
#       8
#     4   4   4   4   2   4   4   4
#     4  11  22  40  66  88 118 170 219 261 321 387
#     4  11  23  42  66  97 131 167 214 276 333 392
#     4  12  25  42  61  96 137 168 216 274 325 393
#     4  11  21  40  67  92 124 174 221 259 323 401
#     4  12  20  42  64  86 132 164 212 264 320 384
#     4  11  21  40  70  87 119 174 217 263 328 384
#     4   9  20  39  66  95 125 165 219 271 326 395
#     4  11  19  40  67  95 123 170 221 270 325 396
#
# _framework density 22.228068
#
# number of rings (size 3 to 8) (size 9 to 14) (size 15 to 20)
#    0.000    1.067    7.333    0.400    0.000    1.600 
#    4.800    0.667    0.000    0.000    0.000    0.000 
#    0.000    0.000    0.000    0.000    0.000    0.000 
#
# Total GULP energy -167473.243829 kJ/mol
# GULP energy per Si atom -5582.441461 kJ/mol
# Density = 2.217748 g / cm^3
# Si number density = 22.228068 Si / 1000 Ang^3
#
#
#
# Elastic Constant Matrix: (Units=GPa)
#
#
# Indices 1 2 3 4 5 6 
#
# 1 40.1460 6.9358 13.2908 0.0000 29.9508 0.0000
# 2 6.9358 145.9458 57.2672 0.0000 17.3949 0.0000
# 3 13.2908 57.2672 118.0400 0.0000 21.8452 0.0000
# 4 0.0000 0.0000 0.0000 6.9200 0.0000 19.6100
# 5 29.9508 17.3949 21.8452 0.0000 39.8715 0.0000
# 6 0.0000 0.0000 0.0000 19.6100 0.0000 23.0384
#
#
#
# Elastic Compliance Matrix: (Units=1/GPa)
#
#
# Indices 1 2 3 4 5 6 
#
# 1 0.057589 0.002329 0.000645 0.000000 -0.044629 0.000000
# 2 0.002329 0.008650 -0.003825 0.000000 -0.003428 0.000000
# 3 0.000645 -0.003825 0.011168 0.000000 -0.004935 0.000000
# 4 0.000000 0.000000 0.000000 -0.102336 0.000000 0.087107
# 5 -0.044629 -0.003428 -0.004935 0.000000 0.062805 0.000000
# 6 0.000000 0.000000 0.000000 0.087107 0.000000 -0.030738
#
#
# Mechanical properties :
#
#
# Convention : Reuss Voigt Hill
#
# Bulk Modulus (GPa) = 13.20888 51.01327 32.11108
# Shear Modulus (GPa) = 146.74156 29.07518 87.90837
#
# Velocity S-wave (km/s) = 8.13386 3.62061 6.29557
# Velocity P-wave (km/s) = 9.70403 6.36224 8.20507
#
# Compressibility (1/GPa) = 0.07570664
#
# Stress axis : x y z
#
# Youngs Moduli (GPa) = 17.36452 115.60029 89.54284
#
# Poissons Ratio (x) = -0.26927 -0.05776
# Poissons Ratio (y) = -0.04045 0.34247
# Poissons Ratio (z) = -0.01120 0.44213
#
# Static dielectric constant tensor:
#      x y z
#    x 1.895790 0.000000 -0.022700 
#    y 0.000000 1.852650 0.000000 
#    z -0.022700 0.000000 1.852370 
# 
# From -- ./inp_files/53858.got.cif
#   From: 2010.05.17/outbox.cif.g08.bks.cpg/sg13_27_cif.got.tgz:53858.got - 2010.06.03 16:44:36.
