data_PCOD9237986
_publ_section_title
;
Structure prediction by ZEFSAII (Michael W. Deem and Ramdas Pophale) SiO2 
 PCOD9237986
Probable space group: P 2/C
;
_chemical_formula_sum "Si O2"
_cell_formula_units_Z 18
_cell_length_a 5.310156
_cell_length_b 8.847821
_cell_length_c 16.260225
_cell_angle_alpha 90.000000
_cell_angle_beta 111.460868
_cell_angle_gamma 90.000000
_cell_volume 710.992114
_symmetry_space_group_name_H-M "P 2/C"
_symmetry_group_IT_number 13
_symmetry_cell_setting 'monoclinic'
loop_
_space_group_symop_operation_xyz
x,y,z
-x,y,1/2-z
-x,-y,-z
x,-y,1/2+z
loop_
_atom_site_type_symbol
_atom_site_label
_atom_site_fract_x
_atom_site_fract_y
_atom_site_fract_z
Si Si1 0.256447 0.896050 0.502613
Si Si2 0.449820 0.594970 0.909293
Si Si3 0.881713 0.150693 0.817402
Si Si4 0.000000 0.709910 0.750000
Si Si5 0.500000 0.582964 0.250000
Si Si6 0.500000 0.090468 0.250000
O O1 0.389560 0.755358 0.566888
O O2 0.119702 0.817562 0.407404
O O3 0.500000 0.000000 0.500000
O O4 0.000000 0.000000 0.500000
O O5 0.134540 0.625843 0.845287
O O6 0.542858 0.506458 0.839055
O O7 0.500000 0.500000 0.000000
O O8 0.748249 0.303524 0.772132
O O9 0.000000 0.074555 0.750000
O O10 0.654251 0.034355 0.825863
O O11 0.257537 0.804055 0.749861
#
# Coordination Sequence:
#
# PCOD9237986 Si02
#       6
#     4   4   4   2   2   2
#     4  12  30  54  82 124 164 218 288 354 430 512
#     4  12  30  55  87 124 173 227 285 355 429 517
#     4  11  25  49  83 117 168 213 279 345 431 501
#     4  12  26  52  80 120 164 216 292 344 428 508
#     4  11  29  52  82 122 168 230 278 346 430 512
#     4  11  23  48  82 120 160 222 274 362 418 508
#
# _framework density 25.316737
#
# number of rings (size 3 to 8) (size 9 to 14) (size 15 to 20)
#    0.000    0.444    1.111    4.667   14.000    2.667 
#    0.000    0.000    0.000    0.000    0.000    0.000 
#    0.000    0.000    0.000    0.000    0.000    0.000 
#
# Total GULP energy -100549.555690 kJ/mol
# GULP energy per Si atom -5586.086427 kJ/mol
# Density = 2.525912 g / cm^3
# Si number density = 25.316737 Si / 1000 Ang^3
#
#
#
# Elastic Constant Matrix: (Units=GPa)
#
#
# Indices 1 2 3 4 5 6 
#
# 1 185.5178 91.2193 66.8590 0.0000 16.8617 0.0000
# 2 91.2193 169.4895 81.6047 0.0000 1.2007 0.0000
# 3 66.8590 81.6047 220.6731 0.0000 31.9909 0.0000
# 4 0.0000 0.0000 0.0000 5.9072 0.0000 -12.8564
# 5 16.8617 1.2007 31.9909 0.0000 51.6493 0.0000
# 6 0.0000 0.0000 0.0000 -12.8564 0.0000 37.3286
#
#
#
# Elastic Compliance Matrix: (Units=1/GPa)
#
#
# Indices 1 2 3 4 5 6 
#
# 1 0.007676 -0.003819 -0.000618 0.000000 -0.002034 0.000000
# 2 -0.003819 0.009204 -0.002633 0.000000 0.002663 0.000000
# 3 -0.000618 -0.002633 0.006212 0.000000 -0.003585 0.000000
# 4 0.000000 0.000000 0.000000 0.675987 0.000000 0.232818
# 5 -0.002034 0.002663 -0.003585 0.000000 0.022184 0.000000
# 6 0.000000 0.000000 0.000000 0.232818 0.000000 0.106975
#
#
# Mechanical properties :
#
#
# Convention : Reuss Voigt Hill
#
# Bulk Modulus (GPa) = 111.70867 117.22738 114.46803
# Shear Modulus (GPa) = 5.91462 41.37685 23.64574
#
# Velocity S-wave (km/s) = 1.53014 4.04712 3.05945
# Velocity P-wave (km/s) = 6.88055 8.26097 7.60216
#
# Compressibility (1/GPa) = 0.00895186
#
# Stress axis : x y z
#
# Youngs Moduli (GPa) = 130.27817 108.64636 160.97259
#
# Poissons Ratio (x) = 0.41492 0.09956
# Poissons Ratio (y) = 0.49753 0.42380
# Poissons Ratio (z) = 0.08058 0.28604
#
# Static dielectric constant tensor:
#      x y z
#    x 2.067610 0.000000 -0.056070 
#    y 0.000000 2.073010 0.000000 
#    z -0.056070 0.000000 2.102040 
# 
# From -- ./inp_files/60785.got.cif
#   From: 2010.05.17/outbox.cif.g08.bks.cpg/sg13_31_cif.got.tgz:60785.got - 2010.06.03 16:44:36.
