data_PCOD9237117
_publ_section_title
;
Structure prediction by ZEFSAII (Michael W. Deem and Ramdas Pophale) SiO2 
 PCOD9237117
Probable space group: P 2/C
;
_chemical_formula_sum "Si O2"
_cell_formula_units_Z 18
_cell_length_a 9.407691
_cell_length_b 10.011196
_cell_length_c 8.122239
_cell_angle_alpha 90.000000
_cell_angle_beta 85.029368
_cell_angle_gamma 90.000000
_cell_volume 762.093780
_symmetry_space_group_name_H-M "P 2/C"
_symmetry_group_IT_number 13
_symmetry_cell_setting 'monoclinic'
loop_
_space_group_symop_operation_xyz
x,y,z
-x,y,1/2-z
-x,-y,-z
x,-y,1/2+z
loop_
_atom_site_type_symbol
_atom_site_label
_atom_site_fract_x
_atom_site_fract_y
_atom_site_fract_z
Si Si1 0.248753 0.352854 0.489748
Si Si2 0.000000 0.706315 0.250000
Si Si3 0.639571 0.402269 0.347854
Si Si4 0.747880 0.830259 0.070351
Si Si5 0.645841 0.930931 0.422029
O O1 0.105859 0.364552 0.611079
O O2 0.236163 0.396158 0.302733
O O3 0.357909 0.452202 0.571322
O O4 0.308675 0.202077 0.485538
O O5 0.894147 0.787890 0.141422
O O6 0.500000 0.376919 0.250000
O O7 0.672732 0.292582 0.483545
O O8 0.655046 0.883458 0.233612
O O9 0.760198 0.951975 0.942284
O O10 0.500000 0.000000 0.500000
#
# Coordination Sequence:
#
# PCOD9237117 Si02
#       5
#     4   2   4   4   4
#     4  11  25  44  72 104 146 191 234 300 352 432
#     4  10  26  48  72 110 146 192 248 282 362 434
#     4  12  26  47  74 108 146 189 243 303 369 420
#     4  11  25  45  73 104 145 190 235 298 351 433
#     4  11  23  43  71 104 139 183 237 294 361 419
#
# _framework density 23.619140999999999
#
# number of rings (size 3 to 8) (size 9 to 14) (size 15 to 20)
#    0.000    0.889    0.000    6.667    0.000   13.333 
#    0.000    0.000    0.000    0.000    0.000    0.000 
#    0.000    0.000    0.000    0.000    0.000    0.000 
#
# Total GULP energy -100656.144114 kJ/mol
# GULP energy per Si atom -5592.008006 kJ/mol
# Density = 2.356538 g / cm^3
# Si number density = 23.619141 Si / 1000 Ang^3
#
#
#
# Elastic Constant Matrix: (Units=GPa)
#
#
# Indices 1 2 3 4 5 6 
#
# 1 133.2149 42.5657 58.4944 0.0000 9.5894 0.0000
# 2 42.5657 124.8118 32.0892 0.0000 23.0801 0.0000
# 3 58.4944 32.0892 136.7084 0.0000 2.9751 0.0000
# 4 0.0000 0.0000 0.0000 52.0656 0.0000 2.1099
# 5 9.5894 23.0801 2.9751 0.0000 54.5616 0.0000
# 6 0.0000 0.0000 0.0000 2.1099 0.0000 25.3561
#
#
#
# Elastic Compliance Matrix: (Units=1/GPa)
#
#
# Indices 1 2 3 4 5 6 
#
# 1 0.009907 -0.002330 -0.003680 0.000000 -0.000555 0.000000
# 2 -0.002330 0.009800 -0.001223 0.000000 -0.003669 0.000000
# 3 -0.003680 -0.001223 0.009162 0.000000 0.000665 0.000000
# 4 0.000000 0.000000 0.000000 0.019272 0.000000 -0.001604
# 5 -0.000555 -0.003669 0.000665 0.000000 0.019941 0.000000
# 6 0.000000 0.000000 0.000000 -0.001604 0.000000 0.039572
#
#
# Mechanical properties :
#
#
# Convention : Reuss Voigt Hill
#
# Bulk Modulus (GPa) = 69.43469 73.44819 71.44144
# Shear Modulus (GPa) = 39.39462 43.83571 41.61517
#
# Velocity S-wave (km/s) = 4.08844 4.31274 4.20208
# Velocity P-wave (km/s) = 7.19365 7.48091 7.33868
#
# Compressibility (1/GPa) = 0.01440202
#
# Stress axis : x y z
#
# Youngs Moduli (GPa) = 100.93908 102.04374 109.14470
#
# Poissons Ratio (x) = 0.23775 0.40165
# Poissons Ratio (y) = 0.23518 0.13354
# Poissons Ratio (z) = 0.37146 0.12485
#
# Static dielectric constant tensor:
#      x y z
#    x 2.041050 0.000000 -0.040900 
#    y 0.000000 1.907540 0.000000 
#    z -0.040900 0.000000 1.959230 
# 
# From -- ./inp_files/14552.got.cif
#   From: 2010.05.17/outbox.cif.g08.bks.cpg/sg13_8_cif.got.tgz:14552.got - 2010.06.03 16:44:36.
