data_PCOD9237912
_publ_section_title
;
Structure prediction by ZEFSAII (Michael W. Deem and Ramdas Pophale) SiO2 
 PCOD9237912
Probable space group: P 2/C
;
_chemical_formula_sum "Si O2"
_cell_formula_units_Z 22
_cell_length_a 8.219129
_cell_length_b 9.651192
_cell_length_c 19.010745
_cell_angle_alpha 90.000000
_cell_angle_beta 44.211898
_cell_angle_gamma 90.000000
_cell_volume 1051.560463
_symmetry_space_group_name_H-M "P 2/C"
_symmetry_group_IT_number 13
_symmetry_cell_setting 'monoclinic'
loop_
_space_group_symop_operation_xyz
x,y,z
-x,y,1/2-z
-x,-y,-z
x,-y,1/2+z
loop_
_atom_site_type_symbol
_atom_site_label
_atom_site_fract_x
_atom_site_fract_y
_atom_site_fract_z
Si Si1 0.000000 0.779671 0.750000
Si Si2 0.033761 0.658293 0.352783
Si Si3 0.448696 0.969434 0.598209
Si Si4 0.085414 0.847195 0.990023
Si Si5 0.089169 0.641468 0.573427
Si Si6 0.616555 0.286555 0.870768
O O1 0.218324 0.882205 0.681653
O O2 0.028878 0.687046 0.671606
O O3 0.054290 0.781854 0.401662
O O4 0.982599 0.517824 0.410477
O O5 0.810618 0.693694 0.372017
O O6 0.261764 0.643184 0.233962
O O7 0.651277 0.874581 0.567423
O O8 0.500000 0.000000 0.500000
O O9 0.420675 0.124594 0.636436
O O10 0.954915 0.255047 0.062669
O O11 0.000000 0.000000 0.000000
O O12 0.365900 0.657119 0.472446
#
# Coordination Sequence:
#
# PCOD9237912 Si02
#       6
#     2   4   4   4   4   4
#     4  12  24  44  74 102 136 184 244 282 356 422
#     4  11  25  44  73 102 141 188 237 288 361 424
#     4  12  23  45  72 106 138 183 241 297 344 424
#     4  12  25  46  69 104 143 183 232 294 358 422
#     4  12  26  46  69 105 145 183 234 299 356 429
#     4  11  23  44  75 101 138 188 240 293 351 423
#
# _framework density 20.921289000000002
#
# number of rings (size 3 to 8) (size 9 to 14) (size 15 to 20)
#    0.000    0.364    5.455    3.273    2.545    2.909 
#    0.000    1.818    0.000    0.000    0.000    0.000 
#    0.000    0.000    0.000    0.000    0.000    0.000 
#
# Total GULP energy -123069.861884 kJ/mol
# GULP energy per Si atom -5594.084631 kJ/mol
# Density = 2.087367 g / cm^3
# Si number density = 20.921289 Si / 1000 Ang^3
#
#
#
# Elastic Constant Matrix: (Units=GPa)
#
#
# Indices 1 2 3 4 5 6 
#
# 1 88.6545 23.9867 71.7057 0.0000 7.5500 0.0000
# 2 23.9867 118.1614 52.1227 0.0000 11.2642 0.0000
# 3 71.7057 52.1227 135.8705 0.0000 -9.2556 0.0000
# 4 0.0000 0.0000 0.0000 35.2790 0.0000 5.1265
# 5 7.5500 11.2642 -9.2556 0.0000 30.4581 0.0000
# 6 0.0000 0.0000 0.0000 5.1265 0.0000 16.6710
#
#
#
# Elastic Compliance Matrix: (Units=1/GPa)
#
#
# Indices 1 2 3 4 5 6 
#
# 1 0.022425 0.002395 -0.013471 0.000000 -0.010538 0.000000
# 2 0.002395 0.011268 -0.006036 0.000000 -0.006595 0.000000
# 3 -0.013471 -0.006036 0.017527 0.000000 0.010898 0.000000
# 4 0.000000 0.000000 0.000000 0.029671 0.000000 -0.009124
# 5 -0.010538 -0.006595 0.010898 0.000000 0.041195 0.000000
# 6 0.000000 0.000000 0.000000 -0.009124 0.000000 0.062790
#
#
# Mechanical properties :
#
#
# Convention : Reuss Voigt Hill
#
# Bulk Modulus (GPa) = 58.83855 70.92408 64.88131
# Shear Modulus (GPa) = 22.24525 29.47305 25.85915
#
# Velocity S-wave (km/s) = 3.26434 3.75742 3.51952
# Velocity P-wave (km/s) = 6.51097 7.26624 6.89895
#
# Compressibility (1/GPa) = 0.01699566
#
# Stress axis : x y z
#
# Youngs Moduli (GPa) = 44.59252 88.74703 57.05384
#
# Poissons Ratio (x) = -0.21252 0.76860
# Poissons Ratio (y) = -0.10679 0.34436
# Poissons Ratio (z) = 0.60073 0.53565
#
# Static dielectric constant tensor:
#      x y z
#    x 1.648700 0.000000 0.074420 
#    y 0.000000 1.757240 0.000000 
#    z 0.074420 0.000000 1.700210 
# 
# From -- ./inp_files/75536.got.cif
#   From: 2010.05.17/outbox.cif.g08.bks.cpg/sg13_38_cif.got.tgz:75536.got - 2010.06.03 16:44:36.
