data_PCOD9237817
_publ_section_title
;
Structure prediction by ZEFSAII (Michael W. Deem and Ramdas Pophale) SiO2 
 PCOD9237817
Probable space group: P 2/C
;
_chemical_formula_sum "Si O2"
_cell_formula_units_Z 14
_cell_length_a 8.163094
_cell_length_b 14.060901
_cell_length_c 9.187347
_cell_angle_alpha 90.000000
_cell_angle_beta 145.837105
_cell_angle_gamma 90.000000
_cell_volume 592.167643
_symmetry_space_group_name_H-M "P 2/C"
_symmetry_group_IT_number 13
_symmetry_cell_setting 'monoclinic'
loop_
_space_group_symop_operation_xyz
x,y,z
-x,y,1/2-z
-x,-y,-z
x,-y,1/2+z
loop_
_atom_site_type_symbol
_atom_site_label
_atom_site_fract_x
_atom_site_fract_y
_atom_site_fract_z
Si Si1 0.803105 0.205410 0.378179
Si Si2 0.158246 0.420317 0.021950
Si Si3 0.625630 0.919113 0.481184
Si Si4 0.000000 0.079260 0.750000
O O1 0.500000 0.191760 0.250000
O O2 0.857884 0.316987 0.413890
O O3 0.053939 0.152580 0.657909
O O4 0.760757 0.155971 0.192553
O O5 0.500000 0.442586 0.250000
O O6 0.000000 0.411788 0.750000
O O7 0.000000 0.500000 0.000000
O O8 0.500000 0.864574 0.250000
O O9 0.500000 0.000000 0.500000
O O10 0.811454 0.999298 0.528215
#
# Coordination Sequence:
#
# PCOD9237817 Si02
#       4
#     4   4   4   2
#     4  11  23  42  67  97 134 188 231 290 367 435
#     4  11  25  50  80 109 146 192 249 319 382 444
#     4  12  23  38  60  97 140 179 232 282 341 434
#     4  12  20  38  66  88 140 180 224 274 356 424
#
# _framework density 23.641950999999999
#
# number of rings (size 3 to 8) (size 9 to 14) (size 15 to 20)
#    0.000    0.571    7.143    1.714    0.000    0.000 
#    2.571    1.429    0.000    0.000    0.000    0.000 
#    0.000    0.000    0.000    0.000    0.000    0.000 
#
# Total GULP energy -77979.137001 kJ/mol
# GULP energy per Si atom -5569.938357 kJ/mol
# Density = 2.358814 g / cm^3
# Si number density = 23.641951 Si / 1000 Ang^3
#
#
#
# Elastic Constant Matrix: (Units=GPa)
#
#
# Indices 1 2 3 4 5 6 
#
# 1 107.0179 82.9983 58.7439 0.0000 -26.3324 0.0000
# 2 82.9983 232.4378 75.8257 0.0000 -30.3075 0.0000
# 3 58.7439 75.8257 180.6147 0.0000 -47.5298 0.0000
# 4 0.0000 0.0000 0.0000 16.0976 0.0000 11.6586
# 5 -26.3324 -30.3075 -47.5298 0.0000 44.3272 0.0000
# 6 0.0000 0.0000 0.0000 11.6586 0.0000 11.8972
#
#
#
# Elastic Compliance Matrix: (Units=1/GPa)
#
#
# Indices 1 2 3 4 5 6 
#
# 1 0.014499 -0.004028 -0.002066 0.000000 0.003644 0.000000
# 2 -0.004028 0.006189 -0.001121 0.000000 0.000637 0.000000
# 3 -0.002066 -0.001121 0.008574 0.000000 0.007200 0.000000
# 4 0.000000 0.000000 0.000000 0.214002 0.000000 -0.209710
# 5 0.003644 0.000637 0.007200 0.000000 0.032880 0.000000
# 6 0.000000 0.000000 0.000000 -0.209710 0.000000 0.289556
#
#
# Mechanical properties :
#
#
# Convention : Reuss Voigt Hill
#
# Bulk Modulus (GPa) = 67.41748 106.13402 86.77575
# Shear Modulus (GPa) = 8.54594 34.63124 21.58859
#
# Velocity S-wave (km/s) = 1.90331 3.83145 3.02511
# Velocity P-wave (km/s) = 5.77997 8.03511 6.99897
#
# Compressibility (1/GPa) = 0.01483295
#
# Stress axis : x y z
#
# Youngs Moduli (GPa) = 68.97124 161.57072 116.63778
#
# Poissons Ratio (x) = 0.65084 0.24093
# Poissons Ratio (y) = 0.27783 0.13069
# Poissons Ratio (z) = 0.14247 0.18104
#
# Static dielectric constant tensor:
#      x y z
#    x 5.843540 0.000000 2.394880 
#    y 0.000000 1.768310 0.000000 
#    z 2.394880 0.000000 3.654330 
# 
# From -- ./inp_files/8521.got.cif
#   From: 2010.05.17/outbox.cif.g08.bks.cpg/sg13_5_cif.got.tgz:8521.got - 2010.06.03 16:44:36.
