data_PCOD9237241
_publ_section_title
;
Structure prediction by ZEFSAII (Michael W. Deem and Ramdas Pophale) SiO2 
 PCOD9237241
Probable space group: P 2/C
;
_chemical_formula_sum "Si O2"
_cell_formula_units_Z 24
_cell_length_a 10.013408
_cell_length_b 12.754775
_cell_length_c 12.030538
_cell_angle_alpha 90.000000
_cell_angle_beta 131.656225
_cell_angle_gamma 90.000000
_cell_volume 1148.009183
_symmetry_space_group_name_H-M "P 2/C"
_symmetry_group_IT_number 13
_symmetry_cell_setting 'monoclinic'
loop_
_space_group_symop_operation_xyz
x,y,z
-x,y,1/2-z
-x,-y,-z
x,-y,1/2+z
loop_
_atom_site_type_symbol
_atom_site_label
_atom_site_fract_x
_atom_site_fract_y
_atom_site_fract_z
Si Si1 0.000000 0.583783 0.750000
Si Si2 0.691709 0.112968 0.511179
Si Si3 0.783937 0.277710 0.955915
Si Si4 0.318656 0.872733 0.916142
Si Si5 0.921956 0.885867 0.926766
Si Si6 0.000000 0.259848 0.750000
Si Si7 0.113192 0.570599 0.148563
O O1 0.901858 0.655248 0.607168
O O2 0.854612 0.510496 0.733087
O O3 0.492507 0.141614 0.435942
O O4 0.760456 0.130603 0.424135
O O5 0.830034 0.183374 0.657859
O O6 0.699515 0.989324 0.543322
O O7 0.663356 0.208236 0.971299
O O8 0.912910 0.192575 0.970251
O O9 0.735896 0.364156 0.835105
O O10 0.152787 0.867386 0.738734
O O11 0.000000 0.000000 0.000000
O O12 0.995873 0.339202 0.643457
O O13 0.000000 0.500000 0.000000
#
# Coordination Sequence:
#
# PCOD9237241 Si02
#       7
#     2   4   4   4   4   2   4
#     4   9  18  35  60  92 116 147 208 263 296 358
#     4  11  24  38  58  89 126 162 197 247 299 366
#     4  11  19  36  62  88 114 160 200 241 307 360
#     4  11  24  38  55  91 130 158 198 251 298 357
#     4  12  21  36  60  87 119 163 207 235 291 375
#     4  11  20  39  64  86 116 165 206 239 310 376
#     4   9  20  35  60  93 113 148 212 259 297 354
#
# _framework density 20.905756
#
# number of rings (size 3 to 8) (size 9 to 14) (size 15 to 20)
#    0.000    1.333    5.000    1.500    0.000    0.000 
#    0.000    0.833    0.000   11.000    0.000    0.000 
#    0.000    0.000    0.000    0.000    0.000    0.000 
#
# Total GULP energy -133629.953785 kJ/mol
# GULP energy per Si atom -5567.914741 kJ/mol
# Density = 2.085817 g / cm^3
# Si number density = 20.905756 Si / 1000 Ang^3
#
#
#
# Elastic Constant Matrix: (Units=GPa)
#
#
# Indices 1 2 3 4 5 6 
#
# 1 105.7859 35.8441 20.9310 0.0000 -29.1085 0.0000
# 2 35.8441 115.8400 23.1248 0.0000 -12.1926 0.0000
# 3 20.9310 23.1248 42.0954 0.0000 -15.9075 0.0000
# 4 0.0000 0.0000 0.0000 28.8626 0.0000 -16.4059
# 5 -29.1085 -12.1926 -15.9075 0.0000 33.7956 0.0000
# 6 0.0000 0.0000 0.0000 -16.4059 0.0000 14.1615
#
#
#
# Elastic Compliance Matrix: (Units=1/GPa)
#
#
# Indices 1 2 3 4 5 6 
#
# 1 0.013402 -0.002833 -0.001377 0.000000 0.009873 0.000000
# 2 -0.002833 0.010335 -0.004600 0.000000 -0.000877 0.000000
# 3 -0.001377 -0.004600 0.031494 0.000000 0.011979 0.000000
# 4 0.000000 0.000000 0.000000 0.101455 0.000000 0.117535
# 5 0.009873 -0.000877 0.011979 0.000000 0.043416 0.000000
# 6 0.000000 0.000000 0.000000 0.117535 0.000000 0.206777
#
#
# Mechanical properties :
#
#
# Convention : Reuss Voigt Hill
#
# Bulk Modulus (GPa) = 26.58757 47.05790 36.82273
# Shear Modulus (GPa) = 11.44071 27.61872 19.52971
#
# Velocity S-wave (km/s) = 2.34188 3.63865 3.05975
# Velocity P-wave (km/s) = 4.47861 6.34125 5.48951
#
# Compressibility (1/GPa) = 0.03761157
#
# Stress axis : x y z
#
# Youngs Moduli (GPa) = 74.61502 96.75617 31.75228
#
# Poissons Ratio (x) = 0.27411 0.04371
# Poissons Ratio (y) = 0.21138 0.14607
# Poissons Ratio (z) = 0.10271 0.44510
#
# Static dielectric constant tensor:
#      x y z
#    x 1.806400 0.000000 -0.059650 
#    y 0.000000 1.760660 0.000000 
#    z -0.059650 0.000000 1.802330 
# 
# From -- ./inp_files/29569.got.cif
#   From: 2010.05.17/outbox.cif.g08.bks.cpg/sg13_15_cif.got.tgz:29569.got - 2010.06.03 16:44:36.
