data_PCOD9237398
_publ_section_title
;
Structure prediction by ZEFSAII (Michael W. Deem and Ramdas Pophale) SiO2 
 PCOD9237398
Probable space group: P 2/C
;
_chemical_formula_sum "Si O2"
_cell_formula_units_Z 20
_cell_length_a 5.394023
_cell_length_b 7.268271
_cell_length_c 22.663409
_cell_angle_alpha 90.000000
_cell_angle_beta 82.531920
_cell_angle_gamma 90.000000
_cell_volume 880.986986
_symmetry_space_group_name_H-M "P 2/C"
_symmetry_group_IT_number 13
_symmetry_cell_setting 'monoclinic'
loop_
_space_group_symop_operation_xyz
x,y,z
-x,y,1/2-z
-x,-y,-z
x,-y,1/2+z
loop_
_atom_site_type_symbol
_atom_site_label
_atom_site_fract_x
_atom_site_fract_y
_atom_site_fract_z
Si Si1 0.138966 0.710995 0.127982
Si Si2 0.379863 0.401830 0.061746
Si Si3 0.778996 0.890135 0.213729
Si Si4 0.530467 0.012473 0.105705
Si Si5 0.116664 0.805599 0.482821
O O1 0.328603 0.541281 0.116878
O O2 0.917965 0.708739 0.182682
O O3 0.021707 0.711375 0.066580
O O4 0.277079 0.907250 0.132206
O O5 0.512508 0.217256 0.081280
O O6 0.869142 0.684992 0.959684
O O7 0.500000 0.500000 0.000000
O O8 0.500000 0.859800 0.250000
O O9 0.000000 0.966317 0.250000
O O10 0.715023 0.004104 0.156086
O O11 0.619001 0.871542 0.051831
O O12 0.000000 0.000000 0.500000
#
# Coordination Sequence:
#
# PCOD9237398 Si02
#       5
#     4   4   4   4   4
#     4  11  23  41  70 106 141 187 241 293 352 436
#     4  12  23  40  69 108 156 189 227 281 361 438
#     4  11  24  48  81  98 133 193 246 314 380 410
#     4  11  23  42  70 104 145 186 246 287 352 438
#     4  11  21  38  63 100 151 192 224 275 342 427
#
# _framework density 22.701812
#
# number of rings (size 3 to 8) (size 9 to 14) (size 15 to 20)
#    0.000    0.800    6.000    2.400    0.000    0.000 
#    0.000    0.000    8.800    0.000    0.000    0.000 
#    0.000    0.000    0.000    0.000    0.000    0.000 
#
# Total GULP energy -111443.132244 kJ/mol
# GULP energy per Si atom -5572.156612 kJ/mol
# Density = 2.265014 g / cm^3
# Si number density = 22.701812 Si / 1000 Ang^3
#
#
#
# Elastic Constant Matrix: (Units=GPa)
#
#
# Indices 1 2 3 4 5 6 
#
# 1 111.7018 38.5851 47.5118 0.0000 1.0102 0.0000
# 2 38.5851 136.8482 41.1357 0.0000 -0.0549 0.0000
# 3 47.5118 41.1357 98.6461 0.0000 10.9117 0.0000
# 4 0.0000 0.0000 0.0000 10.5176 0.0000 -0.8258
# 5 1.0102 -0.0549 10.9117 0.0000 51.9803 0.0000
# 6 0.0000 0.0000 0.0000 -0.8258 0.0000 31.4407
#
#
#
# Elastic Compliance Matrix: (Units=1/GPa)
#
#
# Indices 1 2 3 4 5 6 
#
# 1 0.011678 -0.001800 -0.004964 0.000000 0.000813 0.000000
# 2 -0.001800 0.008661 -0.002815 0.000000 0.000635 0.000000
# 3 -0.004964 -0.002815 0.014017 0.000000 -0.002849 0.000000
# 4 0.000000 0.000000 0.000000 0.095275 0.000000 0.002502
# 5 0.000813 0.000635 -0.002849 0.000000 0.019821 0.000000
# 6 0.000000 0.000000 0.000000 0.002502 0.000000 0.031872
#
#
# Mechanical properties :
#
#
# Convention : Reuss Voigt Hill
#
# Bulk Modulus (GPa) = 65.79673 66.85125 66.32399
# Shear Modulus (GPa) = 24.32507 33.45195 28.88851
#
# Velocity S-wave (km/s) = 3.27693 3.84283 3.57111
# Velocity P-wave (km/s) = 6.58511 7.01436 6.80312
#
# Compressibility (1/GPa) = 0.01519832
#
# Stress axis : x y z
#
# Youngs Moduli (GPa) = 85.62872 115.45487 71.34165
#
# Poissons Ratio (x) = 0.20786 0.35414
# Poissons Ratio (y) = 0.15416 0.20082
# Poissons Ratio (z) = 0.42506 0.32500
#
# Static dielectric constant tensor:
#      x y z
#    x 1.351910 0.000000 0.621100 
#    y 0.000000 1.873420 0.000000 
#    z 0.621100 0.000000 1.213730 
# 
# From -- ./inp_files/94540.got.cif
#   From: 2010.05.17/outbox.cif.g08.bks.cpg/sg13_48_cif.got.tgz:94540.got - 2010.06.03 16:44:36.
