data_PCOD9237236
_publ_section_title
;
Structure prediction by ZEFSAII (Michael W. Deem and Ramdas Pophale) SiO2 
 PCOD9237236
Probable space group: P 2/C
;
_chemical_formula_sum "Si O2"
_cell_formula_units_Z 28
_cell_length_a 12.259259
_cell_length_b 10.153997
_cell_length_c 21.386241
_cell_angle_alpha 90.000000
_cell_angle_beta 151.543380
_cell_angle_gamma 90.000000
_cell_volume 1268.505810
_symmetry_space_group_name_H-M "P 2/C"
_symmetry_group_IT_number 13
_symmetry_cell_setting 'monoclinic'
loop_
_space_group_symop_operation_xyz
x,y,z
-x,y,1/2-z
-x,-y,-z
x,-y,1/2+z
loop_
_atom_site_type_symbol
_atom_site_label
_atom_site_fract_x
_atom_site_fract_y
_atom_site_fract_z
Si Si1 0.447269 0.254224 0.792601
Si Si2 0.000000 0.924919 0.750000
Si Si3 0.846813 0.159316 0.756589
Si Si4 0.831197 0.473530 0.356889
Si Si5 0.582470 0.268673 0.036748
Si Si6 0.780001 0.574664 0.533826
Si Si7 0.332427 0.722421 0.538140
Si Si8 0.500000 0.738946 0.750000
O O1 0.500000 0.212376 0.750000
O O2 0.295661 0.148567 0.751789
O O3 0.302680 0.390174 0.718680
O O4 0.673352 0.301787 0.942716
O O5 0.780262 0.837734 0.622581
O O6 0.917727 0.021919 0.762983
O O7 0.660514 0.235350 0.619204
O O8 0.082256 0.237122 0.886428
O O9 0.682430 0.353673 0.306983
O O10 0.000000 0.500000 0.500000
O O11 0.958489 0.436096 0.356465
O O12 0.694801 0.399474 0.061737
O O13 0.519779 0.260644 0.078136
O O14 0.681117 0.435736 0.459738
O O15 0.379008 0.798028 0.627096
#
# Coordination Sequence:
#
# PCOD9237236 Si02
#       8
#     4   2   4   4   4   4   4   2
#     4  11  19  35  60  97 133 178 224 262 333 413
#     4  12  26  52  70  96 126 182 248 294 354 392
#     4  11  24  44  74  96 129 187 235 292 338 405
#     4  12  17  34  56  93 145 189 210 254 330 419
#     4  11  27  45  71 101 132 182 233 294 344 409
#     4  11  23  36  63 101 143 175 218 271 340 419
#     4  12  22  43  68 105 145 180 221 274 347 418
#     4  12  24  34  66 104 150 192 214 260 340 440
#
# _framework density 22.073214
#
# number of rings (size 3 to 8) (size 9 to 14) (size 15 to 20)
#    0.000    0.571    7.857    0.857    2.000    0.000 
#    2.571    0.000    1.571    4.286    0.000    0.000 
#    0.000    0.000    0.000    0.000    0.000    0.000 
#
# Total GULP energy -156284.145062 kJ/mol
# GULP energy per Si atom -5581.576609 kJ/mol
# Density = 2.202297 g / cm^3
# Si number density = 22.073214 Si / 1000 Ang^3
#
#
#
# Elastic Constant Matrix: (Units=GPa)
#
#
# Indices 1 2 3 4 5 6 
#
# 1 187.8342 20.1046 29.2493 0.0000 1.7730 0.0000
# 2 20.1046 27.9127 17.6967 0.0000 -0.9747 0.0000
# 3 29.2493 17.6967 100.0409 0.0000 -3.4851 0.0000
# 4 0.0000 0.0000 0.0000 37.2229 0.0000 -19.5362
# 5 1.7730 -0.9747 -3.4851 0.0000 29.0355 0.0000
# 6 0.0000 0.0000 0.0000 -19.5362 0.0000 71.8469
#
#
#
# Elastic Compliance Matrix: (Units=1/GPa)
#
#
# Indices 1 2 3 4 5 6 
#
# 1 0.005883 -0.003553 -0.001113 0.000000 -0.000612 0.000000
# 2 -0.003553 0.042505 -0.006450 0.000000 0.000870 0.000000
# 3 -0.001113 -0.006450 0.011505 0.000000 0.001232 0.000000
# 4 0.000000 0.000000 0.000000 0.031337 0.000000 0.008521
# 5 -0.000612 0.000870 0.001232 0.000000 0.034655 0.000000
# 6 0.000000 0.000000 0.000000 0.008521 0.000000 0.016235
#
#
# Mechanical properties :
#
#
# Convention : Reuss Voigt Hill
#
# Bulk Modulus (GPa) = 26.55235 49.98768 38.27002
# Shear Modulus (GPa) = 28.26346 44.20352 36.23349
#
# Velocity S-wave (km/s) = 3.58221 4.47988 4.05596
# Velocity P-wave (km/s) = 5.40046 7.03240 6.26975
#
# Compressibility (1/GPa) = 0.03766145
#
# Stress axis : x y z
#
# Youngs Moduli (GPa) = 169.97427 23.52673 86.91769
#
# Poissons Ratio (x) = 0.08360 0.09673
# Poissons Ratio (y) = 0.60397 0.56059
# Poissons Ratio (z) = 0.18916 0.15174
#
# Static dielectric constant tensor:
#      x y z
#    x 1.866290 0.000000 -0.040190 
#    y 0.000000 1.782200 0.000000 
#    z -0.040190 0.000000 1.918900 
# 
# From -- ./inp_files/78620.got.cif
#   From: 2010.05.17/outbox.cif.g08.bks.cpg/sg13_40_cif.got.tgz:78620.got - 2010.06.03 16:44:36.
