data_PCOD9237622
_publ_section_title
;
Structure prediction by ZEFSAII (Michael W. Deem and Ramdas Pophale) SiO2 
 PCOD9237622
Probable space group: P 2/C
;
_chemical_formula_sum "Si O2"
_cell_formula_units_Z 16
_cell_length_a 11.058426
_cell_length_b 7.398972
_cell_length_c 13.619705
_cell_angle_alpha 90.000000
_cell_angle_beta 144.194317
_cell_angle_gamma 90.000000
_cell_volume 651.953416
_symmetry_space_group_name_H-M "P 2/C"
_symmetry_group_IT_number 13
_symmetry_cell_setting 'monoclinic'
loop_
_space_group_symop_operation_xyz
x,y,z
-x,y,1/2-z
-x,-y,-z
x,-y,1/2+z
loop_
_atom_site_type_symbol
_atom_site_label
_atom_site_fract_x
_atom_site_fract_y
_atom_site_fract_z
Si Si1 0.981854 0.993616 0.352478
Si Si2 0.338409 0.908258 0.217107
Si Si3 0.519116 0.478310 0.897234
Si Si4 0.160692 0.393576 0.036712
O O1 0.062192 0.791418 0.431905
O O2 0.000000 0.027010 0.250000
O O3 0.752562 0.005380 0.246689
O O4 0.136271 0.118796 0.515875
O O5 0.500000 0.002069 0.250000
O O6 0.440974 0.721449 0.317036
O O7 0.256664 0.489647 0.003049
O O8 0.359760 0.615122 0.739435
O O9 0.500000 0.500000 0.000000
O O10 0.000000 0.500000 0.000000
#
# Coordination Sequence:
#
# PCOD9237622 Si02
#       4
#     4   4   4   4
#     4  11  25  45  68  96 133 181 218 271 338 392
#     4  11  23  47  64  99 137 167 228 270 325 403
#     4  11  23  42  66  98 130 173 218 271 333 384
#     4  11  22  42  66  98 134 168 228 274 320 402
#
# _framework density 24.541627999999999
#
# number of rings (size 3 to 8) (size 9 to 14) (size 15 to 20)
#    0.000    1.000    5.000    1.500    3.500    1.000 
#    9.000    1.250    0.000    0.000    0.000    0.000 
#    0.000    0.000    0.000    0.000    0.000    0.000 
#
# Total GULP energy -89505.684943 kJ/mol
# GULP energy per Si atom -5594.105309 kJ/mol
# Density = 2.448577 g / cm^3
# Si number density = 24.541628 Si / 1000 Ang^3
#
#
#
# Elastic Constant Matrix: (Units=GPa)
#
#
# Indices 1 2 3 4 5 6 
#
# 1 311.6052 54.9708 67.1593 0.0000 -10.2209 0.0000
# 2 54.9708 88.2989 11.8128 0.0000 9.2178 0.0000
# 3 67.1593 11.8128 41.9572 0.0000 -8.3023 0.0000
# 4 0.0000 0.0000 0.0000 36.6785 0.0000 8.3546
# 5 -10.2209 9.2178 -8.3023 0.0000 63.7188 0.0000
# 6 0.0000 0.0000 0.0000 8.3546 0.0000 25.9922
#
#
#
# Elastic Compliance Matrix: (Units=1/GPa)
#
#
# Indices 1 2 3 4 5 6 
#
# 1 0.005298 -0.002270 -0.007810 0.000000 0.000161 0.000000
# 2 -0.002270 0.013047 -0.000498 0.000000 -0.002316 0.000000
# 3 -0.007810 -0.000498 0.037200 0.000000 0.003666 0.000000
# 4 0.000000 0.000000 0.000000 0.029418 0.000000 -0.009456
# 5 0.000161 -0.002316 0.003666 0.000000 0.016533 0.000000
# 6 0.000000 0.000000 0.000000 -0.009456 0.000000 0.041512
#
#
# Mechanical properties :
#
#
# Convention : Reuss Voigt Hill
#
# Bulk Modulus (GPa) = 29.07825 78.86079 53.96952
# Shear Modulus (GPa) = 28.46963 45.80578 37.13771
#
# Velocity S-wave (km/s) = 3.40965 4.32493 3.89428
# Velocity P-wave (km/s) = 5.23214 7.55932 6.50071
#
# Compressibility (1/GPa) = 0.03438997
#
# Stress axis : x y z
#
# Youngs Moduli (GPa) = 188.74537 76.64598 26.88191
#
# Poissons Ratio (x) = 0.17402 0.20993
# Poissons Ratio (y) = 0.42853 0.01338
# Poissons Ratio (z) = 1.47401 0.03814
#
# Static dielectric constant tensor:
#      x y z
#    x 2.042030 0.000000 0.077140 
#    y 0.000000 1.989890 0.000000 
#    z 0.077140 0.000000 1.945340 
# 
# From -- ./inp_files/67157.got.cif
#   From: 2010.05.17/outbox.cif.g08.bks.cpg/sg13_34_cif.got.tgz:67157.got - 2010.06.03 16:44:36.
