data_PCOD9237822
_publ_section_title
;
Structure prediction by ZEFSAII (Michael W. Deem and Ramdas Pophale) SiO2 
 PCOD9237822
Probable space group: P 2/C
;
_chemical_formula_sum "Si O2"
_cell_formula_units_Z 28
_cell_length_a 8.110407
_cell_length_b 16.663448
_cell_length_c 18.182422
_cell_angle_alpha 90.000000
_cell_angle_beta 147.350505
_cell_angle_gamma 90.000000
_cell_volume 1325.712535
_symmetry_space_group_name_H-M "P 2/C"
_symmetry_group_IT_number 13
_symmetry_cell_setting 'monoclinic'
loop_
_space_group_symop_operation_xyz
x,y,z
-x,y,1/2-z
-x,-y,-z
x,-y,1/2+z
loop_
_atom_site_type_symbol
_atom_site_label
_atom_site_fract_x
_atom_site_fract_y
_atom_site_fract_z
Si Si1 0.573957 0.888956 0.191583
Si Si2 0.848435 0.476355 0.616910
Si Si3 0.583128 0.076387 0.195560
Si Si4 0.791109 0.822855 0.049250
Si Si5 0.089709 0.645908 0.653150
Si Si6 0.814161 0.183045 0.078097
Si Si7 0.790670 0.654795 0.968299
O O1 0.500000 0.882075 0.250000
O O2 0.893683 0.846176 0.294530
O O3 0.614602 0.982899 0.188843
O O4 0.302775 0.848411 0.044402
O O5 0.500000 0.500000 0.500000
O O6 0.863021 0.414028 0.554923
O O7 0.000000 0.445738 0.750000
O O8 0.998747 0.560518 0.651392
O O9 0.500000 0.085071 0.250000
O O10 0.888789 0.128077 0.292632
O O11 0.295528 0.110630 0.043451
O O12 0.488219 0.822350 0.985543
O O13 0.842426 0.739003 0.027514
O O14 0.438629 0.655827 0.809869
O O15 0.041354 0.644442 0.546724
O O16 0.914662 0.724259 0.616186
#
# Coordination Sequence:
#
# PCOD9237822 Si02
#       7
#     4   4   4   4   4   4   4
#     4  11  25  44  64  95 137 176 225 279 332 397
#     4  12  25  44  71 102 138 170 216 277 336 393
#     4  11  23  42  68  95 130 181 228 271 331 402
#     4  12  25  41  67 100 135 172 223 280 337 389
#     4  11  24  45  71  99 135 180 227 269 330 407
#     4  12  25  41  69  99 133 178 221 279 337 394
#     4  11  24  45  71  99 136 179 227 271 327 407
#
# _framework density 21.120716999999999
#
# number of rings (size 3 to 8) (size 9 to 14) (size 15 to 20)
#    0.000    0.571    2.857    5.571    0.000    8.000 
#    0.000    1.429    0.000    0.000    0.000    0.000 
#    0.000    0.000    0.000    0.000    0.000    0.000 
#
# Total GULP energy -156634.401056 kJ/mol
# GULP energy per Si atom -5594.085752 kJ/mol
# Density = 2.107264 g / cm^3
# Si number density = 21.120717 Si / 1000 Ang^3
#
#
#
# Elastic Constant Matrix: (Units=GPa)
#
#
# Indices 1 2 3 4 5 6 
#
# 1 48.8775 23.5725 0.1627 0.0000 -3.7524 0.0000
# 2 23.5725 107.3913 17.4384 0.0000 -10.6408 0.0000
# 3 0.1627 17.4384 92.3334 0.0000 -7.0696 0.0000
# 4 0.0000 0.0000 0.0000 -161.3343 0.0000 121.0665
# 5 -3.7524 -10.6408 -7.0696 0.0000 37.0424 0.0000
# 6 0.0000 0.0000 0.0000 121.0665 0.0000 -51.3238
#
#
#
# Elastic Compliance Matrix: (Units=1/GPa)
#
#
# Indices 1 2 3 4 5 6 
#
# 1 0.023000 -0.005107 0.001005 0.000000 0.001055 0.000000
# 2 -0.005107 0.010964 -0.001888 0.000000 0.002272 0.000000
# 3 0.001005 -0.001888 0.011317 0.000000 0.001719 0.000000
# 4 0.000000 0.000000 0.000000 0.008048 0.000000 0.018985
# 5 0.001055 0.002272 0.001719 0.000000 0.028084 0.000000
# 6 0.000000 0.000000 0.000000 0.018985 0.000000 0.025300
#
#
# Mechanical properties :
#
#
# Convention : Reuss Voigt Hill
#
# Bulk Modulus (GPa) = 30.02941 36.77216 33.40079
# Shear Modulus (GPa) = 38.52252 -21.29456 8.61398
#
# Velocity S-wave (km/s) = 4.27537 -3.17871 2.02171
# Velocity P-wave (km/s) = 6.21455 1.99399 4.61501
#
# Compressibility (1/GPa) = 0.03330069
#
# Stress axis : x y z
#
# Youngs Moduli (GPa) = 43.47824 91.20387 88.36474
#
# Poissons Ratio (x) = 0.46580 -0.08879
# Poissons Ratio (y) = 0.22205 0.16682
# Poissons Ratio (z) = -0.04369 0.17218
#
# Static dielectric constant tensor:
#      x y z
#    x 1.834550 0.000000 -0.039770 
#    y 0.000000 1.543000 0.000000 
#    z -0.039770 0.000000 1.721760 
# 
# From -- ./inp_files/76753.got.cif
#   From: 2010.05.17/outbox.cif.g08.bks.cpg/sg13_39_cif.got.tgz:76753.got - 2010.06.03 16:44:36.
