data_PCOD9237550
_publ_section_title
;
Structure prediction by ZEFSAII (Michael W. Deem and Ramdas Pophale) SiO2 
 PCOD9237550
Probable space group: P 2/C
;
_chemical_formula_sum "Si O2"
_cell_formula_units_Z 24
_cell_length_a 31.144084
_cell_length_b 10.256524
_cell_length_c 10.038938
_cell_angle_alpha 90.000000
_cell_angle_beta 25.826242
_cell_angle_gamma 90.000000
_cell_volume 1396.994453
_symmetry_space_group_name_H-M "P 2/C"
_symmetry_group_IT_number 13
_symmetry_cell_setting 'monoclinic'
loop_
_space_group_symop_operation_xyz
x,y,z
-x,y,1/2-z
-x,-y,-z
x,-y,1/2+z
loop_
_atom_site_type_symbol
_atom_site_label
_atom_site_fract_x
_atom_site_fract_y
_atom_site_fract_z
Si Si1 0.067367 0.524261 0.683053
Si Si2 0.802345 0.760873 0.083489
Si Si3 0.823952 0.740882 0.706622
Si Si4 0.605288 0.632640 0.620454
Si Si5 0.071553 0.002169 0.174266
Si Si6 0.381784 0.382059 0.727867
O O1 0.148335 0.630862 0.494718
O O2 0.116755 0.389507 0.497720
O O3 0.000000 0.573309 0.750000
O O4 0.000000 0.500000 0.000000
O O5 0.685090 0.744258 0.424324
O O6 0.827904 0.763630 0.854754
O O7 0.848819 0.884672 0.025652
O O8 0.873474 0.864735 0.499323
O O9 0.710142 0.712170 0.986972
O O10 0.624291 0.512597 0.667088
O O11 0.622250 0.587930 0.419493
O O12 0.491107 0.673498 0.950018
O O13 0.000000 0.027429 0.250000
O O14 0.000000 0.000000 0.500000
#
# Coordination Sequence:
#
# PCOD9237550 Si02
#       6
#     4   4   4   4   4   4
#     4  12  22  35  56  84 114 148 190 242 285 335
#     4  11  22  39  59  86 115 152 195 235 290 345
#     4  11  22  40  58  85 118 151 191 240 292 338
#     4   9  18  35  59  88 116 146 186 235 292 344
#     4  12  24  43  60  80 116 164 198 237 287 341
#     4   9  18  35  60  86 117 148 182 237 294 342
#
# _framework density 17.179739000000001
#
# number of rings (size 3 to 8) (size 9 to 14) (size 15 to 20)
#    0.000    1.333    5.000    2.000    0.000    0.000 
#    3.000    0.833    0.000    0.000    0.000    0.000 
#    0.000    0.000    0.000    0.000    0.000    0.000 
#
# Total GULP energy -133968.414071 kJ/mol
# GULP energy per Si atom -5582.017253 kJ/mol
# Density = 1.714064 g / cm^3
# Si number density = 17.179739 Si / 1000 Ang^3
#
#
#
# Elastic Constant Matrix: (Units=GPa)
#
#
# Indices 1 2 3 4 5 6 
#
# 1 108.6985 38.8197 53.9018 0.0000 -14.8812 0.0000
# 2 38.8197 96.8388 40.8104 0.0000 -17.1455 0.0000
# 3 53.9018 40.8104 107.6778 0.0000 -15.9570 0.0000
# 4 0.0000 0.0000 0.0000 28.7458 0.0000 -5.6570
# 5 -14.8812 -17.1455 -15.9570 0.0000 27.9181 0.0000
# 6 0.0000 0.0000 0.0000 -5.6570 0.0000 25.6900
#
#
#
# Elastic Compliance Matrix: (Units=1/GPa)
#
#
# Indices 1 2 3 4 5 6 
#
# 1 0.013028 -0.002620 -0.005176 0.000000 0.002376 0.000000
# 2 -0.002620 0.013590 -0.003069 0.000000 0.005195 0.000000
# 3 -0.005176 -0.003069 0.013496 0.000000 0.003070 0.000000
# 4 0.000000 0.000000 0.000000 0.036364 0.000000 0.008007
# 5 0.002376 0.005195 0.003070 0.000000 0.042031 0.000000
# 6 0.000000 0.000000 0.000000 0.008007 0.000000 0.040689
#
#
# Mechanical properties :
#
#
# Convention : Reuss Voigt Hill
#
# Bulk Modulus (GPa) = 54.39866 64.47542 59.43704
# Shear Modulus (GPa) = 26.72993 28.44966 27.58979
#
# Velocity S-wave (km/s) = 3.94877 4.07381 4.01178
# Velocity P-wave (km/s) = 7.24731 7.72912 7.49209
#
# Compressibility (1/GPa) = 0.01838281
#
# Stress axis : x y z
#
# Youngs Moduli (GPa) = 76.75974 73.58311 74.09457
#
# Poissons Ratio (x) = 0.19281 0.38353
# Poissons Ratio (y) = 0.20113 0.22741
# Poissons Ratio (z) = 0.39732 0.22584
#
# Static dielectric constant tensor:
#      x y z
#    x 1.513530 0.000000 -0.031430 
#    y 0.000000 1.543020 0.000000 
#    z -0.031430 0.000000 1.594320 
# 
# From -- ./inp_files/24848.got.cif
#   From: 2010.05.17/outbox.cif.g08.bks.cpg/sg13_13_cif.got.tgz:24848.got - 2010.06.03 16:44:36.
