data_PCOD9237830
_publ_section_title
;
Structure prediction by ZEFSAII (Michael W. Deem and Ramdas Pophale) SiO2 
 PCOD9237830
Probable space group: P 2/C
;
_chemical_formula_sum "Si O2"
_cell_formula_units_Z 30
_cell_length_a 12.745182
_cell_length_b 8.876032
_cell_length_c 13.142354
_cell_angle_alpha 90.000000
_cell_angle_beta 68.865309
_cell_angle_gamma 90.000000
_cell_volume 1386.744716
_symmetry_space_group_name_H-M "P 2/C"
_symmetry_group_IT_number 13
_symmetry_cell_setting 'monoclinic'
loop_
_space_group_symop_operation_xyz
x,y,z
-x,y,1/2-z
-x,-y,-z
x,-y,1/2+z
loop_
_atom_site_type_symbol
_atom_site_label
_atom_site_fract_x
_atom_site_fract_y
_atom_site_fract_z
Si Si1 0.892616 0.869942 0.215273
Si Si2 0.387665 0.960782 0.977457
Si Si3 0.826282 0.562913 0.550711
Si Si4 0.283066 0.667072 0.115162
Si Si5 0.191550 0.846110 0.639526
Si Si6 0.500000 0.160661 0.250000
Si Si7 0.333741 0.388183 0.210622
Si Si8 0.040438 0.748562 0.515269
O O1 0.800601 0.742332 0.273693
O O2 0.000000 0.841707 0.250000
O O3 0.839436 0.027873 0.267115
O O4 0.931837 0.861736 0.085843
O O5 0.417733 0.938886 0.848469
O O6 0.346571 0.802286 0.037433
O O7 0.500000 0.000000 0.000000
O O8 0.289857 0.081324 0.034665
O O9 0.790572 0.591857 0.447783
O O10 0.720202 0.569055 0.662215
O O11 0.888776 0.403460 0.533462
O O12 0.912279 0.693954 0.555351
O O13 0.359972 0.541362 0.141401
O O14 0.240600 0.699991 0.677144
O O15 0.084895 0.810285 0.606362
O O16 0.432230 0.270023 0.197768
#
# Coordination Sequence:
#
# PCOD9237830 Si02
#       8
#     4   4   4   4   4   2   4   4
#     4  11  24  41  64  99 139 183 219 270 337 406
#     4  11  25  48  69  98 135 179 222 290 347 405
#     4  11  23  42  70 102 138 179 223 283 331 407
#     4  11  23  45  70  99 136 173 226 280 339 401
#     4  11  27  42  68 101 139 177 228 281 341 411
#     4  12  26  46  72  98 130 180 230 282 352 394
#     4  12  25  46  72 101 133 176 234 284 337 406
#     4  11  24  42  68 103 140 182 228 273 341 405
#
# _framework density 21.633398
#
# number of rings (size 3 to 8) (size 9 to 14) (size 15 to 20)
#    0.000    0.800    6.667    0.000    3.733    1.067 
#    2.400    0.000    0.000    0.000    0.000    0.000 
#    0.000    0.000    0.000    0.000    0.000    0.000 
#
# Total GULP energy -167917.561496 kJ/mol
# GULP energy per Si atom -5597.252050 kJ/mol
# Density = 2.158416 g / cm^3
# Si number density = 21.633398 Si / 1000 Ang^3
#
#
#
# Elastic Constant Matrix: (Units=GPa)
#
#
# Indices 1 2 3 4 5 6 
#
# 1 46.0171 -8.6572 -8.1832 0.0000 11.2844 0.0000
# 2 -8.6572 55.0109 22.2964 0.0000 2.4535 0.0000
# 3 -8.1832 22.2964 69.9923 0.0000 -1.2658 0.0000
# 4 0.0000 0.0000 0.0000 23.8075 0.0000 11.8365
# 5 11.2844 2.4535 -1.2658 0.0000 37.3671 0.0000
# 6 0.0000 0.0000 0.0000 11.8365 0.0000 33.7643
#
#
#
# Elastic Compliance Matrix: (Units=1/GPa)
#
#
# Indices 1 2 3 4 5 6 
#
# 1 0.024546 0.003553 0.001601 0.000000 -0.007592 0.000000
# 2 0.003553 0.021483 -0.006477 0.000000 -0.002703 0.000000
# 3 0.001601 -0.006477 0.016547 0.000000 0.000502 0.000000
# 4 0.000000 0.000000 0.000000 0.050870 0.000000 -0.017833
# 5 -0.007592 -0.002703 0.000502 0.000000 0.029249 0.000000
# 6 0.000000 0.000000 0.000000 -0.017833 0.000000 0.035869
#
#
# Mechanical properties :
#
#
# Convention : Reuss Voigt Hill
#
# Bulk Modulus (GPa) = 16.68664 20.21471 18.45067
# Shear Modulus (GPa) = 24.85264 30.02540 27.43902
#
# Velocity S-wave (km/s) = 3.39309 3.72952 3.56527
# Velocity P-wave (km/s) = 4.80425 5.28302 5.04931
#
# Compressibility (1/GPa) = 0.05992817
#
# Stress axis : x y z
#
# Youngs Moduli (GPa) = 40.74037 46.54832 60.43461
#
# Poissons Ratio (x) = -0.16537 -0.09674
# Poissons Ratio (y) = -0.14473 0.39144
# Poissons Ratio (z) = -0.06522 0.30150
#
# Static dielectric constant tensor:
#      x y z
#    x 1.770560 0.000000 -0.010450 
#    y 0.000000 1.785330 0.000000 
#    z -0.010450 0.000000 1.762220 
# 
# From -- ./inp_files/36417.got.cif
#   From: 2010.05.17/outbox.cif.g08.bks.cpg/sg13_19_cif.got.tgz:36417.got - 2010.06.03 16:44:36.
