data_PCOD9237086
_publ_section_title
;
Structure prediction by ZEFSAII (Michael W. Deem and Ramdas Pophale) SiO2 
 PCOD9237086
Probable space group: P 2/C
;
_chemical_formula_sum "Si O2"
_cell_formula_units_Z 26
_cell_length_a 19.066266
_cell_length_b 9.133516
_cell_length_c 9.730010
_cell_angle_alpha 90.000000
_cell_angle_beta 135.257845
_cell_angle_gamma 90.000000
_cell_volume 1192.720482
_symmetry_space_group_name_H-M "P 2/C"
_symmetry_group_IT_number 13
_symmetry_cell_setting 'monoclinic'
loop_
_space_group_symop_operation_xyz
x,y,z
-x,y,1/2-z
-x,-y,-z
x,-y,1/2+z
loop_
_atom_site_type_symbol
_atom_site_label
_atom_site_fract_x
_atom_site_fract_y
_atom_site_fract_z
Si Si1 0.500000 0.049036 0.250000
Si Si2 0.111918 0.476544 0.866608
Si Si3 0.806269 0.012369 0.297820
Si Si4 0.097701 0.134886 0.805960
Si Si5 0.356689 0.239795 0.889417
Si Si6 0.661872 0.795311 0.444123
Si Si7 0.741755 0.468102 0.169504
O O1 0.541498 0.159707 0.423611
O O2 0.587623 0.933868 0.339747
O O3 0.096252 0.309993 0.792961
O O4 0.178344 0.553252 0.842548
O O5 0.000000 0.532777 0.750000
O O6 0.185757 0.472031 0.098893
O O7 0.892213 0.933605 0.330071
O O8 0.726121 0.885175 0.207331
O O9 0.821100 0.086790 0.466608
O O10 0.765478 0.130299 0.132151
O O11 0.000000 0.085328 0.750000
O O12 0.353872 0.277581 0.725222
O O13 0.319528 0.379990 0.922995
O O14 0.660645 0.662688 0.551699
#
# Coordination Sequence:
#
# PCOD9237086 Si02
#       7
#     2   4   4   4   4   4   4
#     4  10  26  46  70  98 122 168 210 282 336 390
#     4  11  24  41  63  98 140 177 223 265 312 375
#     4  11  21  39  63  90 128 172 213 267 321 381
#     4  11  22  37  59  94 131 169 221 269 313 373
#     4  11  23  43  68  95 130 164 217 265 331 393
#     4  11  23  43  68  95 130 164 217 265 331 393
#     4  12  23  43  68  98 132 182 214 263 323 388
#
# _framework density 21.798905999999999
#
# number of rings (size 3 to 8) (size 9 to 14) (size 15 to 20)
#    0.000    0.923    6.154    1.385    0.000    0.615 
#    2.769    3.077    0.000    0.000    0.000    0.000 
#    0.000    0.000    0.000    0.000    0.000    0.000 
#
# Total GULP energy -144871.290778 kJ/mol
# GULP energy per Si atom -5571.972722 kJ/mol
# Density = 2.174929 g / cm^3
# Si number density = 21.798906 Si / 1000 Ang^3
#
#
#
# Elastic Constant Matrix: (Units=GPa)
#
#
# Indices 1 2 3 4 5 6 
#
# 1 21.6222 2.2750 7.8591 0.0000 -1.7606 0.0000
# 2 2.2750 67.2153 11.5362 0.0000 25.0673 0.0000
# 3 7.8591 11.5362 79.9501 0.0000 -0.3073 0.0000
# 4 0.0000 0.0000 0.0000 28.5245 0.0000 -0.4119
# 5 -1.7606 25.0673 -0.3073 0.0000 24.7724 0.0000
# 6 0.0000 0.0000 0.0000 -0.4119 0.0000 19.0469
#
#
#
# Elastic Compliance Matrix: (Units=1/GPa)
#
#
# Indices 1 2 3 4 5 6 
#
# 1 0.048734 -0.003519 -0.004256 0.000000 0.006972 0.000000
# 2 -0.003519 0.025196 -0.003389 0.000000 -0.025788 0.000000
# 3 -0.004256 -0.003389 0.013428 0.000000 0.003293 0.000000
# 4 0.000000 0.000000 0.000000 0.035068 0.000000 0.000758
# 5 0.006972 -0.025788 0.003293 0.000000 0.066999 0.000000
# 6 0.000000 0.000000 0.000000 0.000758 0.000000 0.052518
#
#
# Mechanical properties :
#
#
# Convention : Reuss Voigt Hill
#
# Bulk Modulus (GPa) = 15.37762 23.56979 19.47371
# Shear Modulus (GPa) = 17.48581 24.27658 20.88119
#
# Velocity S-wave (km/s) = 2.83528 3.34078 3.09836
# Velocity P-wave (km/s) = 4.21759 5.07118 4.66395
#
# Compressibility (1/GPa) = 0.06502958
#
# Stress axis : x y z
#
# Youngs Moduli (GPa) = 20.51971 39.68957 74.47237
#
# Poissons Ratio (x) = 0.13967 0.31695
# Poissons Ratio (y) = 0.07221 0.25237
# Poissons Ratio (z) = 0.08733 0.13450
#
# Static dielectric constant tensor:
#      x y z
#    x 1.852490 0.000000 0.026220 
#    y 0.000000 1.803490 0.000000 
#    z 0.026220 0.000000 1.868680 
# 
# From -- ./inp_files/22984.got.cif
#   From: 2010.05.17/outbox.cif.g08.bks.cpg/sg13_12_cif.got.tgz:22984.got - 2010.06.03 16:44:36.
