data_PCOD9237613
_publ_section_title
;
Structure prediction by ZEFSAII (Michael W. Deem and Ramdas Pophale) SiO2 
 PCOD9237613
Probable space group: P 2/C
;
_chemical_formula_sum "Si O2"
_cell_formula_units_Z 28
_cell_length_a 12.878431
_cell_length_b 7.881993
_cell_length_c 13.958807
_cell_angle_alpha 90.000000
_cell_angle_beta 133.479670
_cell_angle_gamma 90.000000
_cell_volume 1028.148135
_symmetry_space_group_name_H-M "P 2/C"
_symmetry_group_IT_number 13
_symmetry_cell_setting 'monoclinic'
loop_
_space_group_symop_operation_xyz
x,y,z
-x,y,1/2-z
-x,-y,-z
x,-y,1/2+z
loop_
_atom_site_type_symbol
_atom_site_label
_atom_site_fract_x
_atom_site_fract_y
_atom_site_fract_z
Si Si1 0.935296 0.840739 0.316228
Si Si2 0.336659 0.583332 0.657973
Si Si3 0.207254 0.358124 0.419999
Si Si4 0.589504 0.167660 0.072373
Si Si5 0.680429 0.380665 0.653031
Si Si6 0.335277 0.937204 0.669031
Si Si7 0.937155 0.179867 0.024731
O O1 0.768774 0.793919 0.208783
O O2 0.000000 0.816587 0.250000
O O3 0.964325 0.031180 0.371323
O O4 0.978428 0.748104 0.446392
O O5 0.500000 0.629511 0.750000
O O6 0.306859 0.435521 0.564898
O O7 0.317702 0.486887 0.747145
O O8 0.274251 0.765341 0.579282
O O9 0.281761 0.195617 0.419726
O O10 0.219100 0.502728 0.349290
O O11 0.068392 0.314984 0.393359
O O12 0.650969 0.148441 0.217325
O O13 0.477320 0.323128 0.983195
O O14 0.500000 0.000000 0.000000
O O15 0.500000 0.992290 0.750000
O O16 0.219550 0.086162 0.583590
#
# Coordination Sequence:
#
# PCOD9237613 Si02
#       7
#     4   4   4   4   4   4   4
#     4  11  28  49  77  98 142 200 247 315 355 436
#     4  11  22  41  71 108 153 187 229 301 371 441
#     4  12  25  43  77 110 146 193 241 308 371 444
#     4  12  25  40  74 115 152 193 236 302 375 445
#     4  12  24  48  72 113 148 193 252 298 375 440
#     4  11  24  42  71 111 149 189 234 297 371 449
#     4  11  27  51  72 109 146 193 250 301 377 433
#
# _framework density 27.233433000000002
#
# number of rings (size 3 to 8) (size 9 to 14) (size 15 to 20)
#    0.000    0.571    4.286    3.857    8.000    0.571 
#    0.000    5.000    0.000    0.000    0.000    0.000 
#    0.000    0.000    0.000    0.000    0.000    0.000 
#
# Total GULP energy -156444.099179 kJ/mol
# GULP energy per Si atom -5587.289256 kJ/mol
# Density = 2.717145 g / cm^3
# Si number density = 27.233433 Si / 1000 Ang^3
#
#
#
# Elastic Constant Matrix: (Units=GPa)
#
#
# Indices 1 2 3 4 5 6 
#
# 1 148.5552 22.6699 59.1415 0.0000 -24.4909 0.0000
# 2 22.6699 94.0254 14.4860 0.0000 -3.2175 0.0000
# 3 59.1415 14.4860 85.4095 0.0000 -27.2579 0.0000
# 4 0.0000 0.0000 0.0000 40.4924 0.0000 0.7532
# 5 -24.4909 -3.2175 -27.2579 0.0000 66.6151 0.0000
# 6 0.0000 0.0000 0.0000 0.7532 0.0000 56.5327
#
#
#
# Elastic Compliance Matrix: (Units=1/GPa)
#
#
# Indices 1 2 3 4 5 6 
#
# 1 0.009499 -0.001326 -0.006048 0.000000 0.000953 0.000000
# 2 -0.001326 0.011110 -0.001093 0.000000 -0.000398 0.000000
# 3 -0.006048 -0.001093 0.017662 0.000000 0.004950 0.000000
# 4 0.000000 0.000000 0.000000 0.024702 0.000000 -0.000329
# 5 0.000953 -0.000398 0.004950 0.000000 0.017369 0.000000
# 6 0.000000 0.000000 0.000000 -0.000329 0.000000 0.017693
#
#
# Mechanical properties :
#
#
# Convention : Reuss Voigt Hill
#
# Bulk Modulus (GPa) = 46.87004 57.84278 52.35641
# Shear Modulus (GPa) = 40.95624 48.17421 44.56522
#
# Velocity S-wave (km/s) = 3.88222 4.21044 4.04965
# Velocity P-wave (km/s) = 6.11092 6.70244 6.41350
#
# Compressibility (1/GPa) = 0.02133559
#
# Stress axis : x y z
#
# Youngs Moduli (GPa) = 105.27514 90.00989 56.61918
#
# Poissons Ratio (x) = 0.11933 0.34246
# Poissons Ratio (y) = 0.13957 0.06191
# Poissons Ratio (z) = 0.63675 0.09842
#
# Static dielectric constant tensor:
#      x y z
#    x 2.688880 0.000000 -0.001500 
#    y 0.000000 2.420390 0.000000 
#    z -0.001500 0.000000 2.205590 
# 
# From -- ./inp_files/53131.got.cif
#   From: 2010.05.17/outbox.cif.g08.bks.cpg/sg13_27_cif.got.tgz:53131.got - 2010.06.03 16:44:36.
