data_PCOD9237496
_publ_section_title
;
Structure prediction by ZEFSAII (Michael W. Deem and Ramdas Pophale) SiO2 
 PCOD9237496
Probable space group: P 2/C
;
_chemical_formula_sum "Si O2"
_cell_formula_units_Z 24
_cell_length_a 11.632132
_cell_length_b 10.947594
_cell_length_c 16.963956
_cell_angle_alpha 90.000000
_cell_angle_beta 30.068707
_cell_angle_gamma 90.000000
_cell_volume 1082.370467
_symmetry_space_group_name_H-M "P 2/C"
_symmetry_group_IT_number 13
_symmetry_cell_setting 'monoclinic'
loop_
_space_group_symop_operation_xyz
x,y,z
-x,y,1/2-z
-x,-y,-z
x,-y,1/2+z
loop_
_atom_site_type_symbol
_atom_site_label
_atom_site_fract_x
_atom_site_fract_y
_atom_site_fract_z
Si Si1 0.338804 0.583262 0.924276
Si Si2 0.017602 0.731076 0.460303
Si Si3 0.079140 0.664091 0.594170
Si Si4 0.680047 0.921858 0.709436
Si Si5 0.484071 0.186840 0.636567
Si Si6 0.400130 0.260193 0.102257
O O1 0.500000 0.570622 0.750000
O O2 0.463817 0.643205 0.925135
O O3 0.229237 0.455822 0.015733
O O4 0.131349 0.670831 0.019523
O O5 0.981025 0.658897 0.562939
O O6 0.287118 0.724027 0.285086
O O7 0.921219 0.869442 0.531988
O O8 0.258924 0.776973 0.490355
O O9 0.843294 0.683647 0.781280
O O10 0.500000 0.877657 0.750000
O O11 0.653909 0.849386 0.806159
O O12 0.597472 0.057507 0.780537
O O13 0.477110 0.204049 0.546646
#
# Coordination Sequence:
#
# PCOD9237496 Si02
#       6
#     4   4   4   4   4   4
#     4  12  22  45  74  96 136 187 243 285 341 411
#     4  11  22  43  70 104 131 179 239 290 342 405
#     4  11  25  43  71  99 137 189 234 287 338 418
#     4  11  21  46  73  99 135 184 233 289 337 416
#     4  12  26  41  66 106 141 178 232 283 361 412
#     4  11  25  47  65 102 146 183 227 289 358 410
#
# _framework density 22.173552999999998
#
# number of rings (size 3 to 8) (size 9 to 14) (size 15 to 20)
#    0.000    0.667    5.000    4.500    2.333    2.667 
#    3.000    1.667    0.000    0.000    0.000    0.000 
#    0.000    0.000    0.000    0.000    0.000    0.000 
#
# Total GULP energy -134019.029563 kJ/mol
# GULP energy per Si atom -5584.126232 kJ/mol
# Density = 2.212309 g / cm^3
# Si number density = 22.173553 Si / 1000 Ang^3
#
#
#
# Elastic Constant Matrix: (Units=GPa)
#
#
# Indices 1 2 3 4 5 6 
#
# 1 91.9169 10.0067 3.6129 0.0000 -7.5355 0.0000
# 2 10.0067 91.1757 12.2801 0.0000 -18.5976 0.0000
# 3 3.6129 12.2801 70.8915 0.0000 0.6201 0.0000
# 4 0.0000 0.0000 0.0000 15.5532 0.0000 3.1942
# 5 -7.5355 -18.5976 0.6201 0.0000 38.0866 0.0000
# 6 0.0000 0.0000 0.0000 3.1942 0.0000 30.9081
#
#
#
# Elastic Compliance Matrix: (Units=1/GPa)
#
#
# Indices 1 2 3 4 5 6 
#
# 1 0.011132 -0.000790 -0.000447 0.000000 0.001824 0.000000
# 2 -0.000790 0.012578 -0.002191 0.000000 0.006021 0.000000
# 3 -0.000447 -0.002191 0.014521 0.000000 -0.001395 0.000000
# 4 0.000000 0.000000 0.000000 0.065690 0.000000 -0.006789
# 5 0.001824 0.006021 -0.001395 0.000000 0.029580 0.000000
# 6 0.000000 0.000000 0.000000 -0.006789 0.000000 0.033056
#
#
# Mechanical properties :
#
#
# Convention : Reuss Voigt Hill
#
# Bulk Modulus (GPa) = 31.87125 33.97595 32.92360
# Shear Modulus (GPa) = 27.19328 32.11522 29.65425
#
# Velocity S-wave (km/s) = 3.50578 3.80986 3.66097
# Velocity P-wave (km/s) = 5.54906 5.89146 5.72282
#
# Compressibility (1/GPa) = 0.03137624
#
# Stress axis : x y z
#
# Youngs Moduli (GPa) = 89.82739 79.50523 68.86775
#
# Poissons Ratio (x) = 0.06277 0.03075
# Poissons Ratio (y) = 0.07092 0.15090
# Poissons Ratio (z) = 0.04011 0.17421
#
# Static dielectric constant tensor:
#      x y z
#    x 1.797790 0.000000 -0.003920 
#    y 0.000000 1.843380 0.000000 
#    z -0.003920 0.000000 1.842920 
# 
# From -- ./inp_files/66567.got.cif
#   From: 2010.05.17/outbox.cif.g08.bks.cpg/sg13_34_cif.got.tgz:66567.got - 2010.06.03 16:44:36.
