data_PCOD9237341
_publ_section_title
;
Structure prediction by ZEFSAII (Michael W. Deem and Ramdas Pophale) SiO2 
 PCOD9237341
Probable space group: P 2/C
;
_chemical_formula_sum "Si O2"
_cell_formula_units_Z 24
_cell_length_a 23.559527
_cell_length_b 10.899759
_cell_length_c 24.146447
_cell_angle_alpha 90.000000
_cell_angle_beta 168.039409
_cell_angle_gamma 90.000000
_cell_volume 1285.014071
_symmetry_space_group_name_H-M "P 2/C"
_symmetry_group_IT_number 13
_symmetry_cell_setting 'monoclinic'
loop_
_space_group_symop_operation_xyz
x,y,z
-x,y,1/2-z
-x,-y,-z
x,-y,1/2+z
loop_
_atom_site_type_symbol
_atom_site_label
_atom_site_fract_x
_atom_site_fract_y
_atom_site_fract_z
Si Si1 0.012716 0.320319 0.828047
Si Si2 0.795866 0.054190 0.105489
Si Si3 0.706471 0.995590 0.247585
Si Si4 0.491442 0.815062 0.849468
Si Si5 0.754492 0.172308 0.893784
Si Si6 0.800555 0.404625 0.009487
O O1 0.000000 0.296143 0.750000
O O2 0.718669 0.290570 0.574967
O O3 0.245973 0.237186 0.078467
O O4 0.098647 0.462284 0.914250
O O5 0.000000 0.065842 0.250000
O O6 0.985155 0.090900 0.338307
O O7 0.527796 0.137388 0.844759
O O8 0.671821 0.919151 0.991429
O O9 0.693278 0.872884 0.273117
O O10 0.635067 0.110851 0.219480
O O11 0.000000 0.000000 0.500000
O O12 0.500000 0.000000 0.000000
O O13 0.811899 0.309063 0.969560
O O14 0.500000 0.415532 0.750000
O O15 0.000000 0.363229 0.250000
#
# Coordination Sequence:
#
# PCOD9237341 Si02
#       6
#     4   4   4   4   4   4
#     4  11  22  37  57  86 122 157 185 217 272 347
#     4  11  21  33  53  85 119 145 177 229 288 349
#     4  11  23  41  61  82 109 147 196 253 303 332
#     4  11  22  37  58  84 114 150 191 234 286 344
#     4  11  22  37  58  84 113 151 193 233 285 343
#     4  11  22  37  58  85 122 160 188 219 269 346
#
# _framework density 18.676838
#
# number of rings (size 3 to 8) (size 9 to 14) (size 15 to 20)
#    0.000    1.000    0.000   11.000    0.000    2.667 
#    0.000    3.333    0.000    6.000    0.000    0.000 
#    0.000    0.000    0.000    0.000    0.000    0.000 
#
# Total GULP energy -134061.605887 kJ/mol
# GULP energy per Si atom -5585.900245 kJ/mol
# Density = 1.863433 g / cm^3
# Si number density = 18.676838 Si / 1000 Ang^3
#
#
#
# Elastic Constant Matrix: (Units=GPa)
#
#
# Indices 1 2 3 4 5 6 
#
# 1 101.6429 79.5643 58.3875 0.0000 0.3871 0.0000
# 2 79.5643 125.8489 58.2348 0.0000 -11.9607 0.0000
# 3 58.3875 58.2348 162.6679 0.0000 -5.3737 0.0000
# 4 0.0000 0.0000 0.0000 36.7580 0.0000 -6.2089
# 5 0.3871 -11.9607 -5.3737 0.0000 44.6947 0.0000
# 6 0.0000 0.0000 0.0000 -6.2089 0.0000 26.4690
#
#
#
# Elastic Compliance Matrix: (Units=1/GPa)
#
#
# Indices 1 2 3 4 5 6 
#
# 1 0.021519 -0.012396 -0.003415 0.000000 -0.003914 0.000000
# 2 -0.012396 0.016874 -0.001445 0.000000 0.004449 0.000000
# 3 -0.003415 -0.001445 0.007910 0.000000 0.000594 0.000000
# 4 0.000000 0.000000 0.000000 0.028327 0.000000 0.006645
# 5 -0.003914 0.004449 0.000594 0.000000 0.023670 0.000000
# 6 0.000000 0.000000 0.000000 0.006645 0.000000 0.039339
#
#
# Mechanical properties :
#
#
# Convention : Reuss Voigt Hill
#
# Bulk Modulus (GPa) = 84.80971 86.94810 85.87890
# Shear Modulus (GPa) = 28.39585 34.51589 31.45587
#
# Velocity S-wave (km/s) = 3.90343 4.30357 4.10837
# Velocity P-wave (km/s) = 8.11316 8.44685 8.28169
#
# Compressibility (1/GPa) = 0.01179110
#
# Stress axis : x y z
#
# Youngs Moduli (GPa) = 46.47127 59.26109 126.41936
#
# Poissons Ratio (x) = 0.73461 0.43177
# Poissons Ratio (y) = 0.57606 0.18263
# Poissons Ratio (z) = 0.15872 0.08561
#
# Static dielectric constant tensor:
#      x y z
#    x 1.659890 0.000000 -0.014520 
#    y 0.000000 1.695520 0.000000 
#    z -0.014520 0.000000 1.669700 
# 
# From -- ./inp_files/89123.got.cif
#   From: 2010.05.17/outbox.cif.g08.bks.cpg/sg13_45_cif.got.tgz:89123.got - 2010.06.03 16:44:36.
