data_PCOD9237618
_publ_section_title
;
Structure prediction by ZEFSAII (Michael W. Deem and Ramdas Pophale) SiO2 
 PCOD9237618
Probable space group: P 2/C
;
_chemical_formula_sum "Si O2"
_cell_formula_units_Z 22
_cell_length_a 9.414828
_cell_length_b 25.500770
_cell_length_c 5.284360
_cell_angle_alpha 90.000000
_cell_angle_beta 128.562394
_cell_angle_gamma 90.000000
_cell_volume 992.032358
_symmetry_space_group_name_H-M "P 2/C"
_symmetry_group_IT_number 13
_symmetry_cell_setting 'monoclinic'
loop_
_space_group_symop_operation_xyz
x,y,z
-x,y,1/2-z
-x,-y,-z
x,-y,1/2+z
loop_
_atom_site_type_symbol
_atom_site_label
_atom_site_fract_x
_atom_site_fract_y
_atom_site_fract_z
Si Si1 0.156202 0.269346 0.240552
Si Si2 0.500000 0.787683 0.250000
Si Si3 0.350795 0.120040 0.893811
Si Si4 0.500000 0.963454 0.250000
Si Si5 0.713939 0.478799 0.422532
Si Si6 0.000000 0.172677 0.750000
Si Si7 0.625471 0.634092 0.646152
O O1 0.331468 0.250221 0.582054
O O2 0.228219 0.319168 0.171312
O O3 0.000000 0.287305 0.250000
O O4 0.094291 0.214862 0.041293
O O5 0.541572 0.827940 0.072606
O O6 0.339923 0.078866 0.646829
O O7 0.157385 0.137515 0.793908
O O8 0.500000 0.096256 0.250000
O O9 0.500000 0.000000 0.500000
O O10 0.500000 0.489975 0.250000
O O11 0.790766 0.482264 0.792756
O O12 0.717853 0.422298 0.293102
O O13 0.500000 0.641400 0.750000
O O14 0.500000 0.633958 0.250000
#
# Coordination Sequence:
#
# PCOD9237618 Si02
#       7
#     4   2   4   2   4   2   4
#     4  12  26  41  63  96 144 183 229 286 343 413
#     4  11  22  42  64  96 134 188 232 281 336 404
#     4  11  23  42  74 103 142 181 232 280 333 403
#     4  11  24  48  78 108 140 186 228 285 346 392
#     4   9  16  32  57  88 120 159 222 286 338 410
#     4  12  26  42  68 106 138 188 236 278 338 408
#     4  11  24  38  63  95 131 178 225 281 354 415
#
# _framework density 22.176694000000001
#
# number of rings (size 3 to 8) (size 9 to 14) (size 15 to 20)
#    0.000    1.091    5.455    2.727    5.091    0.000 
#    0.000    0.909    0.000    1.091    0.000    0.000 
#    0.000    0.000    0.000    0.000    0.000    0.000 
#
# Total GULP energy -122470.756219 kJ/mol
# GULP energy per Si atom -5566.852555 kJ/mol
# Density = 2.212622 g / cm^3
# Si number density = 22.176694 Si / 1000 Ang^3
#
#
#
# Elastic Constant Matrix: (Units=GPa)
#
#
# Indices 1 2 3 4 5 6 
#
# 1 127.8845 62.6044 42.3616 0.0000 -15.7426 0.0000
# 2 62.6044 131.6367 24.0836 0.0000 -9.1795 0.0000
# 3 42.3616 24.0836 43.8310 0.0000 -15.8011 0.0000
# 4 0.0000 0.0000 0.0000 37.6711 0.0000 -15.1496
# 5 -15.7426 -9.1795 -15.8011 0.0000 36.0749 0.0000
# 6 0.0000 0.0000 0.0000 -15.1496 0.0000 30.4107
#
#
#
# Elastic Compliance Matrix: (Units=1/GPa)
#
#
# Indices 1 2 3 4 5 6 
#
# 1 0.013536 -0.004495 -0.010563 0.000000 0.000136 0.000000
# 2 -0.004495 0.009939 -0.001083 0.000000 0.000093 0.000000
# 3 -0.010563 -0.001083 0.037831 0.000000 0.011685 0.000000
# 4 0.000000 0.000000 0.000000 0.033196 0.000000 0.016537
# 5 0.000136 0.000093 0.011685 0.000000 0.032922 0.000000
# 6 0.000000 0.000000 0.000000 0.016537 0.000000 0.041121
#
#
# Mechanical properties :
#
#
# Convention : Reuss Voigt Hill
#
# Bulk Modulus (GPa) = 34.45448 62.38351 48.41899
# Shear Modulus (GPa) = 23.75261 32.45151 28.10206
#
# Velocity S-wave (km/s) = 3.27626 3.82948 3.56362
# Velocity P-wave (km/s) = 5.46643 6.90974 6.23002
#
# Compressibility (1/GPa) = 0.02902381
#
# Stress axis : x y z
#
# Youngs Moduli (GPa) = 73.87687 100.61104 26.43305
#
# Poissons Ratio (x) = 0.45229 0.27921
# Poissons Ratio (y) = 0.33211 0.02863
# Poissons Ratio (z) = 0.78036 0.10896
#
# Static dielectric constant tensor:
#      x y z
#    x 1.828230 0.000000 -0.045890 
#    y 0.000000 1.886380 0.000000 
#    z -0.045890 0.000000 1.939130 
# 
# From -- ./inp_files/2599.got.cif
#   From: 2010.05.17/outbox.cif.g08.bks.cpg/sg13_2_cif.got.tgz:2599.got - 2010.06.03 16:44:36.
