data_PCOD9237699
_publ_section_title
;
Structure prediction by ZEFSAII (Michael W. Deem and Ramdas Pophale) SiO2 
 PCOD9237699
Probable space group: P 2/C
;
_chemical_formula_sum "Si O2"
_cell_formula_units_Z 20
_cell_length_a 11.737545
_cell_length_b 4.945075
_cell_length_c 13.923143
_cell_angle_alpha 90.000000
_cell_angle_beta 88.001309
_cell_angle_gamma 90.000000
_cell_volume 807.649897
_symmetry_space_group_name_H-M "P 2/C"
_symmetry_group_IT_number 13
_symmetry_cell_setting 'monoclinic'
loop_
_space_group_symop_operation_xyz
x,y,z
-x,y,1/2-z
-x,-y,-z
x,-y,1/2+z
loop_
_atom_site_type_symbol
_atom_site_label
_atom_site_fract_x
_atom_site_fract_y
_atom_site_fract_z
Si Si1 0.048939 0.861424 0.649174
Si Si2 0.147668 0.201633 0.472317
Si Si3 0.278544 0.399614 0.204206
Si Si4 0.295910 0.912618 0.331381
Si Si5 0.370871 0.411949 0.997428
O O1 0.147990 0.667941 0.685423
O O2 0.000000 0.981434 0.750000
O O3 0.958632 0.691656 0.587186
O O4 0.104811 0.076421 0.573582
O O5 0.261371 0.385295 0.480661
O O6 0.182842 0.955570 0.399340
O O7 0.288920 0.699914 0.245262
O O8 0.322821 0.200330 0.285501
O O9 0.341969 0.320199 0.105406
O O10 0.376411 0.802588 0.411400
O O11 0.500000 0.500000 0.000000
#
# Coordination Sequence:
#
# PCOD9237699 Si02
#       5
#     4   4   4   4   4
#     4  11  22  47  77 116 157 208 250 332 406 480
#     4  11  25  50  75 117 154 206 263 328 392 485
#     4  12  27  50  80 118 156 208 257 325 403 476
#     4  12  25  53  75 118 159 194 274 318 389 476
#     4  12  29  55  80 112 161 218 266 334 395 464
#
# _framework density 24.763204999999999
#
# number of rings (size 3 to 8) (size 9 to 14) (size 15 to 20)
#    0.000    0.400    6.000    1.200    0.000    2.400 
#   21.600    0.000    0.000    0.000    0.000    0.000 
#    0.000    0.000    0.000    0.000    0.000    0.000 
#
# Total GULP energy -111777.777550 kJ/mol
# GULP energy per Si atom -5588.888878 kJ/mol
# Density = 2.470684 g / cm^3
# Si number density = 24.763205 Si / 1000 Ang^3
#
#
#
# Elastic Constant Matrix: (Units=GPa)
#
#
# Indices 1 2 3 4 5 6 
#
# 1 70.0521 12.5280 63.4524 0.0000 -42.2319 0.0000
# 2 12.5280 57.6562 7.6330 0.0000 8.3023 0.0000
# 3 63.4524 7.6330 132.5557 0.0000 61.7964 0.0000
# 4 0.0000 0.0000 0.0000 26.1863 0.0000 -2.9378
# 5 -42.2319 8.3023 61.7964 0.0000 -55.0381 0.0000
# 6 0.0000 0.0000 0.0000 -2.9378 0.0000 18.7586
#
#
#
# Elastic Compliance Matrix: (Units=1/GPa)
#
#
# Indices 1 2 3 4 5 6 
#
# 1 0.009922 -0.000830 -0.000718 0.000000 -0.008545 0.000000
# 2 -0.000830 0.017465 -0.001400 0.000000 0.001699 0.000000
# 3 -0.000718 -0.001400 0.005127 0.000000 0.006096 0.000000
# 4 0.000000 0.000000 0.000000 0.038871 0.000000 0.006088
# 5 -0.008545 0.001699 0.006096 0.000000 -0.004511 0.000000
# 6 0.000000 0.000000 0.000000 0.006088 0.000000 0.054262
#
#
# Mechanical properties :
#
#
# Convention : Reuss Voigt Hill
#
# Bulk Modulus (GPa) = 37.57102 47.49896 42.53499
# Shear Modulus (GPa) = 36.79006 9.75805 23.27405
#
# Velocity S-wave (km/s) = 3.85863 1.98723 3.06905
# Velocity P-wave (km/s) = 5.92090 4.94857 5.45644
#
# Compressibility (1/GPa) = 0.02661626
#
# Stress axis : x y z
#
# Youngs Moduli (GPa) = 100.78165 57.25629 195.06246
#
# Poissons Ratio (x) = 0.04755 0.14008
# Poissons Ratio (y) = 0.08369 0.27317
# Poissons Ratio (z) = 0.07238 0.08018
#
# Static dielectric constant tensor:
#      x y z
#    x 2.077840 0.000000 -0.028020 
#    y 0.000000 2.098780 0.000000 
#    z -0.028020 0.000000 1.741340 
# 
# From -- ./inp_files/48823.got.cif
#   From: 2010.05.17/outbox.cif.g08.bks.cpg/sg13_25_cif.got.tgz:48823.got - 2010.06.03 16:44:36.
