data_PCOD9237207
_publ_section_title
;
Structure prediction by ZEFSAII (Michael W. Deem and Ramdas Pophale) SiO2 
 PCOD9237207
Probable space group: P 2/C
;
_chemical_formula_sum "Si O2"
_cell_formula_units_Z 24
_cell_length_a 16.025764
_cell_length_b 7.496325
_cell_length_c 14.173758
_cell_angle_alpha 90.000000
_cell_angle_beta 137.621078
_cell_angle_gamma 90.000000
_cell_volume 1147.709106
_symmetry_space_group_name_H-M "P 2/C"
_symmetry_group_IT_number 13
_symmetry_cell_setting 'monoclinic'
loop_
_space_group_symop_operation_xyz
x,y,z
-x,y,1/2-z
-x,-y,-z
x,-y,1/2+z
loop_
_atom_site_type_symbol
_atom_site_label
_atom_site_fract_x
_atom_site_fract_y
_atom_site_fract_z
Si Si1 0.465089 0.556285 0.331474
Si Si2 0.749417 0.279625 0.306994
Si Si3 0.400028 0.953936 0.299068
Si Si4 0.861836 0.714248 0.101453
Si Si5 0.739953 0.602219 0.602886
Si Si6 0.330603 0.992092 0.020342
O O1 0.500000 0.582236 0.250000
O O2 0.371331 0.392510 0.260817
O O3 0.403569 0.741037 0.316008
O O4 0.597993 0.530727 0.492203
O O5 0.841073 0.269794 0.471716
O O6 0.797510 0.379273 0.254597
O O7 0.698508 0.084024 0.234633
O O8 0.367691 0.985111 0.161625
O O9 0.541605 0.018735 0.429537
O O10 0.817639 0.520931 0.099057
O O11 0.000000 0.749198 0.250000
O O12 0.767766 0.852394 0.071890
O O13 0.724479 0.799733 0.548906
#
# Coordination Sequence:
#
# PCOD9237207 Si02
#       6
#     4   4   4   4   4   4
#     4  11  18  34  60  91 120 147 177 224 289 352
#     4  11  23  35  60  88 115 151 188 227 284 343
#     4   9  17  33  57  83 116 147 178 221 282 343
#     4  11  24  41  59  78 111 156 197 240 280 320
#     4  11  22  38  59  89 116 146 187 234 284 343
#     4   9  18  35  57  81 112 148 183 227 280 336
#
# _framework density 20.911221999999999
#
# number of rings (size 3 to 8) (size 9 to 14) (size 15 to 20)
#    0.000    1.667    5.000    1.500    2.333    5.333 
#    0.000    0.833    0.000    0.000    0.000    0.000 
#    0.000    0.000    0.000    0.000    0.000    0.000 
#
# Total GULP energy -134138.145618 kJ/mol
# GULP energy per Si atom -5589.089401 kJ/mol
# Density = 2.086363 g / cm^3
# Si number density = 20.911222 Si / 1000 Ang^3
#
#
#
# Elastic Constant Matrix: (Units=GPa)
#
#
# Indices 1 2 3 4 5 6 
#
# 1 26.5179 12.8477 26.1437 0.0000 -8.8470 0.0000
# 2 12.8477 79.8639 33.7512 0.0000 6.1521 0.0000
# 3 26.1437 33.7512 136.8598 0.0000 -5.8569 0.0000
# 4 0.0000 0.0000 0.0000 19.5688 0.0000 -5.0986
# 5 -8.8470 6.1521 -5.8569 0.0000 17.6753 0.0000
# 6 0.0000 0.0000 0.0000 -5.0986 0.0000 12.2828
#
#
#
# Elastic Compliance Matrix: (Units=1/GPa)
#
#
# Indices 1 2 3 4 5 6 
#
# 1 0.059890 -0.008576 -0.008029 0.000000 0.030301 0.000000
# 2 -0.008576 0.015884 -0.002738 0.000000 -0.010728 0.000000
# 3 -0.008029 -0.002738 0.009520 0.000000 0.000089 0.000000
# 4 0.000000 0.000000 0.000000 0.057299 0.000000 0.023785
# 5 0.030301 -0.010728 0.000089 0.000000 0.075506 0.000000
# 6 0.000000 0.000000 0.000000 0.023785 0.000000 0.091288
#
#
# Mechanical properties :
#
#
# Convention : Reuss Voigt Hill
#
# Bulk Modulus (GPa) = 21.45533 43.19186 32.32359
# Shear Modulus (GPa) = 13.75106 21.27198 17.51152
#
# Velocity S-wave (km/s) = 2.56714 3.19290 2.89696
# Velocity P-wave (km/s) = 4.36685 5.85598 5.16536
#
# Compressibility (1/GPa) = 0.04660847
#
# Stress axis : x y z
#
# Youngs Moduli (GPa) = 16.69731 62.95450 105.04676
#
# Poissons Ratio (x) = 0.53987 0.84341
# Poissons Ratio (y) = 0.14319 0.28765
# Poissons Ratio (z) = 0.13406 0.17239
#
# Static dielectric constant tensor:
#      x y z
#    x 1.782660 0.000000 -0.065760 
#    y 0.000000 1.742820 0.000000 
#    z -0.065760 0.000000 1.762680 
# 
# From -- ./inp_files/70422.got.cif
#   From: 2010.05.17/outbox.cif.g08.bks.cpg/sg13_36_cif.got.tgz:70422.got - 2010.06.03 16:44:36.
