data_PCOD9237232
_publ_section_title
;
Structure prediction by ZEFSAII (Michael W. Deem and Ramdas Pophale) SiO2 
 PCOD9237232
Probable space group: P 2/C
;
_chemical_formula_sum "Si O2"
_cell_formula_units_Z 24
_cell_length_a 12.156460
_cell_length_b 11.002340
_cell_length_c 9.510760
_cell_angle_alpha 90.000000
_cell_angle_beta 106.708719
_cell_angle_gamma 90.000000
_cell_volume 1218.351518
_symmetry_space_group_name_H-M "P 2/C"
_symmetry_group_IT_number 13
_symmetry_cell_setting 'monoclinic'
loop_
_space_group_symop_operation_xyz
x,y,z
-x,y,1/2-z
-x,-y,-z
x,-y,1/2+z
loop_
_atom_site_type_symbol
_atom_site_label
_atom_site_fract_x
_atom_site_fract_y
_atom_site_fract_z
Si Si1 0.127960 0.619370 0.353958
Si Si2 0.406490 0.305898 0.590940
Si Si3 0.722916 0.151311 0.594135
Si Si4 0.447532 0.662363 0.598154
Si Si5 0.371256 0.040921 0.654866
Si Si6 0.752256 0.489531 0.863675
O O1 0.165870 0.761482 0.366908
O O2 0.150206 0.561208 0.515038
O O3 0.209705 0.539799 0.280027
O O4 0.000000 0.607767 0.250000
O O5 0.500000 0.325216 0.750000
O O6 0.450036 0.373752 0.467659
O O7 0.393717 0.161420 0.568595
O O8 0.283545 0.358464 0.589274
O O9 0.625729 0.252359 0.529324
O O10 0.696644 0.085723 0.731427
O O11 0.701401 0.055957 0.460518
O O12 0.500000 0.731370 0.750000
O O13 0.363625 0.565533 0.641638
O O14 0.500000 0.002427 0.750000
#
# Coordination Sequence:
#
# PCOD9237232 Si02
#       6
#     4   4   4   4   4   4
#     4  11  24  44  64  85 114 156 210 263 307 342
#     4  11  19  35  57  89 128 165 188 229 294 369
#     4  11  23  39  58  87 118 162 200 248 291 351
#     4  11  21  32  54  94 126 159 191 228 293 374
#     4  11  21  37  61  86 128 161 195 231 295 367
#     4  11  21  39  62  86 122 156 195 248 303 359
#
# _framework density 19.69875
#
# number of rings (size 3 to 8) (size 9 to 14) (size 15 to 20)
#    0.000    1.000    5.000    4.500    2.333    0.000 
#    0.000    0.833    0.000    0.000    0.000    0.000 
#    0.000    0.000    0.000    0.000    0.000    0.000 
#
# Total GULP energy -133835.572141 kJ/mol
# GULP energy per Si atom -5576.482173 kJ/mol
# Density = 1.965391 g / cm^3
# Si number density = 19.698750 Si / 1000 Ang^3
#
#
#
# Elastic Constant Matrix: (Units=GPa)
#
#
# Indices 1 2 3 4 5 6 
#
# 1 41.5094 20.8945 12.6594 0.0000 8.4816 0.0000
# 2 20.8945 98.5837 34.2278 0.0000 1.5850 0.0000
# 3 12.6594 34.2278 98.1235 0.0000 -8.5093 0.0000
# 4 0.0000 0.0000 0.0000 26.6926 0.0000 7.2845
# 5 8.4816 1.5850 -8.5093 0.0000 24.2016 0.0000
# 6 0.0000 0.0000 0.0000 7.2845 0.0000 20.6006
#
#
#
# Elastic Compliance Matrix: (Units=1/GPa)
#
#
# Indices 1 2 3 4 5 6 
#
# 1 0.029875 -0.005093 -0.003050 0.000000 -0.011209 0.000000
# 2 -0.005093 0.012529 -0.003744 0.000000 -0.000352 0.000000
# 3 -0.003050 -0.003744 0.012382 0.000000 0.005668 0.000000
# 4 0.000000 0.000000 0.000000 0.041465 0.000000 -0.014662
# 5 -0.011209 -0.000352 0.005668 0.000000 0.047264 0.000000
# 6 0.000000 0.000000 0.000000 -0.014662 0.000000 0.053727
#
#
# Mechanical properties :
#
#
# Convention : Reuss Voigt Hill
#
# Bulk Modulus (GPa) = 32.24473 41.53111 36.88792
# Shear Modulus (GPa) = 21.61215 25.66128 23.63671
#
# Velocity S-wave (km/s) = 3.31589 3.61319 3.46773
# Velocity P-wave (km/s) = 5.57357 6.20772 5.89917
#
# Compressibility (1/GPa) = 0.03101282
#
# Stress axis : x y z
#
# Youngs Moduli (GPa) = 33.47291 79.81782 80.76162
#
# Poissons Ratio (x) = 0.40649 0.24631
# Poissons Ratio (y) = 0.17047 0.30235
# Poissons Ratio (z) = 0.10209 0.29882
#
# Static dielectric constant tensor:
#      x y z
#    x 1.713220 0.000000 -0.005280 
#    y 0.000000 1.736240 0.000000 
#    z -0.005280 0.000000 1.723900 
# 
# From -- ./inp_files/15886.got.cif
#   From: 2010.05.17/outbox.cif.g08.bks.cpg/sg13_8_cif.got.tgz:15886.got - 2010.06.03 16:44:36.
