data_PCOD9237166
_publ_section_title
;
Structure prediction by ZEFSAII (Michael W. Deem and Ramdas Pophale) SiO2 
 PCOD9237166
Probable space group: P 2/C
;
_chemical_formula_sum "Si O2"
_cell_formula_units_Z 18
_cell_length_a 5.160474
_cell_length_b 4.839816
_cell_length_c 26.760406
_cell_angle_alpha 90.000000
_cell_angle_beta 72.741603
_cell_angle_gamma 90.000000
_cell_volume 638.269095
_symmetry_space_group_name_H-M "P 2/C"
_symmetry_group_IT_number 13
_symmetry_cell_setting 'monoclinic'
loop_
_space_group_symop_operation_xyz
x,y,z
-x,y,1/2-z
-x,-y,-z
x,-y,1/2+z
loop_
_atom_site_type_symbol
_atom_site_label
_atom_site_fract_x
_atom_site_fract_y
_atom_site_fract_z
Si Si1 0.767950 0.789013 0.210737
Si Si2 0.137638 0.087157 0.389703
Si Si3 0.000000 0.320409 0.250000
Si Si4 0.594605 0.642529 0.914241
Si Si5 0.825660 0.738669 0.480617
O O1 0.500000 0.657398 0.250000
O O2 0.738738 0.868135 0.154962
O O3 0.004795 0.561978 0.206412
O O4 0.805250 0.084478 0.236943
O O5 0.039669 0.964114 0.448583
O O6 0.359464 0.322958 0.387281
O O7 0.857524 0.191409 0.382542
O O8 0.711686 0.369339 0.933016
O O9 0.445772 0.774781 0.971411
O O10 0.000000 0.500000 0.500000
#
# Coordination Sequence:
#
# PCOD9237166 Si02
#       5
#     4   4   2   4   4
#     4  11  27  51  79 110 155 196 260 327 396 466
#     4  12  28  43  75 105 146 198 251 313 382 463
#     4  10  26  52  78 108 148 198 254 324 400 458
#     4  11  26  45  68 105 150 193 247 300 377 447
#     4  11  25  45  71 106 154 198 246 317 368 460
#
# _framework density 28.201270999999998
#
# number of rings (size 3 to 8) (size 9 to 14) (size 15 to 20)
#    0.000    0.889    2.222    2.000   15.556    0.000 
#    4.000    0.000    0.000    0.000    0.000    0.000 
#    0.000    0.000    0.000    0.000    0.000    0.000 
#
# Total GULP energy -100472.943739 kJ/mol
# GULP energy per Si atom -5581.830208 kJ/mol
# Density = 2.813708 g / cm^3
# Si number density = 28.201271 Si / 1000 Ang^3
#
#
#
# Elastic Constant Matrix: (Units=GPa)
#
#
# Indices 1 2 3 4 5 6 
#
# 1 142.5889 37.9814 22.1910 0.0000 3.8484 0.0000
# 2 37.9814 151.5418 17.2117 0.0000 9.1427 0.0000
# 3 22.1910 17.2117 99.3620 0.0000 -11.6601 0.0000
# 4 0.0000 0.0000 0.0000 35.5081 0.0000 -10.8427
# 5 3.8484 9.1427 -11.6601 0.0000 34.9672 0.0000
# 6 0.0000 0.0000 0.0000 -10.8427 0.0000 14.9893
#
#
#
# Elastic Compliance Matrix: (Units=1/GPa)
#
#
# Indices 1 2 3 4 5 6 
#
# 1 0.007732 -0.001708 -0.001539 0.000000 -0.000918 0.000000
# 2 -0.001708 0.007281 -0.001125 0.000000 -0.002091 0.000000
# 3 -0.001539 -0.001125 0.011091 0.000000 0.004162 0.000000
# 4 0.000000 0.000000 0.000000 0.036147 0.000000 0.026147
# 5 -0.000918 -0.002091 0.004162 0.000000 0.030634 0.000000
# 6 0.000000 0.000000 0.000000 0.026147 0.000000 0.085628
#
#
# Mechanical properties :
#
#
# Convention : Reuss Voigt Hill
#
# Bulk Modulus (GPa) = 57.60086 60.91788 59.25937
# Shear Modulus (GPa) = 25.90087 38.16683 32.03385
#
# Velocity S-wave (km/s) = 3.03385 3.68281 3.37397
# Velocity P-wave (km/s) = 5.72202 6.30334 6.01971
#
# Compressibility (1/GPa) = 0.01736085
#
# Stress axis : x y z
#
# Youngs Moduli (GPa) = 129.32720 137.34706 90.16180
#
# Poissons Ratio (x) = 0.23457 0.13873
# Poissons Ratio (y) = 0.22087 0.10145
# Poissons Ratio (z) = 0.19900 0.15454
#
# Static dielectric constant tensor:
#      x y z
#    x 2.168760 0.000000 0.080200 
#    y 0.000000 2.260690 0.000000 
#    z 0.080200 0.000000 2.272960 
# 
# From -- ./inp_files/89797.got.cif
#   From: 2010.05.17/outbox.cif.g08.bks.cpg/sg13_45_cif.got.tgz:89797.got - 2010.06.03 16:44:36.
