data_PCOD9237098
_publ_section_title
;
Structure prediction by ZEFSAII (Michael W. Deem and Ramdas Pophale) SiO2 
 PCOD9237098
Probable space group: P 2/C
;
_chemical_formula_sum "Si O2"
_cell_formula_units_Z 18
_cell_length_a 8.461565
_cell_length_b 10.304376
_cell_length_c 9.812082
_cell_angle_alpha 90.000000
_cell_angle_beta 124.265300
_cell_angle_gamma 90.000000
_cell_volume 707.040988
_symmetry_space_group_name_H-M "P 2/C"
_symmetry_group_IT_number 13
_symmetry_cell_setting 'monoclinic'
loop_
_space_group_symop_operation_xyz
x,y,z
-x,y,1/2-z
-x,-y,-z
x,-y,1/2+z
loop_
_atom_site_type_symbol
_atom_site_label
_atom_site_fract_x
_atom_site_fract_y
_atom_site_fract_z
Si Si1 0.000000 0.811509 0.750000
Si Si2 0.810388 0.548622 0.240548
Si Si3 0.300217 0.650043 0.580951
Si Si4 0.733126 0.077696 0.356599
Si Si5 0.269932 0.222634 0.609071
O O1 0.849890 0.889560 0.774719
O O2 0.841745 0.734299 0.582582
O O3 0.792953 0.442508 0.350276
O O4 0.816407 0.686332 0.318641
O O5 0.000000 0.526803 0.250000
O O6 0.668469 0.576082 0.045140
O O7 0.500000 0.673358 0.750000
O O8 0.217600 0.796272 0.526602
O O9 0.500000 0.070521 0.250000
O O10 0.782289 0.929564 0.414534
O O11 0.500000 0.235524 0.750000
#
# Coordination Sequence:
#
# PCOD9237098 Si02
#       5
#     2   4   4   4   4
#     4  12  26  46  80 108 166 196 266 314 404 452
#     4  12  27  47  73 111 153 198 264 317 392 471
#     4  11  26  47  75 106 152 202 256 320 392 465
#     4  10  26  46  76 115 152 208 263 321 391 471
#     4  11  28  48  78 114 154 207 259 322 394 469
#
# _framework density 25.458214999999999
#
# number of rings (size 3 to 8) (size 9 to 14) (size 15 to 20)
#    0.000    0.889    0.000    4.000   15.556    1.778 
#    0.000    0.000    0.000    0.000    0.000    0.000 
#    0.000    0.000    0.000    0.000    0.000    0.000 
#
# Total GULP energy -100352.052936 kJ/mol
# GULP energy per Si atom -5575.114052 kJ/mol
# Density = 2.540027 g / cm^3
# Si number density = 25.458215 Si / 1000 Ang^3
#
#
#
# Elastic Constant Matrix: (Units=GPa)
#
#
# Indices 1 2 3 4 5 6 
#
# 1 113.9499 61.1765 37.1843 0.0000 -1.5429 0.0000
# 2 61.1765 194.9626 46.5545 0.0000 -7.4764 0.0000
# 3 37.1843 46.5545 157.2718 0.0000 -1.6805 0.0000
# 4 0.0000 0.0000 0.0000 334.3745 0.0000 285.7664
# 5 -1.5429 -7.4764 -1.6805 0.0000 31.8309 0.0000
# 6 0.0000 0.0000 0.0000 285.7664 0.0000 300.0494
#
#
#
# Elastic Compliance Matrix: (Units=1/GPa)
#
#
# Indices 1 2 3 4 5 6 
#
# 1 0.010959 -0.003045 -0.001693 0.000000 -0.000273 0.000000
# 2 -0.003045 0.006412 -0.001164 0.000000 0.001297 0.000000
# 3 -0.001693 -0.001164 0.007103 0.000000 0.000020 0.000000
# 4 0.000000 0.000000 0.000000 0.016074 0.000000 -0.015309
# 5 -0.000273 0.001297 0.000020 0.000000 0.031708 0.000000
# 6 0.000000 0.000000 0.000000 -0.015309 0.000000 0.017913
#
#
# Mechanical properties :
#
#
# Convention : Reuss Voigt Hill
#
# Bulk Modulus (GPa) = 78.92074 84.00167 81.46121
# Shear Modulus (GPa) = 47.08135 154.66890 100.87512
#
# Velocity S-wave (km/s) = 4.30508 7.80294 6.30157
# Velocity P-wave (km/s) = 7.46854 10.68872 9.22030
#
# Compressibility (1/GPa) = 0.01267094
#
# Stress axis : x y z
#
# Youngs Moduli (GPa) = 91.24663 155.94558 140.77590
#
# Poissons Ratio (x) = 0.47488 0.23829
# Poissons Ratio (y) = 0.27786 0.16391
# Poissons Ratio (z) = 0.15445 0.18157
#
# Static dielectric constant tensor:
#      x y z
#    x 1.966720 0.000000 0.122710 
#    y 0.000000 2.035910 0.000000 
#    z 0.122710 0.000000 2.117250 
# 
# From -- ./inp_files/11943.got.cif
#   From: 2010.05.17/outbox.cif.g08.bks.cpg/sg13_6_cif.got.tgz:11943.got - 2010.06.03 16:44:36.
