data_PCOD9237237
_publ_section_title
;
Structure prediction by ZEFSAII (Michael W. Deem and Ramdas Pophale) SiO2 
 PCOD9237237
Probable space group: P 2/C
;
_chemical_formula_sum "Si O2"
_cell_formula_units_Z 28
_cell_length_a 13.066452
_cell_length_b 9.199306
_cell_length_c 17.072864
_cell_angle_alpha 90.000000
_cell_angle_beta 137.061205
_cell_angle_gamma 90.000000
_cell_volume 1397.991147
_symmetry_space_group_name_H-M "P 2/C"
_symmetry_group_IT_number 13
_symmetry_cell_setting 'monoclinic'
loop_
_space_group_symop_operation_xyz
x,y,z
-x,y,1/2-z
-x,-y,-z
x,-y,1/2+z
loop_
_atom_site_type_symbol
_atom_site_label
_atom_site_fract_x
_atom_site_fract_y
_atom_site_fract_z
Si Si1 0.322331 0.672612 0.912442
Si Si2 0.970237 0.719910 0.943049
Si Si3 0.867604 0.509530 0.080984
Si Si4 0.101764 0.749765 0.188370
Si Si5 0.597187 0.579627 0.157193
Si Si6 0.112646 0.919433 0.741887
Si Si7 0.657683 0.603157 0.834635
O O1 0.181454 0.584998 0.871927
O O2 0.393451 0.574187 0.883659
O O3 0.261085 0.825412 0.846369
O O4 0.451693 0.671500 0.050859
O O5 0.956770 0.852336 0.875952
O O6 0.801736 0.677774 0.875559
O O7 0.042972 0.588823 0.932964
O O8 0.062955 0.752909 0.073440
O O9 0.966958 0.652824 0.148359
O O10 0.714963 0.559964 0.952423
O O11 0.255926 0.665508 0.286534
O O12 0.123448 0.909244 0.234923
O O13 0.618788 0.536283 0.259362
O O14 0.000000 0.893475 0.750000
O O15 0.500000 0.688339 0.750000
#
# Coordination Sequence:
#
# PCOD9237237 Si02
#       7
#     4   4   4   4   4   4   4
#     4  11  24  39  63  94 129 166 202 265 320 384
#     4  11  21  42  65  92 120 165 213 264 312 372
#     4  11  20  37  68  95 118 155 225 268 309 373
#     4  11  24  39  64  93 124 168 214 264 309 382
#     4  11  22  40  64  93 126 164 209 259 320 373
#     4  12  25  40  62  93 133 168 207 255 327 383
#     4  11  19  35  65  97 120 157 210 269 315 367
#
# _framework density 20.028739999999999
#
# number of rings (size 3 to 8) (size 9 to 14) (size 15 to 20)
#    0.000    0.857    7.143    1.286    2.000    0.571 
#    0.000    0.000    6.286    0.000    0.000    0.000 
#    0.000    0.000    0.000    0.000    0.000    0.000 
#
# Total GULP energy -156401.287611 kJ/mol
# GULP energy per Si atom -5585.760272 kJ/mol
# Density = 1.998315 g / cm^3
# Si number density = 20.028740 Si / 1000 Ang^3
#
#
#
# Elastic Constant Matrix: (Units=GPa)
#
#
# Indices 1 2 3 4 5 6 
#
# 1 66.7999 13.2692 15.3041 0.0000 7.0898 0.0000
# 2 13.2692 103.8325 47.3630 0.0000 9.6245 0.0000
# 3 15.3041 47.3630 99.8101 0.0000 11.0762 0.0000
# 4 0.0000 0.0000 0.0000 20.8958 0.0000 -9.7231
# 5 7.0898 9.6245 11.0762 0.0000 37.6446 0.0000
# 6 0.0000 0.0000 0.0000 -9.7231 0.0000 13.4221
#
#
#
# Elastic Compliance Matrix: (Units=1/GPa)
#
#
# Indices 1 2 3 4 5 6 
#
# 1 0.015798 -0.001048 -0.001680 0.000000 -0.002213 0.000000
# 2 -0.001048 0.012441 -0.005594 0.000000 -0.001337 0.000000
# 3 -0.001680 -0.005594 0.013167 0.000000 -0.002128 0.000000
# 4 0.000000 0.000000 0.000000 0.072190 0.000000 0.052295
# 5 -0.002213 -0.001337 -0.002128 0.000000 0.027949 0.000000
# 6 0.000000 0.000000 0.000000 0.052295 0.000000 0.112387
#
#
# Mechanical properties :
#
#
# Convention : Reuss Voigt Hill
#
# Bulk Modulus (GPa) = 40.38335 46.92391 43.65363
# Shear Modulus (GPa) = 17.93214 27.35957 22.64585
#
# Velocity S-wave (km/s) = 2.99544 3.69997 3.36619
# Velocity P-wave (km/s) = 5.67186 6.46005 6.07874
#
# Compressibility (1/GPa) = 0.02476268
#
# Stress axis : x y z
#
# Youngs Moduli (GPa) = 63.29963 80.38179 75.94508
#
# Poissons Ratio (x) = 0.08421 0.12756
# Poissons Ratio (y) = 0.06631 0.42487
# Poissons Ratio (z) = 0.10632 0.44969
#
# Static dielectric constant tensor:
#      x y z
#    x 1.758660 0.000000 -0.008740 
#    y 0.000000 1.685290 0.000000 
#    z -0.008740 0.000000 1.759960 
# 
# From -- ./inp_files/68238.got.cif
#   From: 2010.05.17/outbox.cif.g08.bks.cpg/sg13_35_cif.got.tgz:68238.got - 2010.06.03 16:44:36.
