data_PCOD9237671
_publ_section_title
;
Structure prediction by ZEFSAII (Michael W. Deem and Ramdas Pophale) SiO2 
 PCOD9237671
Probable space group: P 2/C
;
_chemical_formula_sum "Si O2"
_cell_formula_units_Z 22
_cell_length_a 11.567547
_cell_length_b 13.368316
_cell_length_c 11.845011
_cell_angle_alpha 90.000000
_cell_angle_beta 149.318485
_cell_angle_gamma 90.000000
_cell_volume 934.651344
_symmetry_space_group_name_H-M "P 2/C"
_symmetry_group_IT_number 13
_symmetry_cell_setting 'monoclinic'
loop_
_space_group_symop_operation_xyz
x,y,z
-x,y,1/2-z
-x,-y,-z
x,-y,1/2+z
loop_
_atom_site_type_symbol
_atom_site_label
_atom_site_fract_x
_atom_site_fract_y
_atom_site_fract_z
Si Si1 0.791850 0.863750 0.868367
Si Si2 0.000000 0.741978 0.250000
Si Si3 0.500000 0.231454 0.750000
Si Si4 0.852248 0.938120 0.518098
Si Si5 0.636125 0.416759 0.474526
Si Si6 0.657051 0.315365 0.106060
Si Si7 0.000000 0.588478 0.750000
O O1 0.647475 0.784038 0.675605
O O2 0.987988 0.897339 0.947018
O O3 0.884826 0.806646 0.055950
O O4 0.705625 0.970708 0.842504
O O5 0.820222 0.667935 0.157281
O O6 0.291494 0.156189 0.564069
O O7 0.490592 0.296485 0.629675
O O8 0.000000 0.973041 0.750000
O O9 0.446135 0.407019 0.410928
O O10 0.782473 0.514439 0.562442
O O11 0.500000 0.385663 0.250000
O O12 0.913829 0.341410 0.280407
#
# Coordination Sequence:
#
# PCOD9237671 Si02
#       7
#     4   2   2   4   4   4   2
#     4  11  23  43  72  98 144 188 227 288 340 414
#     4  11  22  44  69 104 140 186 229 286 348 417
#     4  12  26  44  72 102 140 188 230 286 340 416
#     4  11  23  43  66 104 143 182 235 282 343 403
#     4  11  25  46  72 107 139 179 232 292 359 421
#     4  12  25  48  73 103 141 188 238 282 356 423
#     4  11  28  48  73 104 138 182 233 304 352 419
#
# _framework density 23.538188000000002
#
# number of rings (size 3 to 8) (size 9 to 14) (size 15 to 20)
#    0.000    0.727    4.545    2.727    1.273    2.909 
#    0.000    0.000    0.000    0.000    0.000    0.000 
#    0.000    0.000    0.000    0.000    0.000    0.000 
#
# Total GULP energy -122861.356462 kJ/mol
# GULP energy per Si atom -5584.607112 kJ/mol
# Density = 2.348461 g / cm^3
# Si number density = 23.538188 Si / 1000 Ang^3
#
#
#
# Elastic Constant Matrix: (Units=GPa)
#
#
# Indices 1 2 3 4 5 6 
#
# 1 121.4123 22.1849 23.4595 0.0000 -2.4042 0.0000
# 2 22.1849 103.5384 19.7313 0.0000 -6.7704 0.0000
# 3 23.4595 19.7313 50.1644 0.0000 -19.6295 0.0000
# 4 0.0000 0.0000 0.0000 28.0634 0.0000 4.5816
# 5 -2.4042 -6.7704 -19.6295 0.0000 49.7650 0.0000
# 6 0.0000 0.0000 0.0000 4.5816 0.0000 5.6343
#
#
#
# Elastic Compliance Matrix: (Units=1/GPa)
#
#
# Indices 1 2 3 4 5 6 
#
# 1 0.009290 -0.001242 -0.004430 0.000000 -0.001468 0.000000
# 2 -0.001242 0.010609 -0.003608 0.000000 -0.000040 0.000000
# 3 -0.004430 -0.003608 0.027375 0.000000 0.010093 0.000000
# 4 0.000000 0.000000 0.000000 0.041088 0.000000 -0.033411
# 5 -0.001468 -0.000040 0.010093 0.000000 0.023999 0.000000
# 6 0.000000 0.000000 0.000000 -0.033411 0.000000 0.204654
#
#
# Mechanical properties :
#
#
# Convention : Reuss Voigt Hill
#
# Bulk Modulus (GPa) = 34.82623 45.09629 39.96126
# Shear Modulus (GPa) = 14.48654 30.67516 22.58085
#
# Velocity S-wave (km/s) = 2.48351 3.61391 3.10066
# Velocity P-wave (km/s) = 4.80120 6.05097 5.46195
#
# Compressibility (1/GPa) = 0.02871399
#
# Stress axis : x y z
#
# Youngs Moduli (GPa) = 107.63834 94.25656 36.53015
#
# Poissons Ratio (x) = 0.11710 0.16184
# Poissons Ratio (y) = 0.13372 0.13178
# Poissons Ratio (z) = 0.47687 0.34003
#
# Static dielectric constant tensor:
#      x y z
#    x 1.885870 0.000000 0.022050 
#    y 0.000000 1.920700 0.000000 
#    z 0.022050 0.000000 1.854410 
# 
# From -- ./inp_files/34649.got.cif
#   From: 2010.05.17/outbox.cif.g08.bks.cpg/sg13_18_cif.got.tgz:34649.got - 2010.06.03 16:44:36.
