data_PCOD9237224
_publ_section_title
;
Structure prediction by ZEFSAII (Michael W. Deem and Ramdas Pophale) SiO2 
 PCOD9237224
Probable space group: P 2/C
;
_chemical_formula_sum "Si O2"
_cell_formula_units_Z 32
_cell_length_a 21.118197
_cell_length_b 10.993592
_cell_length_c 9.726574
_cell_angle_alpha 90.000000
_cell_angle_beta 48.894901
_cell_angle_gamma 90.000000
_cell_volume 1701.541009
_symmetry_space_group_name_H-M "P 2/C"
_symmetry_group_IT_number 13
_symmetry_cell_setting 'monoclinic'
loop_
_space_group_symop_operation_xyz
x,y,z
-x,y,1/2-z
-x,-y,-z
x,-y,1/2+z
loop_
_atom_site_type_symbol
_atom_site_label
_atom_site_fract_x
_atom_site_fract_y
_atom_site_fract_z
Si Si1 0.934404 0.621698 0.234183
Si Si2 0.321224 0.723561 0.198330
Si Si3 0.443379 0.512732 0.950111
Si Si4 0.039430 0.330540 0.332657
Si Si5 0.768558 0.680049 0.884571
Si Si6 0.508239 0.124561 0.072262
Si Si7 0.249803 0.388133 0.547578
Si Si8 0.361985 0.707231 0.649116
O O1 0.946304 0.475782 0.208778
O O2 0.837569 0.640112 0.403501
O O3 0.000000 0.669100 0.250000
O O4 0.965368 0.677927 0.048427
O O5 0.273193 0.719309 0.410809
O O6 0.259589 0.712614 0.154646
O O7 0.368323 0.597178 0.100371
O O8 0.398633 0.818252 0.085290
O O9 0.500000 0.566400 0.750000
O O10 0.500000 0.500000 0.000000
O O11 0.410476 0.378236 0.969589
O O12 0.131985 0.289364 0.249368
O O13 0.000000 0.278127 0.250000
O O14 0.758278 0.530242 0.891807
O O15 0.718360 0.743279 0.829853
O O16 0.500000 0.111806 0.250000
O O17 0.431785 0.205798 0.117715
O O18 0.500000 0.000000 0.000000
O O19 0.324268 0.369198 0.331713
#
# Coordination Sequence:
#
# PCOD9237224 Si02
#       8
#     4   4   4   4   4   4   4   4
#     4   9  17  28  47  70 113 164 193 218 262 325
#     4  12  22  36  56  82 115 147 194 236 281 332
#     4  12  21  32  53  80 111 149 184 229 282 333
#     4   9  17  30  44  72 117 163 195 215 257 327
#     4  11  21  31  54  89 119 156 193 229 276 333
#     4  12  29  47  63  78 107 149 191 239 292 344
#     4  11  19  34  53  84 120 155 194 234 276 329
#     4  12  23  36  57  83 116 144 195 241 277 333
#
# _framework density 18.806481000000002
#
# number of rings (size 3 to 8) (size 9 to 14) (size 15 to 20)
#    0.000    1.000    5.000    3.375    1.750    4.000 
#    0.000    0.000    0.000    0.000    0.000    0.000 
#    0.000   20.000    0.000    0.000    0.000    0.000 
#
# Total GULP energy -178223.458263 kJ/mol
# GULP energy per Si atom -5569.483071 kJ/mol
# Density = 1.876368 g / cm^3
# Si number density = 18.806481 Si / 1000 Ang^3
#
#
#
# Elastic Constant Matrix: (Units=GPa)
#
#
# Indices 1 2 3 4 5 6 
#
# 1 111.3931 18.2687 2.2264 0.0000 -10.3021 0.0000
# 2 18.2687 48.8940 9.5799 0.0000 -8.1388 0.0000
# 3 2.2264 9.5799 52.5996 0.0000 -10.9389 0.0000
# 4 0.0000 0.0000 0.0000 12.0783 0.0000 5.3373
# 5 -10.3021 -8.1388 -10.9389 0.0000 35.5532 0.0000
# 6 0.0000 0.0000 0.0000 5.3373 0.0000 9.9590
#
#
#
# Elastic Compliance Matrix: (Units=1/GPa)
#
#
# Indices 1 2 3 4 5 6 
#
# 1 0.009728 -0.003392 0.000674 0.000000 0.002250 0.000000
# 2 -0.003392 0.022916 -0.003358 0.000000 0.003230 0.000000
# 3 0.000674 -0.003358 0.020807 0.000000 0.005828 0.000000
# 4 0.000000 0.000000 0.000000 0.108485 0.000000 -0.058140
# 5 0.002250 0.003230 0.005828 0.000000 0.031311 0.000000
# 6 0.000000 0.000000 0.000000 -0.058140 0.000000 0.131570
#
#
# Mechanical properties :
#
#
# Convention : Reuss Voigt Hill
#
# Bulk Modulus (GPa) = 24.21494 30.33741 27.27617
# Shear Modulus (GPa) = 14.25574 23.70555 18.98064
#
# Velocity S-wave (km/s) = 2.75621 3.55420 3.18033
# Velocity P-wave (km/s) = 4.79924 5.74539 5.29350
#
# Compressibility (1/GPa) = 0.04129683
#
# Stress axis : x y z
#
# Youngs Moduli (GPa) = 102.79436 43.63849 48.06128
#
# Poissons Ratio (x) = 0.14804 -0.03239
# Poissons Ratio (y) = 0.34872 0.16141
# Poissons Ratio (z) = -0.06928 0.14655
#
# Static dielectric constant tensor:
#      x y z
#    x 1.703020 0.000000 -0.047300 
#    y 0.000000 1.654540 0.000000 
#    z -0.047300 0.000000 1.426170 
# 
# From -- ./inp_files/23360.got.cif
#   From: 2010.05.17/outbox.cif.g08.bks.cpg/sg13_12_cif.got.tgz:23360.got - 2010.06.03 16:44:36.
