data_PCOD9237230
_publ_section_title
;
Structure prediction by ZEFSAII (Michael W. Deem and Ramdas Pophale) SiO2 
 PCOD9237230
Probable space group: P 2/C
;
_chemical_formula_sum "Si O2"
_cell_formula_units_Z 26
_cell_length_a 15.894543
_cell_length_b 11.441162
_cell_length_c 21.981303
_cell_angle_alpha 90.000000
_cell_angle_beta 16.490472
_cell_angle_gamma 90.000000
_cell_volume 1134.669888
_symmetry_space_group_name_H-M "P 2/C"
_symmetry_group_IT_number 13
_symmetry_cell_setting 'monoclinic'
loop_
_space_group_symop_operation_xyz
x,y,z
-x,y,1/2-z
-x,-y,-z
x,-y,1/2+z
loop_
_atom_site_type_symbol
_atom_site_label
_atom_site_fract_x
_atom_site_fract_y
_atom_site_fract_z
Si Si1 0.500000 0.619620 0.750000
Si Si2 0.553007 0.683616 0.950088
Si Si3 0.115364 0.161678 0.482849
Si Si4 0.563896 0.874702 0.046779
Si Si5 0.006198 0.487259 0.819926
Si Si6 0.198291 0.939168 0.493859
Si Si7 0.381209 0.880349 0.674912
O O1 0.747440 0.710314 0.604392
O O2 0.686981 0.544390 0.570871
O O3 0.599369 0.779469 0.970414
O O4 0.250491 0.611317 0.167746
O O5 0.839229 0.600596 0.756495
O O6 0.499180 0.754157 0.924878
O O7 0.309678 0.102893 0.294961
O O8 0.776079 0.152615 0.697677
O O9 0.140232 0.079312 0.525308
O O10 0.774676 0.882641 0.958708
O O11 0.567446 0.009752 0.022351
O O12 0.000000 0.499432 0.750000
O O13 0.500000 0.912331 0.250000
O O14 0.930756 0.884391 0.642565
#
# Coordination Sequence:
#
# PCOD9237230 Si02
#       7
#     2   4   4   4   4   4   4
#     4  12  22  46  78 102 128 198 244 292 360 414
#     4  11  26  48  65 101 144 183 236 301 354 418
#     4  11  20  38  68 104 142 176 241 289 341 443
#     4  11  21  40  66 100 145 183 219 287 354 433
#     4  11  27  51  73  99 141 183 253 307 345 416
#     4  11  19  34  62 102 143 177 224 278 348 429
#     4  11  22  38  66 104 142 186 221 286 361 434
#
# _framework density 22.914154
#
# number of rings (size 3 to 8) (size 9 to 14) (size 15 to 20)
#    0.000    0.923    5.385    2.308    2.154    0.000 
#    4.154    2.308    0.000    0.000    0.000    0.000 
#    0.000    0.000    0.000    0.000    0.000    0.000 
#
# Total GULP energy -145207.210772 kJ/mol
# GULP energy per Si atom -5584.892722 kJ/mol
# Density = 2.286200 g / cm^3
# Si number density = 22.914154 Si / 1000 Ang^3
#
#
#
# Elastic Constant Matrix: (Units=GPa)
#
#
# Indices 1 2 3 4 5 6 
#
# 1 80.4681 0.0207 12.1532 0.0000 -2.4675 0.0000
# 2 0.0207 97.0337 34.0495 0.0000 14.9198 0.0000
# 3 12.1532 34.0495 71.9536 0.0000 6.1193 0.0000
# 4 0.0000 0.0000 0.0000 26.5036 0.0000 4.4970
# 5 -2.4675 14.9198 6.1193 0.0000 39.7195 0.0000
# 6 0.0000 0.0000 0.0000 4.4970 0.0000 6.7731
#
#
#
# Elastic Compliance Matrix: (Units=1/GPa)
#
#
# Indices 1 2 3 4 5 6 
#
# 1 0.012850 0.000775 -0.002614 0.000000 0.000910 0.000000
# 2 0.000775 0.012995 -0.005947 0.000000 -0.003917 0.000000
# 3 -0.002614 -0.005947 0.017203 0.000000 -0.000579 0.000000
# 4 0.000000 0.000000 0.000000 0.042521 0.000000 -0.028231
# 5 0.000910 -0.003917 -0.000579 0.000000 0.026794 0.000000
# 6 0.000000 0.000000 0.000000 -0.028231 0.000000 0.166387
#
#
# Mechanical properties :
#
#
# Convention : Reuss Voigt Hill
#
# Bulk Modulus (GPa) = 36.39804 37.98915 37.19360
# Shear Modulus (GPa) = 16.47556 28.14803 22.31180
#
# Velocity S-wave (km/s) = 2.68435 3.50867 3.12382
# Velocity P-wave (km/s) = 5.05239 5.74711 5.41091
#
# Compressibility (1/GPa) = 0.02747400
#
# Stress axis : x y z
#
# Youngs Moduli (GPa) = 77.82190 76.95500 58.12982
#
# Poissons Ratio (x) = -0.05962 0.15197
# Poissons Ratio (y) = -0.06029 0.34570
# Poissons Ratio (z) = 0.20346 0.45765
#
# Static dielectric constant tensor:
#      x y z
#    x 1.871150 0.000000 0.030670 
#    y 0.000000 1.896290 0.000000 
#    z 0.030670 0.000000 1.880060 
# 
# From -- ./inp_files/80159.got.cif
#   From: 2010.05.17/outbox.cif.g08.bks.cpg/sg13_41_cif.got.tgz:80159.got - 2010.06.03 16:44:36.
