data_PCOD9237578
_publ_section_title
;
Structure prediction by ZEFSAII (Michael W. Deem and Ramdas Pophale) SiO2 
 PCOD9237578
Probable space group: P 2/C
;
_chemical_formula_sum "Si O2"
_cell_formula_units_Z 28
_cell_length_a 14.430505
_cell_length_b 12.226826
_cell_length_c 8.796944
_cell_angle_alpha 90.000000
_cell_angle_beta 109.408405
_cell_angle_gamma 90.000000
_cell_volume 1463.925153
_symmetry_space_group_name_H-M "P 2/C"
_symmetry_group_IT_number 13
_symmetry_cell_setting 'monoclinic'
loop_
_space_group_symop_operation_xyz
x,y,z
-x,y,1/2-z
-x,-y,-z
x,-y,1/2+z
loop_
_atom_site_type_symbol
_atom_site_label
_atom_site_fract_x
_atom_site_fract_y
_atom_site_fract_z
Si Si1 0.112204 0.316879 0.365982
Si Si2 0.399663 0.902672 0.278570
Si Si3 0.926930 0.446850 0.584773
Si Si4 0.109417 0.053610 0.871516
Si Si5 0.396052 0.142354 0.136159
Si Si6 0.190152 0.756505 0.605833
Si Si7 0.190189 0.852843 0.105261
O O1 0.128280 0.446604 0.380200
O O2 0.181262 0.258364 0.281093
O O3 0.132237 0.257782 0.536051
O O4 0.000000 0.300707 0.250000
O O5 0.500000 0.870664 0.250000
O O6 0.405227 0.887770 0.462940
O O7 0.306655 0.837791 0.162673
O O8 0.381929 0.029714 0.223559
O O9 0.854616 0.355250 0.484896
O O10 0.000000 0.398247 0.750000
O O11 0.000000 0.500000 0.500000
O O12 0.169006 0.099481 0.760403
O O13 0.000000 0.037210 0.750000
O O14 0.120723 0.145080 0.008471
O O15 0.153058 0.943646 0.965804
O O16 0.500000 0.190036 0.250000
O O17 0.300008 0.215213 0.112901
#
# Coordination Sequence:
#
# PCOD9237578 Si02
#       7
#     4   4   4   4   4   4   4
#     4  11  24  40  62  92 125 171 210 258 309 372
#     4  11  22  40  63  93 126 169 207 261 310 376
#     4  11  23  43  65  93 123 164 217 261 310 373
#     4  12  24  37  57  88 131 172 198 252 310 382
#     4  11  24  40  65  94 125 167 211 261 318 377
#     4  12  23  40  66  90 127 163 211 266 314 369
#     4  12  23  39  58  92 129 165 209 247 317 381
#
# _framework density 19.126660999999999
#
# number of rings (size 3 to 8) (size 9 to 14) (size 15 to 20)
#    0.000    0.571    5.714    4.714    6.000    0.000 
#    0.000    0.000    0.000    1.714    0.000    0.000 
#    0.000    0.000    0.000    0.000    0.000    0.000 
#
# Total GULP energy -156570.062499 kJ/mol
# GULP energy per Si atom -5591.787946 kJ/mol
# Density = 1.908313 g / cm^3
# Si number density = 19.126661 Si / 1000 Ang^3
#
#
#
# Elastic Constant Matrix: (Units=GPa)
#
#
# Indices 1 2 3 4 5 6 
#
# 1 105.3681 25.6150 36.3605 0.0000 8.2719 0.0000
# 2 25.6150 76.7927 30.6933 0.0000 5.7900 0.0000
# 3 36.3605 30.6933 85.1123 0.0000 3.5041 0.0000
# 4 0.0000 0.0000 0.0000 25.2040 0.0000 -1.1600
# 5 8.2719 5.7900 3.5041 0.0000 41.2278 0.0000
# 6 0.0000 0.0000 0.0000 -1.1600 0.0000 23.7267
#
#
#
# Elastic Compliance Matrix: (Units=1/GPa)
#
#
# Indices 1 2 3 4 5 6 
#
# 1 0.011548 -0.002081 -0.004114 0.000000 -0.001675 0.000000
# 2 -0.002081 0.015707 -0.004718 0.000000 -0.001387 0.000000
# 3 -0.004114 -0.004718 0.015200 0.000000 0.000196 0.000000
# 4 0.000000 0.000000 0.000000 0.039766 0.000000 0.001944
# 5 -0.001675 -0.001387 0.000196 0.000000 0.024770 0.000000
# 6 0.000000 0.000000 0.000000 0.001944 0.000000 0.042242
#
#
# Mechanical properties :
#
#
# Convention : Reuss Voigt Hill
#
# Bulk Modulus (GPa) = 48.47709 50.29009 49.38359
# Shear Modulus (GPa) = 28.10049 29.67199 28.88624
#
# Velocity S-wave (km/s) = 3.83715 3.94298 3.89042
# Velocity P-wave (km/s) = 6.71058 6.86147 6.78644
#
# Compressibility (1/GPa) = 0.02062830
#
# Stress axis : x y z
#
# Youngs Moduli (GPa) = 86.59843 63.66751 65.79007
#
# Poissons Ratio (x) = 0.13251 0.27064
# Poissons Ratio (y) = 0.18024 0.31039
# Poissons Ratio (z) = 0.35624 0.30037
#
# Static dielectric constant tensor:
#      x y z
#    x 1.701940 0.000000 -0.026860 
#    y 0.000000 1.663420 0.000000 
#    z -0.026860 0.000000 1.716560 
# 
# From -- ./inp_files/18828.got.cif
#   From: 2010.05.17/outbox.cif.g08.bks.cpg/sg13_10_cif.got.tgz:18828.got - 2010.06.03 16:44:36.
