data_PCOD9237739
_publ_section_title
;
Structure prediction by ZEFSAII (Michael W. Deem and Ramdas Pophale) SiO2 
 PCOD9237739
Probable space group: P 2/C
;
_chemical_formula_sum "Si O2"
_cell_formula_units_Z 26
_cell_length_a 19.909294
_cell_length_b 10.793502
_cell_length_c 8.050445
_cell_angle_alpha 90.000000
_cell_angle_beta 42.765010
_cell_angle_gamma 90.000000
_cell_volume 1174.636473
_symmetry_space_group_name_H-M "P 2/C"
_symmetry_group_IT_number 13
_symmetry_cell_setting 'monoclinic'
loop_
_space_group_symop_operation_xyz
x,y,z
-x,y,1/2-z
-x,-y,-z
x,-y,1/2+z
loop_
_atom_site_type_symbol
_atom_site_label
_atom_site_fract_x
_atom_site_fract_y
_atom_site_fract_z
Si Si1 0.816241 0.311181 0.050255
Si Si2 0.626627 0.819533 0.884829
Si Si3 0.081662 0.109292 0.855698
Si Si4 0.543641 0.132776 0.985589
Si Si5 0.000000 0.694967 0.750000
Si Si6 0.887543 0.460327 0.236554
Si Si7 0.293840 0.935399 0.105047
O O1 0.871892 0.183583 0.889158
O O2 0.827612 0.416165 0.887905
O O3 0.701264 0.287696 0.292787
O O4 0.858275 0.370749 0.141082
O O5 0.513742 0.784483 0.044522
O O6 0.669943 0.869921 0.628835
O O7 0.652018 0.931508 0.966441
O O8 0.176207 0.062825 0.794087
O O9 0.026174 0.218372 0.050577
O O10 0.000000 0.000000 0.000000
O O11 0.500000 0.153832 0.250000
O O12 0.660270 0.134022 0.815947
O O13 0.500000 0.000000 0.000000
O O14 0.097214 0.617566 0.621988
O O15 0.000000 0.500000 0.000000
#
# Coordination Sequence:
#
# PCOD9237739 Si02
#       7
#     4   4   4   4   2   4   4
#     4  11  23  40  59  83 112 155 199 248 291 340
#     4   9  19  32  57  84 112 146 186 231 288 343
#     4  11  26  37  53  86 124 159 187 232 298 356
#     4   8  14  30  51  77 108 147 183 220 267 346
#     4  12  26  38  58  80 110 156 204 238 280 336
#     4  12  22  40  61  76 106 154 212 243 273 337
#     4   9  19  33  50  79 120 153 182 216 286 355
#
# _framework density 22.134509000000001
#
# number of rings (size 3 to 8) (size 9 to 14) (size 15 to 20)
#    0.000    1.846    3.077    0.000    6.462    0.000 
#    0.000    0.000    0.000    0.000    0.000   38.769 
#    0.000    0.000    0.000    0.000    0.000    0.000 
#
# Total GULP energy -144781.251534 kJ/mol
# GULP energy per Si atom -5568.509674 kJ/mol
# Density = 2.208413 g / cm^3
# Si number density = 22.134509 Si / 1000 Ang^3
#
#
#
# Elastic Constant Matrix: (Units=GPa)
#
#
# Indices 1 2 3 4 5 6 
#
# 1 199.0849 54.6457 41.6595 0.0000 -22.2939 0.0000
# 2 54.6457 85.7251 14.3356 0.0000 -7.9545 0.0000
# 3 41.6595 14.3356 25.9449 0.0000 -8.7949 0.0000
# 4 0.0000 0.0000 0.0000 32.6615 0.0000 2.2058
# 5 -22.2939 -7.9545 -8.7949 0.0000 51.6842 0.0000
# 6 0.0000 0.0000 0.0000 2.2058 0.0000 39.0872
#
#
#
# Elastic Compliance Matrix: (Units=1/GPa)
#
#
# Indices 1 2 3 4 5 6 
#
# 1 0.008449 -0.003387 -0.011288 0.000000 0.001203 0.000000
# 2 -0.003387 0.014243 -0.002317 0.000000 0.000337 0.000000
# 3 -0.011288 -0.002317 0.059616 0.000000 0.004919 0.000000
# 4 0.000000 0.000000 0.000000 0.030734 0.000000 -0.001734
# 5 0.001203 0.000337 0.004919 0.000000 0.020756 0.000000
# 6 0.000000 0.000000 0.000000 -0.001734 0.000000 0.025682
#
#
# Mechanical properties :
#
#
# Convention : Reuss Voigt Hill
#
# Bulk Modulus (GPa) = 20.69370 59.11515 39.90443
# Shear Modulus (GPa) = 23.85807 38.02752 30.94279
#
# Velocity S-wave (km/s) = 3.28665 4.14940 3.74296
# Velocity P-wave (km/s) = 4.87567 7.05137 6.06193
#
# Compressibility (1/GPa) = 0.04832389
#
# Stress axis : x y z
#
# Youngs Moduli (GPa) = 118.35227 70.21032 16.77398
#
# Poissons Ratio (x) = 0.23779 0.18935
# Poissons Ratio (y) = 0.40084 0.03887
# Poissons Ratio (z) = 1.33597 0.16271
#
# Static dielectric constant tensor:
#      x y z
#    x 1.943460 0.000000 -0.031960 
#    y 0.000000 1.923110 0.000000 
#    z -0.031960 0.000000 1.982370 
# 
# From -- ./inp_files/21530.got.cif
#   From: 2010.05.17/outbox.cif.g08.bks.cpg/sg13_11_cif.got.tgz:21530.got - 2010.06.03 16:44:36.
