data_PCOD9237905
_publ_section_title
;
Structure prediction by ZEFSAII (Michael W. Deem and Ramdas Pophale) SiO2 
 PCOD9237905
Probable space group: P 2/C
;
_chemical_formula_sum "Si O2"
_cell_formula_units_Z 18
_cell_length_a 21.498750
_cell_length_b 5.083462
_cell_length_c 9.727409
_cell_angle_alpha 90.000000
_cell_angle_beta 37.044128
_cell_angle_gamma 90.000000
_cell_volume 640.437145
_symmetry_space_group_name_H-M "P 2/C"
_symmetry_group_IT_number 13
_symmetry_cell_setting 'monoclinic'
loop_
_space_group_symop_operation_xyz
x,y,z
-x,y,1/2-z
-x,-y,-z
x,-y,1/2+z
loop_
_atom_site_type_symbol
_atom_site_label
_atom_site_fract_x
_atom_site_fract_y
_atom_site_fract_z
Si Si1 0.500000 0.707749 0.750000
Si Si2 0.883897 0.568608 0.005510
Si Si3 0.665088 0.660518 0.878852
Si Si4 0.887226 0.065213 0.148054
Si Si5 0.334253 0.974715 0.362305
O O1 0.569524 0.528763 0.526724
O O2 0.579505 0.863680 0.706058
O O3 0.772948 0.474782 0.142819
O O4 0.879449 0.883616 0.025293
O O5 0.882961 0.378880 0.141408
O O6 0.000000 0.506518 0.750000
O O7 0.649734 0.931233 0.822336
O O8 0.663546 0.711268 0.047006
O O9 0.787139 0.959997 0.401975
O O10 0.000000 0.000000 0.000000
#
# Coordination Sequence:
#
# PCOD9237905 Si02
#       5
#     2   4   4   4   4
#     4  12  24  48  72 108 148 202 268 322 390 462
#     4  11  23  44  72 112 152 199 250 319 390 465
#     4  11  26  47  74 109 152 202 261 323 393 468
#     4  11  23  44  71 113 151 200 253 317 387 466
#     4  11  26  47  74 111 151 205 257 327 392 467
#
# _framework density 28.105803999999999
#
# number of rings (size 3 to 8) (size 9 to 14) (size 15 to 20)
#    0.000    0.889    2.222    4.000    0.000    7.111 
#    0.000    0.000    0.000    0.000    0.000    0.000 
#    0.000    0.000    0.000    0.000    0.000    0.000 
#
# Total GULP energy -100445.371523 kJ/mol
# GULP energy per Si atom -5580.298418 kJ/mol
# Density = 2.804183 g / cm^3
# Si number density = 28.105804 Si / 1000 Ang^3
#
#
#
# Elastic Constant Matrix: (Units=GPa)
#
#
# Indices 1 2 3 4 5 6 
#
# 1 122.6268 26.3351 64.7170 0.0000 -37.3750 0.0000
# 2 26.3351 90.2840 40.2680 0.0000 -16.8201 0.0000
# 3 64.7170 40.2680 191.3417 0.0000 -50.8566 0.0000
# 4 0.0000 0.0000 0.0000 36.2499 0.0000 -1.4444
# 5 -37.3750 -16.8201 -50.8566 0.0000 43.6278 0.0000
# 6 0.0000 0.0000 0.0000 -1.4444 0.0000 18.4276
#
#
#
# Elastic Compliance Matrix: (Units=1/GPa)
#
#
# Indices 1 2 3 4 5 6 
#
# 1 0.011588 -0.001239 -0.001662 0.000000 0.007512 0.000000
# 2 -0.001239 0.012545 -0.001764 0.000000 0.001718 0.000000
# 3 -0.001662 -0.001764 0.008115 0.000000 0.007355 0.000000
# 4 0.000000 0.000000 0.000000 0.027673 0.000000 0.002169
# 5 0.007512 0.001718 0.007355 0.000000 0.038593 0.000000
# 6 0.000000 0.000000 0.000000 0.002169 0.000000 0.054436
#
#
# Mechanical properties :
#
#
# Convention : Reuss Voigt Hill
#
# Bulk Modulus (GPa) = 43.63758 74.09918 58.86838
# Shear Modulus (GPa) = 29.42596 37.85654 33.64125
#
# Velocity S-wave (km/s) = 3.23920 3.67404 3.46345
# Velocity P-wave (km/s) = 5.43597 6.66481 6.08151
#
# Compressibility (1/GPa) = 0.02291603
#
# Stress axis : x y z
#
# Youngs Moduli (GPa) = 86.29975 79.71548 123.23538
#
# Poissons Ratio (x) = 0.09879 0.20480
# Poissons Ratio (y) = 0.10695 0.21741
# Poissons Ratio (z) = 0.14342 0.14063
#
# Static dielectric constant tensor:
#      x y z
#    x 2.248040 0.000000 0.104110 
#    y 0.000000 2.185250 0.000000 
#    z 0.104110 0.000000 2.206630 
# 
# From -- ./inp_files/31290.got.cif
#   From: 2010.05.17/outbox.cif.g08.bks.cpg/sg13_16_cif.got.tgz:31290.got - 2010.06.03 16:44:36.
