data_PCOD9237420
_publ_section_title
;
Structure prediction by ZEFSAII (Michael W. Deem and Ramdas Pophale) SiO2 
 PCOD9237420
Probable space group: P 2/C
;
_chemical_formula_sum "Si O2"
_cell_formula_units_Z 22
_cell_length_a 23.159269
_cell_length_b 8.432926
_cell_length_c 9.670276
_cell_angle_alpha 90.000000
_cell_angle_beta 149.820161
_cell_angle_gamma 90.000000
_cell_volume 949.433474
_symmetry_space_group_name_H-M "P 2/C"
_symmetry_group_IT_number 13
_symmetry_cell_setting 'monoclinic'
loop_
_space_group_symop_operation_xyz
x,y,z
-x,y,1/2-z
-x,-y,-z
x,-y,1/2+z
loop_
_atom_site_type_symbol
_atom_site_label
_atom_site_fract_x
_atom_site_fract_y
_atom_site_fract_z
Si Si1 0.500000 0.646061 0.250000
Si Si2 0.738199 0.636850 0.622442
Si Si3 0.608294 0.905411 0.665130
Si Si4 0.187033 0.707164 0.266901
Si Si5 0.095568 0.819579 0.331140
Si Si6 0.782491 0.140697 0.951944
O O1 0.611557 0.574056 0.406719
O O2 0.554691 0.757271 0.478135
O O3 0.794275 0.478908 0.679558
O O4 0.750217 0.770131 0.527432
O O5 0.800446 0.718197 0.882952
O O6 0.500000 0.000000 0.500000
O O7 0.669921 0.031563 0.691345
O O8 0.709716 0.827826 0.969405
O O9 0.081158 0.748123 0.148586
O O10 0.182556 0.740137 0.095364
O O11 0.000000 0.807591 0.250000
O O12 0.122379 0.002994 0.355559
#
# Coordination Sequence:
#
# PCOD9237420 Si02
#       6
#     2   4   4   4   4   4
#     4  12  22  38  66  94 140 176 216 260 320 396
#     4  12  25  43  66 103 140 175 219 274 338 397
#     4  11  21  39  64  95 134 185 222 262 319 390
#     4  11  25  43  66 102 137 172 221 276 342 395
#     4  11  25  48  71  94 128 174 231 282 335 403
#     4  11  23  41  68  96 130 175 228 273 325 397
#
# _framework density 23.171711999999999
#
# number of rings (size 3 to 8) (size 9 to 14) (size 15 to 20)
#    0.000    0.727    5.455    4.364    0.000    5.818 
#    0.000    1.818    0.000    0.000    0.000    0.000 
#    0.000    0.000    0.000    0.000    0.000    0.000 
#
# Total GULP energy -122683.732385 kJ/mol
# GULP energy per Si atom -5576.533290 kJ/mol
# Density = 2.311897 g / cm^3
# Si number density = 23.171712 Si / 1000 Ang^3
#
#
#
# Elastic Constant Matrix: (Units=GPa)
#
#
# Indices 1 2 3 4 5 6 
#
# 1 141.4514 23.1698 12.7225 0.0000 14.6794 0.0000
# 2 23.1698 92.9224 1.3442 0.0000 14.5203 0.0000
# 3 12.7225 1.3442 34.5989 0.0000 2.6869 0.0000
# 4 0.0000 0.0000 0.0000 9.7736 0.0000 -0.3075
# 5 14.6794 14.5203 2.6869 0.0000 33.0639 0.0000
# 6 0.0000 0.0000 0.0000 -0.3075 0.0000 34.1642
#
#
#
# Elastic Compliance Matrix: (Units=1/GPa)
#
#
# Indices 1 2 3 4 5 6 
#
# 1 0.007821 -0.001506 -0.002616 0.000000 -0.002598 0.000000
# 2 -0.001506 0.011845 0.000449 0.000000 -0.004569 0.000000
# 3 -0.002616 0.000449 0.029961 0.000000 -0.001470 0.000000
# 4 0.000000 0.000000 0.000000 0.102345 0.000000 0.000921
# 5 -0.002598 -0.004569 -0.001470 0.000000 0.033524 0.000000
# 6 0.000000 0.000000 0.000000 0.000921 0.000000 0.029279
#
#
# Mechanical properties :
#
#
# Convention : Reuss Voigt Hill
#
# Bulk Modulus (GPa) = 23.65161 38.16063 30.90612
# Shear Modulus (GPa) = 21.16708 30.84941 26.00825
#
# Velocity S-wave (km/s) = 3.02568 3.65271 3.35388
# Velocity P-wave (km/s) = 4.73662 5.85612 5.32586
#
# Compressibility (1/GPa) = 0.04228042
#
# Stress axis : x y z
#
# Youngs Moduli (GPa) = 127.85751 84.42522 33.37646
#
# Poissons Ratio (x) = 0.12717 0.08730
# Poissons Ratio (y) = 0.19259 -0.01497
# Poissons Ratio (z) = 0.33443 -0.03787
#
# Static dielectric constant tensor:
#      x y z
#    x 1.934860 0.000000 0.012540 
#    y 0.000000 1.792260 0.000000 
#    z 0.012540 0.000000 2.046660 
# 
# From -- ./inp_files/21270.got.cif
#   From: 2010.05.17/outbox.cif.g08.bks.cpg/sg13_11_cif.got.tgz:21270.got - 2010.06.03 16:44:36.
