data_PCOD9237565
_publ_section_title
;
Structure prediction by ZEFSAII (Michael W. Deem and Ramdas Pophale) SiO2 
 PCOD9237565
Probable space group: P 2/C
;
_chemical_formula_sum "Si O2"
_cell_formula_units_Z 22
_cell_length_a 9.935731
_cell_length_b 14.376043
_cell_length_c 10.405166
_cell_angle_alpha 90.000000
_cell_angle_beta 140.857501
_cell_angle_gamma 90.000000
_cell_volume 938.189271
_symmetry_space_group_name_H-M "P 2/C"
_symmetry_group_IT_number 13
_symmetry_cell_setting 'monoclinic'
loop_
_space_group_symop_operation_xyz
x,y,z
-x,y,1/2-z
-x,-y,-z
x,-y,1/2+z
loop_
_atom_site_type_symbol
_atom_site_label
_atom_site_fract_x
_atom_site_fract_y
_atom_site_fract_z
Si Si1 0.500000 0.183211 0.750000
Si Si2 0.597276 0.730915 0.578409
Si Si3 0.894130 0.701343 0.291212
Si Si4 0.271326 0.159378 0.112721
Si Si5 0.037666 0.588286 0.623290
Si Si6 0.862770 0.964226 0.520970
O O1 0.402093 0.248669 0.570319
O O2 0.304007 0.115139 0.644145
O O3 0.347165 0.721620 0.421819
O O4 0.709948 0.823112 0.721173
O O5 0.730089 0.639060 0.714888
O O6 0.000000 0.643666 0.250000
O O7 0.057560 0.787245 0.418606
O O8 0.894506 0.660224 0.434997
O O9 0.500000 0.204762 0.250000
O O10 0.267404 0.059126 0.046420
O O11 0.000000 0.577255 0.750000
O O12 0.000000 0.500000 0.500000
O O13 0.000000 0.942192 0.750000
O O14 0.000000 0.000000 0.500000
#
# Coordination Sequence:
#
# PCOD9237565 Si02
#       6
#     2   4   4   4   4   4
#     4  12  26  44  66 102 146 196 254 304 372 424
#     4  11  25  44  73 102 144 191 240 299 369 438
#     4  11  22  42  73 105 143 188 242 298 362 435
#     4  11  22  39  66 101 140 190 252 302 352 422
#     4  11  26  48  74 109 145 183 230 293 368 449
#     4  12  27  42  65  98 145 199 251 314 365 419
#
# _framework density 23.449424
#
# number of rings (size 3 to 8) (size 9 to 14) (size 15 to 20)
#    0.000    0.727    2.727    4.364    2.545    5.818 
#    0.000    1.818    0.000    0.000    0.000    0.000 
#    0.000    0.000    0.000    0.000    0.000    0.000 
#
# Total GULP energy -122515.925846 kJ/mol
# GULP energy per Si atom -5568.905720 kJ/mol
# Density = 2.339605 g / cm^3
# Si number density = 23.449424 Si / 1000 Ang^3
#
#
#
# Elastic Constant Matrix: (Units=GPa)
#
#
# Indices 1 2 3 4 5 6 
#
# 1 110.9745 18.3611 52.6297 0.0000 -3.8874 0.0000
# 2 18.3611 86.3927 53.6399 0.0000 9.8919 0.0000
# 3 52.6297 53.6399 183.2964 0.0000 -8.5680 0.0000
# 4 0.0000 0.0000 0.0000 7.8840 0.0000 0.1838
# 5 -3.8874 9.8919 -8.5680 0.0000 61.2374 0.0000
# 6 0.0000 0.0000 0.0000 0.1838 0.0000 1.3357
#
#
#
# Elastic Compliance Matrix: (Units=1/GPa)
#
#
# Indices 1 2 3 4 5 6 
#
# 1 0.010452 -0.000498 -0.002839 0.000000 0.000347 0.000000
# 2 -0.000498 0.014693 -0.004297 0.000000 -0.003006 0.000000
# 3 -0.002839 -0.004297 0.007602 0.000000 0.001578 0.000000
# 4 0.000000 0.000000 0.000000 0.127247 0.000000 -0.017508
# 5 0.000347 -0.003006 0.001578 0.000000 0.017058 0.000000
# 6 0.000000 0.000000 0.000000 -0.017508 0.000000 0.751076
#
#
# Mechanical properties :
#
#
# Convention : Reuss Voigt Hill
#
# Bulk Modulus (GPa) = 57.21439 69.99165 63.60302
# Shear Modulus (GPa) = 5.26746 31.16029 18.21387
#
# Velocity S-wave (km/s) = 1.50039 3.64927 2.79001
# Velocity P-wave (km/s) = 5.23962 6.90427 6.12872
#
# Compressibility (1/GPa) = 0.01747812
#
# Stress axis : x y z
#
# Youngs Moduli (GPa) = 95.67455 68.05820 131.54231
#
# Poissons Ratio (x) = 0.03392 0.37345
# Poissons Ratio (y) = 0.04768 0.56527
# Poissons Ratio (z) = 0.27162 0.29247
#
# Static dielectric constant tensor:
#      x y z
#    x 2.322700 0.000000 0.026690 
#    y 0.000000 2.004420 0.000000 
#    z 0.026690 0.000000 1.896490 
# 
# From -- ./inp_files/34633.got.cif
#   From: 2010.05.17/outbox.cif.g08.bks.cpg/sg13_18_cif.got.tgz:34633.got - 2010.06.03 16:44:36.
