data_PCOD9237486
_publ_section_title
;
Structure prediction by ZEFSAII (Michael W. Deem and Ramdas Pophale) SiO2 
 PCOD9237486
Probable space group: P 2/C
;
_chemical_formula_sum "Si O2"
_cell_formula_units_Z 20
_cell_length_a 9.104587
_cell_length_b 7.660474
_cell_length_c 14.307751
_cell_angle_alpha 90.000000
_cell_angle_beta 54.210849
_cell_angle_gamma 90.000000
_cell_volume 809.471555
_symmetry_space_group_name_H-M "P 2/C"
_symmetry_group_IT_number 13
_symmetry_cell_setting 'monoclinic'
loop_
_space_group_symop_operation_xyz
x,y,z
-x,y,1/2-z
-x,-y,-z
x,-y,1/2+z
loop_
_atom_site_type_symbol
_atom_site_label
_atom_site_fract_x
_atom_site_fract_y
_atom_site_fract_z
Si Si1 0.685283 0.966930 0.635392
Si Si2 0.265616 0.203518 0.049763
Si Si3 0.779989 0.484215 0.814896
Si Si4 0.203465 0.902369 0.212104
Si Si5 0.905533 0.341814 0.089871
O O1 0.500000 0.904679 0.750000
O O2 0.354889 0.894143 0.429788
O O3 0.788709 0.065967 0.680481
O O4 0.802788 0.798586 0.563552
O O5 0.309935 0.392665 0.074307
O O6 0.282325 0.068218 0.128567
O O7 0.058981 0.234440 0.089675
O O8 0.770556 0.573916 0.716470
O O9 0.000000 0.481359 0.750000
O O10 0.714081 0.286576 0.840572
O O11 0.000000 0.895087 0.250000
O O12 0.000000 0.500000 0.000000
#
# Coordination Sequence:
#
# PCOD9237486 Si02
#       5
#     4   4   4   4   4
#     4  12  27  44  68 107 150 187 234 302 370 418
#     4  11  22  42  73 101 136 188 240 291 345 426
#     4   9  20  37  66 106 133 169 243 299 333 407
#     4  11  21  43  72 103 137 185 243 295 342 427
#     4  11  22  42  71 104 135 184 246 290 343 429
#
# _framework density 24.707477000000001
#
# number of rings (size 3 to 8) (size 9 to 14) (size 15 to 20)
#    0.000    1.200    4.000    2.400    8.400    0.800 
#    0.000    5.000    0.000    0.000    0.000    0.000 
#    0.000    0.000    0.000    0.000    0.000    0.000 
#
# Total GULP energy -111922.973801 kJ/mol
# GULP energy per Si atom -5596.148690 kJ/mol
# Density = 2.465124 g / cm^3
# Si number density = 24.707477 Si / 1000 Ang^3
#
#
#
# Elastic Constant Matrix: (Units=GPa)
#
#
# Indices 1 2 3 4 5 6 
#
# 1 60.5727 52.3708 26.1776 0.0000 4.3787 0.0000
# 2 52.3708 211.9568 59.5220 0.0000 5.2334 0.0000
# 3 26.1776 59.5220 72.9192 0.0000 22.4318 0.0000
# 4 0.0000 0.0000 0.0000 34.4011 0.0000 7.0212
# 5 4.3787 5.2334 22.4318 0.0000 32.8634 0.0000
# 6 0.0000 0.0000 0.0000 7.0212 0.0000 24.8829
#
#
#
# Elastic Compliance Matrix: (Units=1/GPa)
#
#
# Indices 1 2 3 4 5 6 
#
# 1 0.022107 -0.004111 -0.004906 0.000000 0.001058 0.000000
# 2 -0.004111 0.007143 -0.005282 0.000000 0.003016 0.000000
# 3 -0.004906 -0.005282 0.024464 0.000000 -0.015204 0.000000
# 4 0.000000 0.000000 0.000000 0.030845 0.000000 -0.008704
# 5 0.001058 0.003016 -0.015204 0.000000 0.040185 0.000000
# 6 0.000000 0.000000 0.000000 -0.008704 0.000000 0.042644
#
#
# Mechanical properties :
#
#
# Convention : Reuss Voigt Hill
#
# Bulk Modulus (GPa) = 39.81702 69.06550 54.44126
# Shear Modulus (GPa) = 24.46679 32.25469 28.36074
#
# Velocity S-wave (km/s) = 3.15025 3.61704 3.39168
# Velocity P-wave (km/s) = 5.42056 6.74225 6.11720
#
# Compressibility (1/GPa) = 0.02511489
#
# Stress axis : x y z
#
# Youngs Moduli (GPa) = 45.23460 140.00672 40.87628
#
# Poissons Ratio (x) = 0.57550 0.20056
# Poissons Ratio (y) = 0.18594 0.21592
# Poissons Ratio (z) = 0.22194 0.73956
#
# Static dielectric constant tensor:
#      x y z
#    x 1.971640 0.000000 -0.026420 
#    y 0.000000 1.924270 0.000000 
#    z -0.026420 0.000000 1.966260 
# 
# From -- ./inp_files/62841.got.cif
#   From: 2010.05.17/outbox.cif.g08.bks.cpg/sg13_32_cif.got.tgz:62841.got - 2010.06.03 16:44:36.
