data_PCOD9237508
_publ_section_title
;
Structure prediction by ZEFSAII (Michael W. Deem and Ramdas Pophale) SiO2 
 PCOD9237508
Probable space group: P 2/C
;
_chemical_formula_sum "Si O2"
_cell_formula_units_Z 32
_cell_length_a 15.053898
_cell_length_b 18.165162
_cell_length_c 11.805116
_cell_angle_alpha 90.000000
_cell_angle_beta 151.589692
_cell_angle_gamma 90.000000
_cell_volume 1535.914105
_symmetry_space_group_name_H-M "P 2/C"
_symmetry_group_IT_number 13
_symmetry_cell_setting 'monoclinic'
loop_
_space_group_symop_operation_xyz
x,y,z
-x,y,1/2-z
-x,-y,-z
x,-y,1/2+z
loop_
_atom_site_type_symbol
_atom_site_label
_atom_site_fract_x
_atom_site_fract_y
_atom_site_fract_z
Si Si1 0.465624 0.295582 0.337988
Si Si2 0.528623 0.423583 0.968261
Si Si3 0.697770 0.758316 0.503258
Si Si4 0.227577 0.062139 0.014017
Si Si5 0.809327 0.193228 0.375809
Si Si6 0.239110 0.162958 0.817409
Si Si7 0.806479 0.603361 0.582174
Si Si8 0.209828 0.899454 0.034954
O O1 0.500000 0.324582 0.250000
O O2 0.465641 0.357875 0.433394
O O3 0.268477 0.252780 0.123426
O O4 0.618753 0.231132 0.532791
O O5 0.350112 0.410629 0.688075
O O6 0.500000 0.500000 0.000000
O O7 0.713609 0.424260 0.095866
O O8 0.722535 0.785834 0.658129
O O9 0.835878 0.690983 0.636427
O O10 0.707934 0.828912 0.435134
O O11 0.500000 0.723436 0.250000
O O12 0.294844 0.105891 0.978781
O O13 0.000000 0.058965 0.750000
O O14 0.296270 0.979062 0.105155
O O15 0.261183 0.113866 0.160142
O O16 0.031712 0.191734 0.614993
O O17 0.217869 0.118575 0.676530
O O18 0.000000 0.572088 0.750000
O O19 0.000000 0.902033 0.750000
#
# Coordination Sequence:
#
# PCOD9237508 Si02
#       8
#     4   4   4   4   4   4   4   4
#     4  12  25  43  70  99 132 178 226 266 338 413
#     4  11  26  47  74 107 145 178 216 277 341 408
#     4  12  22  40  64  99 131 170 227 285 336 394
#     4   9  22  38  58  88 127 177 224 283 343 398
#     4  11  22  42  64  90 131 173 228 281 328 396
#     4  11  23  42  65  90 132 174 228 285 333 402
#     4  11  24  46  75 105 140 180 229 280 332 398
#     4  11  22  36  63  94 120 176 231 281 348 402
#
# _framework density 20.834498
#
# number of rings (size 3 to 8) (size 9 to 14) (size 15 to 20)
#    0.000    1.000    5.000    1.875    5.250    2.000 
#    2.250    1.250    0.000    0.000    0.000    0.000 
#    0.000    0.000    0.000    0.000    0.000    0.000 
#
# Total GULP energy -178815.813408 kJ/mol
# GULP energy per Si atom -5587.994169 kJ/mol
# Density = 2.078708 g / cm^3
# Si number density = 20.834498 Si / 1000 Ang^3
#
#
#
# Elastic Constant Matrix: (Units=GPa)
#
#
# Indices 1 2 3 4 5 6 
#
# 1 165.4976 71.8154 56.3606 0.0000 -3.0596 0.0000
# 2 71.8154 141.5581 24.1119 0.0000 -2.6257 0.0000
# 3 56.3606 24.1119 67.6241 0.0000 -5.3740 0.0000
# 4 0.0000 0.0000 0.0000 18.6138 0.0000 -9.6535
# 5 -3.0596 -2.6257 -5.3740 0.0000 35.8781 0.0000
# 6 0.0000 0.0000 0.0000 -9.6535 0.0000 22.6533
#
#
#
# Elastic Compliance Matrix: (Units=1/GPa)
#
#
# Indices 1 2 3 4 5 6 
#
# 1 0.010170 -0.003959 -0.007103 0.000000 -0.000486 0.000000
# 2 -0.003959 0.009063 0.000095 0.000000 0.000340 0.000000
# 3 -0.007103 0.000095 0.020875 0.000000 0.002528 0.000000
# 4 0.000000 0.000000 0.000000 0.068965 0.000000 0.029389
# 5 -0.000486 0.000340 0.002528 0.000000 0.028234 0.000000
# 6 0.000000 0.000000 0.000000 0.029389 0.000000 0.056667
#
#
# Mechanical properties :
#
#
# Convention : Reuss Voigt Hill
#
# Bulk Modulus (GPa) = 55.02501 75.47284 65.24892
# Shear Modulus (GPa) = 22.52583 30.25517 26.39050
#
# Velocity S-wave (km/s) = 3.29170 3.81486 3.56290
# Velocity P-wave (km/s) = 6.39647 7.46377 6.95064
#
# Compressibility (1/GPa) = 0.01817356
#
# Stress axis : x y z
#
# Youngs Moduli (GPa) = 98.32541 110.34255 47.90422
#
# Poissons Ratio (x) = 0.43681 0.34029
# Poissons Ratio (y) = 0.38924 -0.00455
# Poissons Ratio (z) = 0.69845 -0.01048
#
# Static dielectric constant tensor:
#      x y z
#    x 1.979160 0.000000 0.220860 
#    y 0.000000 1.747920 0.000000 
#    z 0.220860 0.000000 1.954490 
# 
# From -- ./inp_files/37723.got.cif
#   From: 2010.05.17/outbox.cif.g08.bks.cpg/sg13_19_cif.got.tgz:37723.got - 2010.06.03 16:44:36.
