data_PCOD9237993
_publ_section_title
;
Structure prediction by ZEFSAII (Michael W. Deem and Ramdas Pophale) SiO2 
 PCOD9237993
Probable space group: P 2/C
;
_chemical_formula_sum "Si O2"
_cell_formula_units_Z 22
_cell_length_a 15.953544
_cell_length_b 6.235501
_cell_length_c 24.991361
_cell_angle_alpha 90.000000
_cell_angle_beta 26.354036
_cell_angle_gamma 90.000000
_cell_volume 1103.620348
_symmetry_space_group_name_H-M "P 2/C"
_symmetry_group_IT_number 13
_symmetry_cell_setting 'monoclinic'
loop_
_space_group_symop_operation_xyz
x,y,z
-x,y,1/2-z
-x,-y,-z
x,-y,1/2+z
loop_
_atom_site_type_symbol
_atom_site_label
_atom_site_fract_x
_atom_site_fract_y
_atom_site_fract_z
Si Si1 0.056034 0.796311 0.573088
Si Si2 0.853876 0.697209 0.088350
Si Si3 0.500000 0.564538 0.750000
Si Si4 0.013895 0.176677 0.680425
Si Si5 0.354219 0.550706 0.941846
Si Si6 0.243761 0.419998 0.745686
O O1 0.092984 0.859063 0.489738
O O2 0.236084 0.653435 0.488106
O O3 0.876069 0.637583 0.677478
O O4 0.028433 0.977871 0.632196
O O5 0.657883 0.587822 0.184324
O O6 0.825873 0.742058 0.166900
O O7 0.000000 0.500000 0.000000
O O8 0.416861 0.676208 0.850952
O O9 0.203723 0.313739 0.561280
O O10 0.000000 0.115012 0.750000
O O11 0.832315 0.316098 0.765286
O O12 0.537647 0.476328 0.870093
#
# Coordination Sequence:
#
# PCOD9237993 Si02
#       6
#     4   4   2   4   4   4
#     4   9  19  35  55  83 117 146 180 233 283 332
#     4   8  14  29  54  80 107 138 173 220 280 332
#     4   8  14  30  56  82 108 134 170 226 286 336
#     4  11  24  38  54  81 115 154 195 229 273 333
#     4   9  19  38  60  82 111 147 185 232 287 336
#     4   9  19  37  60  82 107 145 190 236 284 332
#
# _framework density 19.934393
#
# number of rings (size 3 to 8) (size 9 to 14) (size 15 to 20)
#    0.000    2.909    0.000    1.091    0.000    5.818 
#    0.000    7.273    0.000    0.000    0.000    0.000 
#    0.000    0.000    0.000    0.000    0.000    0.000 
#
# Total GULP energy -122501.674372 kJ/mol
# GULP energy per Si atom -5568.257926 kJ/mol
# Density = 1.988902 g / cm^3
# Si number density = 19.934393 Si / 1000 Ang^3
#
#
#
# Elastic Constant Matrix: (Units=GPa)
#
#
# Indices 1 2 3 4 5 6 
#
# 1 132.5649 39.3199 62.7086 0.0000 2.8173 0.0000
# 2 39.3199 38.6930 32.1688 0.0000 4.9192 0.0000
# 3 62.7086 32.1688 83.8645 0.0000 -13.7853 0.0000
# 4 0.0000 0.0000 0.0000 6.9254 0.0000 13.6514
# 5 2.8173 4.9192 -13.7853 0.0000 53.3965 0.0000
# 6 0.0000 0.0000 0.0000 13.6514 0.0000 15.6610
#
#
#
# Elastic Compliance Matrix: (Units=1/GPa)
#
#
# Indices 1 2 3 4 5 6 
#
# 1 0.013205 -0.006867 -0.007571 0.000000 -0.002019 0.000000
# 2 -0.006867 0.044696 -0.013187 0.000000 -0.007160 0.000000
# 3 -0.007571 -0.013187 0.023924 0.000000 0.007791 0.000000
# 4 0.000000 0.000000 0.000000 -0.201032 0.000000 0.175236
# 5 -0.002019 -0.007160 0.007791 0.000000 0.021505 0.000000
# 6 0.000000 0.000000 0.000000 0.175236 0.000000 -0.088898
#
#
# Mechanical properties :
#
#
# Convention : Reuss Voigt Hill
#
# Bulk Modulus (GPa) = 37.62971 58.16856 47.89914
# Shear Modulus (GPa) = -40.81967 23.25826 -8.78071
#
# Velocity S-wave (km/s) = -4.53006 3.41946 -2.10104
# Velocity P-wave (km/s) = 2.90589 6.69579 4.26553
#
# Compressibility (1/GPa) = 0.02657474
#
# Stress axis : x y z
#
# Youngs Moduli (GPa) = 75.72938 22.37312 41.79881
#
# Poissons Ratio (x) = 0.15365 0.31648
# Poissons Ratio (y) = 0.52007 0.55118
# Poissons Ratio (z) = 0.57338 0.29502
#
# Static dielectric constant tensor:
#      x y z
#    x 1.719520 0.000000 0.033090 
#    y 0.000000 1.711880 0.000000 
#    z 0.033090 0.000000 1.720400 
# 
# From -- ./inp_files/52351.got.cif
#   From: 2010.05.17/outbox.cif.g08.bks.cpg/sg13_27_cif.got.tgz:52351.got - 2010.06.03 16:44:36.
