data_PCOD9237480
_publ_section_title
;
Structure prediction by ZEFSAII (Michael W. Deem and Ramdas Pophale) SiO2 
 PCOD9237480
Probable space group: P 2/C
;
_chemical_formula_sum "Si O2"
_cell_formula_units_Z 26
_cell_length_a 8.628818
_cell_length_b 9.687087
_cell_length_c 20.894790
_cell_angle_alpha 90.000000
_cell_angle_beta 44.269831
_cell_angle_gamma 90.000000
_cell_volume 1219.163067
_symmetry_space_group_name_H-M "P 2/C"
_symmetry_group_IT_number 13
_symmetry_cell_setting 'monoclinic'
loop_
_space_group_symop_operation_xyz
x,y,z
-x,y,1/2-z
-x,-y,-z
x,-y,1/2+z
loop_
_atom_site_type_symbol
_atom_site_label
_atom_site_fract_x
_atom_site_fract_y
_atom_site_fract_z
Si Si1 0.156140 0.518782 0.265393
Si Si2 0.000000 0.983799 0.250000
Si Si3 0.009203 0.761727 0.654957
Si Si4 0.933629 0.391365 0.964082
Si Si5 0.109058 0.145653 0.983826
Si Si6 0.502096 0.346530 0.025890
Si Si7 0.395018 0.772890 0.138964
O O1 0.351867 0.629384 0.191343
O O2 0.000000 0.539182 0.250000
O O3 0.175049 0.352263 0.269917
O O4 0.026268 0.558826 0.368482
O O5 0.996655 0.090044 0.310084
O O6 0.798610 0.881774 0.295056
O O7 0.013900 0.787897 0.577737
O O8 0.248227 0.700416 0.606781
O O9 0.049988 0.248885 0.944961
O O10 0.671515 0.357190 0.034736
O O11 0.000000 0.500000 0.000000
O O12 0.373452 0.153968 0.913158
O O13 0.000000 0.000000 0.000000
O O14 0.500000 0.500000 0.000000
O O15 0.600963 0.258479 0.938216
#
# Coordination Sequence:
#
# PCOD9237480 Si02
#       7
#     4   2   4   4   4   4   4
#     4  12  21  44  73 103 136 183 244 301 343 417
#     4  12  26  42  72 108 140 182 244 288 372 426
#     4  11  25  44  71 104 140 184 241 295 353 437
#     4  12  23  42  70 106 140 182 239 292 361 430
#     4  11  28  47  70 101 150 191 232 297 375 432
#     4  11  21  42  76 100 128 186 248 290 343 424
#     4  11  25  46  72 104 139 192 246 302 353 435
#
# _framework density 21.326105999999999
#
# number of rings (size 3 to 8) (size 9 to 14) (size 15 to 20)
#    0.000    0.615    6.154    0.923    6.462    1.846 
#    0.000    0.000    3.385    0.000    0.000    0.000 
#    0.000    0.000    0.000    0.000    0.000    0.000 
#
# Total GULP energy -145162.371478 kJ/mol
# GULP energy per Si atom -5583.168134 kJ/mol
# Density = 2.127757 g / cm^3
# Si number density = 21.326106 Si / 1000 Ang^3
#
#
#
# Elastic Constant Matrix: (Units=GPa)
#
#
# Indices 1 2 3 4 5 6 
#
# 1 119.3146 63.6030 25.7745 0.0000 -1.3733 0.0000
# 2 63.6030 142.4477 46.8073 0.0000 -20.7297 0.0000
# 3 25.7745 46.8073 86.4401 0.0000 11.8524 0.0000
# 4 0.0000 0.0000 0.0000 44.3659 0.0000 2.9034
# 5 -1.3733 -20.7297 11.8524 0.0000 35.7239 0.0000
# 6 0.0000 0.0000 0.0000 2.9034 0.0000 29.3219
#
#
#
# Elastic Compliance Matrix: (Units=1/GPa)
#
#
# Indices 1 2 3 4 5 6 
#
# 1 0.011234 -0.005381 -0.000070 0.000000 -0.002667 0.000000
# 2 -0.005381 0.013050 -0.006781 0.000000 0.009615 0.000000
# 3 -0.000070 -0.006781 0.016554 0.000000 -0.009430 0.000000
# 4 0.000000 0.000000 0.000000 0.022687 0.000000 -0.002246
# 5 -0.002667 0.009615 -0.009430 0.000000 0.036598 0.000000
# 6 0.000000 0.000000 0.000000 -0.002246 0.000000 0.034327
#
#
# Mechanical properties :
#
#
# Convention : Reuss Voigt Hill
#
# Bulk Modulus (GPa) = 61.06919 68.95244 65.01082
# Shear Modulus (GPa) = 30.41873 36.01683 33.21778
#
# Velocity S-wave (km/s) = 3.78082 4.11403 3.95094
# Velocity P-wave (km/s) = 6.91068 7.41415 7.16684
#
# Compressibility (1/GPa) = 0.01637487
#
# Stress axis : x y z
#
# Youngs Moduli (GPa) = 89.01371 76.62725 60.40746
#
# Poissons Ratio (x) = 0.41235 0.00423
# Poissons Ratio (y) = 0.47900 0.40960
# Poissons Ratio (z) = 0.00624 0.51958
#
# Static dielectric constant tensor:
#      x y z
#    x 1.966490 0.000000 -0.097250 
#    y 0.000000 1.852760 0.000000 
#    z -0.097250 0.000000 1.923680 
# 
# From -- ./inp_files/75907.got.cif
#   From: 2010.05.17/outbox.cif.g08.bks.cpg/sg13_38_cif.got.tgz:75907.got - 2010.06.03 16:44:36.
