data_PCOD9237478
_publ_section_title
;
Structure prediction by ZEFSAII (Michael W. Deem and Ramdas Pophale) SiO2 
 PCOD9237478
Probable space group: P 2/C
;
_chemical_formula_sum "Si O2"
_cell_formula_units_Z 20
_cell_length_a 11.699139
_cell_length_b 10.197132
_cell_length_c 9.426389
_cell_angle_alpha 90.000000
_cell_angle_beta 123.578994
_cell_angle_gamma 90.000000
_cell_volume 936.886503
_symmetry_space_group_name_H-M "P 2/C"
_symmetry_group_IT_number 13
_symmetry_cell_setting 'monoclinic'
loop_
_space_group_symop_operation_xyz
x,y,z
-x,y,1/2-z
-x,-y,-z
x,-y,1/2+z
loop_
_atom_site_type_symbol
_atom_site_label
_atom_site_fract_x
_atom_site_fract_y
_atom_site_fract_z
Si Si1 0.000000 0.267110 0.250000
Si Si2 0.615715 0.594022 0.219039
Si Si3 0.106347 0.883212 0.079807
Si Si4 0.000000 0.310211 0.750000
Si Si5 0.577604 0.897747 0.155436
Si Si6 0.785956 0.535593 0.599988
O O1 0.090175 0.179775 0.414575
O O2 0.108910 0.364780 0.251347
O O3 0.500000 0.546093 0.250000
O O4 0.576295 0.738258 0.131335
O O5 0.740207 0.598310 0.418894
O O6 0.664143 0.501887 0.124216
O O7 0.052998 0.780096 0.159229
O O8 0.260498 0.927444 0.220955
O O9 0.000000 0.000000 0.000000
O O10 0.872431 0.404866 0.626235
O O11 0.500000 0.913468 0.250000
O O12 0.500000 0.000000 0.000000
#
# Coordination Sequence:
#
# PCOD9237478 Si02
#       6
#     2   4   4   2   4   4
#     4  11  23  42  70 108 139 181 236 310 356 403
#     4  11  23  42  67 102 142 186 233 289 362 436
#     4  12  26  43  72 101 144 189 248 294 352 430
#     4  11  23  42  68 102 137 183 242 300 358 415
#     4  11  27  49  70 100 148 194 241 296 362 428
#     4  11  21  42  72 101 143 177 235 304 358 417
#
# _framework density 21.347301999999999
#
# number of rings (size 3 to 8) (size 9 to 14) (size 15 to 20)
#    0.000    0.800    4.000    2.400    5.600    3.200 
#    0.000    7.000    0.000    0.000    0.000    0.000 
#    0.000    0.000    0.000    0.000    0.000    0.000 
#
# Total GULP energy -111624.961728 kJ/mol
# GULP energy per Si atom -5581.248086 kJ/mol
# Density = 2.129871 g / cm^3
# Si number density = 21.347302 Si / 1000 Ang^3
#
#
#
# Elastic Constant Matrix: (Units=GPa)
#
#
# Indices 1 2 3 4 5 6 
#
# 1 126.8859 52.0883 32.6866 0.0000 15.5710 0.0000
# 2 52.0883 110.8897 55.3139 0.0000 4.0018 0.0000
# 3 32.6866 55.3139 106.6959 0.0000 9.9459 0.0000
# 4 0.0000 0.0000 0.0000 42.0259 0.0000 4.8924
# 5 15.5710 4.0018 9.9459 0.0000 31.7197 0.0000
# 6 0.0000 0.0000 0.0000 4.8924 0.0000 20.8157
#
#
#
# Elastic Compliance Matrix: (Units=1/GPa)
#
#
# Indices 1 2 3 4 5 6 
#
# 1 0.010379 -0.004498 -0.000438 0.000000 -0.004390 0.000000
# 2 -0.004498 0.014119 -0.006162 0.000000 0.002359 0.000000
# 3 -0.000438 -0.006162 0.012988 0.000000 -0.003080 0.000000
# 4 0.000000 0.000000 0.000000 0.024464 0.000000 -0.005750
# 5 -0.004390 0.002359 -0.003080 0.000000 0.034349 0.000000
# 6 0.000000 0.000000 0.000000 -0.005750 0.000000 0.049392
#
#
# Mechanical properties :
#
#
# Convention : Reuss Voigt Hill
#
# Bulk Modulus (GPa) = 65.40197 69.40546 67.40371
# Shear Modulus (GPa) = 28.90397 32.53777 30.72087
#
# Velocity S-wave (km/s) = 3.68365 3.90835 3.79766
# Velocity P-wave (km/s) = 6.98541 7.27668 7.13253
#
# Compressibility (1/GPa) = 0.01529006
#
# Stress axis : x y z
#
# Youngs Moduli (GPa) = 96.34428 70.82429 76.99282
#
# Poissons Ratio (x) = 0.31860 0.03376
# Poissons Ratio (y) = 0.43340 0.47441
# Poissons Ratio (z) = 0.04224 0.43640
#
# Static dielectric constant tensor:
#      x y z
#    x 1.765780 0.000000 0.077400 
#    y 0.000000 1.816690 0.000000 
#    z 0.077400 0.000000 1.827820 
# 
# From -- ./inp_files/14894.got.cif
#   From: 2010.05.17/outbox.cif.g08.bks.cpg/sg13_8_cif.got.tgz:14894.got - 2010.06.03 16:44:36.
