data_PCOD9237130
_publ_section_title
;
Structure prediction by ZEFSAII (Michael W. Deem and Ramdas Pophale) SiO2 
 PCOD9237130
Probable space group: P 2/C
;
_chemical_formula_sum "Si O2"
_cell_formula_units_Z 20
_cell_length_a 8.767692
_cell_length_b 5.146901
_cell_length_c 19.953615
_cell_angle_alpha 90.000000
_cell_angle_beta 58.392312
_cell_angle_gamma 90.000000
_cell_volume 766.861992
_symmetry_space_group_name_H-M "P 2/C"
_symmetry_group_IT_number 13
_symmetry_cell_setting 'monoclinic'
loop_
_space_group_symop_operation_xyz
x,y,z
-x,y,1/2-z
-x,-y,-z
x,-y,1/2+z
loop_
_atom_site_type_symbol
_atom_site_label
_atom_site_fract_x
_atom_site_fract_y
_atom_site_fract_z
Si Si1 0.082395 0.601400 0.300354
Si Si2 0.742194 0.102801 0.936638
Si Si3 0.550059 0.201060 0.841349
Si Si4 0.011266 0.721020 0.556148
Si Si5 0.340850 0.727301 0.902040
O O1 0.272230 0.720965 0.239200
O O2 0.092653 0.391469 0.355402
O O3 0.000000 0.493150 0.250000
O O4 0.933199 0.795536 0.364656
O O5 0.612241 0.140481 0.903867
O O6 0.661860 0.266457 0.016223
O O7 0.805419 0.829251 0.955322
O O8 0.405976 0.435033 0.869910
O O9 0.479649 0.921424 0.836337
O O10 0.847229 0.891577 0.566551
O O11 0.000000 0.500000 0.500000
#
# Coordination Sequence:
#
# PCOD9237130 Si02
#       5
#     4   4   4   4   4
#     4  10  26  48  76 107 150 204 256 308 379 465
#     4  11  25  47  79 104 151 208 262 298 381 482
#     4  11  28  48  75 113 155 198 252 324 390 450
#     4  12  26  47  80 112 152 201 263 317 384 464
#     4  12  26  47  74 116 152 195 251 330 387 449
#
# _framework density 26.080310999999998
#
# number of rings (size 3 to 8) (size 9 to 14) (size 15 to 20)
#    0.000    0.800    2.000    3.000   11.200    1.600 
#    0.000    0.000    0.000    0.000    0.000    0.000 
#    0.000    0.000    0.000    0.000    0.000    0.000 
#
# Total GULP energy -111565.047803 kJ/mol
# GULP energy per Si atom -5578.252390 kJ/mol
# Density = 2.602095 g / cm^3
# Si number density = 26.080311 Si / 1000 Ang^3
#
#
#
# Elastic Constant Matrix: (Units=GPa)
#
#
# Indices 1 2 3 4 5 6 
#
# 1 68.6862 7.8966 1.8260 0.0000 -23.9201 0.0000
# 2 7.8966 79.5318 -8.0687 0.0000 -7.5356 0.0000
# 3 1.8260 -8.0687 104.8871 0.0000 7.6665 0.0000
# 4 0.0000 0.0000 0.0000 15.9785 0.0000 -9.5857
# 5 -23.9201 -7.5356 7.6665 0.0000 36.2563 0.0000
# 6 0.0000 0.0000 0.0000 -9.5857 0.0000 28.6491
#
#
#
# Elastic Compliance Matrix: (Units=1/GPa)
#
#
# Indices 1 2 3 4 5 6 
#
# 1 0.019120 -0.000827 -0.001326 0.000000 0.012723 0.000000
# 2 -0.000827 0.012929 0.000866 0.000000 0.001958 0.000000
# 3 -0.001326 0.000866 0.009826 0.000000 -0.002773 0.000000
# 4 0.000000 0.000000 0.000000 0.078301 0.000000 0.026199
# 5 0.012723 0.001958 -0.002773 0.000000 0.036969 0.000000
# 6 0.000000 0.000000 0.000000 0.026199 0.000000 0.043671
#
#
# Mechanical properties :
#
#
# Convention : Reuss Voigt Hill
#
# Bulk Modulus (GPa) = 25.44556 28.49031 26.96794
# Shear Modulus (GPa) = 23.09546 32.94019 28.01783
#
# Velocity S-wave (km/s) = 2.97905 3.55777 3.28119
# Velocity P-wave (km/s) = 4.64874 5.27492 4.97170
#
# Compressibility (1/GPa) = 0.03929958
#
# Stress axis : x y z
#
# Youngs Moduli (GPa) = 52.30072 77.34477 101.76613
#
# Poissons Ratio (x) = 0.06400 0.13499
# Poissons Ratio (y) = 0.04328 -0.08812
# Poissons Ratio (z) = 0.06938 -0.06697
#
# Static dielectric constant tensor:
#      x y z
#    x 2.122540 0.000000 0.083320 
#    y 0.000000 2.368260 0.000000 
#    z 0.083320 0.000000 1.934330 
# 
# From -- ./inp_files/74398.got.cif
#   From: 2010.05.17/outbox.cif.g08.bks.cpg/sg13_38_cif.got.tgz:74398.got - 2010.06.03 16:44:36.
