data_PCOD9237003
_publ_section_title
;
Structure prediction by ZEFSAII (Michael W. Deem and Ramdas Pophale) SiO2 
 PCOD9237003
Probable space group: P 2/C
;
_chemical_formula_sum "Si O2"
_cell_formula_units_Z 20
_cell_length_a 17.143584
_cell_length_b 5.118195
_cell_length_c 17.468597
_cell_angle_alpha 90.000000
_cell_angle_beta 149.232351
_cell_angle_gamma 90.000000
_cell_volume 784.099495
_symmetry_space_group_name_H-M "P 2/C"
_symmetry_group_IT_number 13
_symmetry_cell_setting 'monoclinic'
loop_
_space_group_symop_operation_xyz
x,y,z
-x,y,1/2-z
-x,-y,-z
x,-y,1/2+z
loop_
_atom_site_type_symbol
_atom_site_label
_atom_site_fract_x
_atom_site_fract_y
_atom_site_fract_z
Si Si1 0.886797 0.869106 0.013584
Si Si2 0.441135 0.387687 0.114120
Si Si3 0.838927 0.202536 0.315018
Si Si4 0.887125 0.498398 0.208020
Si Si5 0.387641 0.898424 0.285570
O O1 0.991334 0.716169 0.161383
O O2 0.853399 0.675607 0.912446
O O3 0.726536 0.026608 0.882949
O O4 0.001362 0.081896 0.075827
O O5 0.500000 0.392930 0.250000
O O6 0.481444 0.114488 0.109452
O O7 0.535344 0.618943 0.152449
O O8 0.260579 0.421125 0.963548
O O9 0.808676 0.385982 0.218439
O O10 0.716492 0.973955 0.229147
O O11 0.000000 0.321594 0.250000
#
# Coordination Sequence:
#
# PCOD9237003 Si02
#       5
#     4   4   4   4   4
#     4   9  22  44  73 102 137 192 246 300 358 439
#     4  12  28  47  71 109 153 196 234 313 380 427
#     4   9  23  43  77 101 139 193 249 301 364 432
#     4  12  27  42  73 105 149 191 254 298 368 449
#     4  10  25  47  77  99 148 190 246 299 372 435
#
# _framework density 25.506968000000001
#
# number of rings (size 3 to 8) (size 9 to 14) (size 15 to 20)
#    1.200    0.400    0.000    2.400   11.200    2.400 
#    0.000    0.000    0.000    0.000    0.000    0.000 
#    0.000    0.000    0.000    0.000    0.000    0.000 
#
# Total GULP energy -111580.756906 kJ/mol
# GULP energy per Si atom -5579.037845 kJ/mol
# Density = 2.544891 g / cm^3
# Si number density = 25.506968 Si / 1000 Ang^3
#
#
#
# Elastic Constant Matrix: (Units=GPa)
#
#
# Indices 1 2 3 4 5 6 
#
# 1 60.5735 12.6595 39.6272 0.0000 17.8037 0.0000
# 2 12.6595 53.8373 1.2539 0.0000 0.6509 0.0000
# 3 39.6272 1.2539 141.0846 0.0000 7.9886 0.0000
# 4 0.0000 0.0000 0.0000 -0.7049 0.0000 5.9023
# 5 17.8037 0.6509 7.9886 0.0000 52.5774 0.0000
# 6 0.0000 0.0000 0.0000 5.9023 0.0000 22.3156
#
#
#
# Elastic Compliance Matrix: (Units=1/GPa)
#
#
# Indices 1 2 3 4 5 6 
#
# 1 0.023774 -0.005360 -0.006231 0.000000 -0.007037 0.000000
# 2 -0.005360 0.019789 0.001252 0.000000 0.001380 0.000000
# 3 -0.006231 0.001252 0.008784 0.000000 0.000760 0.000000
# 4 0.000000 0.000000 0.000000 -0.441304 0.000000 0.116721
# 5 -0.007037 0.001380 0.000760 0.000000 0.021270 0.000000
# 6 0.000000 0.000000 0.000000 0.116721 0.000000 0.013940
#
#
# Mechanical properties :
#
#
# Convention : Reuss Voigt Hill
#
# Bulk Modulus (GPa) = 31.57852 40.28629 35.93241
# Shear Modulus (GPa) = -15.50335 28.30129 6.39897
#
# Velocity S-wave (km/s) = -2.46805 3.33461 1.58561
# Velocity P-wave (km/s) = 2.07015 5.53666 4.17972
#
# Compressibility (1/GPa) = 0.03166709
#
# Stress axis : x y z
#
# Youngs Moduli (GPa) = 42.06264 50.53304 113.84274
#
# Poissons Ratio (x) = 0.27086 0.70940
# Poissons Ratio (y) = 0.22546 -0.14247
# Poissons Ratio (z) = 0.26211 -0.06324
#
# Static dielectric constant tensor:
#      x y z
#    x 2.165400 0.000000 -0.161100 
#    y 0.000000 2.085510 0.000000 
#    z -0.161100 0.000000 2.105640 
# 
# From -- ./inp_files/69193.got.cif
#   From: 2010.05.17/outbox.cif.g08.bks.cpg/sg13_35_cif.got.tgz:69193.got - 2010.06.03 16:44:36.
