data_PCOD9237096
_publ_section_title
;
Structure prediction by ZEFSAII (Michael W. Deem and Ramdas Pophale) SiO2 
 PCOD9237096
Probable space group: P 2/C
;
_chemical_formula_sum "Si O2"
_cell_formula_units_Z 14
_cell_length_a 5.141225
_cell_length_b 4.979764
_cell_length_c 24.330059
_cell_angle_alpha 90.000000
_cell_angle_beta 64.999412
_cell_angle_gamma 90.000000
_cell_volume 564.536683
_symmetry_space_group_name_H-M "P 2/C"
_symmetry_group_IT_number 13
_symmetry_cell_setting 'monoclinic'
loop_
_space_group_symop_operation_xyz
x,y,z
-x,y,1/2-z
-x,-y,-z
x,-y,1/2+z
loop_
_atom_site_type_symbol
_atom_site_label
_atom_site_fract_x
_atom_site_fract_y
_atom_site_fract_z
Si Si1 0.033761 0.437584 0.357494
Si Si2 0.536264 0.937584 0.857494
Si Si3 0.590331 0.750000 0.454834
Si Si4 0.000000 0.250001 0.750000
O O1 0.284106 0.250001 0.357947
O O2 0.097953 0.572313 0.293048
O O3 0.758348 0.249999 0.370826
O O4 0.913987 0.671435 0.407935
O O5 0.454270 0.171435 0.907935
O O6 0.729855 0.072315 0.793048
O O7 0.500000 0.500000 0.500000
O O8 0.500000 0.000000 0.500000
#
# Coordination Sequence:
#
# PCOD9237096 Si02
#       4
#     4   4   4   2
#     4  11  26  48  76 114 156 205 265 326 400 475
#     4  11  26  48  76 114 156 205 265 326 400 475
#     4  11  24  49  80 117 156 207 262 328 392 473
#     4  10  26  46  76 112 156 214 264 334 404 486
#
# _framework density 24.799097
#
# number of rings (size 3 to 8) (size 9 to 14) (size 15 to 20)
#    0.000    1.143    2.857    0.857    0.000   18.286 
#    0.000    0.000    0.000    0.000    0.000    0.000 
#    0.000    0.000    0.000    0.000    0.000    0.000 
#
# Total GULP energy -78355.298298 kJ/mol
# GULP energy per Si atom -5596.807021 kJ/mol
# Density = 2.474265 g / cm^3
# Si number density = 24.799097 Si / 1000 Ang^3
#
#
#
# Elastic Constant Matrix: (Units=GPa)
#
#
# Indices 1 2 3 4 5 6 
#
# 1 233.2965 106.1961 83.2157 0.0000 14.2473 0.0000
# 2 106.1961 210.1842 108.0354 0.0000 -0.1443 0.0000
# 3 83.2157 108.0354 228.6012 0.0000 -13.8734 0.0000
# 4 0.0000 0.0000 0.0000 89.6645 0.0000 -1.7891
# 5 14.2473 -0.1443 -13.8734 0.0000 -12.8890 0.0000
# 6 0.0000 0.0000 0.0000 -1.7891 0.0000 67.0183
#
#
#
# Elastic Compliance Matrix: (Units=1/GPa)
#
#
# Indices 1 2 3 4 5 6 
#
# 1 0.005138 -0.002405 -0.000364 0.000000 0.006099 0.000000
# 2 -0.002405 0.007294 -0.002570 0.000000 0.000026 0.000000
# 3 -0.000364 -0.002570 0.005349 0.000000 -0.006131 0.000000
# 4 0.000000 0.000000 0.000000 0.011159 0.000000 0.000298
# 5 0.006099 0.000026 -0.006131 0.000000 -0.064245 0.000000
# 6 0.000000 0.000000 0.000000 0.000298 0.000000 0.014929
#
#
# Mechanical properties :
#
#
# Convention : Reuss Voigt Hill
#
# Bulk Modulus (GPa) = 140.76476 140.77514 140.76995
# Shear Modulus (GPa) = -682.14744 53.73440 -314.20652
#
# Velocity S-wave (km/s) = -16.60321 4.65993 -11.26836
# Velocity P-wave (km/s) = 17.62584 9.26513 10.60254
#
# Compressibility (1/GPa) = 0.00710405
#
# Stress axis : x y z
#
# Youngs Moduli (GPa) = 194.60944 137.10126 186.93974
#
# Poissons Ratio (x) = 0.32974 0.06801
# Poissons Ratio (y) = 0.46805 0.48043
# Poissons Ratio (z) = 0.07080 0.35235
#
# Static dielectric constant tensor:
#      x y z
#    x 1.963430 0.000000 -0.001140 
#    y 0.000000 2.060400 0.000000 
#    z -0.001140 0.000000 1.977840 
# 
# From -- ./inp_files/82828.got.cif
#   From: 2010.05.17/outbox.cif.g08.bks.cpg/sg13_42_cif.got.tgz:82828.got - 2010.06.03 16:44:36.
