data_PCOD9237492
_publ_section_title
;
Structure prediction by ZEFSAII (Michael W. Deem and Ramdas Pophale) SiO2 
 PCOD9237492
Probable space group: P 2/C
;
_chemical_formula_sum "Si O2"
_cell_formula_units_Z 32
_cell_length_a 12.944826
_cell_length_b 12.397954
_cell_length_c 15.785625
_cell_angle_alpha 90.000000
_cell_angle_beta 144.324269
_cell_angle_gamma 90.000000
_cell_volume 1477.486209
_symmetry_space_group_name_H-M "P 2/C"
_symmetry_group_IT_number 13
_symmetry_cell_setting 'monoclinic'
loop_
_space_group_symop_operation_xyz
x,y,z
-x,y,1/2-z
-x,-y,-z
x,-y,1/2+z
loop_
_atom_site_type_symbol
_atom_site_label
_atom_site_fract_x
_atom_site_fract_y
_atom_site_fract_z
Si Si1 0.198615 0.657668 0.514298
Si Si2 0.262811 0.331694 0.252358
Si Si3 0.697285 0.431654 0.914119
Si Si4 0.367583 0.920515 0.085726
Si Si5 0.794825 0.866352 0.100344
Si Si6 0.193218 0.422158 0.700917
Si Si7 0.920561 0.761375 0.607041
Si Si8 0.551477 0.764622 0.070780
O O1 0.281420 0.674252 0.663056
O O2 0.293268 0.550583 0.540032
O O3 0.216499 0.762155 0.468602
O O4 0.991007 0.624874 0.386387
O O5 0.238667 0.457384 0.261873
O O6 0.416974 0.276312 0.408799
O O7 0.081648 0.271448 0.155314
O O8 0.500000 0.407146 0.750000
O O9 0.814742 0.433433 0.906358
O O10 0.789314 0.341096 0.031661
O O11 0.500000 0.939597 0.250000
O O12 0.453880 0.839731 0.074163
O O13 0.197285 0.856765 0.007670
O O14 0.307278 0.031742 0.004875
O O15 0.703735 0.833882 0.127287
O O16 0.000000 0.892999 0.250000
O O17 0.350931 0.339359 0.825413
O O18 0.000000 0.793746 0.750000
#
# Coordination Sequence:
#
# PCOD9237492 Si02
#       8
#     4   4   4   4   4   4   4   4
#     4  11  24  45  69 100 146 191 231 285 354 430
#     4  11  24  41  71 109 151 184 231 285 352 437
#     4  11  23  38  68 104 149 189 236 286 351 424
#     4  12  29  50  75 103 137 183 246 302 360 425
#     4  12  29  51  74 100 141 187 246 300 357 423
#     4  11  21  45  66 105 146 186 230 285 354 429
#     4  12  22  42  68 103 142 187 232 291 352 419
#     4  12  26  47  73 105 145 183 238 303 353 418
#
# _framework density 21.658408000000001
#
# number of rings (size 3 to 8) (size 9 to 14) (size 15 to 20)
#    0.000    0.500    5.000    3.750    5.250    1.500 
#    0.000    1.250    0.000    0.000    0.000    0.000 
#    0.000    0.000    0.000    0.000    0.000    0.000 
#
# Total GULP energy -179218.200751 kJ/mol
# GULP energy per Si atom -5600.568773 kJ/mol
# Density = 2.160911 g / cm^3
# Si number density = 21.658408 Si / 1000 Ang^3
#
#
#
# Elastic Constant Matrix: (Units=GPa)
#
#
# Indices 1 2 3 4 5 6 
#
# 1 62.3459 26.9325 9.2355 0.0000 11.8514 0.0000
# 2 26.9325 64.8661 13.8312 0.0000 0.1033 0.0000
# 3 9.2355 13.8312 101.7319 0.0000 6.5123 0.0000
# 4 0.0000 0.0000 0.0000 40.7419 0.0000 -19.2337
# 5 11.8514 0.1033 6.5123 0.0000 28.8572 0.0000
# 6 0.0000 0.0000 0.0000 -19.2337 0.0000 -0.1944
#
#
#
# Elastic Compliance Matrix: (Units=1/GPa)
#
#
# Indices 1 2 3 4 5 6 
#
# 1 0.021587 -0.008909 -0.000186 0.000000 -0.008792 0.000000
# 2 -0.008909 0.019559 -0.002111 0.000000 0.004065 0.000000
# 3 -0.000186 -0.002111 0.010277 0.000000 -0.002235 0.000000
# 4 0.000000 0.000000 0.000000 0.000515 0.000000 -0.050902
# 5 -0.008792 0.004065 -0.002235 0.000000 0.038754 0.000000
# 6 0.000000 0.000000 0.000000 -0.050902 0.000000 -0.107824
#
#
# Mechanical properties :
#
#
# Convention : Reuss Voigt Hill
#
# Bulk Modulus (GPa) = 34.46906 36.54915 35.50911
# Shear Modulus (GPa) = 334.46372 25.81057 180.13714
#
# Velocity S-wave (km/s) = 12.44034 3.45586 9.12976
# Velocity P-wave (km/s) = 14.90969 5.73026 11.29457
#
# Compressibility (1/GPa) = 0.02901152
#
# Stress axis : x y z
#
# Youngs Moduli (GPa) = 46.32407 51.12694 97.30791
#
# Poissons Ratio (x) = 0.45551 0.01806
# Poissons Ratio (y) = 0.41272 0.20538
# Poissons Ratio (z) = 0.00860 0.10791
#
# Static dielectric constant tensor:
#      x y z
#    x 1.801030 0.000000 0.022560 
#    y 0.000000 1.770950 0.000000 
#    z 0.022560 0.000000 1.783520 
# 
# From -- ./inp_files/68698.got.cif
#   From: 2010.05.17/outbox.cif.g08.bks.cpg/sg13_35_cif.got.tgz:68698.got - 2010.06.03 16:44:36.
