data_PCOD9237779
_publ_section_title
;
Structure prediction by ZEFSAII (Michael W. Deem and Ramdas Pophale) SiO2 
 PCOD9237779
Probable space group: P 2/C
;
_chemical_formula_sum "Si O2"
_cell_formula_units_Z 16
_cell_length_a 8.255134
_cell_length_b 10.034556
_cell_length_c 17.150020
_cell_angle_alpha 90.000000
_cell_angle_beta 152.906359
_cell_angle_gamma 90.000000
_cell_volume 647.029244
_symmetry_space_group_name_H-M "P 2/C"
_symmetry_group_IT_number 13
_symmetry_cell_setting 'monoclinic'
loop_
_space_group_symop_operation_xyz
x,y,z
-x,y,1/2-z
-x,-y,-z
x,-y,1/2+z
loop_
_atom_site_type_symbol
_atom_site_label
_atom_site_fract_x
_atom_site_fract_y
_atom_site_fract_z
Si Si1 0.733825 0.550270 0.528052
Si Si2 0.853773 0.072046 0.273902
Si Si3 0.472850 0.188606 0.645131
Si Si4 0.509210 0.321070 0.161614
O O1 0.500000 0.500000 0.500000
O O2 0.522589 0.666183 0.391715
O O3 0.786206 0.418951 0.498096
O O4 0.116023 0.616284 0.707422
O O5 0.113075 0.122227 0.454229
O O6 0.000000 0.097163 0.250000
O O7 0.511720 0.168523 0.136213
O O8 0.764025 0.917833 0.242886
O O9 0.500000 0.196932 0.750000
O O10 0.500000 0.326520 0.250000
#
# Coordination Sequence:
#
# PCOD9237779 Si02
#       4
#     4   4   4   4
#     4  11  24  43  66  98 134 177 230 286 345 411
#     4  11  24  43  66  99 139 183 230 286 344 409
#     4  11  24  43  68 102 137 179 230 285 347 412
#     4  11  23  41  64  93 131 177 227 283 339 404
#
# _framework density 24.728404999999999
#
# number of rings (size 3 to 8) (size 9 to 14) (size 15 to 20)
#    0.000    1.000    0.000    7.500    0.000    8.000 
#    0.000    0.000    0.000    0.000    0.000    0.000 
#    0.000    0.000    0.000    0.000    0.000    0.000 
#
# Total GULP energy -89577.467541 kJ/mol
# GULP energy per Si atom -5598.591721 kJ/mol
# Density = 2.467212 g / cm^3
# Si number density = 24.728405 Si / 1000 Ang^3
#
#
#
# Elastic Constant Matrix: (Units=GPa)
#
#
# Indices 1 2 3 4 5 6 
#
# 1 106.0305 51.2327 7.8113 0.0000 -21.5641 0.0000
# 2 51.2327 94.5043 71.0035 0.0000 -23.8698 0.0000
# 3 7.8113 71.0035 105.5327 0.0000 -7.5397 0.0000
# 4 0.0000 0.0000 0.0000 27.8200 0.0000 -12.2555
# 5 -21.5641 -23.8698 -7.5397 0.0000 35.3565 0.0000
# 6 0.0000 0.0000 0.0000 -12.2555 0.0000 31.5132
#
#
#
# Elastic Compliance Matrix: (Units=1/GPa)
#
#
# Indices 1 2 3 4 5 6 
#
# 1 0.016670 -0.015783 0.009495 0.000000 0.001537 0.000000
# 2 -0.015783 0.042277 -0.026326 0.000000 0.013302 0.000000
# 3 0.009495 -0.026326 0.026026 0.000000 -0.006432 0.000000
# 4 0.000000 0.000000 0.000000 0.043377 0.000000 0.016869
# 5 0.001537 0.013302 -0.006432 0.000000 0.036829 0.000000
# 6 0.000000 0.000000 0.000000 0.016869 0.000000 0.038293
#
#
# Mechanical properties :
#
#
# Convention : Reuss Voigt Hill
#
# Bulk Modulus (GPa) = 50.64526 62.90693 56.77609
# Shear Modulus (GPa) = 18.16327 30.67260 24.41793
#
# Velocity S-wave (km/s) = 2.71313 3.52572 3.14577
# Velocity P-wave (km/s) = 5.50816 6.48604 6.01699
#
# Compressibility (1/GPa) = 0.01974519
#
# Stress axis : x y z
#
# Youngs Moduli (GPa) = 59.98648 23.65376 38.42379
#
# Poissons Ratio (x) = 0.37332 -0.36483
# Poissons Ratio (y) = 0.94676 1.01153
# Poissons Ratio (z) = -0.56956 0.62270
#
# Static dielectric constant tensor:
#      x y z
#    x 1.898200 0.000000 0.063530 
#    y 0.000000 1.939730 0.000000 
#    z 0.063530 0.000000 2.034170 
# 
# From -- ./inp_files/14696.got.cif
#   From: 2010.05.17/outbox.cif.g08.bks.cpg/sg13_8_cif.got.tgz:14696.got - 2010.06.03 16:44:36.
