data_PCOD9237304
_publ_section_title
;
Structure prediction by ZEFSAII (Michael W. Deem and Ramdas Pophale) SiO2 
 PCOD9237304
Probable space group: P 2/C
;
_chemical_formula_sum "Si O2"
_cell_formula_units_Z 20
_cell_length_a 9.227173
_cell_length_b 7.767292
_cell_length_c 27.988084
_cell_angle_alpha 90.000000
_cell_angle_beta 30.108811
_cell_angle_gamma 90.000000
_cell_volume 1006.252313
_symmetry_space_group_name_H-M "P 2/C"
_symmetry_group_IT_number 13
_symmetry_cell_setting 'monoclinic'
loop_
_space_group_symop_operation_xyz
x,y,z
-x,y,1/2-z
-x,-y,-z
x,-y,1/2+z
loop_
_atom_site_type_symbol
_atom_site_label
_atom_site_fract_x
_atom_site_fract_y
_atom_site_fract_z
Si Si1 0.835873 0.187271 0.147470
Si Si2 0.082126 0.298437 0.979874
Si Si3 0.952178 0.520436 0.847936
Si Si4 0.843962 0.794531 0.148590
Si Si5 0.693047 0.401301 0.834374
O O1 0.500000 0.233133 0.250000
O O2 0.030407 0.320831 0.121587
O O3 0.882688 0.992795 0.151715
O O4 0.903659 0.206750 0.072134
O O5 0.057583 0.223819 0.934167
O O6 0.415838 0.294409 0.901175
O O7 0.000000 0.500000 0.000000
O O8 0.994200 0.345362 0.865538
O O9 0.225835 0.527674 0.732729
O O10 0.685541 0.500842 0.887071
O O11 0.500000 0.755119 0.250000
O O12 0.000000 0.298912 0.750000
#
# Coordination Sequence:
#
# PCOD9237304 Si02
#       5
#     4   4   4   4   4
#     4  11  23  35  60  91 121 154 201 244 293 351
#     4  12  21  36  65  89 116 157 199 244 293 353
#     4   9  18  40  59  80 121 151 198 237 301 338
#     4  11  20  38  62  86 118 156 196 247 295 351
#     4   8  20  37  64  85 117 159 198 240 297 357
#
# _framework density 19.875731999999999
#
# number of rings (size 3 to 8) (size 9 to 14) (size 15 to 20)
#    1.200    0.400    4.000    2.400    0.000    0.800 
#    0.000    5.000    4.400    0.000    0.000    0.000 
#    0.000    0.000    0.000    0.000    0.000    0.000 
#
# Total GULP energy -111467.846730 kJ/mol
# GULP energy per Si atom -5573.392336 kJ/mol
# Density = 1.983049 g / cm^3
# Si number density = 19.875732 Si / 1000 Ang^3
#
#
#
# Elastic Constant Matrix: (Units=GPa)
#
#
# Indices 1 2 3 4 5 6 
#
# 1 84.0692 27.0612 23.1417 0.0000 28.1079 0.0000
# 2 27.0612 68.7259 -9.5525 0.0000 11.4317 0.0000
# 3 23.1417 -9.5525 71.3345 0.0000 16.6808 0.0000
# 4 0.0000 0.0000 0.0000 19.2072 0.0000 2.9921
# 5 28.1079 11.4317 16.6808 0.0000 42.3439 0.0000
# 6 0.0000 0.0000 0.0000 2.9921 0.0000 -0.8222
#
#
#
# Elastic Compliance Matrix: (Units=1/GPa)
#
#
# Indices 1 2 3 4 5 6 
#
# 1 0.018062 -0.006375 -0.004750 0.000000 -0.008397 0.000000
# 2 -0.006375 0.018228 0.005144 0.000000 -0.002715 0.000000
# 3 -0.004750 0.005144 0.017442 0.000000 -0.005107 0.000000
# 4 0.000000 0.000000 0.000000 0.033228 0.000000 0.120916
# 5 -0.008397 -0.002715 -0.005107 0.000000 0.031935 0.000000
# 6 0.000000 0.000000 0.000000 0.120916 0.000000 -0.776196
#
#
# Mechanical properties :
#
#
# Convention : Reuss Voigt Hill
#
# Bulk Modulus (GPa) = 23.94053 33.93671 28.93862
# Shear Modulus (GPa) = -7.91872 24.37773 8.22950
#
# Velocity S-wave (km/s) = -1.99819 3.50595 2.03702
# Velocity P-wave (km/s) = 2.59761 5.78796 4.48598
#
# Compressibility (1/GPa) = 0.04177017
#
# Stress axis : x y z
#
# Youngs Moduli (GPa) = 55.36418 54.86182 57.33150
#
# Poissons Ratio (x) = 0.34977 0.27231
# Poissons Ratio (y) = 0.35297 -0.29492
# Poissons Ratio (z) = 0.26296 -0.28222
#
# Static dielectric constant tensor:
#      x y z
#    x 1.725490 0.000000 0.014130 
#    y 0.000000 1.677560 0.000000 
#    z 0.014130 0.000000 1.809580 
# 
# From -- ./inp_files/84676.got.cif
#   From: 2010.05.17/outbox.cif.g08.bks.cpg/sg13_43_cif.got.tgz:84676.got - 2010.06.03 16:44:36.
