data_PCOD9237906
_publ_section_title
;
Structure prediction by ZEFSAII (Michael W. Deem and Ramdas Pophale) SiO2 
 PCOD9237906
Probable space group: P 2/C
;
_chemical_formula_sum "Si O2"
_cell_formula_units_Z 18
_cell_length_a 21.277353
_cell_length_b 5.292734
_cell_length_c 9.947843
_cell_angle_alpha 90.000000
_cell_angle_beta 143.481346
_cell_angle_gamma 90.000000
_cell_volume 666.661240
_symmetry_space_group_name_H-M "P 2/C"
_symmetry_group_IT_number 13
_symmetry_cell_setting 'monoclinic'
loop_
_space_group_symop_operation_xyz
x,y,z
-x,y,1/2-z
-x,-y,-z
x,-y,1/2+z
loop_
_atom_site_type_symbol
_atom_site_label
_atom_site_fract_x
_atom_site_fract_y
_atom_site_fract_z
Si Si1 0.654474 0.180262 0.422725
Si Si2 0.500000 0.193098 0.750000
Si Si3 0.340052 0.532009 0.302355
Si Si4 0.118508 0.916437 0.160817
Si Si5 0.884086 0.411861 0.494362
O O1 0.562964 0.979110 0.251037
O O2 0.631828 0.436529 0.299927
O O3 0.654576 0.230609 0.584852
O O4 0.767117 0.061433 0.570734
O O5 0.412280 0.344406 0.515429
O O6 0.213829 0.492878 0.084914
O O7 0.116611 0.618611 0.125894
O O8 0.133078 0.119181 0.067318
O O9 0.000000 0.000000 0.000000
O O10 0.000000 0.439990 0.750000
#
# Coordination Sequence:
#
# PCOD9237906 Si02
#       5
#     4   2   4   4   4
#     4  11  26  47  75 109 152 199 256 321 386 464
#     4  12  24  48  72 108 146 198 264 320 382 458
#     4  11  26  47  73 109 147 199 253 315 391 456
#     4  11  23  44  72 112 151 201 251 315 386 463
#     4  11  23  44  71 113 152 197 249 315 384 465
#
# _framework density 27.000219999999999
#
# number of rings (size 3 to 8) (size 9 to 14) (size 15 to 20)
#    0.000    0.889    2.222    4.000    0.000    7.111 
#    0.000    0.000    0.000    0.000    0.000    0.000 
#    0.000    0.000    0.000    0.000    0.000    0.000 
#
# Total GULP energy -100383.764128 kJ/mol
# GULP energy per Si atom -5576.875785 kJ/mol
# Density = 2.693877 g / cm^3
# Si number density = 27.000220 Si / 1000 Ang^3
#
#
#
# Elastic Constant Matrix: (Units=GPa)
#
#
# Indices 1 2 3 4 5 6 
#
# 1 80.6059 33.8556 56.1759 0.0000 12.6647 0.0000
# 2 33.8556 24.7077 67.3069 0.0000 46.2976 0.0000
# 3 56.1759 67.3069 134.9334 0.0000 6.3852 0.0000
# 4 0.0000 0.0000 0.0000 46.2101 0.0000 11.2943
# 5 12.6647 46.2976 6.3852 0.0000 26.3020 0.0000
# 6 0.0000 0.0000 0.0000 11.2943 0.0000 28.7087
#
#
#
# Elastic Compliance Matrix: (Units=1/GPa)
#
#
# Indices 1 2 3 4 5 6 
#
# 1 0.018246 -0.002443 -0.006237 0.000000 -0.002971 0.000000
# 2 -0.002443 -0.012118 0.006066 0.000000 0.021034 0.000000
# 3 -0.006237 0.006066 0.007430 0.000000 -0.009479 0.000000
# 4 0.000000 0.000000 0.000000 0.023942 0.000000 -0.009419
# 5 -0.002971 0.021034 -0.009479 0.000000 0.004728 0.000000
# 6 0.000000 0.000000 0.000000 -0.009419 0.000000 0.038538
#
#
# Mechanical properties :
#
#
# Convention : Reuss Voigt Hill
#
# Bulk Modulus (GPa) = 120.03412 61.65820 90.84616
# Shear Modulus (GPa) = 56.32512 25.77142 41.04827
#
# Velocity S-wave (km/s) = 4.57234 3.09283 3.90332
# Velocity P-wave (km/s) = 8.51048 5.96992 7.35079
#
# Compressibility (1/GPa) = 0.00833096
#
# Stress axis : x y z
#
# Youngs Moduli (GPa) = 54.80790 -82.52345 134.58489
#
# Poissons Ratio (x) = -0.20159 0.83939
# Poissons Ratio (y) = 0.13389 -0.81642
# Poissons Ratio (z) = 0.34183 0.50060
#
# Static dielectric constant tensor:
#      x y z
#    x 1.417180 0.000000 -0.769410 
#    y 0.000000 2.152340 0.000000 
#    z -0.769410 0.000000 1.416280 
# 
# From -- ./inp_files/35021.got.cif
#   From: 2010.05.17/outbox.cif.g08.bks.cpg/sg13_18_cif.got.tgz:35021.got - 2010.06.03 16:44:36.
