data_PCOD9237264
_publ_section_title
;
Structure prediction by ZEFSAII (Michael W. Deem and Ramdas Pophale) SiO2 
 PCOD9237264
Probable space group: P 2/C
;
_chemical_formula_sum "Si O2"
_cell_formula_units_Z 26
_cell_length_a 16.511178
_cell_length_b 6.610102
_cell_length_c 14.149640
_cell_angle_alpha 90.000000
_cell_angle_beta 89.923029
_cell_angle_gamma 90.000000
_cell_volume 1544.298392
_symmetry_space_group_name_H-M "P 2/C"
_symmetry_group_IT_number 13
_symmetry_cell_setting 'monoclinic'
loop_
_space_group_symop_operation_xyz
x,y,z
-x,y,1/2-z
-x,-y,-z
x,-y,1/2+z
loop_
_atom_site_type_symbol
_atom_site_label
_atom_site_fract_x
_atom_site_fract_y
_atom_site_fract_z
Si Si1 0.304886 0.724336 0.249518
Si Si2 0.593444 0.022320 0.615059
Si Si3 0.887072 0.750253 0.250152
Si Si4 0.410097 0.660410 0.735885
Si Si5 0.000028 0.993484 0.113357
Si Si6 0.000000 0.631102 0.750000
Si Si7 0.591678 0.977184 0.396704
O O1 0.344215 0.816394 0.344260
O O2 0.208936 0.743018 0.249665
O O3 0.339134 0.499755 0.238765
O O4 0.344876 0.852812 0.164663
O O5 0.500264 0.097615 0.622303
O O6 0.599346 0.825866 0.681366
O O7 0.608248 0.967981 0.506991
O O8 0.924147 0.871237 0.340415
O O9 0.924617 0.524379 0.250012
O O10 0.924145 0.871554 0.159876
O O11 0.500000 0.568255 0.750000
O O12 0.408285 0.791831 0.640175
O O13 0.000080 0.217022 0.160380
O O14 0.000000 0.000000 0.000000
#
# Coordination Sequence:
#
# PCOD9237264 Si02
#       7
#     4   4   4   4   4   2   4
#     4  11  20  33  51  76 109 134 166 214 259 302
#     4   9  19  35  52  72 102 141 182 217 249 292
#     4   9  21  34  52  83 105 130 166 204 259 309
#     4   9  18  32  51  72  98 139 178 211 258 300
#     4   9  19  39  62  76  96 135 171 201 248 310
#     4   8  18  38  54  74 108 130 158 212 250 304
#     4   9  19  35  52  72 102 141 182 217 249 292
#
# _framework density 16.836124999999999
#
# number of rings (size 3 to 8) (size 9 to 14) (size 15 to 20)
#    0.000    3.077    0.000    2.308    0.000    9.846 
#    0.000    7.692    0.000    0.000    0.000    0.000 
#    0.000    0.000    0.000    0.000    0.000    0.000 
#
# Total GULP energy -144863.715820 kJ/mol
# GULP energy per Si atom -5571.681378 kJ/mol
# Density = 1.679781 g / cm^3
# Si number density = 16.836125 Si / 1000 Ang^3
#
#
#
# Elastic Constant Matrix: (Units=GPa)
#
#
# Indices 1 2 3 4 5 6 
#
# 1 136.9176 40.6579 42.5118 0.0000 0.3258 0.0000
# 2 40.6579 80.2576 32.0454 0.0000 0.7496 0.0000
# 3 42.5118 32.0454 122.2191 0.0000 -0.7241 0.0000
# 4 0.0000 0.0000 0.0000 5.5947 0.0000 -2.8193
# 5 0.3258 0.7496 -0.7241 0.0000 13.4880 0.0000
# 6 0.0000 0.0000 0.0000 -2.8193 0.0000 35.0503
#
#
#
# Elastic Compliance Matrix: (Units=1/GPa)
#
#
# Indices 1 2 3 4 5 6 
#
# 1 0.009090 -0.003732 -0.002184 0.000000 -0.000129 0.000000
# 2 -0.003732 0.015461 -0.002761 0.000000 -0.000917 0.000000
# 3 -0.002184 -0.002761 0.009670 0.000000 0.000725 0.000000
# 4 0.000000 0.000000 0.000000 0.186291 0.000000 0.014985
# 5 -0.000129 -0.000917 0.000725 0.000000 0.074233 0.000000
# 6 0.000000 0.000000 0.000000 0.014985 0.000000 0.029736
#
#
# Mechanical properties :
#
#
# Convention : Reuss Voigt Hill
#
# Bulk Modulus (GPa) = 59.28658 63.31384 61.30021
# Shear Modulus (GPa) = 14.39021 25.77188 20.08104
#
# Velocity S-wave (km/s) = 2.92673 3.91672 3.45735
# Velocity P-wave (km/s) = 6.83457 7.62508 7.24062
#
# Compressibility (1/GPa) = 0.01686722
#
# Stress axis : x y z
#
# Youngs Moduli (GPa) = 110.00732 64.67682 103.41176
#
# Poissons Ratio (x) = 0.24136 0.22587
# Poissons Ratio (y) = 0.41052 0.28556
# Poissons Ratio (z) = 0.24028 0.17860
#
# Static dielectric constant tensor:
#      x y z
#    x 1.558870 0.000000 0.001080 
#    y 0.000000 1.574630 0.000000 
#    z 0.001080 0.000000 1.564500 
# 
# From -- ./inp_files/54280.got.cif
#   From: 2010.05.17/outbox.cif.g08.bks.cpg/sg13_28_cif.got.tgz:54280.got - 2010.06.03 16:44:36.
