data_PCOD9237212
_publ_section_title
;
Structure prediction by ZEFSAII (Michael W. Deem and Ramdas Pophale) SiO2 
 PCOD9237212
Probable space group: P 2/C
;
_chemical_formula_sum "Si O2"
_cell_formula_units_Z 20
_cell_length_a 12.010423
_cell_length_b 7.404235
_cell_length_c 18.024648
_cell_angle_alpha 90.000000
_cell_angle_beta 149.403589
_cell_angle_gamma 90.000000
_cell_volume 815.853920
_symmetry_space_group_name_H-M "P 2/C"
_symmetry_group_IT_number 13
_symmetry_cell_setting 'monoclinic'
loop_
_space_group_symop_operation_xyz
x,y,z
-x,y,1/2-z
-x,-y,-z
x,-y,1/2+z
loop_
_atom_site_type_symbol
_atom_site_label
_atom_site_fract_x
_atom_site_fract_y
_atom_site_fract_z
Si Si1 0.830882 0.358117 0.085495
Si Si2 0.651132 0.288701 0.659198
Si Si3 0.219310 0.320482 0.209787
Si Si4 0.319620 0.224214 0.992992
Si Si5 0.053697 0.838238 0.476869
O O1 0.761545 0.568698 0.036424
O O2 0.000000 0.341848 0.250000
O O3 0.975657 0.291548 0.100215
O O4 0.604048 0.258695 0.972364
O O5 0.697881 0.503907 0.695912
O O6 0.715462 0.212563 0.615345
O O7 0.815841 0.221141 0.814719
O O8 0.423168 0.191152 0.344645
O O9 0.187075 0.310789 0.102376
O O10 0.184872 0.116335 0.977077
O O11 0.000000 0.000000 0.500000
#
# Coordination Sequence:
#
# PCOD9237212 Si02
#       5
#     4   4   4   4   4
#     4  11  18  37  72 113 134 162 234 300 348 410
#     4  11  22  41  77 103 132 184 238 291 351 413
#     4  11  22  42  71 106 139 175 230 302 348 406
#     4  11  21  42  76  99 137 183 230 288 361 413
#     4  12  27  46  63  99 149 192 233 282 349 427
#
# _framework density 24.514192999999999
#
# number of rings (size 3 to 8) (size 9 to 14) (size 15 to 20)
#    0.000    0.800    6.000    3.000    0.000    0.800 
#    7.200    3.000    0.000    0.000    0.000    0.000 
#    0.000    0.000    0.000    0.000    0.000    0.000 
#
# Total GULP energy -111741.668293 kJ/mol
# GULP energy per Si atom -5587.083415 kJ/mol
# Density = 2.445840 g / cm^3
# Si number density = 24.514193 Si / 1000 Ang^3
#
#
#
# Elastic Constant Matrix: (Units=GPa)
#
#
# Indices 1 2 3 4 5 6 
#
# 1 100.8326 6.9144 41.9254 0.0000 7.8670 0.0000
# 2 6.9144 12.3667 -7.9598 0.0000 3.7249 0.0000
# 3 41.9254 -7.9598 134.7240 0.0000 -6.4675 0.0000
# 4 0.0000 0.0000 0.0000 -2.5425 0.0000 6.2644
# 5 7.8670 3.7249 -6.4675 0.0000 52.1470 0.0000
# 6 0.0000 0.0000 0.0000 6.2644 0.0000 32.7122
#
#
#
# Elastic Compliance Matrix: (Units=1/GPa)
#
#
# Indices 1 2 3 4 5 6 
#
# 1 0.012604 -0.009446 -0.004566 0.000000 -0.001793 0.000000
# 2 -0.009446 0.092689 0.008215 0.000000 -0.004177 0.000000
# 3 -0.004566 0.008215 0.009390 0.000000 0.001267 0.000000
# 4 0.000000 0.000000 0.000000 -0.267225 0.000000 0.051173
# 5 -0.001793 -0.004177 0.001267 0.000000 0.019903 0.000000
# 6 0.000000 0.000000 0.000000 0.051173 0.000000 0.020770
#
#
# Mechanical properties :
#
#
# Convention : Reuss Voigt Hill
#
# Bulk Modulus (GPa) = 9.70037 36.63147 23.16592
# Shear Modulus (GPa) = -75.85859 30.26622 -22.79618
#
# Velocity S-wave (km/s) = -5.56884 3.51756 -3.05276
# Velocity P-wave (km/s) = 6.11421 5.61008 1.71910
#
# Compressibility (1/GPa) = 0.10308883
#
# Stress axis : x y z
#
# Youngs Moduli (GPa) = 79.34160 10.78872 106.49859
#
# Poissons Ratio (x) = 0.10191 0.48631
# Poissons Ratio (y) = 0.74946 -0.87492
# Poissons Ratio (z) = 0.36230 -0.08863
#
# Static dielectric constant tensor:
#      x y z
#    x 1.966360 0.000000 0.017990 
#    y 0.000000 2.260020 0.000000 
#    z 0.017990 0.000000 1.966310 
# 
# From -- ./inp_files/66243.got.cif
#   From: 2010.05.17/outbox.cif.g08.bks.cpg/sg13_34_cif.got.tgz:66243.got - 2010.06.03 16:44:36.
