data_PCOD9237219
_publ_section_title
;
Structure prediction by ZEFSAII (Michael W. Deem and Ramdas Pophale) SiO2 
 PCOD9237219
Probable space group: P 2/C
;
_chemical_formula_sum "Si O2"
_cell_formula_units_Z 24
_cell_length_a 27.432243
_cell_length_b 4.961732
_cell_length_c 20.246858
_cell_angle_alpha 90.000000
_cell_angle_beta 151.311409
_cell_angle_gamma 90.000000
_cell_volume 1322.932456
_symmetry_space_group_name_H-M "P 2/C"
_symmetry_group_IT_number 13
_symmetry_cell_setting 'monoclinic'
loop_
_space_group_symop_operation_xyz
x,y,z
-x,y,1/2-z
-x,-y,-z
x,-y,1/2+z
loop_
_atom_site_type_symbol
_atom_site_label
_atom_site_fract_x
_atom_site_fract_y
_atom_site_fract_z
Si Si1 0.296889 0.469835 0.241087
Si Si2 0.882621 0.807573 0.328697
Si Si3 0.550442 0.957621 0.381130
Si Si4 0.674395 0.528050 0.068180
Si Si5 0.095779 0.691248 0.553916
Si Si6 0.414444 0.022132 0.841369
O O1 0.324019 0.459634 0.351703
O O2 0.182568 0.353856 0.102870
O O3 0.324544 0.773412 0.254547
O O4 0.367471 0.274343 0.282741
O O5 0.911505 0.605917 0.423084
O O6 0.983189 0.797111 0.402966
O O7 0.867122 0.097444 0.344881
O O8 0.781917 0.671556 0.180103
O O9 0.500000 0.967977 0.250000
O O10 0.642032 0.742443 0.492651
O O11 0.468221 0.879929 0.338963
O O12 0.591773 0.246523 0.453132
O O13 0.500000 0.000000 0.000000
#
# Coordination Sequence:
#
# PCOD9237219 Si02
#       6
#     4   4   4   4   4   4
#     4  11  19  32  55  80 104 135 172 217 268 316
#     4   9  17  29  49  74 108 138 162 208 268 318
#     4  12  25  37  51  75 107 143 182 219 257 314
#     4  11  19  35  54  76 104 140 176 214 265 317
#     4   9  17  29  46  79 110 130 163 212 267 317
#     4  12  21  35  53  77 103 141 177 216 266 318
#
# _framework density 18.141514000000001
#
# number of rings (size 3 to 8) (size 9 to 14) (size 15 to 20)
#    0.000    1.333    3.333    6.000    0.000    0.000 
#    0.000    0.000    0.000    0.000    0.000    7.000 
#    0.000    0.000    0.000    0.000    0.000    0.000 
#
# Total GULP energy -133750.751460 kJ/mol
# GULP energy per Si atom -5572.947978 kJ/mol
# Density = 1.810022 g / cm^3
# Si number density = 18.141514 Si / 1000 Ang^3
#
#
#
# Elastic Constant Matrix: (Units=GPa)
#
#
# Indices 1 2 3 4 5 6 
#
# 1 66.3501 4.3596 43.1889 0.0000 13.8833 0.0000
# 2 4.3596 93.2037 8.3128 0.0000 3.5496 0.0000
# 3 43.1889 8.3128 62.9283 0.0000 11.5342 0.0000
# 4 0.0000 0.0000 0.0000 23.6121 0.0000 14.5519
# 5 13.8833 3.5496 11.5342 0.0000 21.3354 0.0000
# 6 0.0000 0.0000 0.0000 14.5519 0.0000 13.9455
#
#
#
# Elastic Compliance Matrix: (Units=1/GPa)
#
#
# Indices 1 2 3 4 5 6 
#
# 1 0.028724 0.000617 -0.018149 0.000000 -0.008982 0.000000
# 2 0.000617 0.010896 -0.001617 0.000000 -0.001340 0.000000
# 3 -0.018149 -0.001617 0.029245 0.000000 -0.003731 0.000000
# 4 0.000000 0.000000 0.000000 0.118659 0.000000 -0.123817
# 5 -0.008982 -0.001340 -0.003731 0.000000 0.054955 0.000000
# 6 0.000000 0.000000 0.000000 -0.123817 0.000000 0.200908
#
#
# Mechanical properties :
#
#
# Convention : Reuss Voigt Hill
#
# Bulk Modulus (GPa) = 32.71598 37.13387 34.92492
# Shear Modulus (GPa) = 10.16521 22.88667 16.52594
#
# Velocity S-wave (km/s) = 2.36969 3.55570 3.02146
# Velocity P-wave (km/s) = 5.05571 6.11317 5.60941
#
# Compressibility (1/GPa) = 0.03056611
#
# Stress axis : x y z
#
# Youngs Moduli (GPa) = 34.81388 91.78023 34.19427
#
# Poissons Ratio (x) = -0.05665 0.62059
# Poissons Ratio (y) = -0.02149 0.05530
# Poissons Ratio (z) = 0.63184 0.14844
#
# Static dielectric constant tensor:
#      x y z
#    x 1.658230 0.000000 0.090250 
#    y 0.000000 1.620260 0.000000 
#    z 0.090250 0.000000 1.676940 
# 
# From -- ./inp_files/70960.got.cif
#   From: 2010.05.17/outbox.cif.g08.bks.cpg/sg13_36_cif.got.tgz:70960.got - 2010.06.03 16:44:36.
