data_PCOD9237839
_publ_section_title
;
Structure prediction by ZEFSAII (Michael W. Deem and Ramdas Pophale) SiO2 
 PCOD9237839
Probable space group: P 2/C
;
_chemical_formula_sum "Si O2"
_cell_formula_units_Z 26
_cell_length_a 5.564067
_cell_length_b 9.792256
_cell_length_c 19.794408
_cell_angle_alpha 90.000000
_cell_angle_beta 65.946413
_cell_angle_gamma 90.000000
_cell_volume 984.842355
_symmetry_space_group_name_H-M "P 2/C"
_symmetry_group_IT_number 13
_symmetry_cell_setting 'monoclinic'
loop_
_space_group_symop_operation_xyz
x,y,z
-x,y,1/2-z
-x,-y,-z
x,-y,1/2+z
loop_
_atom_site_type_symbol
_atom_site_label
_atom_site_fract_x
_atom_site_fract_y
_atom_site_fract_z
Si Si1 0.500000 0.599492 0.750000
Si Si2 0.320827 0.885794 0.986940
Si Si3 0.832622 0.962508 0.132275
Si Si4 0.399382 0.784053 0.153071
Si Si5 0.753335 0.362542 0.086496
Si Si6 0.000000 0.439187 0.750000
Si Si7 0.334366 0.620151 0.484010
Si Si8 0.000000 0.005429 0.250000
O O1 0.426447 0.668973 0.828681
O O2 0.217077 0.523631 0.767849
O O3 0.528147 0.749708 0.066419
O O4 0.072790 0.892450 0.064969
O O5 0.500000 0.000000 0.000000
O O6 0.275822 0.945585 0.916153
O O7 0.649181 0.830702 0.169745
O O8 0.867539 0.056550 0.195581
O O9 0.203340 0.658169 0.187117
O O10 0.214630 0.912567 0.187807
O O11 0.629907 0.270818 0.040292
O O12 0.067087 0.333224 0.052207
O O13 0.750551 0.525817 0.072094
O O14 0.500000 0.500000 0.500000
#
# Coordination Sequence:
#
# PCOD9237839 Si02
#       8
#     2   4   4   4   4   2   4   2
#     4  12  26  52  70 122 156 212 260 338 428 502
#     4  11  26  50  76 105 157 215 269 336 403 497
#     4  11  25  47  72 109 152 205 274 331 404 474
#     4  11  23  42  72 109 155 197 259 331 403 477
#     4  11  26  46  75 106 156 205 265 328 405 495
#     4  11  26  44  77 112 165 200 256 339 422 487
#     4  11  24  42  76 111 146 202 265 317 408 498
#     4  11  26  40  75 114 151 198 262 349 400 469
#
# _framework density 26.400165999999999
#
# number of rings (size 3 to 8) (size 9 to 14) (size 15 to 20)
#    0.000    0.923    3.077    2.308    8.615    0.000 
#    5.538    0.000    0.000    0.000    0.000    0.000 
#    0.000    0.000    0.000    0.000    0.000    0.000 
#
# Total GULP energy -144920.397020 kJ/mol
# GULP energy per Si atom -5573.861424 kJ/mol
# Density = 2.634008 g / cm^3
# Si number density = 26.400166 Si / 1000 Ang^3
#
#
#
# Elastic Constant Matrix: (Units=GPa)
#
#
# Indices 1 2 3 4 5 6 
#
# 1 95.7232 26.3584 37.0866 0.0000 -13.2149 0.0000
# 2 26.3584 112.3314 28.9698 0.0000 -7.9412 0.0000
# 3 37.0866 28.9698 195.8939 0.0000 -4.2264 0.0000
# 4 0.0000 0.0000 0.0000 -20.6537 0.0000 -0.2568
# 5 -13.2149 -7.9412 -4.2264 0.0000 67.1393 0.0000
# 6 0.0000 0.0000 0.0000 -0.2568 0.0000 25.7129
#
#
#
# Elastic Compliance Matrix: (Units=1/GPa)
#
#
# Indices 1 2 3 4 5 6 
#
# 1 0.012070 -0.002197 -0.001917 0.000000 0.001995 0.000000
# 2 -0.002197 0.009724 -0.001008 0.000000 0.000654 0.000000
# 3 -0.001917 -0.001008 0.005614 0.000000 -0.000143 0.000000
# 4 0.000000 0.000000 0.000000 -0.048411 0.000000 -0.000483
# 5 0.001995 0.000654 -0.000143 0.000000 0.015355 0.000000
# 6 0.000000 0.000000 0.000000 -0.000483 0.000000 0.038886
#
#
# Mechanical properties :
#
#
# Convention : Reuss Voigt Hill
#
# Bulk Modulus (GPa) = 58.26229 65.41977 61.84103
# Shear Modulus (GPa) = 101.62020 35.20861 68.41441
#
# Velocity S-wave (km/s) = 6.21094 3.65588 5.09614
# Velocity P-wave (km/s) = 8.57620 6.53104 7.62252
#
# Compressibility (1/GPa) = 0.01716376
#
# Stress axis : x y z
#
# Youngs Moduli (GPa) = 82.85073 102.83930 178.13421
#
# Poissons Ratio (x) = 0.22591 0.34151
# Poissons Ratio (y) = 0.18200 0.17956
# Poissons Ratio (z) = 0.15884 0.10366
#
# Static dielectric constant tensor:
#      x y z
#    x 1.816220 0.000000 0.285300 
#    y 0.000000 2.152330 0.000000 
#    z 0.285300 0.000000 2.071990 
# 
# From -- ./inp_files/61727.got.cif
#   From: 2010.05.17/outbox.cif.g08.bks.cpg/sg13_31_cif.got.tgz:61727.got - 2010.06.03 16:44:36.
