data_PCOD9237281
_publ_section_title
;
Structure prediction by ZEFSAII (Michael W. Deem and Ramdas Pophale) SiO2 
 PCOD9237281
Probable space group: P 2/C
;
_chemical_formula_sum "Si O2"
_cell_formula_units_Z 24
_cell_length_a 23.379768
_cell_length_b 12.438164
_cell_length_c 21.466774
_cell_angle_alpha 90.000000
_cell_angle_beta 168.484559
_cell_angle_gamma 90.000000
_cell_volume 1246.216356
_symmetry_space_group_name_H-M "P 2/C"
_symmetry_group_IT_number 13
_symmetry_cell_setting 'monoclinic'
loop_
_space_group_symop_operation_xyz
x,y,z
-x,y,1/2-z
-x,-y,-z
x,-y,1/2+z
loop_
_atom_site_type_symbol
_atom_site_label
_atom_site_fract_x
_atom_site_fract_y
_atom_site_fract_z
Si Si1 0.732283 0.580419 0.225378
Si Si2 0.100281 0.132027 0.668307
Si Si3 0.630761 0.740565 0.745193
Si Si4 0.500000 0.041276 0.250000
Si Si5 0.670871 0.909019 0.549308
Si Si6 0.194743 0.203488 0.626791
Si Si7 0.000000 0.202273 0.750000
O O1 0.777335 0.670996 0.326601
O O2 0.000000 0.500000 0.500000
O O3 0.500000 0.500000 0.000000
O O4 0.567744 0.644682 0.993528
O O5 0.146502 0.156916 0.645100
O O6 0.826706 0.198005 0.402175
O O7 0.387987 0.176727 0.007122
O O8 0.125756 0.006214 0.708285
O O9 0.842258 0.726353 0.029146
O O10 0.773508 0.119724 0.538439
O O11 0.505506 0.962664 0.315705
O O12 0.457152 0.855949 0.371996
O O13 0.903489 0.819912 0.778683
#
# Coordination Sequence:
#
# PCOD9237281 Si02
#       7
#     4   4   4   2   4   4   2
#     4  11  23  42  63  87 116 156 209 275 329 356
#     4  11  20  36  55  91 125 162 192 247 302 380
#     4  11  21  36  62  89 123 161 206 253 320 373
#     4  12  24  36  60  82 134 176 198 234 292 382
#     4  12  21  37  55  89 125 169 195 237 297 376
#     4  11  23  36  60  86 118 156 207 250 310 369
#     4  12  20  40  56  90 126 164 204 246 300 386
#
# _framework density 19.258293999999999
#
# number of rings (size 3 to 8) (size 9 to 14) (size 15 to 20)
#    0.000    0.667    3.333    8.000    0.000    0.000 
#    0.000    0.000    0.000    4.000    0.000    0.000 
#    0.000    0.000    0.000    0.000    0.000    0.000 
#
# Total GULP energy -133691.062508 kJ/mol
# GULP energy per Si atom -5570.460938 kJ/mol
# Density = 1.921446 g / cm^3
# Si number density = 19.258294 Si / 1000 Ang^3
#
#
#
# Elastic Constant Matrix: (Units=GPa)
#
#
# Indices 1 2 3 4 5 6 
#
# 1 89.3001 46.4356 45.2907 0.0000 10.5847 0.0000
# 2 46.4356 124.5918 52.3187 0.0000 -2.2994 0.0000
# 3 45.2907 52.3187 126.8530 0.0000 13.2608 0.0000
# 4 0.0000 0.0000 0.0000 40.0629 0.0000 12.0816
# 5 10.5847 -2.2994 13.2608 0.0000 41.3247 0.0000
# 6 0.0000 0.0000 0.0000 12.0816 0.0000 20.6029
#
#
#
# Elastic Compliance Matrix: (Units=1/GPa)
#
#
# Indices 1 2 3 4 5 6 
#
# 1 0.015613 -0.004445 -0.003412 0.000000 -0.003152 0.000000
# 2 -0.004445 0.011117 -0.003292 0.000000 0.002813 0.000000
# 3 -0.003412 -0.003292 0.010748 0.000000 -0.002758 0.000000
# 4 0.000000 0.000000 0.000000 0.030323 0.000000 -0.017782
# 5 -0.003152 0.002813 -0.002758 0.000000 0.026047 0.000000
# 6 0.000000 0.000000 0.000000 -0.017782 0.000000 0.058964
#
#
# Mechanical properties :
#
#
# Convention : Reuss Voigt Hill
#
# Bulk Modulus (GPa) = 65.87478 69.87055 67.87266
# Shear Modulus (GPa) = 27.75152 33.51142 30.63147
#
# Velocity S-wave (km/s) = 3.80019 4.17598 3.99251
# Velocity P-wave (km/s) = 7.31679 7.72083 7.52153
#
# Compressibility (1/GPa) = 0.01518032
#
# Stress axis : x y z
#
# Youngs Moduli (GPa) = 64.04782 89.95100 93.04464
#
# Poissons Ratio (x) = 0.39979 0.31746
# Poissons Ratio (y) = 0.28466 0.30634
# Poissons Ratio (z) = 0.21853 0.29615
#
# Static dielectric constant tensor:
#      x y z
#    x 1.818270 0.000000 -0.085060 
#    y 0.000000 1.823010 0.000000 
#    z -0.085060 0.000000 1.773200 
# 
# From -- ./inp_files/89100.got.cif
#   From: 2010.05.17/outbox.cif.g08.bks.cpg/sg13_45_cif.got.tgz:89100.got - 2010.06.03 16:44:36.
