data_PCOD9237290
_publ_section_title
;
Structure prediction by ZEFSAII (Michael W. Deem and Ramdas Pophale) SiO2 
 PCOD9237290
Probable space group: P 2/C
;
_chemical_formula_sum "Si O2"
_cell_formula_units_Z 20
_cell_length_a 19.623961
_cell_length_b 4.974544
_cell_length_c 27.936588
_cell_angle_alpha 90.000000
_cell_angle_beta 159.633309
_cell_angle_gamma 90.000000
_cell_volume 949.131467
_symmetry_space_group_name_H-M "P 2/C"
_symmetry_group_IT_number 13
_symmetry_cell_setting 'monoclinic'
loop_
_space_group_symop_operation_xyz
x,y,z
-x,y,1/2-z
-x,-y,-z
x,-y,1/2+z
loop_
_atom_site_type_symbol
_atom_site_label
_atom_site_fract_x
_atom_site_fract_y
_atom_site_fract_z
Si Si1 0.034927 0.619985 0.656993
Si Si2 0.927156 0.109837 0.646925
Si Si3 0.547823 0.621859 0.082674
Si Si4 0.931247 0.753416 0.923851
Si Si5 0.489019 0.142227 0.100525
O O1 0.938014 0.388562 0.625093
O O2 0.227385 0.464312 0.764718
O O3 0.963388 0.734375 0.558858
O O4 0.054191 0.878810 0.704188
O O5 0.697851 0.029322 0.494721
O O6 0.000000 0.134122 0.750000
O O7 0.427959 0.433678 0.040100
O O8 0.522435 0.931286 0.078996
O O9 0.500000 0.500000 0.000000
O O10 0.696761 0.807191 0.762716
O O11 0.000000 0.500000 0.000000
O O12 0.000000 0.000000 0.000000
#
# Coordination Sequence:
#
# PCOD9237290 Si02
#       5
#     4   4   4   4   4
#     4  11  23  39  62  91 123 164 213 255 315 391
#     4  12  23  40  61  95 135 164 192 256 331 397
#     4  11  20  37  60  89 122 166 212 257 308 384
#     4  11  23  44  66  86 117 165 218 272 310 353
#     4  11  23  38  61  91 123 163 213 260 317 387
#
# _framework density 21.071895000000001
#
# number of rings (size 3 to 8) (size 9 to 14) (size 15 to 20)
#    0.000    0.800    0.000   10.800    0.000    0.000 
#    0.000    6.000    0.000    0.000    0.000    0.000 
#    0.000    0.000    0.000    0.000    0.000    0.000 
#
# Total GULP energy -111476.632290 kJ/mol
# GULP energy per Si atom -5573.831615 kJ/mol
# Density = 2.102393 g / cm^3
# Si number density = 21.071895 Si / 1000 Ang^3
#
#
#
# Elastic Constant Matrix: (Units=GPa)
#
#
# Indices 1 2 3 4 5 6 
#
# 1 125.0587 56.2437 19.9753 0.0000 -14.2104 0.0000
# 2 56.2437 153.5917 21.2590 0.0000 -14.7175 0.0000
# 3 19.9753 21.2590 58.7471 0.0000 -2.5022 0.0000
# 4 0.0000 0.0000 0.0000 20.5491 0.0000 -6.3001
# 5 -14.2104 -14.7175 -2.5022 0.0000 36.8524 0.0000
# 6 0.0000 0.0000 0.0000 -6.3001 0.0000 57.9264
#
#
#
# Elastic Compliance Matrix: (Units=1/GPa)
#
#
# Indices 1 2 3 4 5 6 
#
# 1 0.010035 -0.003137 -0.002171 0.000000 0.002469 0.000000
# 2 -0.003137 0.008088 -0.001779 0.000000 0.001899 0.000000
# 3 -0.002171 -0.001779 0.018392 0.000000 -0.000299 0.000000
# 4 0.000000 0.000000 0.000000 0.050343 0.000000 0.005475
# 5 0.002469 0.001899 -0.000299 0.000000 0.028826 0.000000
# 6 0.000000 0.000000 0.000000 0.005475 0.000000 0.017859
#
#
# Mechanical properties :
#
#
# Convention : Reuss Voigt Hill
#
# Bulk Modulus (GPa) = 44.76665 59.15041 51.95853
# Shear Modulus (GPa) = 32.22417 39.06022 35.64220
#
# Velocity S-wave (km/s) = 3.91480 4.31009 4.11719
# Velocity P-wave (km/s) = 6.45950 7.27330 6.87844
#
# Compressibility (1/GPa) = 0.02233806
#
# Stress axis : x y z
#
# Youngs Moduli (GPa) = 99.65449 123.64111 54.37284
#
# Poissons Ratio (x) = 0.38792 0.11807
# Poissons Ratio (y) = 0.31266 0.09673
# Poissons Ratio (z) = 0.21640 0.21997
#
# Static dielectric constant tensor:
#      x y z
#    x 1.821390 0.000000 0.043660 
#    y 0.000000 1.744060 0.000000 
#    z 0.043660 0.000000 1.702100 
# 
# From -- ./inp_files/93208.got.cif
#   From: 2010.05.17/outbox.cif.g08.bks.cpg/sg13_47_cif.got.tgz:93208.got - 2010.06.03 16:44:36.
