data_PCOD9237052
_publ_section_title
;
Structure prediction by ZEFSAII (Michael W. Deem and Ramdas Pophale) SiO2 
 PCOD9237052
Probable space group: P 2/C
;
_chemical_formula_sum "Si O2"
_cell_formula_units_Z 20
_cell_length_a 11.879499
_cell_length_b 6.357757
_cell_length_c 25.607550
_cell_angle_alpha 90.000000
_cell_angle_beta 26.574099
_cell_angle_gamma 90.000000
_cell_volume 865.211360
_symmetry_space_group_name_H-M "P 2/C"
_symmetry_group_IT_number 13
_symmetry_cell_setting 'monoclinic'
loop_
_space_group_symop_operation_xyz
x,y,z
-x,y,1/2-z
-x,-y,-z
x,-y,1/2+z
loop_
_atom_site_type_symbol
_atom_site_label
_atom_site_fract_x
_atom_site_fract_y
_atom_site_fract_z
Si Si1 0.500000 0.982359 0.250000
Si Si2 0.649340 0.273940 0.388215
Si Si3 0.194461 0.240372 0.296868
Si Si4 0.203659 0.578371 0.373051
Si Si5 0.143508 0.055433 0.611346
Si Si6 0.000000 0.646313 0.250000
O O1 0.258942 0.826471 0.357129
O O2 0.419973 0.122961 0.233872
O O3 0.745848 0.259834 0.288852
O O4 0.360323 0.213835 0.504729
O O5 0.760150 0.498385 0.359542
O O6 0.755199 0.106070 0.386351
O O7 0.124273 0.462268 0.352388
O O8 0.960350 0.080013 0.392926
O O9 0.500000 0.508809 0.250000
O O10 0.000000 0.500000 0.500000
O O11 0.944488 0.202758 0.724059
#
# Coordination Sequence:
#
# PCOD9237052 Si02
#       6
#     2   4   4   4   4   2
#     4  10  26  44  70 100 138 190 246 302 352 432
#     4  11  25  44  69 104 142 183 237 299 355 446
#     4  12  23  48  69 101 143 187 242 297 366 433
#     4  10  26  48  70 104 141 189 250 303 358 430
#     4  11  25  43  72 104 141 187 236 295 367 429
#     4  12  20  46  64 106 142 180 236 286 356 436
#
# _framework density 23.115738
#
# number of rings (size 3 to 8) (size 9 to 14) (size 15 to 20)
#    0.600    0.400    5.000    0.600    5.600    2.400 
#    0.000    0.000    0.000    0.000    0.000    0.000 
#    0.000    0.000    0.000    0.000    0.000    0.000 
#
# Total GULP energy -111383.339444 kJ/mol
# GULP energy per Si atom -5569.166972 kJ/mol
# Density = 2.306313 g / cm^3
# Si number density = 23.115738 Si / 1000 Ang^3
#
#
#
# Elastic Constant Matrix: (Units=GPa)
#
#
# Indices 1 2 3 4 5 6 
#
# 1 106.6767 25.2849 13.0075 0.0000 -1.0730 0.0000
# 2 25.2849 64.8222 -10.1986 0.0000 -3.3913 0.0000
# 3 13.0075 -10.1986 58.8151 0.0000 4.5166 0.0000
# 4 0.0000 0.0000 0.0000 -4.3696 0.0000 -6.2801
# 5 -1.0730 -3.3913 4.5166 0.0000 25.1694 0.0000
# 6 0.0000 0.0000 0.0000 -6.2801 0.0000 38.8786
#
#
#
# Elastic Compliance Matrix: (Units=1/GPa)
#
#
# Indices 1 2 3 4 5 6 
#
# 1 0.010901 -0.004744 -0.003265 0.000000 0.000411 0.000000
# 2 -0.004744 0.017993 0.004055 0.000000 0.001495 0.000000
# 3 -0.003265 0.004055 0.018653 0.000000 -0.002940 0.000000
# 4 0.000000 0.000000 0.000000 -0.185733 0.000000 -0.030002
# 5 0.000411 0.001495 -0.002940 0.000000 0.040477 0.000000
# 6 0.000000 0.000000 0.000000 -0.030002 0.000000 0.020875
#
#
# Mechanical properties :
#
#
# Convention : Reuss Voigt Hill
#
# Bulk Modulus (GPa) = 25.22818 31.83352 28.53085
# Shear Modulus (GPa) = -89.74900 25.41702 -32.16599
#
# Velocity S-wave (km/s) = -6.23781 3.31955 -3.73435
# Velocity P-wave (km/s) = 6.39865 5.33796 2.49489
#
# Compressibility (1/GPa) = 0.03963821
#
# Stress axis : x y z
#
# Youngs Moduli (GPa) = 91.73579 55.57573 53.60954
#
# Poissons Ratio (x) = 0.26366 0.17504
# Poissons Ratio (y) = 0.43522 -0.21736
# Poissons Ratio (z) = 0.29952 -0.22533
#
# Static dielectric constant tensor:
#      x y z
#    x 1.843900 0.000000 0.020310 
#    y 0.000000 1.932770 0.000000 
#    z 0.020310 0.000000 1.692870 
# 
# From -- ./inp_files/91920.got.cif
#   From: 2010.05.17/outbox.cif.g08.bks.cpg/sg13_46_cif.got.tgz:91920.got - 2010.06.03 16:44:36.
