data_PCOD9237964
_publ_section_title
;
Structure prediction by ZEFSAII (Michael W. Deem and Ramdas Pophale) SiO2 
 PCOD9237964
Probable space group: P 2/C
;
_chemical_formula_sum "Si O2"
_cell_formula_units_Z 20
_cell_length_a 11.515220
_cell_length_b 8.462549
_cell_length_c 11.567057
_cell_angle_alpha 90.000000
_cell_angle_beta 54.925012
_cell_angle_gamma 90.000000
_cell_volume 922.491300
_symmetry_space_group_name_H-M "P 2/C"
_symmetry_group_IT_number 13
_symmetry_cell_setting 'monoclinic'
loop_
_space_group_symop_operation_xyz
x,y,z
-x,y,1/2-z
-x,-y,-z
x,-y,1/2+z
loop_
_atom_site_type_symbol
_atom_site_label
_atom_site_fract_x
_atom_site_fract_y
_atom_site_fract_z
Si Si1 0.400519 0.105782 0.697822
Si Si2 0.922046 0.166011 0.565740
Si Si3 0.213871 0.615432 0.536481
Si Si4 0.500000 0.485985 0.250000
Si Si5 0.000000 0.358438 0.750000
Si Si6 0.426746 0.753342 0.588245
O O1 0.500000 0.130342 0.750000
O O2 0.239695 0.121727 0.820761
O O3 0.445178 0.233423 0.576564
O O4 0.422838 0.926966 0.644122
O O5 0.905350 0.289196 0.468593
O O6 0.977664 0.252856 0.648539
O O7 0.000000 0.000000 0.500000
O O8 0.350808 0.567011 0.378091
O O9 0.285122 0.720411 0.596204
O O10 0.135162 0.468341 0.641562
O O11 0.545179 0.377075 0.332314
#
# Coordination Sequence:
#
# PCOD9237964 Si02
#       6
#     4   4   4   2   2   4
#     4  11  23  46  73 111 144 188 252 304 364 434
#     4  12  29  46  76 104 150 195 250 300 371 441
#     4  12  26  48  73 108 149 196 244 307 369 446
#     4  12  24  44  78 106 148 188 252 298 378 432
#     4  12  30  48  72 108 154 194 248 300 386 438
#     4  11  24  41  76 106 145 189 244 307 363 433
#
# _framework density 21.680420999999999
#
# number of rings (size 3 to 8) (size 9 to 14) (size 15 to 20)
#    0.000    0.400    3.000    4.800    8.400    0.000 
#    0.000    0.000    0.000    0.000    0.000    0.000 
#    0.000    0.000    0.000    0.000    0.000    0.000 
#
# Total GULP energy -111858.422659 kJ/mol
# GULP energy per Si atom -5592.921133 kJ/mol
# Density = 2.163108 g / cm^3
# Si number density = 21.680421 Si / 1000 Ang^3
#
#
#
# Elastic Constant Matrix: (Units=GPa)
#
#
# Indices 1 2 3 4 5 6 
#
# 1 111.5669 50.6675 42.4440 0.0000 20.9681 0.0000
# 2 50.6675 120.3566 59.0062 0.0000 11.4819 0.0000
# 3 42.4440 59.0062 93.7621 0.0000 1.3618 0.0000
# 4 0.0000 0.0000 0.0000 -33.2550 0.0000 -153.7401
# 5 20.9681 11.4819 1.3618 0.0000 47.0047 0.0000
# 6 0.0000 0.0000 0.0000 -153.7401 0.0000 -224.1186
#
#
#
# Elastic Compliance Matrix: (Units=1/GPa)
#
#
# Indices 1 2 3 4 5 6 
#
# 1 0.012674 -0.003035 -0.003757 0.000000 -0.004803 0.000000
# 2 -0.003035 0.013100 -0.006846 0.000000 -0.001648 0.000000
# 3 -0.003757 -0.006846 0.016633 0.000000 0.002867 0.000000
# 4 0.000000 0.000000 0.000000 0.013849 0.000000 -0.009500
# 5 -0.004803 -0.001648 0.002867 0.000000 0.023737 0.000000
# 6 0.000000 0.000000 0.000000 -0.009500 0.000000 0.002055
#
#
# Mechanical properties :
#
#
# Convention : Reuss Voigt Hill
#
# Bulk Modulus (GPa) = 66.09623 69.99122 68.04372
# Shear Modulus (GPa) = 43.71865 -30.50258 6.60804
#
# Velocity S-wave (km/s) = 4.49542 -3.75496 1.74773
# Velocity P-wave (km/s) = 7.58273 3.68152 5.96035
#
# Compressibility (1/GPa) = 0.01512946
#
# Stress axis : x y z
#
# Youngs Moduli (GPa) = 78.90314 76.33613 60.12154
#
# Poissons Ratio (x) = 0.23169 0.22590
# Poissons Ratio (y) = 0.23948 0.41160
# Poissons Ratio (z) = 0.29647 0.52261
#
# Static dielectric constant tensor:
#      x y z
#    x 1.681410 0.000000 -0.004980 
#    y 0.000000 1.813340 0.000000 
#    z -0.004980 0.000000 1.805830 
# 
# From -- ./inp_files/32458.got.cif
#   From: 2010.05.17/outbox.cif.g08.bks.cpg/sg13_17_cif.got.tgz:32458.got - 2010.06.03 16:44:36.
