data_PCOD9237661
_publ_section_title
;
Structure prediction by ZEFSAII (Michael W. Deem and Ramdas Pophale) SiO2 
 PCOD9237661
Probable space group: P 2/C
;
_chemical_formula_sum "Si O2"
_cell_formula_units_Z 16
_cell_length_a 16.107609
_cell_length_b 5.456646
_cell_length_c 8.923450
_cell_angle_alpha 90.000000
_cell_angle_beta 127.165973
_cell_angle_gamma 90.000000
_cell_volume 625.010621
_symmetry_space_group_name_H-M "P 2/C"
_symmetry_group_IT_number 13
_symmetry_cell_setting 'monoclinic'
loop_
_space_group_symop_operation_xyz
x,y,z
-x,y,1/2-z
-x,-y,-z
x,-y,1/2+z
loop_
_atom_site_type_symbol
_atom_site_label
_atom_site_fract_x
_atom_site_fract_y
_atom_site_fract_z
Si Si1 0.878481 0.994301 0.086767
Si Si2 0.577369 0.931198 0.717246
Si Si3 0.123127 0.509815 0.091551
Si Si4 0.283721 0.784635 0.900917
O O1 0.805284 0.019086 0.151232
O O2 0.000000 0.023028 0.250000
O O3 0.853315 0.239157 0.966238
O O4 0.869016 0.732548 0.001137
O O5 0.500000 0.792172 0.750000
O O6 0.500000 0.000000 0.500000
O O7 0.664787 0.807759 0.707953
O O8 0.630302 0.148329 0.876242
O O9 0.213446 0.459951 0.313892
O O10 0.000000 0.500000 0.000000
#
# Coordination Sequence:
#
# PCOD9237661 Si02
#       4
#     4   4   4   4
#     4  12  26  44  72 115 162 217 264 322 392 493
#     4   9  20  43  80 117 153 206 276 345 407 479
#     4  12  26  44  72 113 165 215 268 317 396 491
#     4  11  22  43  75 119 157 214 262 339 411 472
#
# _framework density 25.599567
#
# number of rings (size 3 to 8) (size 9 to 14) (size 15 to 20)
#    0.000    1.000    5.000    1.500    0.000    0.000 
#    0.000    0.000    0.000   19.500    0.000    0.000 
#    0.000    0.000    0.000    0.000    0.000    0.000 
#
# Total GULP energy -89200.122355 kJ/mol
# GULP energy per Si atom -5575.007647 kJ/mol
# Density = 2.554130 g / cm^3
# Si number density = 25.599567 Si / 1000 Ang^3
#
#
#
# Elastic Constant Matrix: (Units=GPa)
#
#
# Indices 1 2 3 4 5 6 
#
# 1 234.3911 46.9158 56.0556 0.0000 -7.8810 0.0000
# 2 46.9158 171.2633 62.5062 0.0000 -20.8553 0.0000
# 3 56.0556 62.5062 165.2464 0.0000 9.6300 0.0000
# 4 0.0000 0.0000 0.0000 64.4236 0.0000 -9.3849
# 5 -7.8810 -20.8553 9.6300 0.0000 59.4364 0.0000
# 6 0.0000 0.0000 0.0000 -9.3849 0.0000 29.7465
#
#
#
# Elastic Compliance Matrix: (Units=1/GPa)
#
#
# Indices 1 2 3 4 5 6 
#
# 1 0.004761 -0.000730 -0.001374 0.000000 0.000598 0.000000
# 2 -0.000730 0.007389 -0.002718 0.000000 0.002936 0.000000
# 3 -0.001374 -0.002718 0.007685 0.000000 -0.002381 0.000000
# 4 0.000000 0.000000 0.000000 0.016270 0.000000 0.005133
# 5 0.000598 0.002936 -0.002381 0.000000 0.018320 0.000000
# 6 0.000000 0.000000 0.000000 0.005133 0.000000 0.035237
#
#
# Mechanical properties :
#
#
# Convention : Reuss Voigt Hill
#
# Bulk Modulus (GPa) = 98.13485 100.20622 99.17053
# Shear Modulus (GPa) = 48.68449 57.74951 53.21700
#
# Velocity S-wave (km/s) = 4.36566 4.75476 4.56436
# Velocity P-wave (km/s) = 7.98935 8.32901 8.16095
#
# Compressibility (1/GPa) = 0.01019006
#
# Stress axis : x y z
#
# Youngs Moduli (GPa) = 210.03334 135.34376 130.13136
#
# Poissons Ratio (x) = 0.09881 0.17877
# Poissons Ratio (y) = 0.15335 0.35373
# Poissons Ratio (z) = 0.28854 0.36790
#
# Static dielectric constant tensor:
#      x y z
#    x 2.166070 0.000000 -0.042220 
#    y 0.000000 1.983580 0.000000 
#    z -0.042220 0.000000 2.296750 
# 
# From -- ./inp_files/20567.got.cif
#   From: 2010.05.17/outbox.cif.g08.bks.cpg/sg13_11_cif.got.tgz:20567.got - 2010.06.03 16:44:36.
