data_PCOD9237494
_publ_section_title
;
Structure prediction by ZEFSAII (Michael W. Deem and Ramdas Pophale) SiO2 
 PCOD9237494
Probable space group: P 2/C
;
_chemical_formula_sum "Si O2"
_cell_formula_units_Z 24
_cell_length_a 15.325543
_cell_length_b 13.594942
_cell_length_c 8.968611
_cell_angle_alpha 90.000000
_cell_angle_beta 37.174665
_cell_angle_gamma 90.000000
_cell_volume 1129.101048
_symmetry_space_group_name_H-M "P 2/C"
_symmetry_group_IT_number 13
_symmetry_cell_setting 'monoclinic'
loop_
_space_group_symop_operation_xyz
x,y,z
-x,y,1/2-z
-x,-y,-z
x,-y,1/2+z
loop_
_atom_site_type_symbol
_atom_site_label
_atom_site_fract_x
_atom_site_fract_y
_atom_site_fract_z
Si Si1 0.068844 0.090326 0.494205
Si Si2 0.672664 0.795189 0.833666
Si Si3 0.838497 0.628070 0.407592
Si Si4 0.348812 0.765141 0.282053
Si Si5 0.609686 0.545592 0.235403
Si Si6 0.919287 0.744958 0.007296
O O1 0.238801 0.103210 0.294818
O O2 0.000000 0.097274 0.750000
O O3 0.026058 0.184472 0.452889
O O4 0.000000 0.000000 0.500000
O O5 0.757089 0.709905 0.624225
O O6 0.505765 0.797762 0.012339
O O7 0.664122 0.775787 0.022723
O O8 0.737599 0.531810 0.534122
O O9 0.000000 0.608503 0.250000
O O10 0.862639 0.670876 0.209628
O O11 0.333093 0.648123 0.281340
O O12 0.214686 0.808582 0.374623
O O13 0.500000 0.568304 0.250000
O O14 0.500000 0.500000 0.500000
O O15 0.000000 0.704334 0.750000
#
# Coordination Sequence:
#
# PCOD9237494 Si02
#       6
#     4   4   4   4   4   4
#     4  12  25  47  77 102 132 170 220 285 351 424
#     4  11  21  45  67  94 141 178 223 277 352 401
#     4  12  23  41  64  97 141 186 236 289 337 400
#     4  11  23  40  70  97 138 187 227 280 333 408
#     4  12  23  41  62  98 138 186 239 282 332 390
#     4  12  23  42  69 101 135 183 233 276 353 407
#
# _framework density 21.255848
#
# number of rings (size 3 to 8) (size 9 to 14) (size 15 to 20)
#    0.000    0.333    8.333    1.500    0.000    0.667 
#    0.000    4.167    0.000    0.000    0.000    0.000 
#    0.000    0.000    0.000    0.000    0.000    0.000 
#
# Total GULP energy -133978.514136 kJ/mol
# GULP energy per Si atom -5582.438089 kJ/mol
# Density = 2.120747 g / cm^3
# Si number density = 21.255848 Si / 1000 Ang^3
#
#
#
# Elastic Constant Matrix: (Units=GPa)
#
#
# Indices 1 2 3 4 5 6 
#
# 1 120.5693 -1.2880 47.5505 0.0000 -16.9666 0.0000
# 2 -1.2880 40.4349 30.9338 0.0000 -3.1322 0.0000
# 3 47.5505 30.9338 153.9989 0.0000 -15.0089 0.0000
# 4 0.0000 0.0000 0.0000 12.0928 0.0000 -6.3931
# 5 -16.9666 -3.1322 -15.0089 0.0000 51.1824 0.0000
# 6 0.0000 0.0000 0.0000 -6.3931 0.0000 23.5049
#
#
#
# Elastic Compliance Matrix: (Units=1/GPa)
#
#
# Indices 1 2 3 4 5 6 
#
# 1 0.010063 0.003196 -0.003505 0.000000 0.002503 0.000000
# 2 0.003196 0.030237 -0.006976 0.000000 0.000864 0.000000
# 3 -0.003505 -0.006976 0.009082 0.000000 0.001074 0.000000
# 4 0.000000 0.000000 0.000000 0.096581 0.000000 0.026269
# 5 0.002503 0.000864 0.001074 0.000000 0.020736 0.000000
# 6 0.000000 0.000000 0.000000 0.026269 0.000000 0.049689
#
#
# Mechanical properties :
#
#
# Convention : Reuss Voigt Hill
#
# Bulk Modulus (GPa) = 28.72684 52.15506 40.44095
# Shear Modulus (GPa) = 20.61327 33.20982 26.91155
#
# Velocity S-wave (km/s) = 3.11749 3.95699 3.56206
# Velocity P-wave (km/s) = 5.14805 6.74293 5.99873
#
# Compressibility (1/GPa) = 0.03481065
#
# Stress axis : x y z
#
# Youngs Moduli (GPa) = 99.37635 33.07218 110.10968
#
# Poissons Ratio (x) = -0.10570 0.38594
# Poissons Ratio (y) = -0.31760 0.76816
# Poissons Ratio (z) = 0.34832 0.23072
#
# Static dielectric constant tensor:
#      x y z
#    x 1.751300 0.000000 -0.037380 
#    y 0.000000 1.742180 0.000000 
#    z -0.037380 0.000000 1.783190 
# 
# From -- ./inp_files/19493.got.cif
#   From: 2010.05.17/outbox.cif.g08.bks.cpg/sg13_10_cif.got.tgz:19493.got - 2010.06.03 16:44:36.
