data_PCOD9237348
_publ_section_title
;
Structure prediction by ZEFSAII (Michael W. Deem and Ramdas Pophale) SiO2 
 PCOD9237348
Probable space group: P 2/C
;
_chemical_formula_sum "Si O2"
_cell_formula_units_Z 28
_cell_length_a 20.353801
_cell_length_b 9.180634
_cell_length_c 9.616537
_cell_angle_alpha 90.000000
_cell_angle_beta 47.043917
_cell_angle_gamma 90.000000
_cell_volume 1315.147763
_symmetry_space_group_name_H-M "P 2/C"
_symmetry_group_IT_number 13
_symmetry_cell_setting 'monoclinic'
loop_
_space_group_symop_operation_xyz
x,y,z
-x,y,1/2-z
-x,-y,-z
x,-y,1/2+z
loop_
_atom_site_type_symbol
_atom_site_label
_atom_site_fract_x
_atom_site_fract_y
_atom_site_fract_z
Si Si1 0.438828 0.486844 0.454195
Si Si2 0.739402 0.841231 0.642363
Si Si3 0.730361 0.674989 0.381287
Si Si4 0.134827 0.428420 0.201414
Si Si5 0.917030 0.339308 0.947054
Si Si6 0.600913 0.185024 0.586309
Si Si7 0.246900 0.837609 0.417393
O O1 0.500000 0.411812 0.250000
O O2 0.500000 0.500000 0.500000
O O3 0.347979 0.398700 0.595913
O O4 0.412086 0.645516 0.435530
O O5 0.700427 0.746252 0.570372
O O6 0.823905 0.749303 0.576477
O O7 0.776683 0.993623 0.531247
O O8 0.665004 0.871693 0.868840
O O9 0.800230 0.547588 0.318159
O O10 0.763570 0.799737 0.230157
O O11 0.065288 0.376126 0.418492
O O12 0.098195 0.514421 0.121574
O O13 0.189300 0.286413 0.076077
O O14 0.000000 0.262688 0.750000
O O15 0.500000 0.122894 0.750000
O O16 0.654862 0.172692 0.652428
#
# Coordination Sequence:
#
# PCOD9237348 Si02
#       7
#     4   4   4   4   4   4   4
#     4  11  21  34  58  90 122 157 220 280 318 361
#     4  11  25  42  66  94 136 179 217 265 336 403
#     4  11  22  38  65  92 123 176 219 263 332 383
#     4  11  22  41  69  97 132 166 218 271 324 389
#     4  11  23  44  72 103 132 166 215 274 334 396
#     4  11  23  41  65  93 132 174 223 281 322 375
#     4  12  23  42  64  94 135 178 217 268 327 391
#
# _framework density 21.290385000000001
#
# number of rings (size 3 to 8) (size 9 to 14) (size 15 to 20)
#    0.000    0.857    4.286    3.857    2.000    0.571 
#    0.000    4.286    0.000    0.000    0.000    0.000 
#    0.000    0.000    0.000    0.000    0.000    0.000 
#
# Total GULP energy -156340.537647 kJ/mol
# GULP energy per Si atom -5583.590630 kJ/mol
# Density = 2.124193 g / cm^3
# Si number density = 21.290385 Si / 1000 Ang^3
#
#
#
# Elastic Constant Matrix: (Units=GPa)
#
#
# Indices 1 2 3 4 5 6 
#
# 1 56.1680 14.1065 26.4534 0.0000 0.7858 0.0000
# 2 14.1065 78.2769 2.0868 0.0000 -0.5942 0.0000
# 3 26.4534 2.0868 110.1739 0.0000 5.6379 0.0000
# 4 0.0000 0.0000 0.0000 18.3347 0.0000 5.9115
# 5 0.7858 -0.5942 5.6379 0.0000 28.7676 0.0000
# 6 0.0000 0.0000 0.0000 5.9115 0.0000 15.3066
#
#
#
# Elastic Compliance Matrix: (Units=1/GPa)
#
#
# Indices 1 2 3 4 5 6 
#
# 1 0.021078 -0.003662 -0.005008 0.000000 0.000330 0.000000
# 2 -0.003662 0.013421 0.000612 0.000000 0.000257 0.000000
# 3 -0.005008 0.000612 0.010364 0.000000 -0.001882 0.000000
# 4 0.000000 0.000000 0.000000 0.062299 0.000000 -0.024060
# 5 0.000330 0.000257 -0.001882 0.000000 0.035126 0.000000
# 6 0.000000 0.000000 0.000000 -0.024060 0.000000 0.074623
#
#
# Mechanical properties :
#
#
# Convention : Reuss Voigt Hill
#
# Bulk Modulus (GPa) = 34.78910 36.65693 35.72301
# Shear Modulus (GPa) = 20.60920 25.94660 23.27790
#
# Velocity S-wave (km/s) = 3.11465 3.49478 3.31018
# Velocity P-wave (km/s) = 5.41392 5.79134 5.60581
#
# Compressibility (1/GPa) = 0.02874464
#
# Stress axis : x y z
#
# Youngs Moduli (GPa) = 47.44334 74.51109 96.48963
#
# Poissons Ratio (x) = 0.27289 0.48326
# Poissons Ratio (y) = 0.17376 -0.05905
# Poissons Ratio (z) = 0.23762 -0.04560
#
# Static dielectric constant tensor:
#      x y z
#    x 1.779010 0.000000 -0.011770 
#    y 0.000000 1.740300 0.000000 
#    z -0.011770 0.000000 1.851820 
# 
# From -- ./inp_files/22958.got.cif
#   From: 2010.05.17/outbox.cif.g08.bks.cpg/sg13_12_cif.got.tgz:22958.got - 2010.06.03 16:44:36.
