data_PCOD9237014
_publ_section_title
;
Structure prediction by ZEFSAII (Michael W. Deem and Ramdas Pophale) SiO2 
 PCOD9237014
Probable space group: P 2/C
;
_chemical_formula_sum "Si O2"
_cell_formula_units_Z 16
_cell_length_a 5.251631
_cell_length_b 5.064585
_cell_length_c 23.944324
_cell_angle_alpha 90.000000
_cell_angle_beta 102.273890
_cell_angle_gamma 90.000000
_cell_volume 622.298242
_symmetry_space_group_name_H-M "P 2/C"
_symmetry_group_IT_number 13
_symmetry_cell_setting 'monoclinic'
loop_
_space_group_symop_operation_xyz
x,y,z
-x,y,1/2-z
-x,-y,-z
x,-y,1/2+z
loop_
_atom_site_type_symbol
_atom_site_label
_atom_site_fract_x
_atom_site_fract_y
_atom_site_fract_z
Si Si1 0.350933 0.490088 0.846081
Si Si2 0.000000 0.198055 0.250000
Si Si3 0.500000 0.157415 0.750000
Si Si4 0.123551 0.802661 0.438687
Si Si5 0.773103 0.296624 0.436136
O O1 0.103108 0.620484 0.804902
O O2 0.505441 0.341465 0.804571
O O3 0.267354 0.288003 0.890114
O O4 0.530277 0.708492 0.883733
O O5 0.757313 0.020179 0.257402
O O6 0.293763 0.770129 0.502853
O O7 0.891231 0.590203 0.437583
O O8 0.995990 0.089271 0.429978
#
# Coordination Sequence:
#
# PCOD9237014 Si02
#       5
#     4   2   2   4   4
#     4  12  29  48  80 114 165 220 270 346 410 496
#     4  12  32  52  78 120 164 220 288 340 410 490
#     4  12  32  52  78 120 164 220 288 340 410 490
#     4  10  25  48  80 121 160 209 270 337 415 496
#     4  10  25  48  80 121 160 209 270 337 415 496
#
# _framework density 25.711148000000001
#
# number of rings (size 3 to 8) (size 9 to 14) (size 15 to 20)
#    0.000    1.000    0.000    2.250   17.500    0.000 
#    0.000    7.500    0.000    4.500    0.000    0.000 
#    0.000    0.000    0.000    0.000    0.000    0.000 
#
# Total GULP energy -89951.451577 kJ/mol
# GULP energy per Si atom -5621.965724 kJ/mol
# Density = 2.565263 g / cm^3
# Si number density = 25.711148 Si / 1000 Ang^3
#
#
#
# Elastic Constant Matrix: (Units=GPa)
#
#
# Indices 1 2 3 4 5 6 
#
# 1 132.8456 49.4642 91.4233 0.0000 10.9740 0.0000
# 2 49.4642 99.1493 54.2274 0.0000 5.2460 0.0000
# 3 91.4233 54.2274 257.8510 0.0000 30.4611 0.0000
# 4 0.0000 0.0000 0.0000 -15.3041 0.0000 -30.4366
# 5 10.9740 5.2460 30.4611 0.0000 114.3440 0.0000
# 6 0.0000 0.0000 0.0000 -30.4366 0.0000 58.9152
#
#
#
# Elastic Compliance Matrix: (Units=1/GPa)
#
#
# Indices 1 2 3 4 5 6 
#
# 1 0.011110 -0.003829 -0.003127 0.000000 -0.000058 0.000000
# 2 -0.003829 0.012718 -0.001333 0.000000 0.000139 0.000000
# 3 -0.003127 -0.001333 0.005394 0.000000 -0.001076 0.000000
# 4 0.000000 0.000000 0.000000 -0.032229 0.000000 -0.016650
# 5 -0.000058 0.000139 -0.001076 0.000000 0.009031 0.000000
# 6 0.000000 0.000000 0.000000 -0.016650 0.000000 0.008372
#
#
# Mechanical properties :
#
#
# Convention : Reuss Voigt Hill
#
# Bulk Modulus (GPa) = 79.09489 97.78618 88.44053
# Shear Modulus (GPa) = 142.08117 51.23976 96.66046
#
# Velocity S-wave (km/s) = 7.44181 4.46903 6.13811
# Velocity P-wave (km/s) = 10.23085 8.04642 9.20367
#
# Compressibility (1/GPa) = 0.01264304
#
# Stress axis : x y z
#
# Youngs Moduli (GPa) = 90.00774 78.62800 185.37591
#
# Poissons Ratio (x) = 0.30110 0.57968
# Poissons Ratio (y) = 0.34467 0.24718
# Poissons Ratio (z) = 0.28146 0.10484
#
# Static dielectric constant tensor:
#      x y z
#    x 1.516530 0.000000 -0.280600 
#    y 0.000000 1.983890 0.000000 
#    z -0.280600 0.000000 1.812110 
# 
# From -- ./inp_files/82846.got.cif
#   From: 2010.05.17/outbox.cif.g08.bks.cpg/sg13_42_cif.got.tgz:82846.got - 2010.06.03 16:44:36.
