data_PCOD9237359
_publ_section_title
;
Structure prediction by ZEFSAII (Michael W. Deem and Ramdas Pophale) SiO2 
 PCOD9237359
Probable space group: P 2/C
;
_chemical_formula_sum "Si O2"
_cell_formula_units_Z 32
_cell_length_a 15.609818
_cell_length_b 20.863107
_cell_length_c 15.968277
_cell_angle_alpha 90.000000
_cell_angle_beta 18.691427
_cell_angle_gamma 90.000000
_cell_volume 1666.571569
_symmetry_space_group_name_H-M "P 2/C"
_symmetry_group_IT_number 13
_symmetry_cell_setting 'monoclinic'
loop_
_space_group_symop_operation_xyz
x,y,z
-x,y,1/2-z
-x,-y,-z
x,-y,1/2+z
loop_
_atom_site_type_symbol
_atom_site_label
_atom_site_fract_x
_atom_site_fract_y
_atom_site_fract_z
Si Si1 0.693608 0.048262 0.217046
Si Si2 0.223457 0.835236 0.971984
Si Si3 0.833262 0.500289 0.781272
Si Si4 0.112484 0.220241 0.873675
Si Si5 0.276100 0.631893 0.528517
Si Si6 0.697580 0.569528 0.729664
Si Si7 0.724736 0.917839 0.250862
Si Si8 0.356708 0.300577 0.129169
O O1 0.687164 0.094876 0.144414
O O2 0.483454 0.073058 0.480600
O O3 0.652782 0.971536 0.248033
O O4 0.987064 0.061219 0.981848
O O5 0.500000 0.804256 0.750000
O O6 0.000000 0.840917 0.250000
O O7 0.071778 0.800669 0.035068
O O8 0.796646 0.559374 0.877216
O O9 0.777229 0.533176 0.742482
O O10 0.108632 0.461728 0.518501
O O11 0.603342 0.449353 0.010977
O O12 0.241734 0.157197 0.797093
O O13 0.363000 0.264451 0.615117
O O14 0.900605 0.254689 0.130055
O O15 0.375628 0.666352 0.520617
O O16 0.000000 0.661340 0.750000
O O17 0.500000 0.632508 0.250000
O O18 0.707937 0.644293 0.742463
#
# Coordination Sequence:
#
# PCOD9237359 Si02
#       8
#     4   4   4   4   4   4   4   4
#     4   9  17  31  52  79 105 133 172 229 291 329
#     4  11  21  35  56  82 113 147 190 246 299 342
#     4   9  17  31  53  78 104 132 169 224 286 330
#     4  11  21  36  56  84 114 155 203 232 270 340
#     4  11  22  37  58  85 114 146 188 244 298 341
#     4   9  17  31  52  79 104 131 174 227 272 320
#     4   9  17  31  53  79 105 133 178 233 275 322
#     4  11  22  36  58  84 115 155 200 234 269 338
#
# _framework density 19.201094999999999
#
# number of rings (size 3 to 8) (size 9 to 14) (size 15 to 20)
#    0.000    2.000    0.000    6.000    0.000    4.000 
#    0.000    0.000    0.000   15.750    0.000    0.000 
#    0.000    0.000    0.000    0.000    0.000    0.250 
#
# Total GULP energy -178344.089418 kJ/mol
# GULP energy per Si atom -5573.252794 kJ/mol
# Density = 1.915739 g / cm^3
# Si number density = 19.201095 Si / 1000 Ang^3
#
#
#
# Elastic Constant Matrix: (Units=GPa)
#
#
# Indices 1 2 3 4 5 6 
#
# 1 35.2961 24.4341 16.1244 0.0000 3.3022 0.0000
# 2 24.4341 115.2626 49.2013 0.0000 4.3964 0.0000
# 3 16.1244 49.2013 158.9087 0.0000 8.5660 0.0000
# 4 0.0000 0.0000 0.0000 21.0072 0.0000 -6.7896
# 5 3.3022 4.3964 8.5660 0.0000 29.3669 0.0000
# 6 0.0000 0.0000 0.0000 -6.7896 0.0000 12.0867
#
#
#
# Elastic Compliance Matrix: (Units=1/GPa)
#
#
# Indices 1 2 3 4 5 6 
#
# 1 0.033637 -0.006495 -0.001271 0.000000 -0.002439 0.000000
# 2 -0.006495 0.011262 -0.002821 0.000000 -0.000133 0.000000
# 3 -0.001271 -0.002821 0.007381 0.000000 -0.001588 0.000000
# 4 0.000000 0.000000 0.000000 0.058162 0.000000 0.032672
# 5 -0.002439 -0.000133 -0.001588 0.000000 0.034809 0.000000
# 6 0.000000 0.000000 0.000000 0.032672 0.000000 0.101089
#
#
# Mechanical properties :
#
#
# Convention : Reuss Voigt Hill
#
# Bulk Modulus (GPa) = 32.14757 54.33190 43.23973
# Shear Modulus (GPa) = 17.99326 27.13934 22.56630
#
# Velocity S-wave (km/s) = 3.06452 3.76364 3.43193
# Velocity P-wave (km/s) = 5.41301 6.87345 6.18647
#
# Compressibility (1/GPa) = 0.03110655
#
# Stress axis : x y z
#
# Youngs Moduli (GPa) = 29.72941 88.79554 135.48722
#
# Poissons Ratio (x) = 0.57674 0.17215
# Poissons Ratio (y) = 0.19310 0.38216
# Poissons Ratio (z) = 0.03777 0.25046
#
# Static dielectric constant tensor:
#      x y z
#    x 1.725230 0.000000 0.000250 
#    y 0.000000 1.715970 0.000000 
#    z 0.000250 0.000000 1.659130 
# 
# From -- ./inp_files/53984.got.cif
#   From: 2010.05.17/outbox.cif.g08.bks.cpg/sg13_27_cif.got.tgz:53984.got - 2010.06.03 16:44:36.
