data_PCOD9237071
_publ_section_title
;
Structure prediction by ZEFSAII (Michael W. Deem and Ramdas Pophale) SiO2 
 PCOD9237071
Probable space group: P 2/C
;
_chemical_formula_sum "Si O2"
_cell_formula_units_Z 22
_cell_length_a 18.972523
_cell_length_b 6.550749
_cell_length_c 9.222064
_cell_angle_alpha 90.000000
_cell_angle_beta 67.289375
_cell_angle_gamma 90.000000
_cell_volume 1057.291614
_symmetry_space_group_name_H-M "P 2/C"
_symmetry_group_IT_number 13
_symmetry_cell_setting 'monoclinic'
loop_
_space_group_symop_operation_xyz
x,y,z
-x,y,1/2-z
-x,-y,-z
x,-y,1/2+z
loop_
_atom_site_type_symbol
_atom_site_label
_atom_site_fract_x
_atom_site_fract_y
_atom_site_fract_z
Si Si1 0.444353 0.699897 0.044668
Si Si2 0.727356 0.692954 0.249143
Si Si3 0.500000 0.990491 0.750000
Si Si4 0.812385 0.555202 0.459301
Si Si5 0.824866 0.941187 0.655796
Si Si6 0.086187 0.203465 0.134180
O O1 0.356764 0.636050 0.134680
O O2 0.460995 0.854553 0.165853
O O3 0.500000 0.500000 0.000000
O O4 0.452949 0.835210 0.891399
O O5 0.787794 0.607899 0.317478
O O6 0.746098 0.933200 0.230751
O O7 0.750041 0.597524 0.077761
O O8 0.813648 0.753001 0.557868
O O9 0.893227 0.440948 0.400791
O O10 0.857120 0.872804 0.784086
O O11 0.887819 0.087260 0.530812
O O12 0.000000 0.168509 0.250000
#
# Coordination Sequence:
#
# PCOD9237071 Si02
#       6
#     4   4   2   4   4   4
#     4  11  26  45  70 100 137 176 224 275 343 396
#     4  11  26  42  71  93 132 172 218 274 321 402
#     4  10  26  46  64 104 134 170 228 268 334 414
#     4  11  24  43  65  99 129 170 223 264 332 386
#     4  11  23  44  63  98 127 170 222 266 330 388
#     4  11  24  42  66  95 132 174 220 273 325 394
#
# _framework density 20.807883
#
# number of rings (size 3 to 8) (size 9 to 14) (size 15 to 20)
#    0.000    1.091    3.636    1.091    7.636    2.909 
#    0.000    0.000    0.000    0.000    0.000    0.000 
#    0.000    0.000    0.000    0.000    0.000    0.000 
#
# Total GULP energy -122889.089697 kJ/mol
# GULP energy per Si atom -5585.867714 kJ/mol
# Density = 2.076052 g / cm^3
# Si number density = 20.807883 Si / 1000 Ang^3
#
#
#
# Elastic Constant Matrix: (Units=GPa)
#
#
# Indices 1 2 3 4 5 6 
#
# 1 48.7731 25.5524 14.9321 0.0000 -24.6764 0.0000
# 2 25.5524 99.8072 19.7490 0.0000 -2.8450 0.0000
# 3 14.9321 19.7490 97.0996 0.0000 3.5658 0.0000
# 4 0.0000 0.0000 0.0000 46.9694 0.0000 0.5460
# 5 -24.6764 -2.8450 3.5658 0.0000 34.0412 0.0000
# 6 0.0000 0.0000 0.0000 0.5460 0.0000 16.2609
#
#
#
# Elastic Compliance Matrix: (Units=1/GPa)
#
#
# Indices 1 2 3 4 5 6 
#
# 1 0.042410 -0.008827 -0.005851 0.000000 0.030618 0.000000
# 2 -0.008827 0.012318 -0.000954 0.000000 -0.005269 0.000000
# 3 -0.005851 -0.000954 0.011596 0.000000 -0.005536 0.000000
# 4 0.000000 0.000000 0.000000 0.021299 0.000000 -0.000715
# 5 0.030618 -0.005269 -0.005536 0.000000 0.051711 0.000000
# 6 0.000000 0.000000 0.000000 -0.000715 0.000000 0.061521
#
#
# Mechanical properties :
#
#
# Convention : Reuss Voigt Hill
#
# Bulk Modulus (GPa) = 28.52351 40.68297 34.60324
# Shear Modulus (GPa) = 20.50818 31.81738 26.16278
#
# Velocity S-wave (km/s) = 3.14283 3.91462 3.54976
# Velocity P-wave (km/s) = 5.18725 6.32665 5.78507
#
# Compressibility (1/GPa) = 0.03505880
#
# Stress axis : x y z
#
# Youngs Moduli (GPa) = 23.57940 81.18282 86.23778
#
# Poissons Ratio (x) = 0.71662 0.50456
# Poissons Ratio (y) = 0.20814 0.08230
# Poissons Ratio (z) = 0.13796 0.07748
#
# Static dielectric constant tensor:
#      x y z
#    x 1.701150 0.000000 0.002140 
#    y 0.000000 1.796830 0.000000 
#    z 0.002140 0.000000 1.723680 
# 
# From -- ./inp_files/22216.got.cif
#   From: 2010.05.17/outbox.cif.g08.bks.cpg/sg13_12_cif.got.tgz:22216.got - 2010.06.03 16:44:36.
