data_PCOD9237220
_publ_section_title
;
Structure prediction by ZEFSAII (Michael W. Deem and Ramdas Pophale) SiO2 
 PCOD9237220
Probable space group: P 2/C
;
_chemical_formula_sum "Si O2"
_cell_formula_units_Z 28
_cell_length_a 24.593416
_cell_length_b 12.307349
_cell_length_c 24.432768
_cell_angle_alpha 90.000000
_cell_angle_beta 168.328399
_cell_angle_gamma 90.000000
_cell_volume 1496.084186
_symmetry_space_group_name_H-M "P 2/C"
_symmetry_group_IT_number 13
_symmetry_cell_setting 'monoclinic'
loop_
_space_group_symop_operation_xyz
x,y,z
-x,y,1/2-z
-x,-y,-z
x,-y,1/2+z
loop_
_atom_site_type_symbol
_atom_site_label
_atom_site_fract_x
_atom_site_fract_y
_atom_site_fract_z
Si Si1 0.628357 0.881108 0.135062
Si Si2 0.159361 0.451497 0.063327
Si Si3 0.637720 0.588563 0.566289
Si Si4 0.574189 0.195482 0.946915
Si Si5 0.898488 0.206257 0.090511
Si Si6 0.831634 0.251933 0.354639
Si Si7 0.773630 0.541913 0.486040
O O1 0.547612 0.852773 0.117914
O O2 0.932937 0.836188 0.426155
O O3 0.449591 0.809148 0.917965
O O4 0.500000 0.000000 0.000000
O O5 0.364391 0.519640 0.305162
O O6 0.124346 0.330107 0.050716
O O7 0.264790 0.469144 0.105796
O O8 0.868723 0.506151 0.778058
O O9 0.565403 0.674734 0.447826
O O10 0.771515 0.664761 0.744903
O O11 0.390189 0.166797 0.713998
O O12 0.881790 0.169942 0.237444
O O13 0.000000 0.171654 0.250000
O O14 0.879568 0.337784 0.073488
O O15 0.500000 0.556063 0.250000
O O16 0.000000 0.495786 0.750000
#
# Coordination Sequence:
#
# PCOD9237220 Si02
#       7
#     4   4   4   4   4   4   4
#     4  11  24  42  61  81 109 140 190 246 296 341
#     4  12  21  34  54  78 118 155 184 220 266 324
#     4  11  19  33  51  81 117 151 181 214 271 324
#     4  11  19  35  53  80 110 150 180 222 278 331
#     4  11  20  32  51  79 114 152 184 217 260 329
#     4  11  23  37  56  84 109 144 191 225 277 349
#     4  11  21  33  49  77 114 157 194 216 254 316
#
# _framework density 18.715525
#
# number of rings (size 3 to 8) (size 9 to 14) (size 15 to 20)
#    0.000    0.857    2.857    8.571    0.000    0.000 
#    0.000    0.000    0.000    0.000    0.000   10.000 
#    0.000    0.000    0.000    0.000    0.000    0.000 
#
# Total GULP energy -156132.083154 kJ/mol
# GULP energy per Si atom -5576.145827 kJ/mol
# Density = 1.867293 g / cm^3
# Si number density = 18.715525 Si / 1000 Ang^3
#
#
#
# Elastic Constant Matrix: (Units=GPa)
#
#
# Indices 1 2 3 4 5 6 
#
# 1 51.4376 8.3490 21.8847 0.0000 -13.4923 0.0000
# 2 8.3490 36.6753 15.0473 0.0000 -12.3712 0.0000
# 3 21.8847 15.0473 110.3196 0.0000 -4.9954 0.0000
# 4 0.0000 0.0000 0.0000 18.7330 0.0000 1.3168
# 5 -13.4923 -12.3712 -4.9954 0.0000 28.0609 0.0000
# 6 0.0000 0.0000 0.0000 1.3168 0.0000 10.4200
#
#
#
# Elastic Compliance Matrix: (Units=1/GPa)
#
#
# Indices 1 2 3 4 5 6 
#
# 1 0.024107 -0.000092 -0.004281 0.000000 0.010789 0.000000
# 2 -0.000092 0.033655 -0.003934 0.000000 0.014093 0.000000
# 3 -0.004281 -0.003934 0.010362 0.000000 -0.001948 0.000000
# 4 0.000000 0.000000 0.000000 0.053860 0.000000 -0.006806
# 5 0.010789 0.014093 -0.001948 0.000000 0.046691 0.000000
# 6 0.000000 0.000000 0.000000 -0.006806 0.000000 0.096829
#
#
# Mechanical properties :
#
#
# Convention : Reuss Voigt Hill
#
# Bulk Modulus (GPa) = 19.41378 32.11050 25.76214
# Shear Modulus (GPa) = 16.70621 21.65288 19.17954
#
# Velocity S-wave (km/s) = 2.99095 3.40508 3.20471
# Velocity P-wave (km/s) = 4.72475 5.71435 5.24295
#
# Compressibility (1/GPa) = 0.05150981
#
# Stress axis : x y z
#
# Youngs Moduli (GPa) = 41.48104 29.71315 96.50432
#
# Poissons Ratio (x) = 0.00274 0.41316
# Poissons Ratio (y) = 0.00383 0.37965
# Poissons Ratio (z) = 0.17759 0.11689
#
# Static dielectric constant tensor:
#      x y z
#    x 1.693980 0.000000 -0.024810 
#    y 0.000000 1.660430 0.000000 
#    z -0.024810 0.000000 1.677250 
# 
# From -- ./inp_files/94142.got.cif
#   From: 2010.05.17/outbox.cif.g08.bks.cpg/sg13_48_cif.got.tgz:94142.got - 2010.06.03 16:44:36.
