data_PCOD9237586
_publ_section_title
;
Structure prediction by ZEFSAII (Michael W. Deem and Ramdas Pophale) SiO2 
 PCOD9237586
Probable space group: P 2/C
;
_chemical_formula_sum "Si O2"
_cell_formula_units_Z 32
_cell_length_a 15.360441
_cell_length_b 22.920526
_cell_length_c 9.191710
_cell_angle_alpha 90.000000
_cell_angle_beta 147.077966
_cell_angle_gamma 90.000000
_cell_volume 1758.822320
_symmetry_space_group_name_H-M "P 2/C"
_symmetry_group_IT_number 13
_symmetry_cell_setting 'monoclinic'
loop_
_space_group_symop_operation_xyz
x,y,z
-x,y,1/2-z
-x,-y,-z
x,-y,1/2+z
loop_
_atom_site_type_symbol
_atom_site_label
_atom_site_fract_x
_atom_site_fract_y
_atom_site_fract_z
Si Si1 0.108619 0.465525 0.766066
Si Si2 0.333396 0.238720 0.927526
Si Si3 0.366056 0.043420 0.751227
Si Si4 0.508014 0.828725 0.425770
Si Si5 0.665739 0.627732 0.074476
Si Si6 0.596283 0.454435 0.735443
Si Si7 0.824730 0.844770 0.067410
Si Si8 0.169379 0.031551 0.759785
O O1 0.204616 0.413129 0.823637
O O2 0.000000 0.446120 0.750000
O O3 0.000000 0.500000 0.500000
O O4 0.239358 0.512533 0.000695
O O5 0.387390 0.209572 0.853317
O O6 0.278849 0.305399 0.838864
O O7 0.500000 0.240179 0.250000
O O8 0.216057 0.197393 0.854411
O O9 0.441536 0.105775 0.829961
O O10 0.234757 0.049107 0.694053
O O11 0.287097 0.015201 0.499006
O O12 0.500000 0.000000 0.000000
O O13 0.500000 0.806281 0.250000
O O14 0.682572 0.833505 0.749625
O O15 0.628512 0.601752 0.181440
O O16 0.500000 0.624375 0.750000
O O17 0.500000 0.443660 0.750000
O O18 0.500000 0.500000 0.500000
O O19 0.827451 0.911507 0.131400
O O20 0.000000 0.832489 0.250000
O O21 0.000000 0.000000 0.500000
#
# Coordination Sequence:
#
# PCOD9237586 Si02
#       8
#     4   4   4   4   4   4   4   4
#     4  12  22  35  60  93 132 164 197 253 316 359
#     4   9  22  44  68  88 121 171 212 251 303 372
#     4  12  23  38  62  90 124 157 203 255 312 372
#     4  11  23  42  67  92 120 163 211 258 311 368
#     4  11  22  40  66  95 123 165 218 250 297 380
#     4  12  20  37  62  91 126 167 203 253 307 361
#     4  11  23  43  66  90 125 164 205 257 315 372
#     4  12  25  40  58  94 128 159 200 258 318 375
#
# _framework density 18.193992000000001
#
# number of rings (size 3 to 8) (size 9 to 14) (size 15 to 20)
#    0.000    0.750    6.250    2.250    1.750    1.000 
#    0.000    0.625    5.500    0.000    0.000    0.000 
#    0.000    0.000    0.000    0.000    0.000    0.000 
#
# Total GULP energy -178775.836256 kJ/mol
# GULP energy per Si atom -5586.744883 kJ/mol
# Density = 1.815258 g / cm^3
# Si number density = 18.193992 Si / 1000 Ang^3
#
#
#
# Elastic Constant Matrix: (Units=GPa)
#
#
# Indices 1 2 3 4 5 6 
#
# 1 173.3127 58.6679 39.5234 0.0000 -0.9353 0.0000
# 2 58.6679 125.2608 46.0618 0.0000 -0.2351 0.0000
# 3 39.5234 46.0618 97.7902 0.0000 1.2165 0.0000
# 4 0.0000 0.0000 0.0000 16.2795 0.0000 -1.6985
# 5 -0.9353 -0.2351 1.2165 0.0000 33.1476 0.0000
# 6 0.0000 0.0000 0.0000 -1.6985 0.0000 24.3868
#
#
#
# Elastic Compliance Matrix: (Units=1/GPa)
#
#
# Indices 1 2 3 4 5 6 
#
# 1 0.007052 -0.002725 -0.001569 0.000000 0.000237 0.000000
# 2 -0.002725 0.010711 -0.003945 0.000000 0.000144 0.000000
# 3 -0.001569 -0.003945 0.012725 0.000000 -0.000539 0.000000
# 4 0.000000 0.000000 0.000000 0.061876 0.000000 0.004310
# 5 0.000237 0.000144 -0.000539 0.000000 0.030196 0.000000
# 6 0.000000 0.000000 0.000000 0.004310 0.000000 0.041306
#
#
# Mechanical properties :
#
#
# Convention : Reuss Voigt Hill
#
# Bulk Modulus (GPa) = 71.38847 76.09663 73.74255
# Shear Modulus (GPa) = 27.02483 31.57016 29.29750
#
# Velocity S-wave (km/s) = 3.85823 4.17009 4.01719
# Velocity P-wave (km/s) = 7.69224 8.06859 7.88266
#
# Compressibility (1/GPa) = 0.01400786
#
# Stress axis : x y z
#
# Youngs Moduli (GPa) = 141.81229 93.36325 78.58324
#
# Poissons Ratio (x) = 0.25443 0.12332
# Poissons Ratio (y) = 0.38647 0.31005
# Poissons Ratio (z) = 0.22255 0.36836
#
# Static dielectric constant tensor:
#      x y z
#    x 1.652770 0.000000 -0.005170 
#    y 0.000000 1.604740 0.000000 
#    z -0.005170 0.000000 1.605530 
# 
# From -- ./inp_files/20232.got.cif
#   From: 2010.05.17/outbox.cif.g08.bks.cpg/sg13_11_cif.got.tgz:20232.got - 2010.06.03 16:44:36.
