data_PCOD9237553
_publ_section_title
;
Structure prediction by ZEFSAII (Michael W. Deem and Ramdas Pophale) SiO2 
 PCOD9237553
Probable space group: P 2/C
;
_chemical_formula_sum "Si O2"
_cell_formula_units_Z 28
_cell_length_a 19.508705
_cell_length_b 7.486519
_cell_length_c 7.001647
_cell_angle_alpha 90.000000
_cell_angle_beta 90.314890
_cell_angle_gamma 90.000000
_cell_volume 1022.591139
_symmetry_space_group_name_H-M "P 2/C"
_symmetry_group_IT_number 13
_symmetry_cell_setting 'monoclinic'
loop_
_space_group_symop_operation_xyz
x,y,z
-x,y,1/2-z
-x,-y,-z
x,-y,1/2+z
loop_
_atom_site_type_symbol
_atom_site_label
_atom_site_fract_x
_atom_site_fract_y
_atom_site_fract_z
Si Si1 0.572318 0.569902 0.648197
Si Si2 0.146540 0.184425 0.733284
Si Si3 0.715336 0.307791 0.277049
Si Si4 0.712585 0.960008 0.133048
Si Si5 0.854166 0.534677 0.913887
Si Si6 0.000000 0.500000 0.500000
Si Si7 0.427080 0.807814 0.230271
Si Si8 0.000000 0.158458 0.750000
O O1 0.500000 0.608440 0.750000
O O2 0.645226 0.585963 0.756917
O O3 0.576274 0.702886 0.469863
O O4 0.569295 0.355411 0.618033
O O5 0.215455 0.075428 0.757908
O O6 0.149105 0.319943 0.554018
O O7 0.075782 0.072861 0.741881
O O8 0.145744 0.328239 0.908809
O O9 0.712222 0.179569 0.460934
O O10 0.784030 0.420719 0.302395
O O11 0.715789 0.171459 0.100384
O O12 0.639690 0.924247 0.234549
O O13 0.933307 0.544043 0.842088
O O14 0.000072 0.293070 0.569593
O O15 0.500000 0.907590 0.250000
#
# Coordination Sequence:
#
# PCOD9237553 Si02
#       8
#     4   4   4   4   4   2   4   2
#     4  11  22  39  62  88 118 152 196 247 297 348
#     4   9  18  32  55  80 107 141 183 232 287 342
#     4  11  23  38  55  81 116 155 198 244 298 355
#     4  11  23  38  55  80 114 154 195 240 293 354
#     4   9  18  32  55  81 108 139 182 236 286 343
#     4   8  14  28  50  78 104 132 172 224 280 332
#     4  11  22  39  62  88 117 153 198 245 296 349
#     4   8  14  28  50  76 104 134 172 222 278 336
#
# _framework density 27.381423000000002
#
# number of rings (size 3 to 8) (size 9 to 14) (size 15 to 20)
#    0.000    2.000    0.000    5.143    0.000    5.143 
#    0.000    2.857    0.000   18.857    0.000    0.000 
#    0.000    0.000    0.000    0.000    0.000    0.000 
#
# Total GULP energy -155892.774765 kJ/mol
# GULP energy per Si atom -5567.599099 kJ/mol
# Density = 2.731910 g / cm^3
# Si number density = 27.381423 Si / 1000 Ang^3
#
#
#
# Elastic Constant Matrix: (Units=GPa)
#
#
# Indices 1 2 3 4 5 6 
#
# 1 335.9454 60.8853 44.8054 0.0000 23.8921 0.0000
# 2 60.8853 45.5625 -11.5450 0.0000 -4.6620 0.0000
# 3 44.8054 -11.5450 31.3203 0.0000 10.2596 0.0000
# 4 0.0000 0.0000 0.0000 27.3864 0.0000 -1.1937
# 5 23.8921 -4.6620 10.2596 0.0000 47.7402 0.0000
# 6 0.0000 0.0000 0.0000 -1.1937 0.0000 23.0930
#
#
#
# Elastic Compliance Matrix: (Units=1/GPa)
#
#
# Indices 1 2 3 4 5 6 
#
# 1 0.008055 -0.015135 -0.016455 0.000000 -0.001973 0.000000
# 2 -0.015135 0.052658 0.039690 0.000000 0.004187 0.000000
# 3 -0.016455 0.039690 0.071139 0.000000 -0.003177 0.000000
# 4 0.000000 0.000000 0.000000 0.036597 0.000000 0.001892
# 5 -0.001973 0.004187 -0.003177 0.000000 0.023026 0.000000
# 6 0.000000 0.000000 0.000000 0.001892 0.000000 0.043401
#
#
# Mechanical properties :
#
#
# Convention : Reuss Voigt Hill
#
# Bulk Modulus (GPa) = 6.75442 66.79106 36.77274
# Shear Modulus (GPa) = 18.65494 40.88942 29.77218
#
# Velocity S-wave (km/s) = 2.61300 3.86855 3.30102
# Velocity P-wave (km/s) = 3.40233 6.66334 5.29036
#
# Compressibility (1/GPa) = 0.14805112
#
# Stress axis : x y z
#
# Youngs Moduli (GPa) = 124.15325 18.99055 14.05699
#
# Poissons Ratio (x) = 0.28742 0.23131
# Poissons Ratio (y) = 1.87902 -0.55792
# Poissons Ratio (z) = 2.04296 -0.75373
#
# Static dielectric constant tensor:
#      x y z
#    x 3.191380 0.000000 -1.777920 
#    y 0.000000 1.990040 0.000000 
#    z -1.777920 0.000000 5.451770 
# 
# From -- ./inp_files/21192.got.cif
#   From: 2010.05.17/outbox.cif.g08.bks.cpg/sg13_11_cif.got.tgz:21192.got - 2010.06.03 16:44:36.
