data_PCOD9237695
_publ_section_title
;
Structure prediction by ZEFSAII (Michael W. Deem and Ramdas Pophale) SiO2 
 PCOD9237695
Probable space group: P 2/C
;
_chemical_formula_sum "Si O2"
_cell_formula_units_Z 24
_cell_length_a 9.892272
_cell_length_b 11.729186
_cell_length_c 14.186249
_cell_angle_alpha 90.000000
_cell_angle_beta 135.134666
_cell_angle_gamma 90.000000
_cell_volume 1161.163430
_symmetry_space_group_name_H-M "P 2/C"
_symmetry_group_IT_number 13
_symmetry_cell_setting 'monoclinic'
loop_
_space_group_symop_operation_xyz
x,y,z
-x,y,1/2-z
-x,-y,-z
x,-y,1/2+z
loop_
_atom_site_type_symbol
_atom_site_label
_atom_site_fract_x
_atom_site_fract_y
_atom_site_fract_z
Si Si1 0.054775 0.271869 0.520591
Si Si2 0.661010 0.184604 0.249635
Si Si3 0.324080 0.915061 0.235197
Si Si4 0.414838 0.755833 0.449104
Si Si5 0.879048 0.606041 0.104495
Si Si6 0.610908 0.590018 0.403047
O O1 0.143077 0.156416 0.607984
O O2 0.214269 0.324039 0.531547
O O3 0.854402 0.250025 0.370763
O O4 0.014561 0.361011 0.584891
O O5 0.500000 0.206927 0.250000
O O6 0.705277 0.049677 0.273102
O O7 0.572940 0.219408 0.106043
O O8 0.500000 0.893959 0.250000
O O9 0.381967 0.862022 0.364083
O O10 0.475889 0.650379 0.412662
O O11 0.219751 0.720694 0.405076
O O12 0.000000 0.553772 0.250000
O O13 0.707464 0.525141 0.986880
O O14 0.500000 0.573003 0.250000
#
# Coordination Sequence:
#
# PCOD9237695 Si02
#       6
#     4   4   4   4   4   4
#     4  12  23  46  67  99 136 173 222 279 331 390
#     4  11  26  41  70 103 135 179 219 271 332 407
#     4  11  22  47  70  97 137 179 221 269 340 395
#     4  12  23  46  67  99 136 173 222 279 331 390
#     4  12  26  42  69  99 134 176 227 275 331 396
#     4  12  26  46  71  95 134 182 223 275 335 394
#
# _framework density 20.668924000000001
#
# number of rings (size 3 to 8) (size 9 to 14) (size 15 to 20)
#    0.000    0.333    6.667    2.000    4.667    0.000 
#    0.000    1.667    0.000    0.000    0.000    0.000 
#    0.000    0.000    0.000    0.000    0.000    0.000 
#
# Total GULP energy -134355.344678 kJ/mol
# GULP energy per Si atom -5598.139362 kJ/mol
# Density = 2.062188 g / cm^3
# Si number density = 20.668924 Si / 1000 Ang^3
#
#
#
# Elastic Constant Matrix: (Units=GPa)
#
#
# Indices 1 2 3 4 5 6 
#
# 1 45.2957 2.0703 13.5501 0.0000 -6.8133 0.0000
# 2 2.0703 33.4805 9.2322 0.0000 -3.8536 0.0000
# 3 13.5501 9.2322 135.0514 0.0000 -12.4387 0.0000
# 4 0.0000 0.0000 0.0000 36.5532 0.0000 5.5060
# 5 -6.8133 -3.8536 -12.4387 0.0000 33.6620 0.0000
# 6 0.0000 0.0000 0.0000 5.5060 0.0000 12.6560
#
#
#
# Elastic Compliance Matrix: (Units=1/GPa)
#
#
# Indices 1 2 3 4 5 6 
#
# 1 0.023271 -0.000450 -0.001941 0.000000 0.003941 0.000000
# 2 -0.000450 0.030710 -0.001800 0.000000 0.002759 0.000000
# 3 -0.001941 -0.001800 0.007937 0.000000 0.002334 0.000000
# 4 0.000000 0.000000 0.000000 0.029276 0.000000 -0.012736
# 5 0.003941 0.002759 0.002334 0.000000 0.031683 0.000000
# 6 0.000000 0.000000 0.000000 -0.012736 0.000000 0.084555
#
#
# Mechanical properties :
#
#
# Convention : Reuss Voigt Hill
#
# Bulk Modulus (GPa) = 18.67898 29.28142 23.98020
# Shear Modulus (GPa) = 21.39858 29.17256 25.28557
#
# Velocity S-wave (km/s) = 3.22110 3.76096 3.50145
# Velocity P-wave (km/s) = 4.78444 5.74956 5.28906
#
# Compressibility (1/GPa) = 0.05353612
#
# Stress axis : x y z
#
# Youngs Moduli (GPa) = 42.97145 32.56272 125.98632
#
# Poissons Ratio (x) = 0.01466 0.24455
# Poissons Ratio (y) = 0.01934 0.22678
# Poissons Ratio (z) = 0.08341 0.05861
#
# Static dielectric constant tensor:
#      x y z
#    x 1.696270 0.000000 -0.011400 
#    y 0.000000 1.726510 0.000000 
#    z -0.011400 0.000000 1.715100 
# 
# From -- ./inp_files/66689.got.cif
#   From: 2010.05.17/outbox.cif.g08.bks.cpg/sg13_34_cif.got.tgz:66689.got - 2010.06.03 16:44:36.
