data_PCOD9237793
_publ_section_title
;
Structure prediction by ZEFSAII (Michael W. Deem and Ramdas Pophale) SiO2 
 PCOD9237793
Probable space group: P 2/C
;
_chemical_formula_sum "Si O2"
_cell_formula_units_Z 20
_cell_length_a 12.359819
_cell_length_b 8.199462
_cell_length_c 9.298828
_cell_angle_alpha 90.000000
_cell_angle_beta 74.914848
_cell_angle_gamma 90.000000
_cell_volume 909.904895
_symmetry_space_group_name_H-M "P 2/C"
_symmetry_group_IT_number 13
_symmetry_cell_setting 'monoclinic'
loop_
_space_group_symop_operation_xyz
x,y,z
-x,y,1/2-z
-x,-y,-z
x,-y,1/2+z
loop_
_atom_site_type_symbol
_atom_site_label
_atom_site_fract_x
_atom_site_fract_y
_atom_site_fract_z
Si Si1 0.573630 0.396716 0.864132
Si Si2 0.262059 0.834133 0.069674
Si Si3 0.085600 0.692077 0.348843
Si Si4 0.786072 0.383105 0.192240
Si Si5 0.894665 0.867520 0.874747
O O1 0.500000 0.361745 0.750000
O O2 0.616109 0.227800 0.921662
O O3 0.677850 0.515861 0.785016
O O4 0.500000 0.500000 0.000000
O O5 0.188570 0.775913 0.230844
O O6 0.210547 0.012847 0.061897
O O7 0.241322 0.733797 0.930933
O O8 0.127139 0.518818 0.392049
O O9 0.054000 0.802931 0.494035
O O10 0.000000 0.666101 0.250000
O O11 0.844020 0.280688 0.299021
O O12 0.000000 0.941527 0.750000
#
# Coordination Sequence:
#
# PCOD9237793 Si02
#       5
#     4   4   4   4   4
#     4  11  23  46  77 102 134 180 233 298 344 404
#     4  11  24  42  66 100 137 182 226 282 357 414
#     4  11  23  41  68  97 135 186 236 283 341 412
#     4  11  24  43  70 102 137 182 241 287 338 422
#     4  12  26  44  68 101 147 186 227 289 353 420
#
# _framework density 21.980319999999999
#
# number of rings (size 3 to 8) (size 9 to 14) (size 15 to 20)
#    0.000    0.800    2.000    6.000    2.800    4.800 
#    0.000    4.000    0.000    0.000    0.000    0.000 
#    0.000    0.000    0.000    0.000    0.000    0.000 
#
# Total GULP energy -111810.936437 kJ/mol
# GULP energy per Si atom -5590.546822 kJ/mol
# Density = 2.193029 g / cm^3
# Si number density = 21.980320 Si / 1000 Ang^3
#
#
#
# Elastic Constant Matrix: (Units=GPa)
#
#
# Indices 1 2 3 4 5 6 
#
# 1 108.3883 33.3417 39.1819 0.0000 15.0709 0.0000
# 2 33.3417 89.7397 28.3335 0.0000 3.0311 0.0000
# 3 39.1819 28.3335 122.7639 0.0000 17.5381 0.0000
# 4 0.0000 0.0000 0.0000 27.3258 0.0000 17.8038
# 5 15.0709 3.0311 17.5381 0.0000 46.2739 0.0000
# 6 0.0000 0.0000 0.0000 17.8038 0.0000 13.4629
#
#
#
# Elastic Compliance Matrix: (Units=1/GPa)
#
#
# Indices 1 2 3 4 5 6 
#
# 1 0.011547 -0.003404 -0.002531 0.000000 -0.002578 0.000000
# 2 -0.003404 0.013026 -0.002068 0.000000 0.001039 0.000000
# 3 -0.002531 -0.002068 0.009826 0.000000 -0.002764 0.000000
# 4 0.000000 0.000000 0.000000 0.264440 0.000000 -0.349702
# 5 -0.002578 0.001039 -0.002764 0.000000 0.023430 0.000000
# 6 0.000000 0.000000 0.000000 -0.349702 0.000000 0.536734
#
#
# Mechanical properties :
#
#
# Convention : Reuss Voigt Hill
#
# Bulk Modulus (GPa) = 54.37325 58.06735 56.22030
# Shear Modulus (GPa) = 5.67447 32.08150 18.87799
#
# Velocity S-wave (km/s) = 1.60848 3.82456 2.93381
# Velocity P-wave (km/s) = 5.31419 6.78072 6.09175
#
# Compressibility (1/GPa) = 0.01839140
#
# Stress axis : x y z
#
# Youngs Moduli (GPa) = 86.60480 76.76997 101.77146
#
# Poissons Ratio (x) = 0.26130 0.25763
# Poissons Ratio (y) = 0.29478 0.21051
# Poissons Ratio (z) = 0.21923 0.15880
#
# Static dielectric constant tensor:
#      x y z
#    x 1.870510 0.000000 0.004420 
#    y 0.000000 1.851540 0.000000 
#    z 0.004420 0.000000 1.781060 
# 
# From -- ./inp_files/14836.got.cif
#   From: 2010.05.17/outbox.cif.g08.bks.cpg/sg13_8_cif.got.tgz:14836.got - 2010.06.03 16:44:36.
