data_PCOD9237769
_publ_section_title
;
Structure prediction by ZEFSAII (Michael W. Deem and Ramdas Pophale) SiO2 
 PCOD9237769
Probable space group: P 2/C
;
_chemical_formula_sum "Si O2"
_cell_formula_units_Z 28
_cell_length_a 8.177114
_cell_length_b 9.287806
_cell_length_c 24.644703
_cell_angle_alpha 90.000000
_cell_angle_beta 45.188313
_cell_angle_gamma 90.000000
_cell_volume 1327.836142
_symmetry_space_group_name_H-M "P 2/C"
_symmetry_group_IT_number 13
_symmetry_cell_setting 'monoclinic'
loop_
_space_group_symop_operation_xyz
x,y,z
-x,y,1/2-z
-x,-y,-z
x,-y,1/2+z
loop_
_atom_site_type_symbol
_atom_site_label
_atom_site_fract_x
_atom_site_fract_y
_atom_site_fract_z
Si Si1 0.381530 0.326590 0.392373
Si Si2 0.019037 0.869289 0.035894
Si Si3 0.000000 0.868315 0.250000
Si Si4 0.128009 0.327665 0.168812
Si Si5 0.817239 0.610088 0.222484
Si Si6 0.282923 0.616275 0.375389
Si Si7 0.994653 0.951899 0.851905
Si Si8 0.500000 0.166235 0.250000
O O1 0.615807 0.357526 0.370641
O O2 0.232444 0.470668 0.418954
O O3 0.436819 0.258993 0.319221
O O4 0.235009 0.221432 0.464312
O O5 0.793275 0.767067 0.081537
O O6 0.050920 0.943243 0.087045
O O7 0.000000 0.000000 0.000000
O O8 0.137166 0.754881 0.254919
O O9 0.897677 0.970876 0.320471
O O10 0.000000 0.255241 0.250000
O O11 0.983688 0.474769 0.194944
O O12 0.105909 0.211553 0.125642
O O13 0.550359 0.586500 0.298847
O O14 0.843460 0.628791 0.152509
O O15 0.273433 0.926338 0.787310
#
# Coordination Sequence:
#
# PCOD9237769 Si02
#       8
#     4   4   2   4   4   4   4   2
#     4  12  24  44  73 103 139 188 239 299 361 422
#     4  12  28  45  66 106 151 188 236 287 365 436
#     4  12  22  38  66 104 144 172 232 292 356 412
#     4  12  22  43  69 105 137 180 242 301 354 417
#     4  11  23  40  74 108 132 177 247 303 347 407
#     4  11  23  44  72 101 139 184 238 294 347 425
#     4  12  25  43  70 101 144 189 234 295 354 430
#     4  12  22  42  74 102 130 186 254 296 340 420
#
# _framework density 21.086939000000001
#
# number of rings (size 3 to 8) (size 9 to 14) (size 15 to 20)
#    0.000    0.286    7.143    2.143    2.000    1.714 
#    0.000    0.714    0.000    0.000    0.000    0.000 
#    0.000    0.000    0.000    0.000    0.000    0.000 
#
# Total GULP energy -156112.752386 kJ/mol
# GULP energy per Si atom -5575.455442 kJ/mol
# Density = 2.103894 g / cm^3
# Si number density = 21.086939 Si / 1000 Ang^3
#
#
#
# Elastic Constant Matrix: (Units=GPa)
#
#
# Indices 1 2 3 4 5 6 
#
# 1 93.5462 55.9896 33.5551 0.0000 -0.0385 0.0000
# 2 55.9896 155.0183 64.7159 0.0000 12.7297 0.0000
# 3 33.5551 64.7159 76.9590 0.0000 0.9154 0.0000
# 4 0.0000 0.0000 0.0000 29.2040 0.0000 -0.0088
# 5 -0.0385 12.7297 0.9154 0.0000 21.4289 0.0000
# 6 0.0000 0.0000 0.0000 -0.0088 0.0000 30.8784
#
#
#
# Elastic Compliance Matrix: (Units=1/GPa)
#
#
# Indices 1 2 3 4 5 6 
#
# 1 0.014175 -0.004228 -0.002656 0.000000 0.002651 0.000000
# 2 -0.004228 0.011909 -0.008091 0.000000 -0.006736 0.000000
# 3 -0.002656 -0.008091 0.020909 0.000000 0.003908 0.000000
# 4 0.000000 0.000000 0.000000 0.034242 0.000000 0.000010
# 5 0.002651 -0.006736 0.003908 0.000000 0.050505 0.000000
# 6 0.000000 0.000000 0.000000 0.000010 0.000000 0.032385
#
#
# Mechanical properties :
#
#
# Convention : Reuss Voigt Hill
#
# Bulk Modulus (GPa) = 58.67756 70.44942 64.56349
# Shear Modulus (GPa) = 25.03062 27.71981 26.37522
#
# Velocity S-wave (km/s) = 3.44905 3.62960 3.54048
# Velocity P-wave (km/s) = 6.61424 7.14471 6.88459
#
# Compressibility (1/GPa) = 0.01704229
#
# Stress axis : x y z
#
# Youngs Moduli (GPa) = 70.54907 83.97143 47.82640
#
# Poissons Ratio (x) = 0.35507 0.12703
# Poissons Ratio (y) = 0.29831 0.38694
# Poissons Ratio (z) = 0.18738 0.67937
#
# Static dielectric constant tensor:
#      x y z
#    x 1.780800 0.000000 0.010470 
#    y 0.000000 1.851320 0.000000 
#    z 0.010470 0.000000 1.771200 
# 
# From -- ./inp_files/91436.got.cif
#   From: 2010.05.17/outbox.cif.g08.bks.cpg/sg13_46_cif.got.tgz:91436.got - 2010.06.03 16:44:36.
