data_PCOD9237583
_publ_section_title
;
Structure prediction by ZEFSAII (Michael W. Deem and Ramdas Pophale) SiO2 
 PCOD9237583
Probable space group: P 2/C
;
_chemical_formula_sum "Si O2"
_cell_formula_units_Z 14
_cell_length_a 4.834142
_cell_length_b 26.837993
_cell_length_c 5.287720
_cell_angle_alpha 90.000000
_cell_angle_beta 126.809426
_cell_angle_gamma 90.000000
_cell_volume 549.251527
_symmetry_space_group_name_H-M "P 2/C"
_symmetry_group_IT_number 13
_symmetry_cell_setting 'monoclinic'
loop_
_space_group_symop_operation_xyz
x,y,z
-x,y,1/2-z
-x,-y,-z
x,-y,1/2+z
loop_
_atom_site_type_symbol
_atom_site_label
_atom_site_fract_x
_atom_site_fract_y
_atom_site_fract_z
Si Si1 0.500000 0.324700 0.250000
Si Si2 0.500000 0.966190 0.750000
Si Si3 0.000000 0.101243 0.250000
Si Si4 0.000000 0.746458 0.250000
Si Si5 0.500000 0.532992 0.750000
Si Si6 0.000000 0.396159 0.750000
Si Si7 0.500000 0.179103 0.750000
O O1 0.826668 0.287367 0.433452
O O2 0.654810 0.360570 0.558894
O O3 0.158038 0.932762 0.613360
O O4 0.500000 0.000000 0.500000
O O5 0.298235 0.139978 0.471362
O O6 0.279210 0.783285 0.292983
O O7 0.500000 0.500000 0.500000
O O8 0.148460 0.566529 0.544047
#
# Coordination Sequence:
#
# PCOD9237583 Si02
#       7
#     2   2   2   2   2   2   2
#     4   9  20  41  66  96 138 184 240 299 366 437
#     4  12  27  49  76 109 150 197 246 301 365 436
#     4  12  26  46  71 106 146 190 243 304 364 436
#     4  11  22  42  67  98 136 186 239 300 370 443
#     4  11  22  40  65  97 140 189 241 300 364 433
#     4   9  20  40  64  98 138 186 240 300 362 433
#     4  12  25  44  71 104 142 188 241 300 365 438
#
# _framework density 25.489229999999999
#
# number of rings (size 3 to 8) (size 9 to 14) (size 15 to 20)
#    0.000    1.143    0.000    6.000    0.000    2.286 
#    0.000   21.429    0.000    0.000    0.000    0.000 
#    0.000    0.000    0.000    0.000    0.000    0.000 
#
# Total GULP energy -77957.286436 kJ/mol
# GULP energy per Si atom -5568.377603 kJ/mol
# Density = 2.543122 g / cm^3
# Si number density = 25.489230 Si / 1000 Ang^3
#
#
#
# Elastic Constant Matrix: (Units=GPa)
#
#
# Indices 1 2 3 4 5 6 
#
# 1 147.1941 77.3157 62.9590 0.0000 -14.7227 0.0000
# 2 77.3157 174.9823 108.5745 0.0000 -1.1206 0.0000
# 3 62.9590 108.5745 189.9896 0.0000 11.7040 0.0000
# 4 0.0000 0.0000 0.0000 55.5517 0.0000 22.7032
# 5 -14.7227 -1.1206 11.7040 0.0000 35.6491 0.0000
# 6 0.0000 0.0000 0.0000 22.7032 0.0000 -23.5326
#
#
#
# Elastic Compliance Matrix: (Units=1/GPa)
#
#
# Indices 1 2 3 4 5 6 
#
# 1 0.009616 -0.003215 -0.001620 0.000000 0.004402 0.000000
# 2 -0.003215 0.010069 -0.004722 0.000000 0.000539 0.000000
# 3 -0.001620 -0.004722 0.008726 0.000000 -0.003682 0.000000
# 4 0.000000 0.000000 0.000000 0.012911 0.000000 0.012456
# 5 0.004402 0.000539 -0.003682 0.000000 0.031095 0.000000
# 6 0.000000 0.000000 0.000000 0.012456 0.000000 -0.030478
#
#
# Mechanical properties :
#
#
# Convention : Reuss Voigt Hill
#
# Bulk Modulus (GPa) = 107.57668 112.20714 109.89191
# Shear Modulus (GPa) = 77.93993 31.08810 54.51402
#
# Velocity S-wave (km/s) = 5.53570 3.49615 4.62963
# Velocity P-wave (km/s) = 9.11894 7.77267 8.47258
#
# Compressibility (1/GPa) = 0.00929570
#
# Stress axis : x y z
#
# Youngs Moduli (GPa) = 103.99377 99.31696 114.60502
#
# Poissons Ratio (x) = 0.31933 0.18570
# Poissons Ratio (y) = 0.33436 0.54114
# Poissons Ratio (z) = 0.16850 0.46895
#
# Static dielectric constant tensor:
#      x y z
#    x 1.957230 0.000000 0.029230 
#    y 0.000000 2.067200 0.000000 
#    z 0.029230 0.000000 2.012040 
# 
# From -- ./inp_files/649.got.cif
#   From: 2010.05.17/outbox.cif.g08.bks.cpg/sg13_1_cif.got.tgz:649.got - 2010.06.03 16:44:36.
