data_PCOD9237128
_publ_section_title
;
Structure prediction by ZEFSAII (Michael W. Deem and Ramdas Pophale) SiO2 
 PCOD9237128
Probable space group: P 2/C
;
_chemical_formula_sum "Si O2"
_cell_formula_units_Z 16
_cell_length_a 15.087709
_cell_length_b 8.717085
_cell_length_c 8.601303
_cell_angle_alpha 90.000000
_cell_angle_beta 146.931699
_cell_angle_gamma 90.000000
_cell_volume 617.253783
_symmetry_space_group_name_H-M "P 2/C"
_symmetry_group_IT_number 13
_symmetry_cell_setting 'monoclinic'
loop_
_space_group_symop_operation_xyz
x,y,z
-x,y,1/2-z
-x,-y,-z
x,-y,1/2+z
loop_
_atom_site_type_symbol
_atom_site_label
_atom_site_fract_x
_atom_site_fract_y
_atom_site_fract_z
Si Si1 0.500000 0.552575 0.750000
Si Si2 0.881598 0.870199 0.394327
Si Si3 0.682320 0.049984 0.312668
Si Si4 0.292853 0.631228 0.728539
Si Si5 0.000000 0.591481 0.750000
O O1 0.438002 0.636524 0.813334
O O2 0.357974 0.444942 0.479209
O O3 0.959207 0.703556 0.542498
O O4 0.802045 0.912797 0.442753
O O5 0.728607 0.886390 0.051100
O O6 0.000000 0.000000 0.500000
O O7 0.743693 0.191831 0.296901
O O8 0.500000 0.000000 0.000000
O O9 0.150905 0.524310 0.456491
#
# Coordination Sequence:
#
# PCOD9237128 Si02
#       5
#     2   4   4   4   2
#     4  10  26  48  74 110 146 192 254 306 384 438
#     4  12  27  50  76 111 154 199 255 313 385 459
#     4  12  29  48  78 111 151 202 255 315 386 452
#     4  11  28  47  79 108 153 197 254 316 379 454
#     4  12  28  50  78 114 154 200 258 312 384 462
#
# _framework density 25.921267
#
# number of rings (size 3 to 8) (size 9 to 14) (size 15 to 20)
#    0.000    0.500    2.500    2.250   21.000    2.000 
#    0.000    0.000    0.000    0.000    0.000    0.000 
#    0.000    0.000    0.000    0.000    0.000    0.000 
#
# Total GULP energy -89444.509082 kJ/mol
# GULP energy per Si atom -5590.281818 kJ/mol
# Density = 2.586227 g / cm^3
# Si number density = 25.921267 Si / 1000 Ang^3
#
#
#
# Elastic Constant Matrix: (Units=GPa)
#
#
# Indices 1 2 3 4 5 6 
#
# 1 62.2434 8.2286 24.3242 0.0000 14.7983 0.0000
# 2 8.2286 132.5939 63.0072 0.0000 28.5161 0.0000
# 3 24.3242 63.0072 173.8678 0.0000 -4.4515 0.0000
# 4 0.0000 0.0000 0.0000 -55.7126 0.0000 107.9311
# 5 14.7983 28.5161 -4.4515 0.0000 34.1907 0.0000
# 6 0.0000 0.0000 0.0000 107.9311 0.0000 -58.7399
#
#
#
# Elastic Compliance Matrix: (Units=1/GPa)
#
#
# Indices 1 2 3 4 5 6 
#
# 1 0.020231 0.003461 -0.004397 0.000000 -0.012216 0.000000
# 2 0.003461 0.012623 -0.005384 0.000000 -0.012727 0.000000
# 3 -0.004397 -0.005384 0.008510 0.000000 0.007502 0.000000
# 4 0.000000 0.000000 0.000000 0.007012 0.000000 0.012885
# 5 -0.012216 -0.012727 0.007502 0.000000 0.046126 0.000000
# 6 0.000000 0.000000 0.000000 0.012885 0.000000 0.006651
#
#
# Mechanical properties :
#
#
# Convention : Reuss Voigt Hill
#
# Bulk Modulus (GPa) = 34.81567 62.20279 48.50923
# Shear Modulus (GPa) = 40.52898 2.15731 21.34314
#
# Velocity S-wave (km/s) = 3.95845 0.91327 2.87258
# Velocity P-wave (km/s) = 5.86114 5.01607 5.45500
#
# Compressibility (1/GPa) = 0.02872270
#
# Stress axis : x y z
#
# Youngs Moduli (GPa) = 49.42884 79.22256 117.50923
#
# Poissons Ratio (x) = -0.27421 0.51673
# Poissons Ratio (y) = -0.17108 0.63271
# Poissons Ratio (z) = 0.21736 0.42656
#
# Static dielectric constant tensor:
#      x y z
#    x 2.054200 0.000000 -0.063910 
#    y 0.000000 2.148730 0.000000 
#    z -0.063910 0.000000 2.129280 
# 
# From -- ./inp_files/10832.got.cif
#   From: 2010.05.17/outbox.cif.g08.bks.cpg/sg13_6_cif.got.tgz:10832.got - 2010.06.03 16:44:36.
