data_PCOD9237369
_publ_section_title
;
Structure prediction by ZEFSAII (Michael W. Deem and Ramdas Pophale) SiO2 
 PCOD9237369
Probable space group: P 2/C
;
_chemical_formula_sum "Si O2"
_cell_formula_units_Z 16
_cell_length_a 7.543681
_cell_length_b 6.334135
_cell_length_c 13.826082
_cell_angle_alpha 90.000000
_cell_angle_beta 69.406602
_cell_angle_gamma 90.000000
_cell_volume 618.432119
_symmetry_space_group_name_H-M "P 2/C"
_symmetry_group_IT_number 13
_symmetry_cell_setting 'monoclinic'
loop_
_space_group_symop_operation_xyz
x,y,z
-x,y,1/2-z
-x,-y,-z
x,-y,1/2+z
loop_
_atom_site_type_symbol
_atom_site_label
_atom_site_fract_x
_atom_site_fract_y
_atom_site_fract_z
Si Si1 0.338062 0.246364 0.587509
Si Si2 0.977483 0.583652 0.855812
Si Si3 0.736845 0.682115 0.084885
Si Si4 0.558869 0.896071 0.639156
O O1 0.155475 0.381971 0.643495
O O2 0.475738 0.632319 0.409536
O O3 0.376283 0.017695 0.627689
O O4 0.350111 0.216259 0.469993
O O5 0.000000 0.701500 0.750000
O O6 0.168536 0.485230 0.862724
O O7 0.869997 0.698087 0.964572
O O8 0.704029 0.912546 0.137577
O O9 0.500000 0.788956 0.750000
#
# Coordination Sequence:
#
# PCOD9237369 Si02
#       4
#     4   4   4   4
#     4   9  20  38  57  81 114 144 187 233 268 336
#     4  11  21  36  58  84 113 149 181 228 284 325
#     4   9  21  39  54  85 113 140 195 227 265 348
#     4   9  18  38  59  81 110 148 188 226 278 327
#
# _framework density 25.871876
#
# number of rings (size 3 to 8) (size 9 to 14) (size 15 to 20)
#    1.500    1.000    0.000    2.250    0.000    1.000 
#    9.000    1.250    0.000    0.000    0.000    0.000 
#    0.000    0.000    0.000    0.000    0.000    0.000 
#
# Total GULP energy -89416.386740 kJ/mol
# GULP energy per Si atom -5588.524171 kJ/mol
# Density = 2.581299 g / cm^3
# Si number density = 25.871876 Si / 1000 Ang^3
#
#
#
# Elastic Constant Matrix: (Units=GPa)
#
#
# Indices 1 2 3 4 5 6 
#
# 1 143.5618 19.3163 31.8713 0.0000 10.8575 0.0000
# 2 19.3163 21.2024 7.9948 0.0000 -10.5961 0.0000
# 3 31.8713 7.9948 203.9188 0.0000 4.9129 0.0000
# 4 0.0000 0.0000 0.0000 50.1635 0.0000 -17.1701
# 5 10.8575 -10.5961 4.9129 0.0000 30.6275 0.0000
# 6 0.0000 0.0000 0.0000 -17.1701 0.0000 23.8553
#
#
#
# Elastic Compliance Matrix: (Units=1/GPa)
#
#
# Indices 1 2 3 4 5 6 
#
# 1 0.009274 -0.011751 -0.000815 0.000000 -0.007222 0.000000
# 2 -0.011751 0.073459 -0.001763 0.000000 0.029863 0.000000
# 3 -0.000815 -0.001763 0.005128 0.000000 -0.001144 0.000000
# 4 0.000000 0.000000 0.000000 0.026451 0.000000 0.019039
# 5 -0.007222 0.029863 -0.001144 0.000000 0.045726 0.000000
# 6 0.000000 0.000000 0.000000 0.019039 0.000000 0.055623
#
#
# Mechanical properties :
#
#
# Convention : Reuss Voigt Hill
#
# Bulk Modulus (GPa) = 16.89087 54.11643 35.50365
# Shear Modulus (GPa) = 18.93558 41.56263 30.24910
#
# Velocity S-wave (km/s) = 2.70830 4.01244 3.42305
# Velocity P-wave (km/s) = 4.04013 6.51373 5.41993
#
# Compressibility (1/GPa) = 0.05920357
#
# Stress axis : x y z
#
# Youngs Moduli (GPa) = 107.82992 13.61298 195.01087
#
# Poissons Ratio (x) = 0.15997 0.15888
# Poissons Ratio (y) = 1.26713 0.34378
# Poissons Ratio (z) = 0.08785 0.02400
#
# Static dielectric constant tensor:
#      x y z
#    x 1.985230 0.000000 0.021260 
#    y 0.000000 2.112410 0.000000 
#    z 0.021260 0.000000 2.004630 
# 
# From -- ./inp_files/27617.got.cif
#   From: 2010.05.17/outbox.cif.g08.bks.cpg/sg13_14_cif.got.tgz:27617.got - 2010.06.03 16:44:36.
