data_PCOD9237408
_publ_section_title
;
Structure prediction by ZEFSAII (Michael W. Deem and Ramdas Pophale) SiO2 
 PCOD9237408
Probable space group: P 2/C
;
_chemical_formula_sum "Si O2"
_cell_formula_units_Z 32
_cell_length_a 14.503193
_cell_length_b 11.591102
_cell_length_c 15.255051
_cell_angle_alpha 90.000000
_cell_angle_beta 36.554508
_cell_angle_gamma 90.000000
_cell_volume 1527.381122
_symmetry_space_group_name_H-M "P 2/C"
_symmetry_group_IT_number 13
_symmetry_cell_setting 'monoclinic'
loop_
_space_group_symop_operation_xyz
x,y,z
-x,y,1/2-z
-x,-y,-z
x,-y,1/2+z
loop_
_atom_site_type_symbol
_atom_site_label
_atom_site_fract_x
_atom_site_fract_y
_atom_site_fract_z
Si Si1 0.816600 0.516855 0.904635
Si Si2 0.311165 0.772237 0.523108
Si Si3 0.143506 0.929053 0.505631
Si Si4 0.135385 0.776868 0.825606
Si Si5 0.780176 0.716996 0.355252
Si Si6 0.666720 0.220086 0.765588
Si Si7 0.126191 0.798243 0.034354
Si Si8 0.105370 0.580733 0.479214
O O1 0.744752 0.641982 0.949170
O O2 0.753192 0.419938 0.887643
O O3 0.000000 0.513925 0.750000
O O4 0.808985 0.500155 0.015477
O O5 0.212322 0.858032 0.536438
O O6 0.276145 0.791297 0.652243
O O7 0.492178 0.778329 0.365868
O O8 0.249619 0.888648 0.343016
O O9 0.974336 0.885767 0.607811
O O10 0.131837 0.063478 0.531947
O O11 0.169485 0.763707 0.902280
O O12 0.022585 0.670317 0.884284
O O13 0.672323 0.776673 0.366402
O O14 0.771114 0.759382 0.461989
O O15 0.954460 0.747114 0.187069
O O16 0.768072 0.333420 0.660464
O O17 0.000000 0.500000 0.500000
#
# Coordination Sequence:
#
# PCOD9237408 Si02
#       8
#     4   4   4   4   4   4   4   4
#     4  12  20  39  66 101 136 169 226 280 328 402
#     4  12  25  41  67 101 141 178 223 278 344 407
#     4  11  23  43  71 100 129 176 236 283 329 399
#     4  11  22  39  64 103 128 173 234 277 327 401
#     4  11  24  42  68 102 136 173 223 288 344 395
#     4  11  25  45  65 101 139 178 225 273 349 403
#     4  11  23  41  72  96 131 172 237 288 333 392
#     4  11  21  38  67  96 133 172 224 276 326 397
#
# _framework density 20.950894999999999
#
# number of rings (size 3 to 8) (size 9 to 14) (size 15 to 20)
#    0.000    0.750    7.500    2.625    3.500    0.500 
#    0.000    4.375    2.750    0.000    0.000    0.000 
#    0.000    0.000    0.000    0.000    0.000    0.000 
#
# Total GULP energy -178627.979697 kJ/mol
# GULP energy per Si atom -5582.124366 kJ/mol
# Density = 2.090321 g / cm^3
# Si number density = 20.950895 Si / 1000 Ang^3
#
#
#
# Elastic Constant Matrix: (Units=GPa)
#
#
# Indices 1 2 3 4 5 6 
#
# 1 79.5424 4.1762 37.4341 0.0000 32.9829 0.0000
# 2 4.1762 85.8357 9.5020 0.0000 6.0610 0.0000
# 3 37.4341 9.5020 68.0085 0.0000 6.1998 0.0000
# 4 0.0000 0.0000 0.0000 14.0619 0.0000 7.0015
# 5 32.9829 6.0610 6.1998 0.0000 41.5363 0.0000
# 6 0.0000 0.0000 0.0000 7.0015 0.0000 11.5557
#
#
#
# Elastic Compliance Matrix: (Units=1/GPa)
#
#
# Indices 1 2 3 4 5 6 
#
# 1 0.026795 0.001535 -0.013183 0.000000 -0.019534 0.000000
# 2 0.001535 0.012014 -0.002284 0.000000 -0.002631 0.000000
# 3 -0.013183 -0.002284 0.021588 0.000000 0.007579 0.000000
# 4 0.000000 0.000000 0.000000 0.101836 0.000000 -0.061702
# 5 -0.019534 -0.002631 0.007579 0.000000 0.038839 0.000000
# 6 0.000000 0.000000 0.000000 -0.061702 0.000000 0.123922
#
#
# Mechanical properties :
#
#
# Convention : Reuss Voigt Hill
#
# Bulk Modulus (GPa) = 30.73622 37.29013 34.01317
# Shear Modulus (GPa) = 13.74751 25.58241 19.66496
#
# Velocity S-wave (km/s) = 2.56438 3.49817 3.06702
# Velocity P-wave (km/s) = 4.84463 5.84411 5.36769
#
# Compressibility (1/GPa) = 0.03253491
#
# Stress axis : x y z
#
# Youngs Moduli (GPa) = 37.32032 83.23575 46.32124
#
# Poissons Ratio (x) = -0.12776 0.61064
# Poissons Ratio (y) = -0.05728 0.10578
# Poissons Ratio (z) = 0.49198 0.19008
#
# Static dielectric constant tensor:
#      x y z
#    x 1.801290 0.000000 0.073460 
#    y 0.000000 1.826040 0.000000 
#    z 0.073460 0.000000 1.779030 
# 
# From -- ./inp_files/53689.got.cif
#   From: 2010.05.17/outbox.cif.g08.bks.cpg/sg13_27_cif.got.tgz:53689.got - 2010.06.03 16:44:36.
