data_PCOD9237575
_publ_section_title
;
Structure prediction by ZEFSAII (Michael W. Deem and Ramdas Pophale) SiO2 
 PCOD9237575
Probable space group: P 2/C
;
_chemical_formula_sum "Si O2"
_cell_formula_units_Z 28
_cell_length_a 4.974323
_cell_length_b 19.738085
_cell_length_c 12.397567
_cell_angle_alpha 90.000000
_cell_angle_beta 66.864263
_cell_angle_gamma 90.000000
_cell_volume 1119.343484
_symmetry_space_group_name_H-M "P 2/C"
_symmetry_group_IT_number 13
_symmetry_cell_setting 'monoclinic'
loop_
_space_group_symop_operation_xyz
x,y,z
-x,y,1/2-z
-x,-y,-z
x,-y,1/2+z
loop_
_atom_site_type_symbol
_atom_site_label
_atom_site_fract_x
_atom_site_fract_y
_atom_site_fract_z
Si Si1 0.678840 0.743940 0.625655
Si Si2 0.447728 0.391937 0.070250
Si Si3 0.099334 0.388618 0.909861
Si Si4 0.614960 0.171442 0.923928
Si Si5 0.500000 0.271509 0.750000
Si Si6 0.007186 0.147337 0.124328
Si Si7 0.754164 0.050493 0.999699
Si Si8 0.500000 0.497595 0.250000
O O1 0.500000 0.778869 0.750000
O O2 0.522682 0.673353 0.630755
O O3 0.691807 0.776969 0.507126
O O4 0.991673 0.769107 0.619839
O O5 0.409275 0.452048 0.161758
O O6 0.190379 0.387179 0.022867
O O7 0.751792 0.396538 0.955202
O O8 0.244914 0.321819 0.833955
O O9 0.245697 0.453376 0.832035
O O10 0.605705 0.219644 0.824001
O O11 0.305969 0.138109 0.010140
O O12 0.818393 0.105170 0.894652
O O13 0.000000 0.127191 0.250000
O O14 0.757852 0.103689 0.101203
O O15 0.500000 0.000000 0.000000
O O16 0.000000 0.000000 0.000000
#
# Coordination Sequence:
#
# PCOD9237575 Si02
#       8
#     4   4   4   4   2   4   4   2
#     4  11  22  39  69 109 142 184 242 309 366 437
#     4  12  25  47  71 106 147 191 249 309 375 444
#     4  11  27  47  71 104 151 195 246 308 379 441
#     4  11  23  46  72 106 143 194 241 304 369 448
#     4  11  24  48  74 108 151 200 250 306 375 452
#     4  11  23  42  77 105 150 188 246 303 380 436
#     4  11  24  48  71 106 148 190 245 298 365 444
#     4  11  26  46  76 106 141 202 252 310 371 448
#
# _framework density 25.014662000000001
#
# number of rings (size 3 to 8) (size 9 to 14) (size 15 to 20)
#    0.000    0.857    5.000    1.714    0.000    4.000 
#    7.714    0.000    0.000    0.000    0.000    0.000 
#    0.000    0.000    0.000    0.000    0.000    0.000 
#
# Total GULP energy -156196.478111 kJ/mol
# GULP energy per Si atom -5578.445647 kJ/mol
# Density = 2.495773 g / cm^3
# Si number density = 25.014662 Si / 1000 Ang^3
#
#
#
# Elastic Constant Matrix: (Units=GPa)
#
#
# Indices 1 2 3 4 5 6 
#
# 1 84.8281 19.9642 13.7147 0.0000 18.2944 0.0000
# 2 19.9642 174.3479 56.1972 0.0000 30.4271 0.0000
# 3 13.7147 56.1972 115.9300 0.0000 36.3062 0.0000
# 4 0.0000 0.0000 0.0000 20.8013 0.0000 4.7972
# 5 18.2944 30.4271 36.3062 0.0000 30.2519 0.0000
# 6 0.0000 0.0000 0.0000 4.7972 0.0000 7.5987
#
#
#
# Elastic Compliance Matrix: (Units=1/GPa)
#
#
# Indices 1 2 3 4 5 6 
#
# 1 0.013751 -0.000378 0.001669 0.000000 -0.009938 0.000000
# 2 -0.000378 0.007236 -0.002011 0.000000 -0.004636 0.000000
# 3 0.001669 -0.002011 0.014557 0.000000 -0.016457 0.000000
# 4 0.000000 0.000000 0.000000 0.056266 0.000000 -0.035522
# 5 -0.009938 -0.004636 -0.016457 0.000000 0.063479 0.000000
# 6 0.000000 0.000000 0.000000 -0.035522 0.000000 0.154028
#
#
# Mechanical properties :
#
#
# Convention : Reuss Voigt Hill
#
# Bulk Modulus (GPa) = 29.32220 61.65092 45.48656
# Shear Modulus (GPa) = 15.52188 30.74572 23.13380
#
# Velocity S-wave (km/s) = 2.49371 3.50967 3.04437
# Velocity P-wave (km/s) = 4.47648 6.41273 5.53001
#
# Compressibility (1/GPa) = 0.03410386
#
# Stress axis : x y z
#
# Youngs Moduli (GPa) = 72.72156 138.19273 68.69398
#
# Poissons Ratio (x) = 0.05225 -0.11465
# Poissons Ratio (y) = 0.02750 0.13816
# Poissons Ratio (z) = -0.12137 0.27794
#
# Static dielectric constant tensor:
#      x y z
#    x 2.181780 0.000000 -0.090650 
#    y 0.000000 2.136190 0.000000 
#    z -0.090650 0.000000 2.035660 
# 
# From -- ./inp_files/26727.got.cif
#   From: 2010.05.17/outbox.cif.g08.bks.cpg/sg13_14_cif.got.tgz:26727.got - 2010.06.03 16:44:36.
