data_PCOD9237119
_publ_section_title
;
Structure prediction by ZEFSAII (Michael W. Deem and Ramdas Pophale) SiO2 
 PCOD9237119
Probable space group: P 2/C
;
_chemical_formula_sum "Si O2"
_cell_formula_units_Z 26
_cell_length_a 24.542168
_cell_length_b 6.387050
_cell_length_c 26.528926
_cell_angle_alpha 90.000000
_cell_angle_beta 16.824739
_cell_angle_gamma 90.000000
_cell_volume 1203.647002
_symmetry_space_group_name_H-M "P 2/C"
_symmetry_group_IT_number 13
_symmetry_cell_setting 'monoclinic'
loop_
_space_group_symop_operation_xyz
x,y,z
-x,y,1/2-z
-x,-y,-z
x,-y,1/2+z
loop_
_atom_site_type_symbol
_atom_site_label
_atom_site_fract_x
_atom_site_fract_y
_atom_site_fract_z
Si Si1 0.879371 0.845923 0.140690
Si Si2 0.629743 0.482395 0.818442
Si Si3 0.962243 0.351446 0.369538
Si Si4 0.785989 0.316498 0.090269
Si Si5 0.000000 0.332349 0.750000
Si Si6 0.724231 0.030444 0.052588
Si Si7 0.710475 0.775899 0.844020
O O1 0.799852 0.680330 0.171541
O O2 0.730041 0.986596 0.304902
O O3 0.015319 0.726025 0.058514
O O4 0.000000 0.000000 0.000000
O O5 0.633463 0.633766 0.767637
O O6 0.672742 0.631040 0.828299
O O7 0.455869 0.322283 0.974836
O O8 0.805745 0.479440 0.538766
O O9 0.051978 0.518713 0.251292
O O10 0.106088 0.261436 0.283767
O O11 0.853212 0.174231 0.435436
O O12 0.751920 0.125078 0.083860
O O13 0.177744 0.192468 0.573694
O O14 0.500000 0.995991 0.250000
#
# Coordination Sequence:
#
# PCOD9237119 Si02
#       7
#     4   4   4   4   2   4   4
#     4  12  21  39  63  93 137 180 218 265 323 404
#     4  11  24  39  62 102 137 177 219 268 326 411
#     4  11  23  46  69  96 133 179 218 288 349 397
#     4  11  23  41  66  97 132 175 227 274 337 406
#     4  10  26  48  72  98 136 174 234 294 348 410
#     4  11  26  48  72 101 131 178 237 289 351 413
#     4  11  23  40  65  96 139 177 218 270 335 400
#
# _framework density 21.601019000000001
#
# number of rings (size 3 to 8) (size 9 to 14) (size 15 to 20)
#    0.000    0.923    4.615    2.308    2.154    2.462 
#    2.769    0.000    0.000    0.000    0.000    0.000 
#    0.000    0.000    0.000    0.000    0.000    0.000 
#
# Total GULP energy -145026.184998 kJ/mol
# GULP energy per Si atom -5577.930192 kJ/mol
# Density = 2.155185 g / cm^3
# Si number density = 21.601019 Si / 1000 Ang^3
#
#
#
# Elastic Constant Matrix: (Units=GPa)
#
#
# Indices 1 2 3 4 5 6 
#
# 1 57.3309 13.2659 25.7797 0.0000 13.1677 0.0000
# 2 13.2659 85.1090 27.3930 0.0000 4.1176 0.0000
# 3 25.7797 27.3930 82.1318 0.0000 1.9659 0.0000
# 4 0.0000 0.0000 0.0000 29.3258 0.0000 4.0715
# 5 13.1677 4.1176 1.9659 0.0000 25.7239 0.0000
# 6 0.0000 0.0000 0.0000 4.0715 0.0000 28.0468
#
#
#
# Elastic Compliance Matrix: (Units=1/GPa)
#
#
# Indices 1 2 3 4 5 6 
#
# 1 0.023263 -0.000917 -0.006727 0.000000 -0.011247 0.000000
# 2 -0.000917 0.013280 -0.004109 0.000000 -0.001342 0.000000
# 3 -0.006727 -0.004109 0.015588 0.000000 0.002910 0.000000
# 4 0.000000 0.000000 0.000000 0.034801 0.000000 -0.005052
# 5 -0.011247 -0.001342 0.002910 0.000000 0.044624 0.000000
# 6 0.000000 0.000000 0.000000 -0.005052 0.000000 0.036388
#
#
# Mechanical properties :
#
#
# Convention : Reuss Voigt Hill
#
# Bulk Modulus (GPa) = 34.93457 39.71654 37.32556
# Shear Modulus (GPa) = 24.87669 27.16151 26.01910
#
# Velocity S-wave (km/s) = 3.39727 3.54986 3.47440
# Velocity P-wave (km/s) = 5.62106 5.93534 5.78034
#
# Compressibility (1/GPa) = 0.02862494
#
# Stress axis : x y z
#
# Youngs Moduli (GPa) = 42.98720 75.30059 64.15238
#
# Poissons Ratio (x) = 0.06903 0.43154
# Poissons Ratio (y) = 0.03941 0.26362
# Poissons Ratio (z) = 0.28917 0.30944
#
# Static dielectric constant tensor:
#      x y z
#    x 1.838380 0.000000 0.054400 
#    y 0.000000 1.805790 0.000000 
#    z 0.054400 0.000000 1.861450 
# 
# From -- ./inp_files/93723.got.cif
#   From: 2010.05.17/outbox.cif.g08.bks.cpg/sg13_47_cif.got.tgz:93723.got - 2010.06.03 16:44:36.
