data_PCOD9237687
_publ_section_title
;
Structure prediction by ZEFSAII (Michael W. Deem and Ramdas Pophale) SiO2 
 PCOD9237687
Probable space group: P 2/C
;
_chemical_formula_sum "Si O2"
_cell_formula_units_Z 20
_cell_length_a 5.719082
_cell_length_b 11.320744
_cell_length_c 13.991790
_cell_angle_alpha 90.000000
_cell_angle_beta 74.413413
_cell_angle_gamma 90.000000
_cell_volume 872.574547
_symmetry_space_group_name_H-M "P 2/C"
_symmetry_group_IT_number 13
_symmetry_cell_setting 'monoclinic'
loop_
_space_group_symop_operation_xyz
x,y,z
-x,y,1/2-z
-x,-y,-z
x,-y,1/2+z
loop_
_atom_site_type_symbol
_atom_site_label
_atom_site_fract_x
_atom_site_fract_y
_atom_site_fract_z
Si Si1 0.135440 0.628235 0.034211
Si Si2 0.217795 0.246734 0.801865
Si Si3 0.892629 0.604938 0.866737
Si Si4 0.752495 0.023712 0.583689
Si Si5 0.519703 0.812081 0.949666
O O1 0.230197 0.516391 0.083093
O O2 0.873667 0.671223 0.100906
O O3 0.313209 0.736460 0.023239
O O4 0.103163 0.610892 0.924291
O O5 0.500000 0.273834 0.750000
O O6 0.208091 0.107485 0.829924
O O7 0.000000 0.269031 0.750000
O O8 0.720831 0.720015 0.890223
O O9 0.000000 0.591448 0.750000
O O10 0.615725 0.106344 0.523417
O O11 0.604888 0.901853 0.612204
O O12 0.000000 0.000000 0.500000
#
# Coordination Sequence:
#
# PCOD9237687 Si02
#       5
#     4   4   4   4   4
#     4  11  24  48  73 102 147 193 248 318 374 445
#     4  12  26  46  75 117 149 201 262 307 373 454
#     4  11  25  46  71 108 142 194 250 311 386 450
#     4  11  23  44  70 100 146 200 240 311 376 436
#     4  11  22  45  74  97 148 195 246 303 385 442
#
# _framework density 22.920676
#
# number of rings (size 3 to 8) (size 9 to 14) (size 15 to 20)
#    0.000    0.800    4.000    2.400    2.800    0.800 
#   14.400    0.000    0.000    0.000    0.000    0.000 
#    0.000    0.000    0.000    0.000    0.000    0.000 
#
# Total GULP energy -111741.300199 kJ/mol
# GULP energy per Si atom -5587.065010 kJ/mol
# Density = 2.286851 g / cm^3
# Si number density = 22.920676 Si / 1000 Ang^3
#
#
#
# Elastic Constant Matrix: (Units=GPa)
#
#
# Indices 1 2 3 4 5 6 
#
# 1 98.9503 45.7266 50.1502 0.0000 -5.9922 0.0000
# 2 45.7266 159.6145 35.8767 0.0000 -3.1797 0.0000
# 3 50.1502 35.8767 116.2330 0.0000 1.1559 0.0000
# 4 0.0000 0.0000 0.0000 31.8897 0.0000 1.4089
# 5 -5.9922 -3.1797 1.1559 0.0000 22.4246 0.0000
# 6 0.0000 0.0000 0.0000 1.4089 0.0000 -51.9189
#
#
#
# Elastic Compliance Matrix: (Units=1/GPa)
#
#
# Indices 1 2 3 4 5 6 
#
# 1 0.014355 -0.002835 -0.005356 0.000000 0.003710 0.000000
# 2 -0.002835 0.007317 -0.001039 0.000000 0.000334 0.000000
# 3 -0.005356 -0.001039 0.011256 0.000000 -0.002159 0.000000
# 4 0.000000 0.000000 0.000000 0.031321 0.000000 0.000850
# 5 0.003710 0.000334 -0.002159 0.000000 0.045744 0.000000
# 6 0.000000 0.000000 0.000000 0.000850 0.000000 -0.019238
#
#
# Mechanical properties :
#
#
# Convention : Reuss Voigt Hill
#
# Bulk Modulus (GPa) = 69.10687 70.92275 70.01481
# Shear Modulus (GPa) = 43.84534 16.68202 30.26368
#
# Velocity S-wave (km/s) = 4.37843 2.70073 3.63763
# Velocity P-wave (km/s) = 7.46839 6.38241 6.94665
#
# Compressibility (1/GPa) = 0.01447034
#
# Stress axis : x y z
#
# Youngs Moduli (GPa) = 69.66171 136.66161 88.83952
#
# Poissons Ratio (x) = 0.38741 0.47579
# Poissons Ratio (y) = 0.19748 0.09229
# Poissons Ratio (z) = 0.37308 0.14196
#
# Static dielectric constant tensor:
#      x y z
#    x 2.028000 0.000000 -0.000200 
#    y 0.000000 1.952550 0.000000 
#    z -0.000200 0.000000 1.942540 
# 
# From -- ./inp_files/43571.got.cif
#   From: 2010.05.17/outbox.cif.g08.bks.cpg/sg13_22_cif.got.tgz:43571.got - 2010.06.03 16:44:36.
