data_PCOD9237411
_publ_section_title
;
Structure prediction by ZEFSAII (Michael W. Deem and Ramdas Pophale) SiO2 
 PCOD9237411
Probable space group: P 2/C
;
_chemical_formula_sum "Si O2"
_cell_formula_units_Z 16
_cell_length_a 17.227706
_cell_length_b 7.983702
_cell_length_c 9.574947
_cell_angle_alpha 90.000000
_cell_angle_beta 147.897227
_cell_angle_gamma 90.000000
_cell_volume 699.877518
_symmetry_space_group_name_H-M "P 2/C"
_symmetry_group_IT_number 13
_symmetry_cell_setting 'monoclinic'
loop_
_space_group_symop_operation_xyz
x,y,z
-x,y,1/2-z
-x,-y,-z
x,-y,1/2+z
loop_
_atom_site_type_symbol
_atom_site_label
_atom_site_fract_x
_atom_site_fract_y
_atom_site_fract_z
Si Si1 0.883694 0.821641 0.245949
Si Si2 0.664478 0.355059 0.017333
Si Si3 0.796784 0.046699 0.331710
Si Si4 0.162586 0.534396 0.972127
O O1 0.862778 0.636508 0.156645
O O2 0.056101 0.860607 0.503634
O O3 0.808466 0.867239 0.277010
O O4 0.813740 0.944720 0.022921
O O5 0.500000 0.416982 0.750000
O O6 0.668057 0.168001 0.087215
O O7 0.754819 0.470849 0.263682
O O8 0.740212 0.354934 0.981755
O O9 0.000000 0.603797 0.750000
#
# Coordination Sequence:
#
# PCOD9237411 Si02
#       4
#     4   4   4   4
#     4   9  17  34  56  81 109 141 189 238 268 325
#     4  11  23  39  57  85 121 151 184 237 292 337
#     4   9  18  34  54  82 110 144 184 233 280 328
#     4  11  21  39  59  86 114 150 197 235 273 338
#
# _framework density 22.861145
#
# number of rings (size 3 to 8) (size 9 to 14) (size 15 to 20)
#    0.000    2.000    5.000    1.500    0.000    2.000 
#    4.500    6.250    0.000    0.000    0.000    0.000 
#    0.000    0.000    0.000    0.000    0.000    0.000 
#
# Total GULP energy -89443.404618 kJ/mol
# GULP energy per Si atom -5590.212789 kJ/mol
# Density = 2.280911 g / cm^3
# Si number density = 22.861145 Si / 1000 Ang^3
#
#
#
# Elastic Constant Matrix: (Units=GPa)
#
#
# Indices 1 2 3 4 5 6 
#
# 1 84.5560 3.4485 38.0868 0.0000 -2.5764 0.0000
# 2 3.4485 37.1246 4.0208 0.0000 -1.9063 0.0000
# 3 38.0868 4.0208 115.6777 0.0000 10.9745 0.0000
# 4 0.0000 0.0000 0.0000 9.9764 0.0000 -6.5087
# 5 -2.5764 -1.9063 10.9745 0.0000 26.0335 0.0000
# 6 0.0000 0.0000 0.0000 -6.5087 0.0000 29.9692
#
#
#
# Elastic Compliance Matrix: (Units=1/GPa)
#
#
# Indices 1 2 3 4 5 6 
#
# 1 0.014201 -0.000602 -0.004983 0.000000 0.003462 0.000000
# 2 -0.000602 0.027218 -0.000970 0.000000 0.002342 0.000000
# 3 -0.004983 -0.000970 0.010805 0.000000 -0.005119 0.000000
# 4 0.000000 0.000000 0.000000 0.116784 0.000000 0.025363
# 5 0.003462 0.002342 -0.005119 0.000000 0.041084 0.000000
# 6 0.000000 0.000000 0.000000 0.025363 0.000000 0.038876
#
#
# Mechanical properties :
#
#
# Convention : Reuss Voigt Hill
#
# Bulk Modulus (GPa) = 25.56675 36.49672 31.03173
# Shear Modulus (GPa) = 18.17416 25.98263 22.07840
#
# Velocity S-wave (km/s) = 2.82260 3.37492 3.11104
# Velocity P-wave (km/s) = 4.67231 5.58444 5.14862
#
# Compressibility (1/GPa) = 0.03911331
#
# Stress axis : x y z
#
# Youngs Moduli (GPa) = 70.41701 36.74101 92.55148
#
# Poissons Ratio (x) = 0.02211 0.46121
# Poissons Ratio (y) = 0.04237 0.08979
# Poissons Ratio (z) = 0.35090 0.03565
#
# Static dielectric constant tensor:
#      x y z
#    x 1.851950 0.000000 -0.020780 
#    y 0.000000 1.920040 0.000000 
#    z -0.020780 0.000000 1.839800 
# 
# From -- ./inp_files/11566.got.cif
#   From: 2010.05.17/outbox.cif.g08.bks.cpg/sg13_6_cif.got.tgz:11566.got - 2010.06.03 16:44:36.
