data_PCOD9237206
_publ_section_title
;
Structure prediction by ZEFSAII (Michael W. Deem and Ramdas Pophale) SiO2 
 PCOD9237206
Probable space group: P 2/C
;
_chemical_formula_sum "Si O2"
_cell_formula_units_Z 20
_cell_length_a 13.581338
_cell_length_b 4.802075
_cell_length_c 19.670773
_cell_angle_alpha 90.000000
_cell_angle_beta 146.076532
_cell_angle_gamma 90.000000
_cell_volume 715.967480
_symmetry_space_group_name_H-M "P 2/C"
_symmetry_group_IT_number 13
_symmetry_cell_setting 'monoclinic'
loop_
_space_group_symop_operation_xyz
x,y,z
-x,y,1/2-z
-x,-y,-z
x,-y,1/2+z
loop_
_atom_site_type_symbol
_atom_site_label
_atom_site_fract_x
_atom_site_fract_y
_atom_site_fract_z
Si Si1 0.402863 0.340111 0.295296
Si Si2 0.944301 0.008588 0.603934
Si Si3 0.222753 0.497665 0.058617
Si Si4 0.177687 0.259879 0.334691
Si Si5 0.475806 0.199590 0.920566
O O1 0.257859 0.381593 0.153830
O O2 0.586358 0.461511 0.368378
O O3 0.347388 0.552708 0.323856
O O4 0.452274 0.028829 0.346869
O O5 0.922348 0.309496 0.561636
O O6 0.837571 0.974976 0.613625
O O7 0.134556 0.899627 0.739581
O O8 0.849631 0.806427 0.495240
O O9 0.000000 0.432577 0.250000
O O10 0.353721 0.394669 0.462262
O O11 0.500000 0.000000 0.000000
#
# Coordination Sequence:
#
# PCOD9237206 Si02
#       5
#     4   4   4   4   4
#     4  11  21  35  55  82 111 146 179 221 279 314
#     4   9  19  31  55  84 106 137 173 235 268 304
#     4  11  18  34  58  83 111 134 185 235 263 317
#     4   8  18  35  55  81 109 139 185 222 263 318
#     4  12  23  38  55  81 116 144 179 220 272 330
#
# _framework density 27.934231
#
# number of rings (size 3 to 8) (size 9 to 14) (size 15 to 20)
#    1.200    0.400    4.000    1.800    0.000    8.000 
#    0.000    0.000    0.000    7.200    0.000    0.000 
#    0.000    0.000    0.000    0.000    0.000    0.000 
#
# Total GULP energy -111510.394244 kJ/mol
# GULP energy per Si atom -5575.519712 kJ/mol
# Density = 2.787065 g / cm^3
# Si number density = 27.934231 Si / 1000 Ang^3
#
#
#
# Elastic Constant Matrix: (Units=GPa)
#
#
# Indices 1 2 3 4 5 6 
#
# 1 35.5530 4.2800 29.2374 0.0000 5.8608 0.0000
# 2 4.2800 132.7916 30.6885 0.0000 -10.3636 0.0000
# 3 29.2374 30.6885 216.5345 0.0000 -31.8584 0.0000
# 4 0.0000 0.0000 0.0000 49.1701 0.0000 1.1776
# 5 5.8608 -10.3636 -31.8584 0.0000 48.3126 0.0000
# 6 0.0000 0.0000 0.0000 1.1776 0.0000 24.4285
#
#
#
# Elastic Compliance Matrix: (Units=1/GPa)
#
#
# Indices 1 2 3 4 5 6 
#
# 1 0.034223 -0.000402 -0.005745 0.000000 -0.008026 0.000000
# 2 -0.000402 0.007838 -0.000888 0.000000 0.001144 0.000000
# 3 -0.005745 -0.000888 0.006195 0.000000 0.004592 0.000000
# 4 0.000000 0.000000 0.000000 0.020361 0.000000 -0.000982
# 5 -0.008026 0.001144 0.004592 0.000000 0.024946 0.000000
# 6 0.000000 0.000000 0.000000 -0.000982 0.000000 0.040983
#
#
# Mechanical properties :
#
#
# Convention : Reuss Voigt Hill
#
# Bulk Modulus (GPa) = 29.25123 57.03232 43.14178
# Shear Modulus (GPa) = 31.24782 45.76046 38.50414
#
# Velocity S-wave (km/s) = 3.34821 4.05180 3.71669
# Velocity P-wave (km/s) = 5.04396 6.50772 5.82202
#
# Compressibility (1/GPa) = 0.03418660
#
# Stress axis : x y z
#
# Youngs Moduli (GPa) = 29.22028 127.58139 161.41142
#
# Poissons Ratio (x) = 0.05126 0.92728
# Poissons Ratio (y) = 0.01174 0.14337
# Poissons Ratio (z) = 0.16787 0.11332
#
# Static dielectric constant tensor:
#      x y z
#    x 2.944090 0.000000 0.089600 
#    y 0.000000 2.066000 0.000000 
#    z 0.089600 0.000000 2.102110 
# 
# From -- ./inp_files/80522.got.cif
#   From: 2010.05.17/outbox.cif.g08.bks.cpg/sg13_41_cif.got.tgz:80522.got - 2010.06.03 16:44:36.
