data_PCOD9237041
_publ_section_title
;
Structure prediction by ZEFSAII (Michael W. Deem and Ramdas Pophale) SiO2 
 PCOD9237041
Probable space group: P 2/C
;
_chemical_formula_sum "Si O2"
_cell_formula_units_Z 22
_cell_length_a 13.633887
_cell_length_b 6.032454
_cell_length_c 24.259411
_cell_angle_alpha 90.000000
_cell_angle_beta 153.769515
_cell_angle_gamma 90.000000
_cell_volume 881.860139
_symmetry_space_group_name_H-M "P 2/C"
_symmetry_group_IT_number 13
_symmetry_cell_setting 'monoclinic'
loop_
_space_group_symop_operation_xyz
x,y,z
-x,y,1/2-z
-x,-y,-z
x,-y,1/2+z
loop_
_atom_site_type_symbol
_atom_site_label
_atom_site_fract_x
_atom_site_fract_y
_atom_site_fract_z
Si Si1 0.000000 0.509401 0.750000
Si Si2 0.650905 0.830237 0.544092
Si Si3 0.427692 0.423352 0.597846
Si Si4 0.220042 0.901029 0.169426
Si Si5 0.847775 0.206894 0.571686
Si Si6 0.030076 0.300139 0.471742
O O1 0.945412 0.364942 0.668863
O O2 0.794215 0.674081 0.655140
O O3 0.802748 0.978773 0.580632
O O4 0.500000 0.000000 0.500000
O O5 0.521724 0.672555 0.437006
O O6 0.590349 0.274795 0.717478
O O7 0.384008 0.686271 0.567084
O O8 0.180099 0.368655 0.496203
O O9 0.179307 0.862934 0.084183
O O10 0.016453 0.830394 0.106779
O O11 0.193888 0.170880 0.158647
O O12 0.000000 0.500000 0.500000
#
# Coordination Sequence:
#
# PCOD9237041 Si02
#       6
#     2   4   4   4   4   4
#     4  10  26  42  68  98 144 186 238 296 360 418
#     4  11  26  43  67 101 143 185 245 291 355 429
#     4  11  25  43  70 107 138 190 243 286 374 430
#     4  11  25  43  75  99 147 185 233 304 365 429
#     4  11  24  45  69 104 143 183 244 297 359 439
#     4  11  23  48  69 107 142 183 240 299 359 440
#
# _framework density 24.947265999999999
#
# number of rings (size 3 to 8) (size 9 to 14) (size 15 to 20)
#    0.000    1.091    3.636    1.091    7.636    2.909 
#    0.000    1.818    0.000    0.000    0.000    0.000 
#    0.000    0.000    0.000    0.000    0.000    0.000 
#
# Total GULP energy -122752.799552 kJ/mol
# GULP energy per Si atom -5579.672707 kJ/mol
# Density = 2.489048 g / cm^3
# Si number density = 24.947266 Si / 1000 Ang^3
#
#
#
# Elastic Constant Matrix: (Units=GPa)
#
#
# Indices 1 2 3 4 5 6 
#
# 1 114.2965 24.8177 9.5560 0.0000 2.6585 0.0000
# 2 24.8177 112.7270 39.4520 0.0000 3.4847 0.0000
# 3 9.5560 39.4520 106.0753 0.0000 -21.9256 0.0000
# 4 0.0000 0.0000 0.0000 36.2684 0.0000 -4.2033
# 5 2.6585 3.4847 -21.9256 0.0000 22.7774 0.0000
# 6 0.0000 0.0000 0.0000 -4.2033 0.0000 55.7051
#
#
#
# Elastic Compliance Matrix: (Units=1/GPa)
#
#
# Indices 1 2 3 4 5 6 
#
# 1 0.009211 -0.001861 -0.000376 0.000000 -0.001152 0.000000
# 2 -0.001861 0.011410 -0.005483 0.000000 -0.006806 0.000000
# 3 -0.000376 -0.005483 0.014585 0.000000 0.014922 0.000000
# 4 0.000000 0.000000 0.000000 0.027815 0.000000 0.002099
# 5 -0.001152 -0.006806 0.014922 0.000000 0.059443 0.000000
# 6 0.000000 0.000000 0.000000 0.002099 0.000000 0.018110
#
#
# Mechanical properties :
#
#
# Convention : Reuss Voigt Hill
#
# Bulk Modulus (GPa) = 50.58950 53.41667 52.00309
# Shear Modulus (GPa) = 30.74982 40.23506 35.49244
#
# Velocity S-wave (km/s) = 3.51464 4.02033 3.77596
# Velocity P-wave (km/s) = 6.06571 6.55813 6.31672
#
# Compressibility (1/GPa) = 0.01976695
#
# Stress axis : x y z
#
# Youngs Moduli (GPa) = 108.56054 87.64303 68.56502
#
# Poissons Ratio (x) = 0.16308 0.02578
# Poissons Ratio (y) = 0.20201 0.37593
# Poissons Ratio (z) = 0.04081 0.48053
#
# Static dielectric constant tensor:
#      x y z
#    x 1.913240 0.000000 0.027210 
#    y 0.000000 2.166330 0.000000 
#    z 0.027210 0.000000 2.058290 
# 
# From -- ./inp_files/92679.got.cif
#   From: 2010.05.17/outbox.cif.g08.bks.cpg/sg13_47_cif.got.tgz:92679.got - 2010.06.03 16:44:36.
