data_PCOD9237049
_publ_section_title
;
Structure prediction by ZEFSAII (Michael W. Deem and Ramdas Pophale) SiO2 
 PCOD9237049
Probable space group: P 2/C
;
_chemical_formula_sum "Si O2"
_cell_formula_units_Z 22
_cell_length_a 6.077909
_cell_length_b 11.196412
_cell_length_c 13.938884
_cell_angle_alpha 90.000000
_cell_angle_beta 75.669874
_cell_angle_gamma 90.000000
_cell_volume 919.038333
_symmetry_space_group_name_H-M "P 2/C"
_symmetry_group_IT_number 13
_symmetry_cell_setting 'monoclinic'
loop_
_space_group_symop_operation_xyz
x,y,z
-x,y,1/2-z
-x,-y,-z
x,-y,1/2+z
loop_
_atom_site_type_symbol
_atom_site_label
_atom_site_fract_x
_atom_site_fract_y
_atom_site_fract_z
Si Si1 0.749489 0.710267 0.492209
Si Si2 0.861895 0.828738 0.174995
Si Si3 0.197696 0.505678 0.646221
Si Si4 0.982879 0.764546 0.862717
Si Si5 0.367132 0.111859 0.976680
Si Si6 0.500000 0.378164 0.750000
O O1 0.800678 0.577774 0.447891
O O2 0.522976 0.770264 0.474179
O O3 0.948119 0.783569 0.418355
O O4 0.790877 0.730925 0.600909
O O5 0.697516 0.907266 0.127325
O O6 0.711799 0.712888 0.219257
O O7 0.000000 0.878347 0.250000
O O8 0.164075 0.642027 0.621088
O O9 0.432265 0.466502 0.671429
O O10 0.000000 0.486135 0.750000
O O11 0.000000 0.796878 0.750000
O O12 0.851074 0.866727 0.933783
O O13 0.500000 0.000000 0.000000
#
# Coordination Sequence:
#
# PCOD9237049 Si02
#       6
#     4   4   4   4   4   2
#     4  11  21  42  67  96 138 172 232 279 342 408
#     4  11  20  39  67 103 136 169 226 289 340 399
#     4  11  21  38  67 105 142 175 218 281 348 418
#     4  10  26  44  65  98 142 183 225 277 350 415
#     4  11  26  47  70  97 134 184 242 282 336 405
#     4  12  18  36  68 104 142 174 220 274 344 410
#
# _framework density 23.938065000000002
#
# number of rings (size 3 to 8) (size 9 to 14) (size 15 to 20)
#    0.000    1.091    5.455    0.545    0.000    7.273 
#    0.000   10.000    0.000    0.000    0.000    0.000 
#    0.000    0.000    0.000    0.000    0.000    0.000 
#
# Total GULP energy -122920.825213 kJ/mol
# GULP energy per Si atom -5587.310237 kJ/mol
# Density = 2.388358 g / cm^3
# Si number density = 23.938065 Si / 1000 Ang^3
#
#
#
# Elastic Constant Matrix: (Units=GPa)
#
#
# Indices 1 2 3 4 5 6 
#
# 1 91.0746 19.6545 48.1106 0.0000 36.3116 0.0000
# 2 19.6545 65.5595 26.2810 0.0000 15.7520 0.0000
# 3 48.1106 26.2810 120.9533 0.0000 42.6809 0.0000
# 4 0.0000 0.0000 0.0000 22.8122 0.0000 6.5646
# 5 36.3116 15.7520 42.6809 0.0000 57.9701 0.0000
# 6 0.0000 0.0000 0.0000 6.5646 0.0000 13.8142
#
#
#
# Elastic Compliance Matrix: (Units=1/GPa)
#
#
# Indices 1 2 3 4 5 6 
#
# 1 0.015986 -0.001706 -0.003537 0.000000 -0.006946 0.000000
# 2 -0.001706 0.017168 -0.002408 0.000000 -0.001823 0.000000
# 3 -0.003537 -0.002408 0.012409 0.000000 -0.006266 0.000000
# 4 0.000000 0.000000 0.000000 0.050780 0.000000 -0.024131
# 5 -0.006946 -0.001823 -0.006266 0.000000 0.026710 0.000000
# 6 0.000000 0.000000 0.000000 -0.024131 0.000000 0.083857
#
#
# Mechanical properties :
#
#
# Convention : Reuss Voigt Hill
#
# Bulk Modulus (GPa) = 33.04621 51.74217 42.39419
# Shear Modulus (GPa) = 21.52393 31.15539 26.33966
#
# Velocity S-wave (km/s) = 3.00184 3.61154 3.32071
# Velocity P-wave (km/s) = 5.08425 6.24924 5.69660
#
# Compressibility (1/GPa) = 0.03026066
#
# Stress axis : x y z
#
# Youngs Moduli (GPa) = 62.55556 58.24688 80.58640
#
# Poissons Ratio (x) = 0.09936 0.28503
# Poissons Ratio (y) = 0.10671 0.19409
# Poissons Ratio (z) = 0.22126 0.14029
#
# Static dielectric constant tensor:
#      x y z
#    x 2.014740 0.000000 0.015390 
#    y 0.000000 1.911160 0.000000 
#    z 0.015390 0.000000 1.956130 
# 
# From -- ./inp_files/43638.got.cif
#   From: 2010.05.17/outbox.cif.g08.bks.cpg/sg13_22_cif.got.tgz:43638.got - 2010.06.03 16:44:36.
