data_PCOD9237064
_publ_section_title
;
Structure prediction by ZEFSAII (Michael W. Deem and Ramdas Pophale) SiO2 
 PCOD9237064
Probable space group: P 2/C
;
_chemical_formula_sum "Si O2"
_cell_formula_units_Z 18
_cell_length_a 5.196273
_cell_length_b 11.771196
_cell_length_c 13.633487
_cell_angle_alpha 90.000000
_cell_angle_beta 81.105588
_cell_angle_gamma 90.000000
_cell_volume 823.882793
_symmetry_space_group_name_H-M "P 2/C"
_symmetry_group_IT_number 13
_symmetry_cell_setting 'monoclinic'
loop_
_space_group_symop_operation_xyz
x,y,z
-x,y,1/2-z
-x,-y,-z
x,-y,1/2+z
loop_
_atom_site_type_symbol
_atom_site_label
_atom_site_fract_x
_atom_site_fract_y
_atom_site_fract_z
Si Si1 0.500000 0.674638 0.250000
Si Si2 0.268011 0.430401 0.964807
Si Si3 0.190994 0.884033 0.310869
Si Si4 0.912608 0.813270 0.969450
Si Si5 0.539758 0.896442 0.639413
O O1 0.621069 0.602968 0.151909
O O2 0.280425 0.772267 0.244299
O O3 0.500000 0.500000 0.000000
O O4 0.206158 0.312602 0.023049
O O5 0.000000 0.500000 0.000000
O O6 0.061966 0.842621 0.417887
O O7 0.000000 0.950872 0.250000
O O8 0.400991 0.970609 0.344415
O O9 0.700955 0.883794 0.919822
O O10 0.199376 0.835987 0.913141
O O11 0.500000 0.846005 0.750000
#
# Coordination Sequence:
#
# PCOD9237064 Si02
#       5
#     2   4   4   4   4
#     4  10  26  44  78 100 140 186 242 298 358 428
#     4  11  26  50  73 104 136 185 246 304 357 415
#     4  11  24  41  74 104 142 185 240 286 350 435
#     4  11  26  44  71 100 146 181 239 294 358 414
#     4  12  24  44  65 106 146 191 224 283 355 435
#
# _framework density 21.847767000000001
#
# number of rings (size 3 to 8) (size 9 to 14) (size 15 to 20)
#    0.000    0.889    1.111    4.667   12.444    0.000 
#   12.000    0.000    0.000    0.000    0.000    0.000 
#    0.000    0.000    0.000    0.000    0.000    0.000 
#
# Total GULP energy -100316.964831 kJ/mol
# GULP energy per Si atom -5573.164713 kJ/mol
# Density = 2.179804 g / cm^3
# Si number density = 21.847767 Si / 1000 Ang^3
#
#
#
# Elastic Constant Matrix: (Units=GPa)
#
#
# Indices 1 2 3 4 5 6 
#
# 1 146.8323 29.9629 82.1216 0.0000 -9.1641 0.0000
# 2 29.9629 105.2360 64.1897 0.0000 -10.9624 0.0000
# 3 82.1216 64.1897 121.6712 0.0000 -11.2168 0.0000
# 4 0.0000 0.0000 0.0000 35.0943 0.0000 10.1420
# 5 -9.1641 -10.9624 -11.2168 0.0000 53.4306 0.0000
# 6 0.0000 0.0000 0.0000 10.1420 0.0000 -5.1161
#
#
#
# Elastic Compliance Matrix: (Units=1/GPa)
#
#
# Indices 1 2 3 4 5 6 
#
# 1 0.011264 0.002148 -0.008685 0.000000 0.000549 0.000000
# 2 0.002148 0.014517 -0.008973 0.000000 0.001463 0.000000
# 3 -0.008685 -0.008973 0.018873 0.000000 0.000631 0.000000
# 4 0.000000 0.000000 0.000000 0.018116 0.000000 0.035913
# 5 0.000549 0.001463 0.000631 0.000000 0.019243 0.000000
# 6 0.000000 0.000000 0.000000 0.035913 0.000000 -0.124269
#
#
# Mechanical properties :
#
#
# Convention : Reuss Voigt Hill
#
# Bulk Modulus (GPa) = 73.35410 80.69865 77.02637
# Shear Modulus (GPa) = -747.25056 29.84609 -358.70224
#
# Velocity S-wave (km/s) = -18.51401 3.70008 -12.82728
# Velocity P-wave (km/s) = 20.57612 7.43445 13.56661
#
# Compressibility (1/GPa) = 0.01363250
#
# Stress axis : x y z
#
# Youngs Moduli (GPa) = 88.77927 68.88656 52.98619
#
# Poissons Ratio (x) = -0.14794 0.46018
# Poissons Ratio (y) = -0.19066 0.47545
# Poissons Ratio (z) = 0.77104 0.61813
#
# Static dielectric constant tensor:
#      x y z
#    x 1.995320 0.000000 -0.113990 
#    y 0.000000 1.813270 0.000000 
#    z -0.113990 0.000000 1.863140 
# 
# From -- ./inp_files/25700.got.cif
#   From: 2010.05.17/outbox.cif.g08.bks.cpg/sg13_13_cif.got.tgz:25700.got - 2010.06.03 16:44:36.
