data_PCOD9237076
_publ_section_title
;
Structure prediction by ZEFSAII (Michael W. Deem and Ramdas Pophale) SiO2 
 PCOD9237076
Probable space group: P 2/C
;
_chemical_formula_sum "Si O2"
_cell_formula_units_Z 20
_cell_length_a 7.475962
_cell_length_b 5.122756
_cell_length_c 21.161236
_cell_angle_alpha 90.000000
_cell_angle_beta 103.593838
_cell_angle_gamma 90.000000
_cell_volume 787.720092
_symmetry_space_group_name_H-M "P 2/C"
_symmetry_group_IT_number 13
_symmetry_cell_setting 'monoclinic'
loop_
_space_group_symop_operation_xyz
x,y,z
-x,y,1/2-z
-x,-y,-z
x,-y,1/2+z
loop_
_atom_site_type_symbol
_atom_site_label
_atom_site_fract_x
_atom_site_fract_y
_atom_site_fract_z
Si Si1 0.849579 0.862085 0.337495
Si Si2 0.131842 0.931415 0.952980
Si Si3 0.722549 0.640392 0.757206
Si Si4 0.298843 0.545478 0.886846
Si Si5 0.446102 0.953721 0.075876
O O1 0.812184 0.572375 0.310762
O O2 0.701142 0.917123 0.380022
O O3 0.802875 0.074702 0.279712
O O4 0.048433 0.916525 0.385563
O O5 0.153225 0.634780 0.928673
O O6 0.325388 0.985806 0.002809
O O7 0.000000 0.000000 0.000000
O O8 0.500000 0.640162 0.750000
O O9 0.769838 0.545114 0.690596
O O10 0.424513 0.299430 0.912149
O O11 0.437239 0.792749 0.898153
#
# Coordination Sequence:
#
# PCOD9237076 Si02
#       5
#     4   4   4   4   4
#     4  11  23  43  68 102 137 184 224 302 360 422
#     4  10  26  46  68 101 145 185 235 290 360 417
#     4  12  22  41  72 100 138 177 243 290 358 430
#     4  12  24  42  71 102 134 186 237 292 350 425
#     4  11  22  43  71 100 136 180 239 289 348 428
#
# _framework density 25.389728999999999
#
# number of rings (size 3 to 8) (size 9 to 14) (size 15 to 20)
#    0.000    0.800    4.000    3.000    0.000    4.000 
#    0.000   11.000    0.000    0.000    0.000    0.000 
#    0.000    0.000    0.000    0.000    0.000    0.000 
#
# Total GULP energy -112071.956438 kJ/mol
# GULP energy per Si atom -5603.597822 kJ/mol
# Density = 2.533194 g / cm^3
# Si number density = 25.389729 Si / 1000 Ang^3
#
#
#
# Elastic Constant Matrix: (Units=GPa)
#
#
# Indices 1 2 3 4 5 6 
#
# 1 139.8544 35.4899 37.7152 0.0000 16.0841 0.0000
# 2 35.4899 123.2004 6.7406 0.0000 14.1744 0.0000
# 3 37.7152 6.7406 119.0784 0.0000 4.3369 0.0000
# 4 0.0000 0.0000 0.0000 33.5415 0.0000 -27.0257
# 5 16.0841 14.1744 4.3369 0.0000 52.5290 0.0000
# 6 0.0000 0.0000 0.0000 -27.0257 0.0000 -33.4281
#
#
#
# Elastic Compliance Matrix: (Units=1/GPa)
#
#
# Indices 1 2 3 4 5 6 
#
# 1 0.008584 -0.002122 -0.002531 0.000000 -0.001847 0.000000
# 2 -0.002122 0.008920 0.000232 0.000000 -0.001776 0.000000
# 3 -0.002531 0.000232 0.009188 0.000000 -0.000046 0.000000
# 4 0.000000 0.000000 0.000000 0.018053 0.000000 -0.014596
# 5 -0.001847 -0.001776 -0.000046 0.000000 0.020086 0.000000
# 6 0.000000 0.000000 0.000000 -0.014596 0.000000 -0.018115
#
#
# Mechanical properties :
#
#
# Convention : Reuss Voigt Hill
#
# Bulk Modulus (GPa) = 56.02528 60.22495 58.12512
# Shear Modulus (GPa) = 81.28994 30.67433 55.98214
#
# Velocity S-wave (km/s) = 5.66448 3.47960 4.70074
# Velocity P-wave (km/s) = 8.05580 6.31785 7.23917
#
# Compressibility (1/GPa) = 0.01784908
#
# Stress axis : x y z
#
# Youngs Moduli (GPa) = 116.49947 112.11081 108.83616
#
# Poissons Ratio (x) = 0.23787 0.27550
# Poissons Ratio (y) = 0.24718 -0.02523
# Poissons Ratio (z) = 0.29490 -0.02599
#
# Static dielectric constant tensor:
#      x y z
#    x 2.138530 0.000000 -0.084880 
#    y 0.000000 1.940810 0.000000 
#    z -0.084880 0.000000 2.002100 
# 
# From -- ./inp_files/84176.got.cif
#   From: 2010.05.17/outbox.cif.g08.bks.cpg/sg13_43_cif.got.tgz:84176.got - 2010.06.03 16:44:36.
