data_PCOD9237959
_publ_section_title
;
Structure prediction by ZEFSAII (Michael W. Deem and Ramdas Pophale) SiO2 
 PCOD9237959
Probable space group: P 2/C
;
_chemical_formula_sum "Si O2"
_cell_formula_units_Z 26
_cell_length_a 15.917676
_cell_length_b 9.952477
_cell_length_c 20.774334
_cell_angle_alpha 90.000000
_cell_angle_beta 157.792378
_cell_angle_gamma 90.000000
_cell_volume 1243.908207
_symmetry_space_group_name_H-M "P 2/C"
_symmetry_group_IT_number 13
_symmetry_cell_setting 'monoclinic'
loop_
_space_group_symop_operation_xyz
x,y,z
-x,y,1/2-z
-x,-y,-z
x,-y,1/2+z
loop_
_atom_site_type_symbol
_atom_site_label
_atom_site_fract_x
_atom_site_fract_y
_atom_site_fract_z
Si Si1 0.897362 0.643641 0.406744
Si Si2 0.000000 0.039224 0.750000
Si Si3 0.125282 0.743483 0.437325
Si Si4 0.695273 0.901752 0.618486
Si Si5 0.500000 0.914804 0.750000
Si Si6 0.441989 0.388539 0.511242
Si Si7 0.916843 0.090562 0.000179
Si Si8 0.000000 0.514262 0.250000
O O1 0.646898 0.618948 0.205312
O O2 0.890760 0.756824 0.457215
O O3 0.000000 0.500000 0.500000
O O4 0.035534 0.709256 0.444799
O O5 0.993234 0.140168 0.805750
O O6 0.209622 0.943848 0.884473
O O7 0.370678 0.809307 0.612021
O O8 0.088945 0.610613 0.369877
O O9 0.590449 0.755197 0.543785
O O10 0.900891 0.906721 0.813920
O O11 0.500000 0.000000 0.500000
O O12 0.307611 0.013832 0.638306
O O13 0.500000 0.500000 0.500000
O O14 0.207624 0.426992 0.375682
O O15 0.000000 0.000000 0.000000
#
# Coordination Sequence:
#
# PCOD9237959 Si02
#       8
#     4   2   4   4   2   4   4   2
#     4  12  27  51  73 107 151 195 245 306 379 440
#     4  11  23  46  72 104 144 180 248 302 354 430
#     4  11  25  46  73 108 141 195 238 303 370 435
#     4  12  27  44  76 106 144 191 246 300 362 433
#     4  12  26  44  74 108 154 184 244 296 378 430
#     4  12  26  47  74 105 147 196 247 304 364 440
#     4  12  26  46  72 108 148 190 243 299 369 437
#     4  11  27  46  74 104 150 186 256 294 368 440
#
# _framework density 20.901865000000001
#
# number of rings (size 3 to 8) (size 9 to 14) (size 15 to 20)
#    0.000    0.308    4.615    3.231    8.615    1.231 
#    0.000    0.000    0.000    0.000    0.000    0.000 
#    0.000    0.000    0.000    0.000    0.000    0.000 
#
# Total GULP energy -145316.089888 kJ/mol
# GULP energy per Si atom -5589.080380 kJ/mol
# Density = 2.085429 g / cm^3
# Si number density = 20.901865 Si / 1000 Ang^3
#
#
#
# Elastic Constant Matrix: (Units=GPa)
#
#
# Indices 1 2 3 4 5 6 
#
# 1 88.3302 56.2779 56.0760 0.0000 14.8808 0.0000
# 2 56.2779 185.8426 86.0979 0.0000 3.9675 0.0000
# 3 56.0760 86.0979 170.2679 0.0000 13.6075 0.0000
# 4 0.0000 0.0000 0.0000 49.8590 0.0000 0.8400
# 5 14.8808 3.9675 13.6075 0.0000 36.6671 0.0000
# 6 0.0000 0.0000 0.0000 0.8400 0.0000 39.1798
#
#
#
# Elastic Compliance Matrix: (Units=1/GPa)
#
#
# Indices 1 2 3 4 5 6 
#
# 1 0.016395 -0.003321 -0.003316 0.000000 -0.005064 0.000000
# 2 -0.003321 0.007711 -0.002934 0.000000 0.001602 0.000000
# 3 -0.003316 -0.002934 0.008570 0.000000 -0.001517 0.000000
# 4 0.000000 0.000000 0.000000 0.020064 0.000000 -0.000430
# 5 -0.005064 0.001602 -0.001517 0.000000 0.029717 0.000000
# 6 0.000000 0.000000 0.000000 -0.000430 0.000000 0.025533
#
#
# Mechanical properties :
#
#
# Convention : Reuss Voigt Hill
#
# Bulk Modulus (GPa) = 73.87712 93.48270 83.67991
# Shear Modulus (GPa) = 37.98183 41.54043 39.76113
#
# Velocity S-wave (km/s) = 4.26743 4.46287 4.36624
# Velocity P-wave (km/s) = 7.72676 8.44854 8.09570
#
# Compressibility (1/GPa) = 0.01353599
#
# Stress axis : x y z
#
# Youngs Moduli (GPa) = 60.99481 129.67759 116.68796
#
# Poissons Ratio (x) = 0.43060 0.38690
# Poissons Ratio (y) = 0.20254 0.34234
# Poissons Ratio (z) = 0.20224 0.38045
#
# Static dielectric constant tensor:
#      x y z
#    x 1.772960 0.000000 -0.049930 
#    y 0.000000 1.726440 0.000000 
#    z -0.049930 0.000000 1.754860 
# 
# From -- ./inp_files/88085.got.cif
#   From: 2010.05.17/outbox.cif.g08.bks.cpg/sg13_45_cif.got.tgz:88085.got - 2010.06.03 16:44:36.
