data_PCOD9237639
_publ_section_title
;
Structure prediction by ZEFSAII (Michael W. Deem and Ramdas Pophale) SiO2 
 PCOD9237639
Probable space group: P 2/C
;
_chemical_formula_sum "Si O2"
_cell_formula_units_Z 24
_cell_length_a 14.541691
_cell_length_b 9.108013
_cell_length_c 13.097735
_cell_angle_alpha 90.000000
_cell_angle_beta 142.233487
_cell_angle_gamma 90.000000
_cell_volume 1062.433957
_symmetry_space_group_name_H-M "P 2/C"
_symmetry_group_IT_number 13
_symmetry_cell_setting 'monoclinic'
loop_
_space_group_symop_operation_xyz
x,y,z
-x,y,1/2-z
-x,-y,-z
x,-y,1/2+z
loop_
_atom_site_type_symbol
_atom_site_label
_atom_site_fract_x
_atom_site_fract_y
_atom_site_fract_z
Si Si1 0.693747 0.652905 0.028133
Si Si2 0.110703 0.569884 0.679737
Si Si3 0.351602 0.426735 0.230708
Si Si4 0.115466 0.862949 0.776643
Si Si5 0.668781 0.933019 0.152319
Si Si6 0.331350 0.757477 0.142110
O O1 0.828627 0.549370 0.185820
O O2 0.684921 0.801027 0.084851
O O3 0.696376 0.671818 0.908295
O O4 0.530378 0.577880 0.902366
O O5 0.261299 0.617105 0.751224
O O6 0.039905 0.717277 0.663154
O O7 0.000000 0.500000 0.500000
O O8 0.308060 0.592499 0.162261
O O9 0.000000 0.946594 0.750000
O O10 0.201431 0.954841 0.767137
O O11 0.236844 0.798142 0.960747
O O12 0.693547 0.867631 0.286192
O O13 0.500000 0.000000 0.000000
O O14 0.500000 0.766699 0.250000
#
# Coordination Sequence:
#
# PCOD9237639 Si02
#       6
#     4   4   4   4   4   4
#     4  11  24  42  73 105 135 182 242 299 355 422
#     4  12  25  44  73 103 138 188 243 295 359 435
#     4  11  22  42  74 106 139 178 245 310 352 415
#     4  12  28  49  71 104 149 195 240 299 379 439
#     4  12  27  46  73 109 146 193 243 300 364 444
#     4  12  22  44  75 103 145 192 239 305 367 426
#
# _framework density 22.589638999999998
#
# number of rings (size 3 to 8) (size 9 to 14) (size 15 to 20)
#    0.000    0.333    6.667    2.500    0.000    4.667 
#    3.000    0.000    0.000    0.000    0.000    0.000 
#    0.000    0.000    0.000    0.000    0.000    0.000 
#
# Total GULP energy -134345.322502 kJ/mol
# GULP energy per Si atom -5597.721771 kJ/mol
# Density = 2.253822 g / cm^3
# Si number density = 22.589639 Si / 1000 Ang^3
#
#
#
# Elastic Constant Matrix: (Units=GPa)
#
#
# Indices 1 2 3 4 5 6 
#
# 1 93.0752 32.8009 -7.6445 0.0000 1.5845 0.0000
# 2 32.8009 93.2666 11.0724 0.0000 -16.7253 0.0000
# 3 -7.6445 11.0724 71.3296 0.0000 -14.3356 0.0000
# 4 0.0000 0.0000 0.0000 16.7164 0.0000 -5.8283
# 5 1.5845 -16.7253 -14.3356 0.0000 35.4726 0.0000
# 6 0.0000 0.0000 0.0000 -5.8283 0.0000 38.6158
#
#
#
# Elastic Compliance Matrix: (Units=1/GPa)
#
#
# Indices 1 2 3 4 5 6 
#
# 1 0.012712 -0.005080 0.001693 0.000000 -0.002279 0.000000
# 2 -0.005080 0.013782 -0.001450 0.000000 0.006139 0.000000
# 3 0.001693 -0.001450 0.015535 0.000000 0.005519 0.000000
# 4 0.000000 0.000000 0.000000 0.063144 0.000000 0.009530
# 5 -0.002279 0.006139 0.005519 0.000000 0.033418 0.000000
# 6 0.000000 0.000000 0.000000 0.009530 0.000000 0.027335
#
#
# Mechanical properties :
#
#
# Convention : Reuss Voigt Hill
#
# Bulk Modulus (GPa) = 30.90788 36.68099 33.79444
# Shear Modulus (GPa) = 26.82618 32.92381 29.87499
#
# Velocity S-wave (km/s) = 3.44981 3.82183 3.64058
# Velocity P-wave (km/s) = 5.43878 5.97900 5.71527
#
# Compressibility (1/GPa) = 0.03235420
#
# Stress axis : x y z
#
# Youngs Moduli (GPa) = 78.66415 72.55977 64.37025
#
# Poissons Ratio (x) = 0.36864 -0.10898
# Poissons Ratio (y) = 0.39965 0.09334
# Poissons Ratio (z) = -0.13318 0.10521
#
# Static dielectric constant tensor:
#      x y z
#    x 1.812620 0.000000 -0.000730 
#    y 0.000000 1.848940 0.000000 
#    z -0.000730 0.000000 1.806190 
# 
# From -- ./inp_files/53217.got.cif
#   From: 2010.05.17/outbox.cif.g08.bks.cpg/sg13_27_cif.got.tgz:53217.got - 2010.06.03 16:44:36.
