data_PCOD9237286
_publ_section_title
;
Structure prediction by ZEFSAII (Michael W. Deem and Ramdas Pophale) SiO2 
 PCOD9237286
Probable space group: P 2/C
;
_chemical_formula_sum "Si O2"
_cell_formula_units_Z 32
_cell_length_a 13.578862
_cell_length_b 8.067637
_cell_length_c 14.890770
_cell_angle_alpha 90.000000
_cell_angle_beta 131.446572
_cell_angle_gamma 90.000000
_cell_volume 1222.759312
_symmetry_space_group_name_H-M "P 2/C"
_symmetry_group_IT_number 13
_symmetry_cell_setting 'monoclinic'
loop_
_space_group_symop_operation_xyz
x,y,z
-x,y,1/2-z
-x,-y,-z
x,-y,1/2+z
loop_
_atom_site_type_symbol
_atom_site_label
_atom_site_fract_x
_atom_site_fract_y
_atom_site_fract_z
Si Si1 0.344806 0.216753 0.096547
Si Si2 0.979913 0.244206 0.079602
Si Si3 0.594815 0.460334 0.971387
Si Si4 0.601320 0.907252 0.496844
Si Si5 0.818530 0.744408 0.330469
Si Si6 0.264395 0.900317 0.733914
Si Si7 0.126295 0.490456 0.787391
Si Si8 0.067409 0.101051 0.885355
O O1 0.346210 0.192376 0.205149
O O2 0.413756 0.383007 0.101197
O O3 0.193017 0.218162 0.969541
O O4 0.382907 0.045013 0.070442
O O5 0.116434 0.164143 0.125889
O O6 0.040987 0.368976 0.187134
O O7 0.897300 0.085015 0.061482
O O8 0.873832 0.338700 0.953570
O O9 0.561246 0.268829 0.930718
O O10 0.753449 0.448920 0.081127
O O11 0.500000 0.500000 0.000000
O O12 0.709030 0.874816 0.643158
O O13 0.500000 0.000000 0.500000
O O14 0.791944 0.612461 0.238154
O O15 0.952770 0.829297 0.377534
O O16 0.724418 0.902093 0.277951
O O17 0.000000 0.389932 0.750000
O O18 0.000000 0.065876 0.750000
#
# Coordination Sequence:
#
# PCOD9237286 Si02
#       8
#     4   4   4   4   4   4   4   4
#     4  12  24  47  79 106 146 206 262 314 389 479
#     4  11  21  40  62 104 155 192 247 318 397 457
#     4  12  27  51  74 108 154 205 260 325 394 462
#     4  12  27  50  78 107 151 204 265 326 390 465
#     4  11  21  40  64 104 150 191 243 316 398 459
#     4  11  23  46  75 106 149 206 257 324 398 467
#     4  12  26  41  70 111 149 199 261 329 395 471
#     4  11  20  36  64  99 141 193 244 303 384 463
#
# _framework density 26.170317000000001
#
# number of rings (size 3 to 8) (size 9 to 14) (size 15 to 20)
#    0.000    0.500    5.000    5.625    1.750    0.500 
#    2.250    0.000    2.750    0.000    0.000    0.000 
#    0.000    0.000    0.000    0.000    0.000    0.000 
#
# Total GULP energy -178574.393985 kJ/mol
# GULP energy per Si atom -5580.449812 kJ/mol
# Density = 2.611075 g / cm^3
# Si number density = 26.170317 Si / 1000 Ang^3
#
#
#
# Elastic Constant Matrix: (Units=GPa)
#
#
# Indices 1 2 3 4 5 6 
#
# 1 78.8641 44.0422 19.2446 0.0000 4.0893 0.0000
# 2 44.0422 157.5632 17.3055 0.0000 -12.3776 0.0000
# 3 19.2446 17.3055 91.6395 0.0000 -0.9314 0.0000
# 4 0.0000 0.0000 0.0000 -204.7111 0.0000 -411.3734
# 5 4.0893 -12.3776 -0.9314 0.0000 31.7241 0.0000
# 6 0.0000 0.0000 0.0000 -411.3734 0.0000 -714.6948
#
#
#
# Elastic Compliance Matrix: (Units=1/GPa)
#
#
# Indices 1 2 3 4 5 6 
#
# 1 0.016020 -0.004504 -0.002553 0.000000 -0.003897 0.000000
# 2 -0.004504 0.007951 -0.000518 0.000000 0.003667 0.000000
# 3 -0.002553 -0.000518 0.011551 0.000000 0.000466 0.000000
# 4 0.000000 0.000000 0.000000 0.031179 0.000000 -0.017947
# 5 -0.003897 0.003667 0.000466 0.000000 0.033469 0.000000
# 6 0.000000 0.000000 0.000000 -0.017947 0.000000 0.008931
#
#
# Mechanical properties :
#
#
# Convention : Reuss Voigt Hill
#
# Bulk Modulus (GPa) = 49.08918 54.36127 51.72523
# Shear Modulus (GPa) = 38.15571 -161.03804 -61.44116
#
# Velocity S-wave (km/s) = 3.82249 -7.85291 -4.85061
# Velocity P-wave (km/s) = 6.18710 7.83627 3.40051
#
# Compressibility (1/GPa) = 0.02037109
#
# Stress axis : x y z
#
# Youngs Moduli (GPa) = 62.42064 125.77714 86.57125
#
# Poissons Ratio (x) = 0.56647 0.22105
# Poissons Ratio (y) = 0.28113 0.04487
# Poissons Ratio (z) = 0.15939 0.06520
#
# Static dielectric constant tensor:
#      x y z
#    x 2.268430 0.000000 -0.291340 
#    y 0.000000 2.184510 0.000000 
#    z -0.291340 0.000000 2.718990 
# 
# From -- ./inp_files/53078.got.cif
#   From: 2010.05.17/outbox.cif.g08.bks.cpg/sg13_27_cif.got.tgz:53078.got - 2010.06.03 16:44:36.
