data_PCOD9237391
_publ_section_title
;
Structure prediction by ZEFSAII (Michael W. Deem and Ramdas Pophale) SiO2 
 PCOD9237391
Probable space group: P 2/C
;
_chemical_formula_sum "Si O2"
_cell_formula_units_Z 32
_cell_length_a 11.396267
_cell_length_b 12.437318
_cell_length_c 14.337530
_cell_angle_alpha 90.000000
_cell_angle_beta 39.655305
_cell_angle_gamma 90.000000
_cell_volume 1296.875638
_symmetry_space_group_name_H-M "P 2/C"
_symmetry_group_IT_number 13
_symmetry_cell_setting 'monoclinic'
loop_
_space_group_symop_operation_xyz
x,y,z
-x,y,1/2-z
-x,-y,-z
x,-y,1/2+z
loop_
_atom_site_type_symbol
_atom_site_label
_atom_site_fract_x
_atom_site_fract_y
_atom_site_fract_z
Si Si1 0.058541 0.199330 0.422352
Si Si2 0.562002 0.610253 0.617894
Si Si3 0.805254 0.927683 0.815781
Si Si4 0.937744 0.153679 0.681770
Si Si5 0.836779 0.592938 0.734096
Si Si6 0.257267 0.636489 0.181085
Si Si7 0.350577 0.379387 0.962524
Si Si8 0.670496 0.139130 0.587326
O O1 0.211771 0.158064 0.255893
O O2 0.042400 0.325120 0.401721
O O3 0.093868 0.165177 0.507209
O O4 0.871668 0.132457 0.511905
O O5 0.500000 0.668996 0.750000
O O6 0.366132 0.600053 0.686724
O O7 0.704075 0.651822 0.453121
O O8 0.651093 0.493193 0.589693
O O9 0.000000 0.906925 0.750000
O O10 0.826704 0.042946 0.754780
O O11 0.668137 0.912729 0.985463
O O12 0.813383 0.254592 0.732275
O O13 0.000000 0.168184 0.750000
O O14 0.873774 0.464969 0.716962
O O15 0.804335 0.625022 0.862260
O O16 0.455263 0.614395 0.103383
O O17 0.349027 0.267853 0.911053
O O18 0.500000 0.096666 0.750000
#
# Coordination Sequence:
#
# PCOD9237391 Si02
#       8
#     4   4   4   4   4   4   4   4
#     4  11  22  40  67  92 117 161 210 257 305 359
#     4   9  18  32  58  83 121 171 201 232 303 375
#     4   9  21  42  65  86 119 159 205 252 310 371
#     4  11  24  41  58  83 125 167 202 250 308 365
#     4   9  19  36  60  88 122 156 204 248 297 363
#     4   9  20  38  54  86 127 159 197 250 301 368
#     4   9  17  36  59  86 121 159 196 252 305 352
#     4  11  21  37  66  98 120 150 204 267 315 358
#
# _framework density 24.674688
#
# number of rings (size 3 to 8) (size 9 to 14) (size 15 to 20)
#    0.000    2.250    1.250    3.000    1.750    1.500 
#    4.500    3.125    5.500    0.000    0.000    0.000 
#    0.000    0.000    0.000    0.000    0.000    0.000 
#
# Total GULP energy -178623.990485 kJ/mol
# GULP energy per Si atom -5581.999703 kJ/mol
# Density = 2.461853 g / cm^3
# Si number density = 24.674688 Si / 1000 Ang^3
#
#
#
# Elastic Constant Matrix: (Units=GPa)
#
#
# Indices 1 2 3 4 5 6 
#
# 1 34.7639 2.8538 26.7323 0.0000 9.0084 0.0000
# 2 2.8538 85.6305 39.0782 0.0000 2.3958 0.0000
# 3 26.7323 39.0782 149.1632 0.0000 24.1542 0.0000
# 4 0.0000 0.0000 0.0000 5.5539 0.0000 3.0062
# 5 9.0084 2.3958 24.1542 0.0000 31.9811 0.0000
# 6 0.0000 0.0000 0.0000 3.0062 0.0000 -21.5926
#
#
#
# Elastic Compliance Matrix: (Units=1/GPa)
#
#
# Indices 1 2 3 4 5 6 
#
# 1 0.034447 0.001608 -0.005701 0.000000 -0.005518 0.000000
# 2 0.001608 0.013437 -0.004070 0.000000 0.001614 0.000000
# 3 -0.005701 -0.004070 0.009665 0.000000 -0.005389 0.000000
# 4 0.000000 0.000000 0.000000 0.167436 0.000000 0.023311
# 5 -0.005518 0.001614 -0.005389 0.000000 0.036771 0.000000
# 6 0.000000 0.000000 0.000000 0.023311 0.000000 -0.043067
#
#
# Mechanical properties :
#
#
# Convention : Reuss Voigt Hill
#
# Bulk Modulus (GPa) = 24.25847 45.20959 34.73403
# Shear Modulus (GPa) = 20.10005 16.58138 18.34072
#
# Velocity S-wave (km/s) = 2.85722 2.59511 2.72931
# Velocity P-wave (km/s) = 4.55386 5.22891 4.90301
#
# Compressibility (1/GPa) = 0.04122272
#
# Stress axis : x y z
#
# Youngs Moduli (GPa) = 29.02983 74.42367 103.47023
#
# Poissons Ratio (x) = -0.11969 0.58992
# Poissons Ratio (y) = -0.04669 0.42110
# Poissons Ratio (z) = 0.16551 0.30289
#
# Static dielectric constant tensor:
#      x y z
#    x 2.003450 0.000000 0.020410 
#    y 0.000000 1.965780 0.000000 
#    z 0.020410 0.000000 2.037330 
# 
# From -- ./inp_files/53682.got.cif
#   From: 2010.05.17/outbox.cif.g08.bks.cpg/sg13_27_cif.got.tgz:53682.got - 2010.06.03 16:44:36.
