data_PCOD9237387
_publ_section_title
;
Structure prediction by ZEFSAII (Michael W. Deem and Ramdas Pophale) SiO2 
 PCOD9237387
Probable space group: P 2/C
;
_chemical_formula_sum "Si O2"
_cell_formula_units_Z 24
_cell_length_a 25.445660
_cell_length_b 5.120760
_cell_length_c 18.984598
_cell_angle_alpha 90.000000
_cell_angle_beta 150.883471
_cell_angle_gamma 90.000000
_cell_volume 1203.678306
_symmetry_space_group_name_H-M "P 2/C"
_symmetry_group_IT_number 13
_symmetry_cell_setting 'monoclinic'
loop_
_space_group_symop_operation_xyz
x,y,z
-x,y,1/2-z
-x,-y,-z
x,-y,1/2+z
loop_
_atom_site_type_symbol
_atom_site_label
_atom_site_fract_x
_atom_site_fract_y
_atom_site_fract_z
Si Si1 0.240176 0.072853 0.648676
Si Si2 0.744661 0.532443 0.203903
Si Si3 0.944829 0.799887 0.988951
Si Si4 0.872354 0.137476 0.122247
Si Si5 0.151478 0.632622 0.312370
Si Si6 0.422749 0.751099 0.915618
O O1 0.271570 0.269095 0.749313
O O2 0.210064 0.192521 0.538660
O O3 0.126181 0.958340 0.539225
O O4 0.327616 0.838033 0.749720
O O5 0.858415 0.387802 0.351024
O O6 0.759086 0.663320 0.144710
O O7 0.649633 0.318875 0.100291
O O8 0.036476 0.656576 0.139188
O O9 0.000000 0.000000 0.000000
O O10 0.845914 0.349791 0.150360
O O11 0.000000 0.156307 0.250000
O O12 0.848298 0.854011 0.127475
O O13 0.500000 0.500000 0.000000
O O14 0.500000 0.000000 0.000000
#
# Coordination Sequence:
#
# PCOD9237387 Si02
#       6
#     4   4   4   4   4   4
#     4  11  24  41  68  98 134 176 229 277 336 406
#     4  11  24  40  70  96 130 174 232 279 336 394
#     4  11  21  37  60  99 135 179 223 274 322 397
#     4  12  26  40  60  95 144 186 218 258 331 408
#     4  12  25  40  61  94 141 182 216 266 325 405
#     4  11  24  44  73 102 121 160 228 300 342 386
#
# _framework density 19.938880999999999
#
# number of rings (size 3 to 8) (size 9 to 14) (size 15 to 20)
#    0.000    0.667    5.000    3.000    7.000    0.000 
#    0.000    0.000    0.000    6.000    0.000    0.000 
#    0.000    0.000    0.000    0.000    0.000    0.000 
#
# Total GULP energy -133891.702888 kJ/mol
# GULP energy per Si atom -5578.820954 kJ/mol
# Density = 1.989350 g / cm^3
# Si number density = 19.938881 Si / 1000 Ang^3
#
#
#
# Elastic Constant Matrix: (Units=GPa)
#
#
# Indices 1 2 3 4 5 6 
#
# 1 69.7754 13.1618 51.0587 0.0000 0.8495 0.0000
# 2 13.1618 73.3194 19.4352 0.0000 12.1403 0.0000
# 3 51.0587 19.4352 72.4302 0.0000 18.0204 0.0000
# 4 0.0000 0.0000 0.0000 43.2531 0.0000 1.2405
# 5 0.8495 12.1403 18.0204 0.0000 21.6124 0.0000
# 6 0.0000 0.0000 0.0000 1.2405 0.0000 24.4394
#
#
#
# Elastic Compliance Matrix: (Units=1/GPa)
#
#
# Indices 1 2 3 4 5 6 
#
# 1 0.039580 -0.002751 -0.034269 0.000000 0.028563 0.000000
# 2 -0.002751 0.015578 -0.000115 0.000000 -0.008547 0.000000
# 3 -0.034269 -0.000115 0.047497 0.000000 -0.038191 0.000000
# 4 0.000000 0.000000 0.000000 0.023153 0.000000 -0.001175
# 5 0.028563 -0.008547 -0.038191 0.000000 0.081792 0.000000
# 6 0.000000 0.000000 0.000000 -0.001175 0.000000 0.040977
#
#
# Mechanical properties :
#
#
# Convention : Reuss Voigt Hill
#
# Bulk Modulus (GPa) = 35.22941 42.53736 38.88338
# Shear Modulus (GPa) = 15.04626 26.65227 20.84927
#
# Velocity S-wave (km/s) = 2.75001 3.66006 3.23717
# Velocity P-wave (km/s) = 5.27167 6.26431 5.78930
#
# Compressibility (1/GPa) = 0.02838537
#
# Stress axis : x y z
#
# Youngs Moduli (GPa) = 25.26544 64.19166 21.05408
#
# Poissons Ratio (x) = 0.17657 0.72151
# Poissons Ratio (y) = 0.06950 0.00241
# Poissons Ratio (z) = 0.86583 0.00736
#
# Static dielectric constant tensor:
#      x y z
#    x 1.747780 0.000000 -0.034220 
#    y 0.000000 1.788280 0.000000 
#    z -0.034220 0.000000 1.726270 
# 
# From -- ./inp_files/65308.got.cif
#   From: 2010.05.17/outbox.cif.g08.bks.cpg/sg13_33_cif.got.tgz:65308.got - 2010.06.03 16:44:36.
