data_PCOD9237519
_publ_section_title
;
Structure prediction by ZEFSAII (Michael W. Deem and Ramdas Pophale) SiO2 
 PCOD9237519
Probable space group: P 2/C
;
_chemical_formula_sum "Si O2"
_cell_formula_units_Z 18
_cell_length_a 19.253857
_cell_length_b 4.561045
_cell_length_c 8.234352
_cell_angle_alpha 90.000000
_cell_angle_beta 61.782834
_cell_angle_gamma 90.000000
_cell_volume 637.187439
_symmetry_space_group_name_H-M "P 2/C"
_symmetry_group_IT_number 13
_symmetry_cell_setting 'monoclinic'
loop_
_space_group_symop_operation_xyz
x,y,z
-x,y,1/2-z
-x,-y,-z
x,-y,1/2+z
loop_
_atom_site_type_symbol
_atom_site_label
_atom_site_fract_x
_atom_site_fract_y
_atom_site_fract_z
Si Si1 0.000000 0.301028 0.250000
Si Si2 0.665285 0.238086 0.663804
Si Si3 0.111933 0.328667 0.864256
Si Si4 0.442434 0.170477 0.442857
Si Si5 0.219430 0.261445 0.469492
O O1 0.939640 0.153370 0.444640
O O2 0.946512 0.499403 0.191841
O O3 0.610845 0.060951 0.598187
O O4 0.716029 0.503967 0.539954
O O5 0.729798 0.004113 0.654518
O O6 0.612972 0.346322 0.872973
O O7 0.167266 0.155647 0.679082
O O8 0.164925 0.562191 0.903958
O O9 0.500000 0.328382 0.250000
O O10 0.500000 0.000000 0.500000
#
# Coordination Sequence:
#
# PCOD9237519 Si02
#       5
#     2   4   4   4   4
#     4   8  16  34  60  84 120 154 192 234 280 344
#     4  11  22  40  60  87 116 149 192 239 286 337
#     4   9  18  34  60  87 116 154 192 234 286 337
#     4   9  20  40  60  84 116 154 192 234 286 344
#     4  11  22  37  62  87 116 149 192 239 286 337
#
# _framework density 28.249141000000002
#
# number of rings (size 3 to 8) (size 9 to 14) (size 15 to 20)
#    0.000    2.222    0.000    2.667    0.000    0.000 
#    0.000   22.222    0.000   93.333    0.000    0.000 
#    0.000    0.000    0.000    0.000    0.000    0.000 
#
# Total GULP energy -100957.792591 kJ/mol
# GULP energy per Si atom -5608.766255 kJ/mol
# Density = 2.818485 g / cm^3
# Si number density = 28.249141 Si / 1000 Ang^3
#
#
#
# Elastic Constant Matrix: (Units=GPa)
#
#
# Indices 1 2 3 4 5 6 
#
# 1 207.6155 48.4933 38.6310 0.0000 35.0392 0.0000
# 2 48.4933 74.7190 9.8137 0.0000 -4.5309 0.0000
# 3 38.6310 9.8137 241.1020 0.0000 -36.2501 0.0000
# 4 0.0000 0.0000 0.0000 -5.5481 0.0000 27.7578
# 5 35.0392 -4.5309 -36.2501 0.0000 47.9285 0.0000
# 6 0.0000 0.0000 0.0000 27.7578 0.0000 46.9282
#
#
#
# Elastic Compliance Matrix: (Units=1/GPa)
#
#
# Indices 1 2 3 4 5 6 
#
# 1 0.007776 -0.005232 -0.002214 0.000000 -0.007854 0.000000
# 2 -0.005232 0.017016 0.001086 0.000000 0.006255 0.000000
# 3 -0.002214 0.001086 0.005322 0.000000 0.005746 0.000000
# 4 0.000000 0.000000 0.000000 -0.045523 0.000000 0.026927
# 5 -0.007854 0.006255 0.005746 0.000000 0.031544 0.000000
# 6 0.000000 0.000000 0.000000 0.026927 0.000000 0.005382
#
#
# Mechanical properties :
#
#
# Convention : Reuss Voigt Hill
#
# Bulk Modulus (GPa) = 57.48962 79.70139 68.59550
# Shear Modulus (GPa) = 124.89237 46.29496 85.59366
#
# Velocity S-wave (km/s) = 6.65635 4.05261 5.51048
# Velocity P-wave (km/s) = 8.91466 7.08331 8.05122
#
# Compressibility (1/GPa) = 0.01739445
#
# Stress axis : x y z
#
# Youngs Moduli (GPa) = 128.59833 58.76852 187.89516
#
# Poissons Ratio (x) = 0.30749 0.41597
# Poissons Ratio (y) = 0.67286 -0.20410
# Poissons Ratio (z) = 0.28470 -0.06384
#
# Static dielectric constant tensor:
#      x y z
#    x 2.163470 0.000000 -0.056990 
#    y 0.000000 2.087690 0.000000 
#    z -0.056990 0.000000 2.157730 
# 
# From -- ./inp_files/20327.got.cif
#   From: 2010.05.17/outbox.cif.g08.bks.cpg/sg13_11_cif.got.tgz:20327.got - 2010.06.03 16:44:36.
