data_PCOD9237298
_publ_section_title
;
Structure prediction by ZEFSAII (Michael W. Deem and Ramdas Pophale) SiO2 
 PCOD9237298
Probable space group: P 2/C
;
_chemical_formula_sum "Si O2"
_cell_formula_units_Z 32
_cell_length_a 15.121422
_cell_length_b 6.365618
_cell_length_c 16.036719
_cell_angle_alpha 90.000000
_cell_angle_beta 89.249695
_cell_angle_gamma 90.000000
_cell_volume 1543.517249
_symmetry_space_group_name_H-M "P 2/C"
_symmetry_group_IT_number 13
_symmetry_cell_setting 'monoclinic'
loop_
_space_group_symop_operation_xyz
x,y,z
-x,y,1/2-z
-x,-y,-z
x,-y,1/2+z
loop_
_atom_site_type_symbol
_atom_site_label
_atom_site_fract_x
_atom_site_fract_y
_atom_site_fract_z
Si Si1 0.831184 0.825349 0.669767
Si Si2 0.732439 0.633190 0.807148
Si Si3 0.161332 0.283765 0.598253
Si Si4 0.602466 0.282668 0.752382
Si Si5 0.333305 0.998041 0.092700
Si Si6 0.020745 0.090722 0.908037
Si Si7 0.832621 0.561330 0.064585
Si Si8 0.684380 0.894814 0.083988
O O1 0.787808 0.816933 0.760736
O O2 0.831071 0.582417 0.645635
O O3 0.925725 0.928515 0.650876
O O4 0.760184 0.943262 0.612627
O O5 0.800545 0.464335 0.842960
O O6 0.663401 0.490737 0.756660
O O7 0.676695 0.764183 0.875061
O O8 0.236535 0.108947 0.585665
O O9 0.147841 0.404108 0.511178
O O10 0.070390 0.178074 0.627531
O O11 0.500000 0.338576 0.750000
O O12 0.619826 0.141441 0.835808
O O13 0.628923 0.159252 0.667411
O O14 0.366008 0.013867 0.996263
O O15 0.088646 0.277124 0.925033
O O16 0.000000 0.000000 0.000000
O O17 0.741182 0.688431 0.056663
#
# Coordination Sequence:
#
# PCOD9237298 Si02
#       8
#     4   4   4   4   4   4   4   4
#     4  11  22  40  64  89 126 182 219 265 335 388
#     4  11  24  43  67  89 138 179 217 273 343 397
#     4  11  22  38  63  96 131 171 228 279 320 387
#     4  11  26  45  69 103 136 166 219 282 338 412
#     4  11  23  42  71  99 130 177 222 268 331 411
#     4  11  23  35  62  95 128 170 233 280 320 382
#     4  11  20  37  66  92 124 178 222 267 329 389
#     4  11  21  41  72  99 129 176 219 265 341 405
#
# _framework density 20.731870000000001
#
# number of rings (size 3 to 8) (size 9 to 14) (size 15 to 20)
#    0.000    1.000    6.250    1.125    0.000    1.000 
#    0.000    4.375    0.000    0.000    0.000    0.000 
#    0.000    0.000    0.000    0.000    0.000    0.000 
#
# Total GULP energy -178647.717387 kJ/mol
# GULP energy per Si atom -5582.741168 kJ/mol
# Density = 2.068468 g / cm^3
# Si number density = 20.731870 Si / 1000 Ang^3
#
#
#
# Elastic Constant Matrix: (Units=GPa)
#
#
# Indices 1 2 3 4 5 6 
#
# 1 77.3890 10.9368 5.2868 0.0000 8.1646 0.0000
# 2 10.9368 70.6842 9.4735 0.0000 2.3168 0.0000
# 3 5.2868 9.4735 67.5423 0.0000 4.6294 0.0000
# 4 0.0000 0.0000 0.0000 31.1702 0.0000 -13.1646
# 5 8.1646 2.3168 4.6294 0.0000 14.1749 0.0000
# 6 0.0000 0.0000 0.0000 -13.1646 0.0000 13.3276
#
#
#
# Elastic Compliance Matrix: (Units=1/GPa)
#
#
# Indices 1 2 3 4 5 6 
#
# 1 0.014017 -0.001876 -0.000309 0.000000 -0.007666 0.000000
# 2 -0.001876 0.014711 -0.001868 0.000000 -0.000714 0.000000
# 3 -0.000309 -0.001868 0.015403 0.000000 -0.004548 0.000000
# 4 0.000000 0.000000 0.000000 0.055046 0.000000 0.054373
# 5 -0.007666 -0.000714 -0.004548 0.000000 0.076565 0.000000
# 6 0.000000 0.000000 0.000000 0.054373 0.000000 0.128740
#
#
# Mechanical properties :
#
#
# Convention : Reuss Voigt Hill
#
# Bulk Modulus (GPa) = 27.75714 29.66776 28.71245
# Shear Modulus (GPa) = 15.40374 24.39576 19.89975
#
# Velocity S-wave (km/s) = 2.72876 3.43407 3.10153
# Velocity P-wave (km/s) = 4.83175 5.48316 5.16773
#
# Compressibility (1/GPa) = 0.03602677
#
# Stress axis : x y z
#
# Youngs Moduli (GPa) = 71.34330 67.97435 64.92100
#
# Poissons Ratio (x) = 0.12753 0.02003
# Poissons Ratio (y) = 0.13385 0.12125
# Poissons Ratio (z) = 0.02201 0.12695
#
# Static dielectric constant tensor:
#      x y z
#    x 1.712010 0.000000 -0.030840 
#    y 0.000000 1.736300 0.000000 
#    z -0.030840 0.000000 1.839500 
# 
# From -- ./inp_files/54674.got.cif
#   From: 2010.05.17/outbox.cif.g08.bks.cpg/sg13_28_cif.got.tgz:54674.got - 2010.06.03 16:44:36.
