data_PCOD9237231
_publ_section_title
;
Structure prediction by ZEFSAII (Michael W. Deem and Ramdas Pophale) SiO2 
 PCOD9237231
Probable space group: P 2/C
;
_chemical_formula_sum "Si O2"
_cell_formula_units_Z 28
_cell_length_a 26.618279
_cell_length_b 9.517487
_cell_length_c 8.046786
_cell_angle_alpha 90.000000
_cell_angle_beta 135.714079
_cell_angle_gamma 90.000000
_cell_volume 1423.406906
_symmetry_space_group_name_H-M "P 2/C"
_symmetry_group_IT_number 13
_symmetry_cell_setting 'monoclinic'
loop_
_space_group_symop_operation_xyz
x,y,z
-x,y,1/2-z
-x,-y,-z
x,-y,1/2+z
loop_
_atom_site_type_symbol
_atom_site_label
_atom_site_fract_x
_atom_site_fract_y
_atom_site_fract_z
Si Si1 0.346108 0.407588 0.978312
Si Si2 0.112019 0.527213 0.235778
Si Si3 0.927888 0.290948 0.166628
Si Si4 0.550711 0.401643 0.005413
Si Si5 0.252689 0.635108 0.965999
Si Si6 0.141268 0.798343 0.497650
Si Si7 0.084647 0.967135 0.668770
O O1 0.399814 0.498623 0.991077
O O2 0.302154 0.317884 0.738394
O O3 0.394064 0.330829 0.233093
O O4 0.295375 0.521140 0.954097
O O5 0.058418 0.398696 0.149128
O O6 0.187859 0.447421 0.403338
O O7 0.109439 0.648334 0.368302
O O8 0.106883 0.610366 0.052303
O O9 0.889695 0.154543 0.143371
O O10 0.000000 0.240514 0.250000
O O11 0.500000 0.323196 0.750000
O O12 0.500000 0.500000 0.000000
O O13 0.216286 0.754581 0.763838
O O14 0.095486 0.889410 0.519726
O O15 0.133979 0.896824 0.317570
O O16 0.000000 0.000000 0.500000
#
# Coordination Sequence:
#
# PCOD9237231 Si02
#       7
#     4   4   4   4   4   4   4
#     4   9  17  28  51  79 118 157 189 228 264 328
#     4  12  22  39  59  83 108 137 188 242 295 364
#     4  12  23  38  57  81 103 136 184 245 308 360
#     4   8  14  26  45  77 119 167 195 207 256 323
#     4  11  19  35  53  82 111 145 195 224 288 337
#     4  12  24  41  61  80 108 144 193 241 302 372
#     4  12  26  45  59  77 105 147 192 248 324 374
#
# _framework density 19.671115
#
# number of rings (size 3 to 8) (size 9 to 14) (size 15 to 20)
#    0.000    1.143    4.286    3.429    0.000    1.143 
#    0.000    0.000    0.000    0.000    0.000    0.000 
#    0.000    0.000    0.000  239.143    1.429    0.143 
#
# Total GULP energy -155929.572590 kJ/mol
# GULP energy per Si atom -5568.913307 kJ/mol
# Density = 1.962634 g / cm^3
# Si number density = 19.671115 Si / 1000 Ang^3
#
#
#
# Elastic Constant Matrix: (Units=GPa)
#
#
# Indices 1 2 3 4 5 6 
#
# 1 74.8706 8.7953 -10.7249 0.0000 -8.6314 0.0000
# 2 8.7953 90.2582 20.9531 0.0000 -10.2340 0.0000
# 3 -10.7249 20.9531 139.8412 0.0000 -14.4068 0.0000
# 4 0.0000 0.0000 0.0000 22.8326 0.0000 -29.7375
# 5 -8.6314 -10.2340 -14.4068 0.0000 25.1967 0.0000
# 6 0.0000 0.0000 0.0000 -29.7375 0.0000 4.4494
#
#
#
# Elastic Compliance Matrix: (Units=1/GPa)
#
#
# Indices 1 2 3 4 5 6 
#
# 1 0.014398 -0.001209 0.001852 0.000000 0.005500 0.000000
# 2 -0.001209 0.011954 -0.001516 0.000000 0.003575 0.000000
# 3 0.001852 -0.001516 0.007993 0.000000 0.004589 0.000000
# 4 0.000000 0.000000 0.000000 -0.005684 0.000000 -0.037992
# 5 0.005500 0.003575 0.004589 0.000000 0.045648 0.000000
# 6 0.000000 0.000000 0.000000 -0.037992 0.000000 -0.029171
#
#
# Mechanical properties :
#
#
# Convention : Reuss Voigt Hill
#
# Bulk Modulus (GPa) = 30.67579 38.11302 34.39440
# Shear Modulus (GPa) = 86.58039 29.55883 58.06961
#
# Velocity S-wave (km/s) = 6.64150 3.88061 5.43915
# Velocity P-wave (km/s) = 8.62791 6.28459 7.54775
#
# Compressibility (1/GPa) = 0.03259900
#
# Stress axis : x y z
#
# Youngs Moduli (GPa) = 69.45519 83.65169 125.11154
#
# Poissons Ratio (x) = 0.10116 -0.23171
# Poissons Ratio (y) = 0.08399 0.18963
# Poissons Ratio (z) = -0.12863 0.12679
#
# Static dielectric constant tensor:
#      x y z
#    x 1.765130 0.000000 -0.053990 
#    y 0.000000 1.646520 0.000000 
#    z -0.053990 0.000000 1.858770 
# 
# From -- ./inp_files/24895.got.cif
#   From: 2010.05.17/outbox.cif.g08.bks.cpg/sg13_13_cif.got.tgz:24895.got - 2010.06.03 16:44:36.
