data_PCOD9237131
_publ_section_title
;
Structure prediction by ZEFSAII (Michael W. Deem and Ramdas Pophale) SiO2 
 PCOD9237131
Probable space group: P 2/C
;
_chemical_formula_sum "Si O2"
_cell_formula_units_Z 16
_cell_length_a 6.927784
_cell_length_b 4.685493
_cell_length_c 19.466734
_cell_angle_alpha 90.000000
_cell_angle_beta 120.827830
_cell_angle_gamma 90.000000
_cell_volume 542.612501
_symmetry_space_group_name_H-M "P 2/C"
_symmetry_group_IT_number 13
_symmetry_cell_setting 'monoclinic'
loop_
_space_group_symop_operation_xyz
x,y,z
-x,y,1/2-z
-x,-y,-z
x,-y,1/2+z
loop_
_atom_site_type_symbol
_atom_site_label
_atom_site_fract_x
_atom_site_fract_y
_atom_site_fract_z
Si Si1 0.975064 0.396612 0.319086
Si Si2 0.926215 0.255894 0.536536
Si Si3 0.401927 0.057242 0.800448
Si Si4 0.468111 0.394466 0.407857
O O1 0.805177 0.142683 0.267284
O O2 0.000000 0.553676 0.250000
O O3 0.950981 0.643806 0.371186
O O4 0.221426 0.267482 0.381519
O O5 0.657983 0.313626 0.497734
O O6 0.000000 0.500000 0.500000
O O7 0.000000 0.000000 0.500000
O O8 0.500000 0.197198 0.750000
O O9 0.550541 0.800597 0.858775
O O10 0.426891 0.295933 0.865722
#
# Coordination Sequence:
#
# PCOD9237131 Si02
#       4
#     4   4   4   4
#     4  10  26  48  76 111 155 210 266 326 396 473
#     4  12  27  48  78 116 159 209 262 327 400 474
#     4  11  24  46  74 110 153 206 262 323 393 472
#     4  11  25  46  74 111 154 205 263 326 393 471
#
# _framework density 29.486972999999999
#
# number of rings (size 3 to 8) (size 9 to 14) (size 15 to 20)
#    0.000    1.000    0.000    4.500    0.000   23.000 
#    0.000    8.750    0.000    0.000    0.000    0.000 
#    0.000    0.000    0.000    0.000    0.000    0.000 
#
# Total GULP energy -89158.673104 kJ/mol
# GULP energy per Si atom -5572.417069 kJ/mol
# Density = 2.941986 g / cm^3
# Si number density = 29.486973 Si / 1000 Ang^3
#
#
#
# Elastic Constant Matrix: (Units=GPa)
#
#
# Indices 1 2 3 4 5 6 
#
# 1 122.8996 33.5706 58.4898 0.0000 64.4947 0.0000
# 2 33.5706 247.3561 95.7325 0.0000 19.0912 0.0000
# 3 58.4898 95.7325 235.2417 0.0000 15.1971 0.0000
# 4 0.0000 0.0000 0.0000 58.5010 0.0000 3.2229
# 5 64.4947 19.0912 15.1971 0.0000 65.2913 0.0000
# 6 0.0000 0.0000 0.0000 3.2229 0.0000 31.2381
#
#
#
# Elastic Compliance Matrix: (Units=1/GPa)
#
#
# Indices 1 2 3 4 5 6 
#
# 1 0.019606 0.000230 -0.003770 0.000000 -0.018557 0.000000
# 2 0.000230 0.004862 -0.001959 0.000000 -0.001193 0.000000
# 3 -0.003770 -0.001959 0.005795 0.000000 0.002948 0.000000
# 4 0.000000 0.000000 0.000000 0.017191 0.000000 -0.001774
# 5 -0.018557 -0.001193 0.002948 0.000000 0.033309 0.000000
# 6 0.000000 0.000000 0.000000 -0.001774 0.000000 0.032195
#
#
# Mechanical properties :
#
#
# Convention : Reuss Voigt Hill
#
# Bulk Modulus (GPa) = 51.90390 109.00927 80.45658
# Shear Modulus (GPa) = 38.35059 58.85306 48.60182
#
# Velocity S-wave (km/s) = 3.61029 4.47240 4.06427
# Velocity P-wave (km/s) = 5.91772 7.98240 7.02631
#
# Compressibility (1/GPa) = 0.01926637
#
# Stress axis : x y z
#
# Youngs Moduli (GPa) = 51.00504 205.69253 172.56588
#
# Poissons Ratio (x) = -0.04737 0.65052
# Poissons Ratio (y) = -0.01175 0.33799
# Poissons Ratio (z) = 0.19227 0.40288
#
# Static dielectric constant tensor:
#      x y z
#    x 2.543200 0.000000 -0.073950 
#    y 0.000000 2.187570 0.000000 
#    z -0.073950 0.000000 2.293970 
# 
# From -- ./inp_files/74094.got.cif
#   From: 2010.05.17/outbox.cif.g08.bks.cpg/sg13_38_cif.got.tgz:74094.got - 2010.06.03 16:44:36.
