data_PCOD9237638
_publ_section_title
;
Structure prediction by ZEFSAII (Michael W. Deem and Ramdas Pophale) SiO2 
 PCOD9237638
Probable space group: P 2/C
;
_chemical_formula_sum "Si O2"
_cell_formula_units_Z 20
_cell_length_a 10.886633
_cell_length_b 8.226874
_cell_length_c 16.020599
_cell_angle_alpha 90.000000
_cell_angle_beta 37.125633
_cell_angle_gamma 90.000000
_cell_volume 866.026231
_symmetry_space_group_name_H-M "P 2/C"
_symmetry_group_IT_number 13
_symmetry_cell_setting 'monoclinic'
loop_
_space_group_symop_operation_xyz
x,y,z
-x,y,1/2-z
-x,-y,-z
x,-y,1/2+z
loop_
_atom_site_type_symbol
_atom_site_label
_atom_site_fract_x
_atom_site_fract_y
_atom_site_fract_z
Si Si1 0.976572 0.323819 0.432139
Si Si2 0.564842 0.558415 0.812791
Si Si3 0.020816 0.027214 0.837883
Si Si4 0.161312 0.352216 0.586076
Si Si5 0.338745 0.211094 0.765844
O O1 0.215454 0.359678 0.303606
O O2 0.884166 0.480307 0.436827
O O3 0.848681 0.300663 0.585424
O O4 0.949790 0.146750 0.406947
O O5 0.500000 0.569674 0.750000
O O6 0.568885 0.365801 0.832313
O O7 0.404355 0.641482 0.962158
O O8 0.239669 0.075837 0.759763
O O9 0.000000 0.019612 0.750000
O O10 0.882073 0.182054 0.936890
O O11 0.000000 0.353974 0.750000
O O12 0.500000 0.156632 0.750000
#
# Coordination Sequence:
#
# PCOD9237638 Si02
#       5
#     4   4   4   4   4
#     4  12  23  44  74 101 140 193 244 289 360 425
#     4  11  22  42  74 103 137 187 243 298 352 422
#     4  11  26  46  67 107 152 187 234 296 357 434
#     4  11  24  45  68 101 150 188 234 296 363 418
#     4  11  22  44  76 105 139 185 244 299 346 421
#
# _framework density 23.093989000000001
#
# number of rings (size 3 to 8) (size 9 to 14) (size 15 to 20)
#    0.000    0.800    6.000    3.000    0.000    3.200 
#    0.000    5.000    0.000    0.000    0.000    0.000 
#    0.000    0.000    0.000    0.000    0.000    0.000 
#
# Total GULP energy -111622.804137 kJ/mol
# GULP energy per Si atom -5581.140207 kJ/mol
# Density = 2.304143 g / cm^3
# Si number density = 23.093989 Si / 1000 Ang^3
#
#
#
# Elastic Constant Matrix: (Units=GPa)
#
#
# Indices 1 2 3 4 5 6 
#
# 1 69.0733 37.3627 35.5211 0.0000 -15.0214 0.0000
# 2 37.3627 168.4867 11.5285 0.0000 2.0091 0.0000
# 3 35.5211 11.5285 114.6637 0.0000 -22.6041 0.0000
# 4 0.0000 0.0000 0.0000 -62.6619 0.0000 82.9394
# 5 -15.0214 2.0091 -22.6041 0.0000 28.9580 0.0000
# 6 0.0000 0.0000 0.0000 82.9394 0.0000 -53.8711
#
#
#
# Elastic Compliance Matrix: (Units=1/GPa)
#
#
# Indices 1 2 3 4 5 6 
#
# 1 0.020829 -0.004400 -0.004515 0.000000 0.007586 0.000000
# 2 -0.004400 0.006933 0.000143 0.000000 -0.002652 0.000000
# 3 -0.004515 0.000143 0.011395 0.000000 0.006543 0.000000
# 4 0.000000 0.000000 0.000000 0.015377 0.000000 0.023675
# 5 0.007586 -0.002652 0.006543 0.000000 0.043759 0.000000
# 6 0.000000 0.000000 0.000000 0.023675 0.000000 0.017887
#
#
# Mechanical properties :
#
#
# Convention : Reuss Voigt Hill
#
# Bulk Modulus (GPa) = 46.26717 57.89424 52.08070
# Shear Modulus (GPa) = 35.47906 0.33909 17.90907
#
# Velocity S-wave (km/s) = 3.92381 0.38360 2.78778
# Velocity P-wave (km/s) = 6.37229 5.03186 5.74133
#
# Compressibility (1/GPa) = 0.02161360
#
# Stress axis : x y z
#
# Youngs Moduli (GPa) = 48.00984 144.24142 87.75657
#
# Poissons Ratio (x) = 0.63473 0.39619
# Poissons Ratio (y) = 0.21127 -0.01259
# Poissons Ratio (z) = 0.21675 -0.02069
#
# Static dielectric constant tensor:
#      x y z
#    x 1.992550 0.000000 0.000090 
#    y 0.000000 1.897020 0.000000 
#    z 0.000090 0.000000 1.941410 
# 
# From -- ./inp_files/66248.got.cif
#   From: 2010.05.17/outbox.cif.g08.bks.cpg/sg13_34_cif.got.tgz:66248.got - 2010.06.03 16:44:36.
