data_PCOD9237935
_publ_section_title
;
Structure prediction by ZEFSAII (Michael W. Deem and Ramdas Pophale) SiO2 
 PCOD9237935
Probable space group: P 2/C
;
_chemical_formula_sum "Si O2"
_cell_formula_units_Z 20
_cell_length_a 21.303726
_cell_length_b 5.857424
_cell_length_c 14.005219
_cell_angle_alpha 90.000000
_cell_angle_beta 31.117967
_cell_angle_gamma 90.000000
_cell_volume 903.183852
_symmetry_space_group_name_H-M "P 2/C"
_symmetry_group_IT_number 13
_symmetry_cell_setting 'monoclinic'
loop_
_space_group_symop_operation_xyz
x,y,z
-x,y,1/2-z
-x,-y,-z
x,-y,1/2+z
loop_
_atom_site_type_symbol
_atom_site_label
_atom_site_fract_x
_atom_site_fract_y
_atom_site_fract_z
Si Si1 0.661227 0.685233 0.439836
Si Si2 0.433759 0.040158 0.186591
Si Si3 0.137757 0.923833 0.825546
Si Si4 0.752164 0.616833 0.659263
Si Si5 0.267744 0.336614 0.989397
O O1 0.538283 0.825897 0.605544
O O2 0.660782 0.515264 0.349809
O O3 0.686276 0.537077 0.500884
O O4 0.771079 0.863091 0.279026
O O5 0.318925 0.194197 0.308646
O O6 0.381141 0.817288 0.306739
O O7 0.500000 0.000000 0.000000
O O8 0.156936 0.743670 0.887022
O O9 0.180152 0.810087 0.671034
O O10 0.000000 0.000000 0.000000
O O11 0.795494 0.437788 0.523038
#
# Coordination Sequence:
#
# PCOD9237935 Si02
#       5
#     4   4   4   4   4
#     4  11  25  45  70 105 145 186 235 295 355 422
#     4  12  23  45  72 104 150 183 230 295 356 433
#     4  11  26  50  71 100 145 188 243 299 344 420
#     4  11  23  45  71 103 142 187 236 292 359 419
#     4  11  26  43  71 110 141 192 237 287 366 424
#
# _framework density 22.143885999999998
#
# number of rings (size 3 to 8) (size 9 to 14) (size 15 to 20)
#    0.000    0.800    4.000    1.800    0.000    8.000 
#    0.000   15.000    0.000    0.000    0.000    0.000 
#    0.000    0.000    0.000    0.000    0.000    0.000 
#
# Total GULP energy -111940.708768 kJ/mol
# GULP energy per Si atom -5597.035438 kJ/mol
# Density = 2.209349 g / cm^3
# Si number density = 22.143886 Si / 1000 Ang^3
#
#
#
# Elastic Constant Matrix: (Units=GPa)
#
#
# Indices 1 2 3 4 5 6 
#
# 1 110.1565 59.7775 71.0286 0.0000 16.4509 0.0000
# 2 59.7775 102.1781 43.5751 0.0000 7.0070 0.0000
# 3 71.0286 43.5751 99.3738 0.0000 -0.0667 0.0000
# 4 0.0000 0.0000 0.0000 15.2305 0.0000 8.8699
# 5 16.4509 7.0070 -0.0667 0.0000 41.9783 0.0000
# 6 0.0000 0.0000 0.0000 8.8699 0.0000 49.2321
#
#
#
# Elastic Compliance Matrix: (Units=1/GPa)
#
#
# Indices 1 2 3 4 5 6 
#
# 1 0.022355 -0.007061 -0.012887 0.000000 -0.007602 0.000000
# 2 -0.007061 0.014442 -0.001285 0.000000 0.000355 0.000000
# 3 -0.012887 -0.001285 0.019841 0.000000 0.005296 0.000000
# 4 0.000000 0.000000 0.000000 0.073354 0.000000 -0.013216
# 5 -0.007602 0.000355 0.005296 0.000000 0.026750 0.000000
# 6 0.000000 0.000000 0.000000 -0.013216 0.000000 0.022693
#
#
# Mechanical properties :
#
#
# Convention : Reuss Voigt Hill
#
# Bulk Modulus (GPa) = 70.56857 73.38565 71.97711
# Shear Modulus (GPa) = 22.06275 30.44330 26.25303
#
# Velocity S-wave (km/s) = 3.15990 3.71185 3.44694
# Velocity P-wave (km/s) = 6.72686 7.18211 6.95821
#
# Compressibility (1/GPa) = 0.01417061
#
# Stress axis : x y z
#
# Youngs Moduli (GPa) = 44.73342 69.24428 50.39945
#
# Poissons Ratio (x) = 0.48893 0.64951
# Poissons Ratio (y) = 0.31586 0.06479
# Poissons Ratio (z) = 0.57649 0.08901
#
# Static dielectric constant tensor:
#      x y z
#    x 1.878680 0.000000 0.014240 
#    y 0.000000 1.870570 0.000000 
#    z 0.014240 0.000000 1.788780 
# 
# From -- ./inp_files/48815.got.cif
#   From: 2010.05.17/outbox.cif.g08.bks.cpg/sg13_25_cif.got.tgz:48815.got - 2010.06.03 16:44:36.
