data_PCOD9237758
_publ_section_title
;
Structure prediction by ZEFSAII (Michael W. Deem and Ramdas Pophale) SiO2 
 PCOD9237758
Probable space group: P 2/C
;
_chemical_formula_sum "Si O2"
_cell_formula_units_Z 24
_cell_length_a 18.177269
_cell_length_b 8.588416
_cell_length_c 14.970424
_cell_angle_alpha 90.000000
_cell_angle_beta 22.619424
_cell_angle_gamma 90.000000
_cell_volume 898.864933
_symmetry_space_group_name_H-M "P 2/C"
_symmetry_group_IT_number 13
_symmetry_cell_setting 'monoclinic'
loop_
_space_group_symop_operation_xyz
x,y,z
-x,y,1/2-z
-x,-y,-z
x,-y,1/2+z
loop_
_atom_site_type_symbol
_atom_site_label
_atom_site_fract_x
_atom_site_fract_y
_atom_site_fract_z
Si Si1 0.894459 0.240131 0.453654
Si Si2 0.026658 0.165880 0.596068
Si Si3 0.604564 0.835364 0.728608
Si Si4 0.446239 0.476496 0.705977
Si Si5 0.133935 0.503142 0.266781
Si Si6 0.257470 0.981054 0.215047
O O1 0.707385 0.346536 0.643556
O O2 0.819521 0.139424 0.622364
O O3 0.000000 0.162814 0.250000
O O4 0.062384 0.361524 0.288682
O O5 0.172179 0.124526 0.513181
O O6 0.916131 0.331671 0.724625
O O7 0.863248 0.052970 0.739841
O O8 0.186127 0.145651 0.335341
O O9 0.500000 0.847307 0.750000
O O10 0.617110 0.653137 0.739254
O O11 0.472434 0.938367 0.943330
O O12 0.500000 0.463186 0.750000
O O13 0.656120 0.476514 0.429628
O O14 0.000000 0.500000 0.500000
#
# Coordination Sequence:
#
# PCOD9237758 Si02
#       6
#     4   4   4   4   4   4
#     4  12  25  44  69 103 146 188 244 301 360 432
#     4  11  24  46  71  98 145 184 236 298 357 441
#     4  11  24  44  72 105 136 188 242 293 364 435
#     4  11  23  40  66 103 141 179 240 302 353 426
#     4  12  23  42  70 103 133 192 238 296 371 417
#     4  11  26  47  68 105 145 189 238 297 368 428
#
# _framework density 26.700341000000002
#
# number of rings (size 3 to 8) (size 9 to 14) (size 15 to 20)
#    0.000    0.667    6.667    0.500    2.333    2.000 
#    6.000    0.833    0.000    0.000    0.000    0.000 
#    0.000    0.000    0.000    0.000    0.000    0.000 
#
# Total GULP energy -134108.493938 kJ/mol
# GULP energy per Si atom -5587.853914 kJ/mol
# Density = 2.663957 g / cm^3
# Si number density = 26.700341 Si / 1000 Ang^3
#
#
#
# Elastic Constant Matrix: (Units=GPa)
#
#
# Indices 1 2 3 4 5 6 
#
# 1 107.5535 48.3882 33.7580 0.0000 -16.7130 0.0000
# 2 48.3882 126.7757 44.3707 0.0000 -1.7501 0.0000
# 3 33.7580 44.3707 221.3342 0.0000 -19.9734 0.0000
# 4 0.0000 0.0000 0.0000 20.1256 0.0000 0.3543
# 5 -16.7130 -1.7501 -19.9734 0.0000 50.1824 0.0000
# 6 0.0000 0.0000 0.0000 0.3543 0.0000 38.8473
#
#
#
# Elastic Compliance Matrix: (Units=1/GPa)
#
#
# Indices 1 2 3 4 5 6 
#
# 1 0.011993 -0.004303 -0.000643 0.000000 0.003588 0.000000
# 2 -0.004303 0.010035 -0.001507 0.000000 -0.001683 0.000000
# 3 -0.000643 -0.001507 0.005077 0.000000 0.001754 0.000000
# 4 0.000000 0.000000 0.000000 0.049696 0.000000 -0.000453
# 5 0.003588 -0.001683 0.001754 0.000000 0.021762 0.000000
# 6 0.000000 0.000000 0.000000 -0.000453 0.000000 0.025746
#
#
# Mechanical properties :
#
#
# Convention : Reuss Voigt Hill
#
# Bulk Modulus (GPa) = 70.43175 78.74415 74.58795
# Shear Modulus (GPa) = 35.22458 43.77416 39.49937
#
# Velocity S-wave (km/s) = 3.63610 4.05342 3.85042
# Velocity P-wave (km/s) = 6.63808 7.17376 6.91111
#
# Compressibility (1/GPa) = 0.01419814
#
# Stress axis : x y z
#
# Youngs Moduli (GPa) = 83.38225 99.65497 196.98574
#
# Poissons Ratio (x) = 0.42882 0.12661
# Poissons Ratio (y) = 0.35880 0.29690
# Poissons Ratio (z) = 0.05359 0.15020
#
# Static dielectric constant tensor:
#      x y z
#    x 2.105930 0.000000 0.145570 
#    y 0.000000 2.908780 0.000000 
#    z 0.145570 0.000000 2.258030 
# 
# From -- ./inp_files/70619.got.cif
#   From: 2010.05.17/outbox.cif.g08.bks.cpg/sg13_36_cif.got.tgz:70619.got - 2010.06.03 16:44:36.
