data_PCOD9237275
_publ_section_title
;
Structure prediction by ZEFSAII (Michael W. Deem and Ramdas Pophale) SiO2 
 PCOD9237275
Probable space group: P 2/C
;
_chemical_formula_sum "Si O2"
_cell_formula_units_Z 24
_cell_length_a 23.085962
_cell_length_b 10.889500
_cell_length_c 23.587414
_cell_angle_alpha 90.000000
_cell_angle_beta 12.393381
_cell_angle_gamma 90.000000
_cell_volume 1272.657348
_symmetry_space_group_name_H-M "P 2/C"
_symmetry_group_IT_number 13
_symmetry_cell_setting 'monoclinic'
loop_
_space_group_symop_operation_xyz
x,y,z
-x,y,1/2-z
-x,-y,-z
x,-y,1/2+z
loop_
_atom_site_type_symbol
_atom_site_label
_atom_site_fract_x
_atom_site_fract_y
_atom_site_fract_z
Si Si1 0.289730 0.514389 0.752630
Si Si2 0.142283 0.923600 0.232508
Si Si3 0.514736 0.268567 0.887309
Si Si4 0.720884 0.878674 0.991154
Si Si5 0.073533 0.150891 0.381461
Si Si6 0.697974 0.789766 0.716336
O O1 0.500000 0.500000 0.500000
O O2 0.365948 0.404587 0.722677
O O3 0.296984 0.644711 0.777303
O O4 0.000000 0.500000 0.000000
O O5 0.873390 0.842970 0.496724
O O6 0.188579 0.001738 0.131317
O O7 0.135778 0.027943 0.287445
O O8 0.395237 0.836283 0.000593
O O9 0.758765 0.182567 0.676494
O O10 0.418680 0.216688 0.918871
O O11 0.257376 0.253141 0.174396
O O12 0.000000 0.827552 0.750000
O O13 0.500000 0.907890 0.250000
O O14 0.168511 0.151061 0.354986
#
# Coordination Sequence:
#
# PCOD9237275 Si02
#       6
#     4   4   4   4   4   4
#     4  12  22  38  58  86 130 171 197 228 284 371
#     4  11  23  36  56  91 116 156 201 245 301 360
#     4  11  21  38  60  91 116 159 208 243 289 351
#     4  11  23  42  65  85 112 150 204 272 314 339
#     4  11  20  35  57  85 130 158 193 237 284 364
#     4  12  21  35  57  86 132 164 190 225 297 365
#
# _framework density 18.858179
#
# number of rings (size 3 to 8) (size 9 to 14) (size 15 to 20)
#    0.000    0.667    3.333    8.000    0.000    0.000 
#    0.000    0.000    0.000    4.000    0.000    2.333 
#    0.000    0.000    0.000    0.000    0.000    0.000 
#
# Total GULP energy -134148.299438 kJ/mol
# GULP energy per Si atom -5589.512477 kJ/mol
# Density = 1.881526 g / cm^3
# Si number density = 18.858179 Si / 1000 Ang^3
#
#
#
# Elastic Constant Matrix: (Units=GPa)
#
#
# Indices 1 2 3 4 5 6 
#
# 1 48.2138 6.0231 4.7638 0.0000 18.6412 0.0000
# 2 6.0231 102.8305 16.2699 0.0000 12.9887 0.0000
# 3 4.7638 16.2699 78.3019 0.0000 10.0339 0.0000
# 4 0.0000 0.0000 0.0000 28.6977 0.0000 -3.1143
# 5 18.6412 12.9887 10.0339 0.0000 34.8792 0.0000
# 6 0.0000 0.0000 0.0000 -3.1143 0.0000 7.5142
#
#
#
# Elastic Compliance Matrix: (Units=1/GPa)
#
#
# Indices 1 2 3 4 5 6 
#
# 1 0.026151 0.000223 0.000171 0.000000 -0.014109 0.000000
# 2 0.000223 0.010428 -0.001731 0.000000 -0.003505 0.000000
# 3 0.000171 -0.001731 0.013549 0.000000 -0.003344 0.000000
# 4 0.000000 0.000000 0.000000 0.036487 0.000000 0.015122
# 5 -0.014109 -0.003505 -0.003344 0.000000 0.038478 0.000000
# 6 0.000000 0.000000 0.000000 0.015122 0.000000 0.139349
#
#
# Mechanical properties :
#
#
# Convention : Reuss Voigt Hill
#
# Bulk Modulus (GPa) = 21.07323 31.49553 26.28438
# Shear Modulus (GPa) = 17.67186 27.70417 22.68801
#
# Velocity S-wave (km/s) = 3.06452 3.83702 3.47232
# Velocity P-wave (km/s) = 4.87037 6.03057 5.48125
#
# Compressibility (1/GPa) = 0.04745357
#
# Stress axis : x y z
#
# Youngs Moduli (GPa) = 38.23919 95.89311 73.80637
#
# Poissons Ratio (x) = -0.02142 -0.01259
# Poissons Ratio (y) = -0.00854 0.12778
# Poissons Ratio (z) = -0.00652 0.16602
#
# Static dielectric constant tensor:
#      x y z
#    x 1.663290 0.000000 0.038560 
#    y 0.000000 1.696390 0.000000 
#    z 0.038560 0.000000 1.698910 
# 
# From -- ./inp_files/89077.got.cif
#   From: 2010.05.17/outbox.cif.g08.bks.cpg/sg13_45_cif.got.tgz:89077.got - 2010.06.03 16:44:36.
