data_PCOD9237229
_publ_section_title
;
Structure prediction by ZEFSAII (Michael W. Deem and Ramdas Pophale) SiO2 
 PCOD9237229
Probable space group: P 2/C
;
_chemical_formula_sum "Si O2"
_cell_formula_units_Z 28
_cell_length_a 27.043524
_cell_length_b 8.233641
_cell_length_c 8.293469
_cell_angle_alpha 90.000000
_cell_angle_beta 140.571682
_cell_angle_gamma 90.000000
_cell_volume 1172.848714
_symmetry_space_group_name_H-M "P 2/C"
_symmetry_group_IT_number 13
_symmetry_cell_setting 'monoclinic'
loop_
_space_group_symop_operation_xyz
x,y,z
-x,y,1/2-z
-x,-y,-z
x,-y,1/2+z
loop_
_atom_site_type_symbol
_atom_site_label
_atom_site_fract_x
_atom_site_fract_y
_atom_site_fract_z
Si Si1 0.178742 0.553067 0.823191
Si Si2 0.792147 0.050570 0.603665
Si Si3 0.648067 0.169173 0.688064
Si Si4 0.554885 0.893120 0.254555
Si Si5 0.963113 0.662879 0.484874
Si Si6 0.731238 0.653839 0.152995
Si Si7 0.885133 0.154436 0.541293
O O1 0.125343 0.394194 0.704791
O O2 0.259463 0.496826 0.943917
O O3 0.132616 0.682695 0.602171
O O4 0.197042 0.620527 0.044800
O O5 0.746275 0.183314 0.590642
O O6 0.814049 0.115051 0.483853
O O7 0.734872 0.896766 0.444233
O O8 0.873631 0.994346 0.890201
O O9 0.606045 0.203124 0.752052
O O10 0.657560 0.312389 0.581049
O O11 0.606958 0.019327 0.489668
O O12 0.500000 0.807034 0.250000
O O13 0.500000 0.000000 0.000000
O O14 0.959067 0.803058 0.338963
O O15 0.000000 0.500000 0.500000
O O16 0.000000 0.701649 0.750000
#
# Coordination Sequence:
#
# PCOD9237229 Si02
#       7
#     4   4   4   4   4   4   4
#     4  12  23  41  64  90 123 159 209 258 315 377
#     4  12  22  38  64  94 131 153 192 271 338 358
#     4  11  19  34  61  94 127 159 198 249 316 359
#     4   9  19  34  54  90 134 166 202 242 289 357
#     4  12  24  42  66  84 113 165 216 250 297 388
#     4  12  22  38  62  94 129 157 200 259 326 364
#     4  12  23  41  64  90 126 159 200 262 327 365
#
# _framework density 23.873497
#
# number of rings (size 3 to 8) (size 9 to 14) (size 15 to 20)
#    0.000    0.571    8.571    0.000    0.000    0.000 
#    0.000    0.714    0.000    0.000    0.000   13.000 
#    0.000    0.000    0.000    0.000    0.000    0.000 
#
# Total GULP energy -156421.981559 kJ/mol
# GULP energy per Si atom -5586.499341 kJ/mol
# Density = 2.381916 g / cm^3
# Si number density = 23.873497 Si / 1000 Ang^3
#
#
#
# Elastic Constant Matrix: (Units=GPa)
#
#
# Indices 1 2 3 4 5 6 
#
# 1 125.6646 9.9098 -15.4517 0.0000 -6.6384 0.0000
# 2 9.9098 27.9350 0.4298 0.0000 -7.1389 0.0000
# 3 -15.4517 0.4298 80.6103 0.0000 -17.1815 0.0000
# 4 0.0000 0.0000 0.0000 22.4468 0.0000 -10.9778
# 5 -6.6384 -7.1389 -17.1815 0.0000 35.7658 0.0000
# 6 0.0000 0.0000 0.0000 -10.9778 0.0000 35.4912
#
#
#
# Elastic Compliance Matrix: (Units=1/GPa)
#
#
# Indices 1 2 3 4 5 6 
#
# 1 0.008524 -0.002524 0.002091 0.000000 0.002083 0.000000
# 2 -0.002524 0.038647 0.000952 0.000000 0.007703 0.000000
# 3 0.002091 0.000952 0.014399 0.000000 0.007495 0.000000
# 4 0.000000 0.000000 0.000000 0.052490 0.000000 0.016236
# 5 0.002083 0.007703 0.007495 0.000000 0.033484 0.000000
# 6 0.000000 0.000000 0.000000 0.016236 0.000000 0.033198
#
#
# Mechanical properties :
#
#
# Convention : Reuss Voigt Hill
#
# Bulk Modulus (GPa) = 15.97229 24.88730 20.42980
# Shear Modulus (GPa) = 24.92875 34.69556 29.81216
#
# Velocity S-wave (km/s) = 3.23492 3.81636 3.53761
# Velocity P-wave (km/s) = 4.54509 5.46505 5.02616
#
# Compressibility (1/GPa) = 0.06260841
#
# Stress axis : x y z
#
# Youngs Moduli (GPa) = 117.31729 25.87555 69.45066
#
# Poissons Ratio (x) = 0.06530 -0.14524
# Poissons Ratio (y) = 0.29607 -0.06612
# Poissons Ratio (z) = -0.24535 -0.02463
#
# Static dielectric constant tensor:
#      x y z
#    x 1.988590 0.000000 0.038620 
#    y 0.000000 2.069900 0.000000 
#    z 0.038620 0.000000 1.934900 
# 
# From -- ./inp_files/24887.got.cif
#   From: 2010.05.17/outbox.cif.g08.bks.cpg/sg13_13_cif.got.tgz:24887.got - 2010.06.03 16:44:36.
