data_PCOD9237694
_publ_section_title
;
Structure prediction by ZEFSAII (Michael W. Deem and Ramdas Pophale) SiO2 
 PCOD9237694
Probable space group: P 2/C
;
_chemical_formula_sum "Si O2"
_cell_formula_units_Z 32
_cell_length_a 11.175760
_cell_length_b 8.014608
_cell_length_c 16.159440
_cell_angle_alpha 90.000000
_cell_angle_beta 91.080056
_cell_angle_gamma 90.000000
_cell_volume 1447.133151
_symmetry_space_group_name_H-M "P 2/C"
_symmetry_group_IT_number 13
_symmetry_cell_setting 'monoclinic'
loop_
_space_group_symop_operation_xyz
x,y,z
-x,y,1/2-z
-x,-y,-z
x,-y,1/2+z
loop_
_atom_site_type_symbol
_atom_site_label
_atom_site_fract_x
_atom_site_fract_y
_atom_site_fract_z
Si Si1 0.256140 0.865580 0.159047
Si Si2 0.710242 0.190110 0.534974
Si Si3 0.062868 0.668451 0.528403
Si Si4 0.323233 0.702393 0.835309
Si Si5 0.621894 0.322376 0.702050
Si Si6 0.875926 0.192161 0.298911
Si Si7 0.461657 0.912535 0.587453
Si Si8 0.816837 0.182655 0.015213
O O1 0.274169 0.750012 0.237960
O O2 0.154837 0.006260 0.169273
O O3 0.379282 0.965165 0.140241
O O4 0.224757 0.764614 0.076246
O O5 0.828043 0.300223 0.531741
O O6 0.634753 0.224558 0.615932
O O7 0.630071 0.222620 0.452618
O O8 0.762001 0.001562 0.529799
O O9 0.110796 0.685150 0.622671
O O10 0.000000 0.500000 0.500000
O O11 0.958919 0.807966 0.522378
O O12 0.367531 0.518109 0.815586
O O13 0.236517 0.764441 0.761162
O O14 0.433103 0.826352 0.859554
O O15 0.241232 0.702397 0.915976
O O16 0.500000 0.293974 0.750000
O O17 0.000000 0.194894 0.250000
O O18 0.500000 0.000000 0.500000
#
# Coordination Sequence:
#
# PCOD9237694 Si02
#       8
#     4   4   4   4   4   4   4   4
#     4  11  26  46  76 108 148 196 268 313 379 469
#     4  11  24  48  76 107 148 200 268 307 384 467
#     4  12  26  47  77 112 155 199 250 324 391 459
#     4  12  27  47  73 109 162 196 249 325 395 458
#     4  12  30  46  69 115 158 201 251 329 397 447
#     4  12  27  48  77 114 151 202 259 320 388 464
#     4  11  22  46  78 108 138 207 256 312 374 471
#     4  11  23  48  78 106 146 205 262 311 383 471
#
# _framework density 22.112687000000001
#
# number of rings (size 3 to 8) (size 9 to 14) (size 15 to 20)
#    0.000    0.500    6.250    2.625    5.250    0.500 
#    0.000    0.625    0.000    0.000    0.000    0.000 
#    0.000    0.000    0.000    0.000    0.000    0.000 
#
# Total GULP energy -178994.136673 kJ/mol
# GULP energy per Si atom -5593.566771 kJ/mol
# Density = 2.206236 g / cm^3
# Si number density = 22.112687 Si / 1000 Ang^3
#
#
#
# Elastic Constant Matrix: (Units=GPa)
#
#
# Indices 1 2 3 4 5 6 
#
# 1 129.0533 35.2579 45.4834 0.0000 12.0778 0.0000
# 2 35.2579 70.2063 43.5736 0.0000 6.9798 0.0000
# 3 45.4834 43.5736 136.5735 0.0000 21.4475 0.0000
# 4 0.0000 0.0000 0.0000 31.3445 0.0000 -4.3700
# 5 12.0778 6.9798 21.4475 0.0000 47.7181 0.0000
# 6 0.0000 0.0000 0.0000 -4.3700 0.0000 32.9907
#
#
#
# Elastic Compliance Matrix: (Units=1/GPa)
#
#
# Indices 1 2 3 4 5 6 
#
# 1 0.009459 -0.003483 -0.001875 0.000000 -0.001042 0.000000
# 2 -0.003483 0.019043 -0.004967 0.000000 0.000329 0.000000
# 3 -0.001875 -0.004967 0.010052 0.000000 -0.003317 0.000000
# 4 0.000000 0.000000 0.000000 0.032504 0.000000 0.004305
# 5 -0.001042 0.000329 -0.003317 0.000000 0.022663 0.000000
# 6 0.000000 0.000000 0.000000 0.004305 0.000000 0.030882
#
#
# Mechanical properties :
#
#
# Convention : Reuss Voigt Hill
#
# Bulk Modulus (GPa) = 55.85581 64.94030 60.39805
# Shear Modulus (GPa) = 33.06415 36.51189 34.78802
#
# Velocity S-wave (km/s) = 3.87105 4.06787 3.97068
# Velocity P-wave (km/s) = 6.73012 7.17601 6.95664
#
# Compressibility (1/GPa) = 0.01790324
#
# Stress axis : x y z
#
# Youngs Moduli (GPa) = 105.72340 52.51237 99.47928
#
# Poissons Ratio (x) = 0.18288 0.18655
# Poissons Ratio (y) = 0.36820 0.49416
# Poissons Ratio (z) = 0.19826 0.26085
#
# Static dielectric constant tensor:
#      x y z
#    x 1.852590 0.000000 0.005910 
#    y 0.000000 1.836750 0.000000 
#    z 0.005910 0.000000 1.816250 
# 
# From -- ./inp_files/50339.got.cif
#   From: 2010.05.17/outbox.cif.g08.bks.cpg/sg13_26_cif.got.tgz:50339.got - 2010.06.03 16:44:36.
