data_PCOD9237852
_publ_section_title
;
Structure prediction by ZEFSAII (Michael W. Deem and Ramdas Pophale) SiO2 
 PCOD9237852
Probable space group: P 2/C
;
_chemical_formula_sum "Si O2"
_cell_formula_units_Z 16
_cell_length_a 8.303334
_cell_length_b 18.052570
_cell_length_c 9.489575
_cell_angle_alpha 90.000000
_cell_angle_beta 30.978108
_cell_angle_gamma 90.000000
_cell_volume 732.152174
_symmetry_space_group_name_H-M "P 2/C"
_symmetry_group_IT_number 13
_symmetry_cell_setting 'monoclinic'
loop_
_space_group_symop_operation_xyz
x,y,z
-x,y,1/2-z
-x,-y,-z
x,-y,1/2+z
loop_
_atom_site_type_symbol
_atom_site_label
_atom_site_fract_x
_atom_site_fract_y
_atom_site_fract_z
Si Si1 0.122152 0.786555 0.310372
Si Si2 0.731602 0.291685 0.337308
Si Si3 0.624132 0.563472 0.509360
Si Si4 0.327725 0.943568 0.029652
O O1 0.226491 0.869969 0.192626
O O2 0.000000 0.756977 0.250000
O O3 0.864518 0.765704 0.619821
O O4 0.434315 0.747362 0.129251
O O5 0.573289 0.363021 0.383339
O O6 0.000000 0.309450 0.250000
O O7 0.500000 0.536710 0.750000
O O8 0.500000 0.500000 0.500000
O O9 0.000000 0.574225 0.250000
O O10 0.000000 0.983259 0.250000
O O11 0.500000 0.927453 0.750000
O O12 0.500000 0.000000 0.000000
#
# Coordination Sequence:
#
# PCOD9237852 Si02
#       4
#     4   4   4   4
#     4  11  23  43  66  93 132 180 225 276 341 408
#     4  12  25  42  66  99 133 175 228 281 337 405
#     4  12  26  46  72 102 140 181 225 284 346 410
#     4  11  24  43  68 100 138 180 229 287 348 413
#
# _framework density 21.853380999999999
#
# number of rings (size 3 to 8) (size 9 to 14) (size 15 to 20)
#    0.000    0.500    0.000   10.500    0.000    5.000 
#    0.000    0.000    0.000    0.000    0.000    0.000 
#    0.000    0.000    0.000    0.000    0.000    0.000 
#
# Total GULP energy -89272.598459 kJ/mol
# GULP energy per Si atom -5579.537404 kJ/mol
# Density = 2.180364 g / cm^3
# Si number density = 21.853381 Si / 1000 Ang^3
#
#
#
# Elastic Constant Matrix: (Units=GPa)
#
#
# Indices 1 2 3 4 5 6 
#
# 1 182.5987 64.5571 51.7175 0.0000 -18.2327 0.0000
# 2 64.5571 118.4121 38.1267 0.0000 6.7458 0.0000
# 3 51.7175 38.1267 127.6828 0.0000 -0.1015 0.0000
# 4 0.0000 0.0000 0.0000 29.2605 0.0000 -14.1163
# 5 -18.2327 6.7458 -0.1015 0.0000 49.8638 0.0000
# 6 0.0000 0.0000 0.0000 -14.1163 0.0000 55.0603
#
#
#
# Elastic Compliance Matrix: (Units=1/GPa)
#
#
# Indices 1 2 3 4 5 6 
#
# 1 0.007696 -0.003742 -0.001997 0.000000 0.003316 0.000000
# 2 -0.003742 0.011244 -0.001844 0.000000 -0.002893 0.000000
# 3 -0.001997 -0.001844 0.009191 0.000000 -0.000462 0.000000
# 4 0.000000 0.000000 0.000000 0.038999 0.000000 0.009999
# 5 0.003316 -0.002893 -0.000462 0.000000 0.021658 0.000000
# 6 0.000000 0.000000 0.000000 0.009999 0.000000 0.020725
#
#
# Mechanical properties :
#
#
# Convention : Reuss Voigt Hill
#
# Bulk Modulus (GPa) = 77.13307 81.94404 79.53855
# Shear Modulus (GPa) = 38.75928 45.12309 41.94118
#
# Velocity S-wave (km/s) = 4.21599 4.54895 4.38563
# Velocity P-wave (km/s) = 7.68581 8.07274 7.88165
#
# Compressibility (1/GPa) = 0.01296461
#
# Stress axis : x y z
#
# Youngs Moduli (GPa) = 129.93420 88.93946 108.79911
#
# Poissons Ratio (x) = 0.33278 0.21732
# Poissons Ratio (y) = 0.48617 0.20064
# Poissons Ratio (z) = 0.25953 0.16402
#
# Static dielectric constant tensor:
#      x y z
#    x 2.059870 0.000000 -0.056490 
#    y 0.000000 1.864860 0.000000 
#    z -0.056490 0.000000 1.800550 
# 
# From -- ./inp_files/13367.got.cif
#   From: 2010.05.17/outbox.cif.g08.bks.cpg/sg13_7_cif.got.tgz:13367.got - 2010.06.03 16:44:36.
