data_PCOD9237682
_publ_section_title
;
Structure prediction by ZEFSAII (Michael W. Deem and Ramdas Pophale) SiO2 
 PCOD9237682
Probable space group: P 2/C
;
_chemical_formula_sum "Si O2"
_cell_formula_units_Z 18
_cell_length_a 5.804277
_cell_length_b 10.238968
_cell_length_c 13.119388
_cell_angle_alpha 90.000000
_cell_angle_beta 94.019393
_cell_angle_gamma 90.000000
_cell_volume 777.764969
_symmetry_space_group_name_H-M "P 2/C"
_symmetry_group_IT_number 13
_symmetry_cell_setting 'monoclinic'
loop_
_space_group_symop_operation_xyz
x,y,z
-x,y,1/2-z
-x,-y,-z
x,-y,1/2+z
loop_
_atom_site_type_symbol
_atom_site_label
_atom_site_fract_x
_atom_site_fract_y
_atom_site_fract_z
Si Si1 0.342100 0.993862 0.644851
Si Si2 0.000000 0.835209 0.250000
Si Si3 0.750172 0.320544 0.194040
Si Si4 0.669193 0.383556 0.657551
Si Si5 0.492948 0.206151 0.010448
O O1 0.500000 0.971902 0.750000
O O2 0.461934 0.100356 0.575570
O O3 0.119501 0.068161 0.675533
O O4 0.307370 0.862701 0.579037
O O5 0.157819 0.734952 0.316499
O O6 0.500000 0.317895 0.250000
O O7 0.773096 0.472291 0.161238
O O8 0.703122 0.230915 0.094364
O O9 0.000000 0.285063 0.250000
O O10 0.500000 0.378191 0.750000
O O11 0.558370 0.342066 0.546820
#
# Coordination Sequence:
#
# PCOD9237682 Si02
#       5
#     4   2   4   4   4
#     4  11  24  45  67 100 148 189 242 302 366 429
#     4  12  20  42  74 100 144 196 236 300 370 434
#     4  11  26  48  74 110 152 191 241 312 370 431
#     4  11  22  45  71 107 147 188 240 303 371 433
#     4  11  23  46  70 105 142 193 247 296 363 450
#
# _framework density 23.143236999999999
#
# number of rings (size 3 to 8) (size 9 to 14) (size 15 to 20)
#    0.000    0.889    5.556    1.333    0.000    2.667 
#    8.000    4.444    0.000    0.000    0.000    0.000 
#    0.000    0.000    0.000    0.000    0.000    0.000 
#
# Total GULP energy -100479.782137 kJ/mol
# GULP energy per Si atom -5582.210119 kJ/mol
# Density = 2.309056 g / cm^3
# Si number density = 23.143237 Si / 1000 Ang^3
#
#
#
# Elastic Constant Matrix: (Units=GPa)
#
#
# Indices 1 2 3 4 5 6 
#
# 1 68.5687 13.5454 36.7150 0.0000 6.1583 0.0000
# 2 13.5454 97.2394 42.5589 0.0000 -7.5700 0.0000
# 3 36.7150 42.5589 129.2398 0.0000 12.1996 0.0000
# 4 0.0000 0.0000 0.0000 35.9229 0.0000 6.2844
# 5 6.1583 -7.5700 12.1996 0.0000 36.7351 0.0000
# 6 0.0000 0.0000 0.0000 6.2844 0.0000 163.9629
#
#
#
# Elastic Compliance Matrix: (Units=1/GPa)
#
#
# Indices 1 2 3 4 5 6 
#
# 1 0.017281 -0.000507 -0.004603 0.000000 -0.001473 0.000000
# 2 -0.000507 0.012601 -0.004396 0.000000 0.004142 0.000000
# 3 -0.004603 -0.004396 0.010846 0.000000 -0.003736 0.000000
# 4 0.000000 0.000000 0.000000 0.028025 0.000000 -0.001074
# 5 -0.001473 0.004142 -0.003736 0.000000 0.029563 0.000000
# 6 0.000000 0.000000 0.000000 -0.001074 0.000000 0.006140
#
#
# Mechanical properties :
#
#
# Convention : Reuss Voigt Hill
#
# Bulk Modulus (GPa) = 46.05276 53.40958 49.73117
# Shear Modulus (GPa) = 38.25306 60.80609 49.52957
#
# Velocity S-wave (km/s) = 4.06998 5.13136 4.63117
# Velocity P-wave (km/s) = 6.48294 7.63123 7.08040
#
# Compressibility (1/GPa) = 0.02171423
#
# Stress axis : x y z
#
# Youngs Moduli (GPa) = 57.86634 79.35757 92.20236
#
# Poissons Ratio (x) = 0.04025 0.42443
# Poissons Ratio (y) = 0.02935 0.40537
# Poissons Ratio (z) = 0.26637 0.34889
#
# Static dielectric constant tensor:
#      x y z
#    x 3.681380 0.000000 -0.769120 
#    y 0.000000 1.846670 0.000000 
#    z -0.769120 0.000000 2.285440 
# 
# From -- ./inp_files/25809.got.cif
#   From: 2010.05.17/outbox.cif.g08.bks.cpg/sg13_13_cif.got.tgz:25809.got - 2010.06.03 16:44:36.
