data_PCOD9237378
_publ_section_title
;
Structure prediction by ZEFSAII (Michael W. Deem and Ramdas Pophale) SiO2 
 PCOD9237378
Probable space group: P 2/C
;
_chemical_formula_sum "Si O2"
_cell_formula_units_Z 16
_cell_length_a 5.046028
_cell_length_b 8.929780
_cell_length_c 19.538532
_cell_angle_alpha 90.000000
_cell_angle_beta 121.674804
_cell_angle_gamma 90.000000
_cell_volume 749.261458
_symmetry_space_group_name_H-M "P 2/C"
_symmetry_group_IT_number 13
_symmetry_cell_setting 'monoclinic'
loop_
_space_group_symop_operation_xyz
x,y,z
-x,y,1/2-z
-x,-y,-z
x,-y,1/2+z
loop_
_atom_site_type_symbol
_atom_site_label
_atom_site_fract_x
_atom_site_fract_y
_atom_site_fract_z
Si Si1 0.195941 0.596634 0.474880
Si Si2 0.713805 0.095291 0.432633
Si Si3 0.971417 0.858454 0.664947
Si Si4 0.127518 0.489418 0.194945
O O1 0.500000 0.500000 0.500000
O O2 0.259653 0.747975 0.523687
O O3 0.000000 0.500000 0.500000
O O4 0.988964 0.603388 0.378494
O O5 0.352739 0.058621 0.397667
O O6 0.773792 0.102656 0.358525
O O7 0.000000 0.000000 0.500000
O O8 0.000000 0.889185 0.750000
O O9 0.974748 0.675373 0.661175
O O10 0.500000 0.471458 0.250000
O O11 0.000000 0.542004 0.250000
#
# Coordination Sequence:
#
# PCOD9237378 Si02
#       4
#     4   4   4   4
#     4  12  22  40  63  93 128 167 215 271 335 384
#     4  12  24  42  64  97 131 175 221 271 329 406
#     4  11  22  40  66  93 127 168 223 274 329 394
#     4  11  21  36  62  94 128 163 219 276 334 386
#
# _framework density 21.354364
#
# number of rings (size 3 to 8) (size 9 to 14) (size 15 to 20)
#    0.000    0.500    5.000    6.000    0.000    0.000 
#    0.000    3.750    0.000    0.000    0.000    0.000 
#    0.000    0.000    0.000    0.000    0.000    0.000 
#
# Total GULP energy -89278.159362 kJ/mol
# GULP energy per Si atom -5579.884960 kJ/mol
# Density = 2.130576 g / cm^3
# Si number density = 21.354364 Si / 1000 Ang^3
#
#
#
# Elastic Constant Matrix: (Units=GPa)
#
#
# Indices 1 2 3 4 5 6 
#
# 1 178.0531 25.1870 47.7287 0.0000 -2.2214 0.0000
# 2 25.1870 27.9210 0.0688 0.0000 8.1258 0.0000
# 3 47.7287 0.0688 89.7645 0.0000 -7.6060 0.0000
# 4 0.0000 0.0000 0.0000 -1.3767 0.0000 -31.1287
# 5 -2.2214 8.1258 -7.6060 0.0000 54.2108 0.0000
# 6 0.0000 0.0000 0.0000 -31.1287 0.0000 -30.0900
#
#
#
# Elastic Compliance Matrix: (Units=1/GPa)
#
#
# Indices 1 2 3 4 5 6 
#
# 1 0.007726 -0.007201 -0.004032 0.000000 0.000830 0.000000
# 2 -0.007201 0.044184 0.003248 0.000000 -0.006462 0.000000
# 3 -0.004032 0.003248 0.013386 0.000000 0.001226 0.000000
# 4 0.000000 0.000000 0.000000 0.032439 0.000000 -0.033559
# 5 0.000830 -0.006462 0.001226 0.000000 0.019621 0.000000
# 6 0.000000 0.000000 0.000000 -0.033559 0.000000 0.001484
#
#
# Mechanical properties :
#
#
# Convention : Reuss Voigt Hill
#
# Bulk Modulus (GPa) = 20.27400 49.07860 34.67630
# Shear Modulus (GPa) = 33.05685 19.39910 26.22798
#
# Velocity S-wave (km/s) = 3.93875 3.01730 3.50841
# Velocity P-wave (km/s) = 5.49542 5.93057 5.71714
#
# Compressibility (1/GPa) = 0.04932427
#
# Stress axis : x y z
#
# Youngs Moduli (GPa) = 129.42909 22.63242 74.70691
#
# Poissons Ratio (x) = 0.16299 0.30124
# Poissons Ratio (y) = 0.93207 -0.24262
# Poissons Ratio (z) = 0.52189 -0.07350
#
# Static dielectric constant tensor:
#      x y z
#    x 1.727070 0.000000 0.015760 
#    y 0.000000 1.724490 0.000000 
#    z 0.015760 0.000000 1.775440 
# 
# From -- ./inp_files/60795.got.cif
#   From: 2010.05.17/outbox.cif.g08.bks.cpg/sg13_31_cif.got.tgz:60795.got - 2010.06.03 16:44:36.
