data_PCOD9237810
_publ_section_title
;
Structure prediction by ZEFSAII (Michael W. Deem and Ramdas Pophale) SiO2 
 PCOD9237810
Probable space group: P 2/C
;
_chemical_formula_sum "Si O2"
_cell_formula_units_Z 16
_cell_length_a 4.913124
_cell_length_b 8.468078
_cell_length_c 19.017827
_cell_angle_alpha 90.000000
_cell_angle_beta 67.737889
_cell_angle_gamma 90.000000
_cell_volume 732.253286
_symmetry_space_group_name_H-M "P 2/C"
_symmetry_group_IT_number 13
_symmetry_cell_setting 'monoclinic'
loop_
_space_group_symop_operation_xyz
x,y,z
-x,y,1/2-z
-x,-y,-z
x,-y,1/2+z
loop_
_atom_site_type_symbol
_atom_site_label
_atom_site_fract_x
_atom_site_fract_y
_atom_site_fract_z
Si Si1 0.314884 0.635483 0.197981
Si Si2 0.321079 0.441696 0.449857
Si Si3 0.769267 0.983537 0.333586
Si Si4 0.860599 0.094289 0.078574
O O1 0.500000 0.679571 0.250000
O O2 0.518876 0.523038 0.131820
O O3 0.225881 0.792197 0.162271
O O4 0.000000 0.561039 0.250000
O O5 0.500000 0.500000 0.500000
O O6 0.262344 0.259608 0.437380
O O7 0.000000 0.500000 0.500000
O O8 0.000000 0.023748 0.250000
O O9 0.425327 0.016595 0.357309
O O10 0.882504 0.083278 0.388926
O O11 0.000000 0.000000 0.000000
#
# Coordination Sequence:
#
# PCOD9237810 Si02
#       4
#     4   4   4   4
#     4  11  23  42  67  96 132 177 222 274 336 403
#     4  12  25  43  65  95 133 174 220 275 332 397
#     4  11  23  42  65  94 128 169 217 271 329 392
#     4  12  24  41  66  95 129 172 220 274 327 390
#
# _framework density 21.850360999999999
#
# number of rings (size 3 to 8) (size 9 to 14) (size 15 to 20)
#    0.000    0.500    0.000   10.500    0.000    3.000 
#    0.000    0.000    0.000    0.000    0.000    0.000 
#    0.000    0.000    0.000    0.000    0.000    0.000 
#
# Total GULP energy -89373.200057 kJ/mol
# GULP energy per Si atom -5585.825004 kJ/mol
# Density = 2.180063 g / cm^3
# Si number density = 21.850361 Si / 1000 Ang^3
#
#
#
# Elastic Constant Matrix: (Units=GPa)
#
#
# Indices 1 2 3 4 5 6 
#
# 1 155.8440 29.2310 40.6297 0.0000 -14.2013 0.0000
# 2 29.2310 126.1661 70.2728 0.0000 -0.1263 0.0000
# 3 40.6297 70.2728 105.5465 0.0000 -23.7681 0.0000
# 4 0.0000 0.0000 0.0000 34.0022 0.0000 -11.2044
# 5 -14.2013 -0.1263 -23.7681 0.0000 61.9696 0.0000
# 6 0.0000 0.0000 0.0000 -11.2044 0.0000 38.4717
#
#
#
# Elastic Compliance Matrix: (Units=1/GPa)
#
#
# Indices 1 2 3 4 5 6 
#
# 1 0.007164 -0.000342 -0.002365 0.000000 0.000734 0.000000
# 2 -0.000342 0.013345 -0.009594 0.000000 -0.003731 0.000000
# 3 -0.002365 -0.009594 0.018220 0.000000 0.006426 0.000000
# 4 0.000000 0.000000 0.000000 0.032532 0.000000 0.009475
# 5 0.000734 -0.003731 0.006426 0.000000 0.018762 0.000000
# 6 0.000000 0.000000 0.000000 0.009475 0.000000 0.028753
#
#
# Mechanical properties :
#
#
# Convention : Reuss Voigt Hill
#
# Bulk Modulus (GPa) = 70.78206 74.20264 72.49235
# Shear Modulus (GPa) = 33.76419 43.38356 38.57388
#
# Velocity S-wave (km/s) = 3.93523 4.46071 4.20618
# Velocity P-wave (km/s) = 7.28782 7.78227 7.53910
#
# Compressibility (1/GPa) = 0.01412787
#
# Stress axis : x y z
#
# Youngs Moduli (GPa) = 139.58206 74.93400 54.88624
#
# Poissons Ratio (x) = 0.02562 0.12980
# Poissons Ratio (y) = 0.04772 0.52656
# Poissons Ratio (z) = 0.33010 0.71889
#
# Static dielectric constant tensor:
#      x y z
#    x 1.780280 0.000000 -0.047320 
#    y 0.000000 3.038810 0.000000 
#    z -0.047320 0.000000 1.952480 
# 
# From -- ./inp_files/60301.got.cif
#   From: 2010.05.17/outbox.cif.g08.bks.cpg/sg13_31_cif.got.tgz:60301.got - 2010.06.03 16:44:36.
