data_PCOD9237582
_publ_section_title
;
Structure prediction by ZEFSAII (Michael W. Deem and Ramdas Pophale) SiO2 
 PCOD9237582
Probable space group: P 2/C
;
_chemical_formula_sum "Si O2"
_cell_formula_units_Z 30
_cell_length_a 15.075993
_cell_length_b 8.401882
_cell_length_c 22.206572
_cell_angle_alpha 90.000000
_cell_angle_beta 30.453535
_cell_angle_gamma 90.000000
_cell_volume 1425.654969
_symmetry_space_group_name_H-M "P 2/C"
_symmetry_group_IT_number 13
_symmetry_cell_setting 'monoclinic'
loop_
_space_group_symop_operation_xyz
x,y,z
-x,y,1/2-z
-x,-y,-z
x,-y,1/2+z
loop_
_atom_site_type_symbol
_atom_site_label
_atom_site_fract_x
_atom_site_fract_y
_atom_site_fract_z
Si Si1 0.948039 0.123701 0.913581
Si Si2 0.581056 0.196438 0.599832
Si Si3 0.921908 0.775378 0.970145
Si Si4 0.618822 0.157350 0.445588
Si Si5 0.575715 0.832678 0.639739
Si Si6 0.221659 0.319218 0.822324
Si Si7 0.699101 0.342777 0.281706
Si Si8 0.000000 0.988559 0.750000
O O1 0.964665 0.081387 0.833266
O O2 0.124567 0.201400 0.833486
O O3 0.774720 0.230187 0.024164
O O4 0.914056 0.967996 0.975308
O O5 0.760051 0.267050 0.521213
O O6 0.553903 0.233165 0.545746
O O7 0.408854 0.253927 0.734307
O O8 0.587436 0.005004 0.601113
O O9 0.896087 0.686587 0.048537
O O10 0.112502 0.741819 0.832907
O O11 0.621823 0.287777 0.391064
O O12 0.500000 0.000000 0.500000
O O13 0.820132 0.105851 0.341594
O O14 0.500000 0.857686 0.750000
O O15 0.440832 0.724159 0.683565
O O16 0.256820 0.479981 0.765548
#
# Coordination Sequence:
#
# PCOD9237582 Si02
#       8
#     4   4   4   4   4   4   4   2
#     4  11  22  41  69  97 123 173 230 283 320 388
#     4  11  22  41  67  95 123 173 228 278 323 387
#     4  11  22  43  67  92 130 176 226 273 323 395
#     4  12  21  42  69  93 128 168 228 280 322 395
#     4  11  22  40  65  96 126 171 229 277 326 388
#     4  12  26  40  62  99 140 172 213 270 348 407
#     4  12  25  41  64  97 136 178 212 270 348 405
#     4  12  20  42  68  96 120 162 232 280 326 372
#
# _framework density 21.042960999999998
#
# number of rings (size 3 to 8) (size 9 to 14) (size 15 to 20)
#    0.000    0.533    5.333    5.200    0.000    2.667 
#    0.000    2.000    0.000    0.000    0.000    0.000 
#    0.000    0.000    0.000    0.000    0.000    0.000 
#
# Total GULP energy -167535.974613 kJ/mol
# GULP energy per Si atom -5584.532487 kJ/mol
# Density = 2.099507 g / cm^3
# Si number density = 21.042961 Si / 1000 Ang^3
#
#
#
# Elastic Constant Matrix: (Units=GPa)
#
#
# Indices 1 2 3 4 5 6 
#
# 1 113.1356 33.2723 24.7766 0.0000 11.2001 0.0000
# 2 33.2723 59.4998 4.5977 0.0000 0.3725 0.0000
# 3 24.7766 4.5977 84.8353 0.0000 -6.2691 0.0000
# 4 0.0000 0.0000 0.0000 2.6704 0.0000 36.9119
# 5 11.2001 0.3725 -6.2691 0.0000 61.3565 0.0000
# 6 0.0000 0.0000 0.0000 36.9119 0.0000 -41.9313
#
#
#
# Elastic Compliance Matrix: (Units=1/GPa)
#
#
# Indices 1 2 3 4 5 6 
#
# 1 0.011619 -0.006232 -0.003234 0.000000 -0.002414 0.000000
# 2 -0.006232 0.020223 0.000805 0.000000 0.001097 0.000000
# 3 -0.003234 0.000805 0.012829 0.000000 0.001896 0.000000
# 4 0.000000 0.000000 0.000000 0.028438 0.000000 0.025034
# 5 -0.002414 0.001097 0.001896 0.000000 0.016926 0.000000
# 6 0.000000 0.000000 0.000000 0.025034 0.000000 -0.001811
#
#
# Mechanical properties :
#
#
# Convention : Reuss Voigt Hill
#
# Bulk Modulus (GPa) = 36.56540 42.52932 39.54736
# Shear Modulus (GPa) = 43.60657 17.40739 30.50698
#
# Velocity S-wave (km/s) = 4.55715 2.87928 3.81169
# Velocity P-wave (km/s) = 6.71598 5.59538 6.18113
#
# Compressibility (1/GPa) = 0.02734826
#
# Stress axis : x y z
#
# Youngs Moduli (GPa) = 86.06583 49.44910 77.95127
#
# Poissons Ratio (x) = 0.30818 0.25209
# Poissons Ratio (y) = 0.53639 -0.06277
# Poissons Ratio (z) = 0.27834 -0.03982
#
# Static dielectric constant tensor:
#      x y z
#    x 1.772380 0.000000 0.008470 
#    y 0.000000 1.763710 0.000000 
#    z 0.008470 0.000000 1.811100 
# 
# From -- ./inp_files/87271.got.cif
#   From: 2010.05.17/outbox.cif.g08.bks.cpg/sg13_44_cif.got.tgz:87271.got - 2010.06.03 16:44:36.
