data_PCOD9237190
_publ_section_title
;
Structure prediction by ZEFSAII (Michael W. Deem and Ramdas Pophale) SiO2 
 PCOD9237190
Probable space group: P 2/C
;
_chemical_formula_sum "Si O2"
_cell_formula_units_Z 22
_cell_length_a 10.613574
_cell_length_b 8.883936
_cell_length_c 11.145821
_cell_angle_alpha 90.000000
_cell_angle_beta 114.819184
_cell_angle_gamma 90.000000
_cell_volume 953.874683
_symmetry_space_group_name_H-M "P 2/C"
_symmetry_group_IT_number 13
_symmetry_cell_setting 'monoclinic'
loop_
_space_group_symop_operation_xyz
x,y,z
-x,y,1/2-z
-x,-y,-z
x,-y,1/2+z
loop_
_atom_site_type_symbol
_atom_site_label
_atom_site_fract_x
_atom_site_fract_y
_atom_site_fract_z
Si Si1 0.554090 0.156504 0.584462
Si Si2 0.333414 0.780325 0.706028
Si Si3 0.731925 0.725370 0.546567
Si Si4 0.240000 0.622747 0.467042
Si Si5 0.000000 0.184644 0.750000
Si Si6 0.798403 0.077790 0.866089
O O1 0.417999 0.243359 0.572088
O O2 0.631606 0.278565 0.532328
O O3 0.663532 0.120338 0.731570
O O4 0.500000 0.000000 0.500000
O O5 0.500000 0.792678 0.750000
O O6 0.289360 0.786720 0.827286
O O7 0.269610 0.631393 0.621053
O O8 0.248647 0.914565 0.607705
O O9 0.762988 0.550500 0.569070
O O10 0.828174 0.816201 0.492285
O O11 0.106883 0.707215 0.362147
O O12 0.921807 0.086964 0.819505
#
# Coordination Sequence:
#
# PCOD9237190 Si02
#       6
#     4   4   4   4   2   4
#     4  11  20  43  72 105 146 181 232 301 363 426
#     4  12  25  44  75 112 149 174 235 308 368 435
#     4  12  25  42  73 111 138 188 232 297 382 415
#     4  11  26  45  70 103 149 191 239 295 358 431
#     4  10  28  52  70  92 150 198 256 290 338 426
#     4  11  25  45  72 102 141 195 239 294 358 423
#
# _framework density 23.063828000000001
#
# number of rings (size 3 to 8) (size 9 to 14) (size 15 to 20)
#    0.000    0.727    3.636    3.273    7.636    1.455 
#    0.000    0.000    0.000    0.000    0.000    0.000 
#    0.000    0.000    0.000    0.000    0.000    0.000 
#
# Total GULP energy -122899.316021 kJ/mol
# GULP energy per Si atom -5586.332546 kJ/mol
# Density = 2.301133 g / cm^3
# Si number density = 23.063828 Si / 1000 Ang^3
#
#
#
# Elastic Constant Matrix: (Units=GPa)
#
#
# Indices 1 2 3 4 5 6 
#
# 1 110.0949 26.0982 35.4412 0.0000 -13.5201 0.0000
# 2 26.0982 106.6822 34.9203 0.0000 -2.4315 0.0000
# 3 35.4412 34.9203 87.3927 0.0000 -29.2777 0.0000
# 4 0.0000 0.0000 0.0000 23.8783 0.0000 -8.3984
# 5 -13.5201 -2.4315 -29.2777 0.0000 38.4075 0.0000
# 6 0.0000 0.0000 0.0000 -8.3984 0.0000 24.1937
#
#
#
# Elastic Compliance Matrix: (Units=1/GPa)
#
#
# Indices 1 2 3 4 5 6 
#
# 1 0.010650 -0.001480 -0.003362 0.000000 0.001093 0.000000
# 2 -0.001480 0.011351 -0.005196 0.000000 -0.003763 0.000000
# 3 -0.003362 -0.005196 0.019306 0.000000 0.013204 0.000000
# 4 0.000000 0.000000 0.000000 0.047703 0.000000 0.016559
# 5 0.001093 -0.003763 0.013204 0.000000 0.036249 0.000000
# 6 0.000000 0.000000 0.000000 0.016559 0.000000 0.047081
#
#
# Mechanical properties :
#
#
# Convention : Reuss Voigt Hill
#
# Bulk Modulus (GPa) = 47.10037 55.23215 51.16626
# Shear Modulus (GPa) = 25.06361 31.14324 28.10343
#
# Velocity S-wave (km/s) = 3.30010 3.67864 3.49450
# Velocity P-wave (km/s) = 5.91498 6.48403 6.20603
#
# Compressibility (1/GPa) = 0.02123126
#
# Stress axis : x y z
#
# Youngs Moduli (GPa) = 93.89414 88.09959 51.79820
#
# Poissons Ratio (x) = 0.13041 0.17412
# Poissons Ratio (y) = 0.13898 0.26915
# Poissons Ratio (z) = 0.31563 0.45777
#
# Static dielectric constant tensor:
#      x y z
#    x 1.928290 0.000000 -0.079240 
#    y 0.000000 1.872370 0.000000 
#    z -0.079240 0.000000 1.988160 
# 
# From -- ./inp_files/32704.got.cif
#   From: 2010.05.17/outbox.cif.g08.bks.cpg/sg13_17_cif.got.tgz:32704.got - 2010.06.03 16:44:36.
