data_PCOD9237449
_publ_section_title
;
Structure prediction by ZEFSAII (Michael W. Deem and Ramdas Pophale) SiO2 
 PCOD9237449
Probable space group: P 2/C
;
_chemical_formula_sum "Si O2"
_cell_formula_units_Z 26
_cell_length_a 11.042937
_cell_length_b 12.502094
_cell_length_c 15.447199
_cell_angle_alpha 90.000000
_cell_angle_beta 144.261539
_cell_angle_gamma 90.000000
_cell_volume 1245.644306
_symmetry_space_group_name_H-M "P 2/C"
_symmetry_group_IT_number 13
_symmetry_cell_setting 'monoclinic'
loop_
_space_group_symop_operation_xyz
x,y,z
-x,y,1/2-z
-x,-y,-z
x,-y,1/2+z
loop_
_atom_site_type_symbol
_atom_site_label
_atom_site_fract_x
_atom_site_fract_y
_atom_site_fract_z
Si Si1 0.423924 0.793884 0.967169
Si Si2 0.500000 0.450968 0.750000
Si Si3 0.000000 0.080909 0.250000
Si Si4 0.097710 0.273948 0.895413
Si Si5 0.714785 0.734667 0.297179
Si Si6 0.500000 0.078596 0.750000
Si Si7 0.312404 0.926670 0.507906
Si Si8 0.541360 0.417553 0.446205
O O1 0.424031 0.691339 0.903988
O O2 0.197028 0.845312 0.841115
O O3 0.529124 0.751035 0.117586
O O4 0.578365 0.883228 0.016097
O O5 0.316059 0.365256 0.656836
O O6 0.513883 0.524116 0.674259
O O7 0.106009 0.998174 0.378408
O O8 0.252354 0.183424 0.020483
O O9 0.000000 0.228037 0.750000
O O10 0.917649 0.287273 0.859410
O O11 0.223654 0.376682 0.935140
O O12 0.691819 0.842337 0.339951
O O13 0.465544 0.002331 0.648859
O O14 0.500000 0.500000 0.500000
#
# Coordination Sequence:
#
# PCOD9237449 Si02
#       8
#     4   2   2   4   4   2   4   4
#     4  11  23  43  69  96 137 174 237 275 336 427
#     4  11  24  45  70  92 138 179 226 295 356 392
#     4  12  22  40  70  98 128 186 230 272 338 416
#     4  11  21  40  71  99 130 183 235 270 350 424
#     4  11  22  45  66  99 136 180 230 281 346 424
#     4  11  26  39  64  98 152 175 216 301 334 394
#     4  11  23  41  67  99 135 183 221 279 343 406
#     4  11  23  46  70  96 136 178 229 297 347 405
#
# _framework density 20.872731999999999
#
# number of rings (size 3 to 8) (size 9 to 14) (size 15 to 20)
#    0.000    0.923    6.923    0.462    2.154    3.692 
#    6.923    0.000    0.000    0.000    0.000    0.000 
#    0.000    0.000    0.000    0.000    0.000    0.000 
#
# Total GULP energy -144907.035040 kJ/mol
# GULP energy per Si atom -5573.347502 kJ/mol
# Density = 2.082522 g / cm^3
# Si number density = 20.872732 Si / 1000 Ang^3
#
#
#
# Elastic Constant Matrix: (Units=GPa)
#
#
# Indices 1 2 3 4 5 6 
#
# 1 124.1120 44.3871 10.4694 0.0000 16.2039 0.0000
# 2 44.3871 122.7945 22.6349 0.0000 -2.9502 0.0000
# 3 10.4694 22.6349 33.4403 0.0000 14.5727 0.0000
# 4 0.0000 0.0000 0.0000 11.0204 0.0000 -5.8296
# 5 16.2039 -2.9502 14.5727 0.0000 45.9197 0.0000
# 6 0.0000 0.0000 0.0000 -5.8296 0.0000 40.1496
#
#
#
# Elastic Compliance Matrix: (Units=1/GPa)
#
#
# Indices 1 2 3 4 5 6 
#
# 1 0.009893 -0.003932 0.001388 0.000000 -0.004184 0.000000
# 2 -0.003932 0.011241 -0.008469 0.000000 0.004797 0.000000
# 3 0.001388 -0.008469 0.041374 0.000000 -0.014164 0.000000
# 4 0.000000 0.000000 0.000000 0.098290 0.000000 0.014271
# 5 -0.004184 0.004797 -0.014164 0.000000 0.028057 0.000000
# 6 0.000000 0.000000 0.000000 0.014271 0.000000 0.026979
#
#
# Mechanical properties :
#
#
# Convention : Reuss Voigt Hill
#
# Bulk Modulus (GPa) = 24.70222 48.36996 36.53609
# Shear Modulus (GPa) = 19.89223 32.94163 26.41693
#
# Velocity S-wave (km/s) = 3.09046 3.97698 3.56141
# Velocity P-wave (km/s) = 4.95933 6.65677 5.86973
#
# Compressibility (1/GPa) = 0.04048220
#
# Stress axis : x y z
#
# Youngs Moduli (GPa) = 101.08391 88.95688 24.16970
#
# Poissons Ratio (x) = 0.34981 -0.03354
# Poissons Ratio (y) = 0.39749 0.20468
# Poissons Ratio (z) = -0.14028 0.75333
#
# Static dielectric constant tensor:
#      x y z
#    x 1.780360 0.000000 0.002570 
#    y 0.000000 1.784700 0.000000 
#    z 0.002570 0.000000 1.787100 
# 
# From -- ./inp_files/58946.got.cif
#   From: 2010.05.17/outbox.cif.g08.bks.cpg/sg13_30_cif.got.tgz:58946.got - 2010.06.03 16:44:36.
