data_PCOD9237636
_publ_section_title
;
Structure prediction by ZEFSAII (Michael W. Deem and Ramdas Pophale) SiO2 
 PCOD9237636
Probable space group: P 2/C
;
_chemical_formula_sum "Si O2"
_cell_formula_units_Z 28
_cell_length_a 9.124689
_cell_length_b 15.214792
_cell_length_c 11.791497
_cell_angle_alpha 90.000000
_cell_angle_beta 50.386538
_cell_angle_gamma 90.000000
_cell_volume 1261.097625
_symmetry_space_group_name_H-M "P 2/C"
_symmetry_group_IT_number 13
_symmetry_cell_setting 'monoclinic'
loop_
_space_group_symop_operation_xyz
x,y,z
-x,y,1/2-z
-x,-y,-z
x,-y,1/2+z
loop_
_atom_site_type_symbol
_atom_site_label
_atom_site_fract_x
_atom_site_fract_y
_atom_site_fract_z
Si Si1 0.613092 0.694307 0.577556
Si Si2 0.546213 0.787113 0.049055
Si Si3 0.214382 0.920275 0.691908
Si Si4 0.883627 0.331365 0.426886
Si Si5 0.384708 0.499033 0.932080
Si Si6 0.162671 0.881268 0.266468
Si Si7 0.115883 0.803198 0.941715
O O1 0.500000 0.694440 0.750000
O O2 0.476693 0.717584 0.542223
O O3 0.697889 0.597602 0.525426
O O4 0.755476 0.775312 0.516826
O O5 0.639581 0.879554 0.968574
O O6 0.707765 0.735652 0.036812
O O7 0.333571 0.811308 0.189546
O O8 0.230691 0.855042 0.790293
O O9 0.000000 0.910120 0.750000
O O10 0.242235 0.020931 0.710092
O O11 0.781827 0.425986 0.485657
O O12 0.000000 0.324381 0.250000
O O13 0.037686 0.290619 0.436924
O O14 0.500000 0.489494 0.750000
O O15 0.500000 0.500000 0.000000
O O16 0.000000 0.870084 0.250000
O O17 0.046370 0.869728 0.439476
#
# Coordination Sequence:
#
# PCOD9237636 Si02
#       7
#     4   4   4   4   4   4   4
#     4  11  22  42  72  96 138 181 234 280 356 429
#     4  12  21  44  69  96 137 189 226 287 360 431
#     4  11  22  44  67  96 135 182 234 293 354 426
#     4  12  25  47  73 100 145 187 240 290 364 437
#     4  11  27  48  75 111 146 187 244 307 358 435
#     4  11  26  40  63 103 141 172 234 303 353 415
#     4  12  23  43  67  99 134 187 231 290 354 432
#
# _framework density 22.202881000000001
#
# number of rings (size 3 to 8) (size 9 to 14) (size 15 to 20)
#    0.000    0.571    7.143    0.857    4.000    0.571 
#    2.571    1.429    0.000    0.000    0.000    0.000 
#    0.000    0.000    0.000    0.000    0.000    0.000 
#
# Total GULP energy -155975.395960 kJ/mol
# GULP energy per Si atom -5570.549856 kJ/mol
# Density = 2.215235 g / cm^3
# Si number density = 22.202881 Si / 1000 Ang^3
#
#
#
# Elastic Constant Matrix: (Units=GPa)
#
#
# Indices 1 2 3 4 5 6 
#
# 1 53.3595 -0.0920 9.9289 0.0000 2.6237 0.0000
# 2 -0.0920 98.1158 14.1042 0.0000 -12.1633 0.0000
# 3 9.9289 14.1042 46.3287 0.0000 -3.8889 0.0000
# 4 0.0000 0.0000 0.0000 11.3637 0.0000 2.6059
# 5 2.6237 -12.1633 -3.8889 0.0000 30.1931 0.0000
# 6 0.0000 0.0000 0.0000 2.6059 0.0000 24.2942
#
#
#
# Elastic Compliance Matrix: (Units=1/GPa)
#
#
# Indices 1 2 3 4 5 6 
#
# 1 0.019688 0.000404 -0.004521 0.000000 -0.002130 0.000000
# 2 0.000404 0.011146 -0.003140 0.000000 0.004051 0.000000
# 3 -0.004521 -0.003140 0.023693 0.000000 0.002180 0.000000
# 4 0.000000 0.000000 0.000000 0.090218 0.000000 -0.009677
# 5 -0.002130 0.004051 0.002180 0.000000 0.035218 0.000000
# 6 0.000000 0.000000 0.000000 -0.009677 0.000000 0.042200
#
#
# Mechanical properties :
#
#
# Convention : Reuss Voigt Hill
#
# Bulk Modulus (GPa) = 24.99214 27.29846 26.14530
# Shear Modulus (GPa) = 19.99893 24.76108 22.38001
#
# Velocity S-wave (km/s) = 3.00448 3.34311 3.17831
# Velocity P-wave (km/s) = 4.82872 5.21762 5.02693
#
# Compressibility (1/GPa) = 0.04001259
#
# Stress axis : x y z
#
# Youngs Moduli (GPa) = 50.79362 89.71886 42.20710
#
# Poissons Ratio (x) = -0.03627 0.19083
# Poissons Ratio (y) = -0.02054 0.13253
# Poissons Ratio (z) = 0.22965 0.28171
#
# Static dielectric constant tensor:
#      x y z
#    x 1.807760 0.000000 0.012070 
#    y 0.000000 1.789530 0.000000 
#    z 0.012070 0.000000 1.873460 
# 
# From -- ./inp_files/30279.got.cif
#   From: 2010.05.17/outbox.cif.g08.bks.cpg/sg13_16_cif.got.tgz:30279.got - 2010.06.03 16:44:36.
