data_PCOD9237757
_publ_section_title
;
Structure prediction by ZEFSAII (Michael W. Deem and Ramdas Pophale) SiO2 
 PCOD9237757
Probable space group: P 2/C
;
_chemical_formula_sum "Si O2"
_cell_formula_units_Z 32
_cell_length_a 7.321400
_cell_length_b 11.908095
_cell_length_c 18.960591
_cell_angle_alpha 90.000000
_cell_angle_beta 76.889112
_cell_angle_gamma 90.000000
_cell_volume 1609.968293
_symmetry_space_group_name_H-M "P 2/C"
_symmetry_group_IT_number 13
_symmetry_cell_setting 'monoclinic'
loop_
_space_group_symop_operation_xyz
x,y,z
-x,y,1/2-z
-x,-y,-z
x,-y,1/2+z
loop_
_atom_site_type_symbol
_atom_site_label
_atom_site_fract_x
_atom_site_fract_y
_atom_site_fract_z
Si Si1 0.638812 0.408687 0.904687
Si Si2 0.827049 0.143022 0.556993
Si Si3 0.983621 0.287852 0.672676
Si Si4 0.512882 0.759795 0.985010
Si Si5 0.794888 0.693725 0.681013
Si Si6 0.196104 0.120016 0.433463
Si Si7 0.657319 0.541070 0.176142
Si Si8 0.239583 0.341347 0.153000
O O1 0.580805 0.360296 0.985792
O O2 0.446834 0.397345 0.877831
O O3 0.709444 0.533834 0.879596
O O4 0.809714 0.329382 0.866170
O O5 0.897433 0.208470 0.620206
O O6 0.640966 0.192032 0.536655
O O7 0.993439 0.150199 0.484228
O O8 0.799055 0.012692 0.578542
O O9 0.841922 0.394900 0.686871
O O10 0.000000 0.239015 0.750000
O O11 0.348831 0.844164 0.978084
O O12 0.645432 0.741656 0.906398
O O13 0.762468 0.806426 0.639888
O O14 0.709188 0.585130 0.650035
O O15 0.278790 0.682814 0.732141
O O16 0.018092 0.675747 0.664177
O O17 0.500000 0.538913 0.250000
#
# Coordination Sequence:
#
# PCOD9237757 Si02
#       8
#     4   4   4   4   4   4   4   4
#     4  12  23  39  64 103 137 179 211 271 340 412
#     4  11  25  47  66  98 131 176 231 283 328 391
#     4  12  23  42  68  98 136 174 222 275 339 402
#     4  12  24  43  70  98 132 180 229 274 338 406
#     4  11  23  42  67  99 135 182 220 278 342 397
#     4  11  25  46  70  91 133 181 227 279 338 384
#     4  12  22  38  69  95 139 174 215 272 339 409
#     4  11  23  40  66 103 141 172 222 277 340 411
#
# _framework density 19.876166999999999
#
# number of rings (size 3 to 8) (size 9 to 14) (size 15 to 20)
#    0.000    0.500    7.500    1.500    0.000    0.000 
#    2.250    2.500    5.500    0.000    0.000    0.000 
#    0.000    0.000    0.000    0.000    0.000    0.000 
#
# Total GULP energy -178737.124049 kJ/mol
# GULP energy per Si atom -5585.535127 kJ/mol
# Density = 1.983093 g / cm^3
# Si number density = 19.876167 Si / 1000 Ang^3
#
#
#
# Elastic Constant Matrix: (Units=GPa)
#
#
# Indices 1 2 3 4 5 6 
#
# 1 91.0166 30.6154 35.1724 0.0000 14.6165 0.0000
# 2 30.6154 112.6435 57.2320 0.0000 8.6753 0.0000
# 3 35.1724 57.2320 101.3372 0.0000 3.0027 0.0000
# 4 0.0000 0.0000 0.0000 15.4184 0.0000 3.0377
# 5 14.6165 8.6753 3.0027 0.0000 36.4372 0.0000
# 6 0.0000 0.0000 0.0000 3.0377 0.0000 25.6661
#
#
#
# Elastic Compliance Matrix: (Units=1/GPa)
#
#
# Indices 1 2 3 4 5 6 
#
# 1 0.013717 -0.001415 -0.003818 0.000000 -0.004851 0.000000
# 2 -0.001415 0.012807 -0.006685 0.000000 -0.001931 0.000000
# 3 -0.003818 -0.006685 0.014913 0.000000 0.001894 0.000000
# 4 0.000000 0.000000 0.000000 0.066406 0.000000 -0.007859
# 5 -0.004851 -0.001931 0.001894 0.000000 0.029694 0.000000
# 6 0.000000 0.000000 0.000000 -0.007859 0.000000 0.039892
#
#
# Mechanical properties :
#
#
# Convention : Reuss Voigt Hill
#
# Bulk Modulus (GPa) = 56.81341 61.22631 59.01986
# Shear Modulus (GPa) = 24.13912 27.63617 25.88765
#
# Velocity S-wave (km/s) = 3.48871 3.73288 3.61286
# Velocity P-wave (km/s) = 6.69880 7.03206 6.86745
#
# Compressibility (1/GPa) = 0.01760148
#
# Stress axis : x y z
#
# Youngs Moduli (GPa) = 72.89965 78.08091 67.05714
#
# Poissons Ratio (x) = 0.11045 0.25605
# Poissons Ratio (y) = 0.10312 0.44827
# Poissons Ratio (z) = 0.27836 0.52196
#
# Static dielectric constant tensor:
#      x y z
#    x 1.707380 0.000000 0.022790 
#    y 0.000000 1.684060 0.000000 
#    z 0.022790 0.000000 1.726540 
# 
# From -- ./inp_files/83710.got.cif
#   From: 2010.05.17/outbox.cif.g08.bks.cpg/sg13_42_cif.got.tgz:83710.got - 2010.06.03 16:44:36.
