data_PCOD9237428
_publ_section_title
;
Structure prediction by ZEFSAII (Michael W. Deem and Ramdas Pophale) SiO2 
 PCOD9237428
Probable space group: P 2/C
;
_chemical_formula_sum "Si O2"
_cell_formula_units_Z 30
_cell_length_a 20.302610
_cell_length_b 6.532396
_cell_length_c 23.423011
_cell_angle_alpha 90.000000
_cell_angle_beta 27.814207
_cell_angle_gamma 90.000000
_cell_volume 1449.497217
_symmetry_space_group_name_H-M "P 2/C"
_symmetry_group_IT_number 13
_symmetry_cell_setting 'monoclinic'
loop_
_space_group_symop_operation_xyz
x,y,z
-x,y,1/2-z
-x,-y,-z
x,-y,1/2+z
loop_
_atom_site_type_symbol
_atom_site_label
_atom_site_fract_x
_atom_site_fract_y
_atom_site_fract_z
Si Si1 0.500000 0.979278 0.750000
Si Si2 0.017194 0.799697 0.802579
Si Si3 0.622940 0.629116 0.579228
Si Si4 0.264518 0.698003 0.415839
Si Si5 0.256957 0.461044 0.182542
Si Si6 0.653190 0.426256 0.765128
Si Si7 0.535704 0.860092 0.026499
Si Si8 0.221915 0.839367 0.133185
O O1 0.621309 0.124843 0.680573
O O2 0.568742 0.832363 0.650985
O O3 0.126555 0.661994 0.754949
O O4 0.000000 0.727567 0.750000
O O5 0.081071 0.028892 0.748376
O O6 0.871823 0.787250 0.948291
O O7 0.669219 0.467538 0.591556
O O8 0.489976 0.539810 0.646096
O O9 0.754157 0.688049 0.438270
O O10 0.248115 0.599443 0.365814
O O11 0.272637 0.461108 0.238708
O O12 0.392604 0.346145 0.052476
O O13 0.247517 0.693521 0.167699
O O14 0.594651 0.210704 0.835233
O O15 0.655503 0.989257 0.967148
O O16 0.500000 0.000000 0.000000
#
# Coordination Sequence:
#
# PCOD9237428 Si02
#       8
#     2   4   4   4   4   4   4   4
#     4  12  22  44  68 104 132 180 234 276 376 422
#     4  11  27  47  67  95 137 189 239 290 345 428
#     4  12  23  42  73 105 138 180 230 296 358 417
#     4  12  26  46  67 104 146 180 237 299 354 425
#     4  11  24  42  69 101 141 183 238 280 348 423
#     4  12  22  43  69 107 144 177 223 302 358 412
#     4  11  21  39  69 106 140 177 226 289 352 412
#     4  11  23  41  67  99 129 183 236 280 344 412
#
# _framework density 20.696833000000002
#
# number of rings (size 3 to 8) (size 9 to 14) (size 15 to 20)
#    0.000    0.533    5.333    3.600    1.867    3.200 
#    0.000    0.667    0.000    0.000    0.000    0.000 
#    0.000    0.000    0.000    0.000    0.000    0.000 
#
# Total GULP energy -167710.998261 kJ/mol
# GULP energy per Si atom -5590.366609 kJ/mol
# Density = 2.064973 g / cm^3
# Si number density = 20.696833 Si / 1000 Ang^3
#
#
#
# Elastic Constant Matrix: (Units=GPa)
#
#
# Indices 1 2 3 4 5 6 
#
# 1 135.1807 43.9240 47.8417 0.0000 26.6932 0.0000
# 2 43.9240 88.1974 25.2446 0.0000 3.1778 0.0000
# 3 47.8417 25.2446 107.8076 0.0000 14.1375 0.0000
# 4 0.0000 0.0000 0.0000 30.8734 0.0000 -5.0312
# 5 26.6932 3.1778 14.1375 0.0000 29.5641 0.0000
# 6 0.0000 0.0000 0.0000 -5.0312 0.0000 26.5103
#
#
#
# Elastic Compliance Matrix: (Units=1/GPa)
#
#
# Indices 1 2 3 4 5 6 
#
# 1 0.011653 -0.004648 -0.002954 0.000000 -0.008609 0.000000
# 2 -0.004648 0.014007 -0.001675 0.000000 0.003492 0.000000
# 3 -0.002954 -0.001675 0.011315 0.000000 -0.002564 0.000000
# 4 0.000000 0.000000 0.000000 0.033424 0.000000 0.006343
# 5 -0.008609 0.003492 -0.002564 0.000000 0.042449 0.000000
# 6 0.000000 0.000000 0.000000 0.006343 0.000000 0.038925
#
#
# Mechanical properties :
#
#
# Convention : Reuss Voigt Hill
#
# Bulk Modulus (GPa) = 54.28608 62.80071 58.54339
# Shear Modulus (GPa) = 28.33392 31.66793 30.00093
#
# Velocity S-wave (km/s) = 3.70401 3.91587 3.81142
# Velocity P-wave (km/s) = 6.67675 7.13123 6.90773
#
# Compressibility (1/GPa) = 0.01842093
#
# Stress axis : x y z
#
# Youngs Moduli (GPa) = 85.81356 71.39513 88.37726
#
# Poissons Ratio (x) = 0.33183 0.26106
# Poissons Ratio (y) = 0.39884 0.14805
# Poissons Ratio (z) = 0.25349 0.11960
#
# Static dielectric constant tensor:
#      x y z
#    x 1.783240 0.000000 0.003670 
#    y 0.000000 1.751910 0.000000 
#    z 0.003670 0.000000 1.738290 
# 
# From -- ./inp_files/88340.got.cif
#   From: 2010.05.17/outbox.cif.g08.bks.cpg/sg13_45_cif.got.tgz:88340.got - 2010.06.03 16:44:36.
