data_PCOD9237111
_publ_section_title
;
Structure prediction by ZEFSAII (Michael W. Deem and Ramdas Pophale) SiO2 
 PCOD9237111
Probable space group: P 2/C
;
_chemical_formula_sum "Si O2"
_cell_formula_units_Z 22
_cell_length_a 22.485805
_cell_length_b 5.218637
_cell_length_c 24.812534
_cell_angle_alpha 90.000000
_cell_angle_beta 18.575214
_cell_angle_gamma 90.000000
_cell_volume 927.498621
_symmetry_space_group_name_H-M "P 2/C"
_symmetry_group_IT_number 13
_symmetry_cell_setting 'monoclinic'
loop_
_space_group_symop_operation_xyz
x,y,z
-x,y,1/2-z
-x,-y,-z
x,-y,1/2+z
loop_
_atom_site_type_symbol
_atom_site_label
_atom_site_fract_x
_atom_site_fract_y
_atom_site_fract_z
Si Si1 0.360670 0.275323 0.301078
Si Si2 0.806540 0.780126 0.005475
Si Si3 0.000000 0.484153 0.250000
Si Si4 0.766130 0.211129 0.318085
Si Si5 0.295906 0.294317 0.565352
Si Si6 0.128919 0.249575 0.390117
O O1 0.314136 0.549650 0.366130
O O2 0.244996 0.249393 0.344980
O O3 0.294106 0.046847 0.396728
O O4 0.571156 0.256920 0.099730
O O5 0.849231 0.701675 0.907291
O O6 0.010985 0.780438 0.858968
O O7 0.910576 0.662094 0.281364
O O8 0.696265 0.943252 0.401390
O O9 0.666689 0.442966 0.434754
O O10 0.749178 0.241854 0.268852
O O11 0.000000 0.500000 0.500000
O O12 0.000000 0.000000 0.500000
#
# Coordination Sequence:
#
# PCOD9237111 Si02
#       6
#     4   4   2   4   4   4
#     4  12  24  43  68 104 133 168 226 279 323 390
#     4  11  23  43  70  94 133 173 225 275 323 401
#     4  10  26  48  68  94 128 186 222 270 352 386
#     4  11  22  42  67  97 136 180 214 264 331 402
#     4  11  26  43  67  98 137 171 224 279 323 395
#     4  12  22  39  70 102 133 180 214 267 334 401
#
# _framework density 23.719712999999999
#
# number of rings (size 3 to 8) (size 9 to 14) (size 15 to 20)
#    0.000    0.727    3.636    4.364    0.000    8.727 
#    0.000    3.636    0.000    0.000    0.000    0.000 
#    0.000    0.000    0.000    0.000    0.000    0.000 
#
# Total GULP energy -123380.538283 kJ/mol
# GULP energy per Si atom -5608.206286 kJ/mol
# Density = 2.366573 g / cm^3
# Si number density = 23.719713 Si / 1000 Ang^3
#
#
#
# Elastic Constant Matrix: (Units=GPa)
#
#
# Indices 1 2 3 4 5 6 
#
# 1 89.2666 27.1139 4.3834 0.0000 21.4973 0.0000
# 2 27.1139 174.4298 48.5111 0.0000 10.7531 0.0000
# 3 4.3834 48.5111 111.6112 0.0000 23.4965 0.0000
# 4 0.0000 0.0000 0.0000 37.4519 0.0000 22.0981
# 5 21.4973 10.7531 23.4965 0.0000 37.9106 0.0000
# 6 0.0000 0.0000 0.0000 22.0981 0.0000 22.2693
#
#
#
# Elastic Compliance Matrix: (Units=1/GPa)
#
#
# Indices 1 2 3 4 5 6 
#
# 1 0.013847 -0.002246 0.002244 0.000000 -0.008606 0.000000
# 2 -0.002246 0.006886 -0.003176 0.000000 0.001289 0.000000
# 3 0.002244 -0.003176 0.011880 0.000000 -0.007735 0.000000
# 4 0.000000 0.000000 0.000000 0.064418 0.000000 -0.063923
# 5 -0.008606 0.001289 -0.007735 0.000000 0.035686 0.000000
# 6 0.000000 0.000000 0.000000 -0.063923 0.000000 0.108337
#
#
# Mechanical properties :
#
#
# Convention : Reuss Voigt Hill
#
# Bulk Modulus (GPa) = 38.08483 59.48049 48.78266
# Shear Modulus (GPa) = 19.51886 39.21296 29.36591
#
# Velocity S-wave (km/s) = 2.87173 4.07034 3.52239
# Velocity P-wave (km/s) = 5.20450 6.87176 6.09540
#
# Compressibility (1/GPa) = 0.02625718
#
# Stress axis : x y z
#
# Youngs Moduli (GPa) = 72.21865 145.22363 84.17247
#
# Poissons Ratio (x) = 0.32617 -0.18889
# Poissons Ratio (y) = 0.16220 0.26734
# Poissons Ratio (z) = -0.16206 0.46124
#
# Static dielectric constant tensor:
#      x y z
#    x 1.913140 0.000000 -0.031150 
#    y 0.000000 1.855020 0.000000 
#    z -0.031150 0.000000 1.924460 
# 
# From -- ./inp_files/88711.got.cif
#   From: 2010.05.17/outbox.cif.g08.bks.cpg/sg13_45_cif.got.tgz:88711.got - 2010.06.03 16:44:36.
