data_PCOD9237061
_publ_section_title
;
Structure prediction by ZEFSAII (Michael W. Deem and Ramdas Pophale) SiO2 
 PCOD9237061
Probable space group: P 2/C
;
_chemical_formula_sum "Si O2"
_cell_formula_units_Z 26
_cell_length_a 18.428217
_cell_length_b 4.871699
_cell_length_c 23.427341
_cell_angle_alpha 90.000000
_cell_angle_beta 28.983174
_cell_angle_gamma 90.000000
_cell_volume 1019.125873
_symmetry_space_group_name_H-M "P 2/C"
_symmetry_group_IT_number 13
_symmetry_cell_setting 'monoclinic'
loop_
_space_group_symop_operation_xyz
x,y,z
-x,y,1/2-z
-x,-y,-z
x,-y,1/2+z
loop_
_atom_site_type_symbol
_atom_site_label
_atom_site_fract_x
_atom_site_fract_y
_atom_site_fract_z
Si Si1 0.176003 0.178108 0.474393
Si Si2 0.591040 0.939698 0.099516
Si Si3 0.934149 0.607397 0.232009
Si Si4 0.259008 0.092132 0.126425
Si Si5 0.149404 0.342689 0.915556
Si Si6 0.500000 0.500000 0.500000
Si Si7 0.572450 0.454045 0.320192
O O1 0.224332 0.454330 0.409976
O O2 0.048114 0.284611 0.606009
O O3 0.309061 0.047612 0.418407
O O4 0.125374 0.949812 0.462216
O O5 0.526306 0.640504 0.153825
O O6 0.451552 0.141884 0.182301
O O7 0.696237 0.927507 0.970794
O O8 0.885985 0.289043 0.264426
O O9 0.000000 0.664847 0.250000
O O10 0.782365 0.783184 0.327117
O O11 0.387170 0.226950 0.075686
O O12 0.267911 0.392749 0.783587
O O13 0.000000 0.500000 0.000000
O O14 0.495186 0.484877 0.434255
#
# Coordination Sequence:
#
# PCOD9237061 Si02
#       7
#     4   4   4   4   4   2   4
#     4  12  27  46  75 103 146 194 244 295 376 419
#     4  11  24  46  73 110 137 183 246 312 355 434
#     4  12  25  41  73 106 146 190 233 306 361 434
#     4  11  24  43  67 109 147 181 242 295 363 437
#     4  12  29  51  69 107 144 197 244 296 358 462
#     4  10  26  44  74 102 140 192 228 304 370 420
#     4  11  26  46  74 104 146 185 247 302 363 429
#
# _framework density 25.512059000000001
#
# number of rings (size 3 to 8) (size 9 to 14) (size 15 to 20)
#    0.000    0.615    1.538    5.538    6.462    9.231 
#    0.000    0.000    0.000    0.000    0.000    0.000 
#    0.000    0.000    0.000    0.000    0.000    0.000 
#
# Total GULP energy -145161.766313 kJ/mol
# GULP energy per Si atom -5583.144858 kJ/mol
# Density = 2.545399 g / cm^3
# Si number density = 25.512059 Si / 1000 Ang^3
#
#
#
# Elastic Constant Matrix: (Units=GPa)
#
#
# Indices 1 2 3 4 5 6 
#
# 1 69.9497 19.1259 7.0314 0.0000 3.4039 0.0000
# 2 19.1259 130.7877 23.6623 0.0000 14.2400 0.0000
# 3 7.0314 23.6623 86.3063 0.0000 -3.1896 0.0000
# 4 0.0000 0.0000 0.0000 47.3843 0.0000 2.1266
# 5 3.4039 14.2400 -3.1896 0.0000 17.9918 0.0000
# 6 0.0000 0.0000 0.0000 2.1266 0.0000 25.0031
#
#
#
# Elastic Compliance Matrix: (Units=1/GPa)
#
#
# Indices 1 2 3 4 5 6 
#
# 1 0.014960 -0.001892 -0.000754 0.000000 -0.001467 0.000000
# 2 -0.001892 0.009206 -0.002643 0.000000 -0.007397 0.000000
# 3 -0.000754 -0.002643 0.012538 0.000000 0.004458 0.000000
# 4 0.000000 0.000000 0.000000 0.021185 0.000000 -0.001802
# 5 -0.001467 -0.007397 0.004458 0.000000 0.062503 0.000000
# 6 0.000000 0.000000 0.000000 -0.001802 0.000000 0.040148
#
#
# Mechanical properties :
#
#
# Convention : Reuss Voigt Hill
#
# Bulk Modulus (GPa) = 38.27662 42.96474 40.62068
# Shear Modulus (GPa) = 27.80435 33.89077 30.84756
#
# Velocity S-wave (km/s) = 3.30487 3.64871 3.48104
# Velocity P-wave (km/s) = 5.44048 5.88458 5.66688
#
# Compressibility (1/GPa) = 0.02612561
#
# Stress axis : x y z
#
# Youngs Moduli (GPa) = 66.84310 108.62218 79.76040
#
# Poissons Ratio (x) = 0.20546 0.06017
# Poissons Ratio (y) = 0.12644 0.21083
# Poissons Ratio (z) = 0.05043 0.28712
#
# Static dielectric constant tensor:
#      x y z
#    x 1.952500 0.000000 -0.056100 
#    y 0.000000 1.967950 0.000000 
#    z -0.056100 0.000000 2.366820 
# 
# From -- ./inp_files/87704.got.cif
#   From: 2010.05.17/outbox.cif.g08.bks.cpg/sg13_44_cif.got.tgz:87704.got - 2010.06.03 16:44:36.
