data_PCOD9237727
_publ_section_title
;
Structure prediction by ZEFSAII (Michael W. Deem and Ramdas Pophale) SiO2 
 PCOD9237727
Probable space group: P 2/C
;
_chemical_formula_sum "Si O2"
_cell_formula_units_Z 24
_cell_length_a 22.463554
_cell_length_b 4.867328
_cell_length_c 16.510401
_cell_angle_alpha 90.000000
_cell_angle_beta 150.501438
_cell_angle_gamma 90.000000
_cell_volume 888.886398
_symmetry_space_group_name_H-M "P 2/C"
_symmetry_group_IT_number 13
_symmetry_cell_setting 'monoclinic'
loop_
_space_group_symop_operation_xyz
x,y,z
-x,y,1/2-z
-x,-y,-z
x,-y,1/2+z
loop_
_atom_site_type_symbol
_atom_site_label
_atom_site_fract_x
_atom_site_fract_y
_atom_site_fract_z
Si Si1 0.102389 0.922927 0.432146
Si Si2 0.552360 0.991587 0.934648
Si Si3 0.930725 0.181111 0.852605
Si Si4 0.239590 0.305649 0.720608
Si Si5 0.624989 0.504075 0.262204
Si Si6 0.736046 0.936288 0.509948
O O1 0.000000 0.041258 0.250000
O O2 0.025729 0.711166 0.397490
O O3 0.158841 0.130723 0.562965
O O4 0.211989 0.864561 0.500186
O O5 0.449419 0.763900 0.804968
O O6 0.483415 0.268080 0.878072
O O7 0.653166 0.882584 0.116406
O O8 0.621805 0.017083 0.931980
O O9 0.844180 0.384119 0.801554
O O10 0.843603 0.971005 0.701823
O O11 0.000000 0.000000 0.000000
O O12 0.302519 0.524629 0.736527
O O13 0.705372 0.656517 0.426321
#
# Coordination Sequence:
#
# PCOD9237727 Si02
#       6
#     4   4   4   4   4   4
#     4   8  14  29  56  93 127 165 212 269 328 388
#     4  11  23  39  60  90 126 169 214 261 313 377
#     4   8  14  29  57  93 125 163 210 265 323 386
#     4   9  18  33  56  92 125 166 212 261 319 381
#     4  11  23  39  60  90 127 168 212 262 313 376
#     4   9  19  33  55  92 126 167 212 262 323 382
#
# _framework density 27.000076
#
# number of rings (size 3 to 8) (size 9 to 14) (size 15 to 20)
#    0.000    2.667    0.000    1.500    0.000    2.667 
#    0.000    0.000    0.000    2.000    0.000  591.500 
#    0.000    0.000    0.000    0.333    0.000    0.000 
#
# Total GULP energy -134184.148729 kJ/mol
# GULP energy per Si atom -5591.006197 kJ/mol
# Density = 2.693862 g / cm^3
# Si number density = 27.000076 Si / 1000 Ang^3
#
#
#
# Elastic Constant Matrix: (Units=GPa)
#
#
# Indices 1 2 3 4 5 6 
#
# 1 274.6520 48.0231 57.4300 0.0000 37.3588 0.0000
# 2 48.0231 56.4967 37.2282 0.0000 13.3743 0.0000
# 3 57.4300 37.2282 149.9001 0.0000 -13.9316 0.0000
# 4 0.0000 0.0000 0.0000 8.0654 0.0000 -3.6593
# 5 37.3588 13.3743 -13.9316 0.0000 58.9964 0.0000
# 6 0.0000 0.0000 0.0000 -3.6593 0.0000 27.9717
#
#
#
# Elastic Compliance Matrix: (Units=1/GPa)
#
#
# Indices 1 2 3 4 5 6 
#
# 1 0.004754 -0.002392 -0.001489 0.000000 -0.002820 0.000000
# 2 -0.002392 0.024822 -0.005757 0.000000 -0.005472 0.000000
# 3 -0.001489 -0.005757 0.009080 0.000000 0.004392 0.000000
# 4 0.000000 0.000000 0.000000 0.131810 0.000000 0.017243
# 5 -0.002820 -0.005472 0.004392 0.000000 0.021014 0.000000
# 6 0.000000 0.000000 0.000000 0.017243 0.000000 0.038006
#
#
# Mechanical properties :
#
#
# Convention : Reuss Voigt Hill
#
# Bulk Modulus (GPa) = 51.60101 85.15684 68.37892
# Shear Modulus (GPa) = 19.59075 41.56453 30.57764
#
# Velocity S-wave (km/s) = 2.69658 3.92780 3.36892
# Velocity P-wave (km/s) = 5.37107 7.22344 6.36500
#
# Compressibility (1/GPa) = 0.01937947
#
# Stress axis : x y z
#
# Youngs Moduli (GPa) = 210.33697 40.28646 110.13610
#
# Poissons Ratio (x) = 0.09637 0.16404
# Poissons Ratio (y) = 0.50316 0.63402
# Poissons Ratio (z) = 0.31329 0.23192
#
# Static dielectric constant tensor:
#      x y z
#    x 2.119610 0.000000 0.045630 
#    y 0.000000 2.057930 0.000000 
#    z 0.045630 0.000000 2.210050 
# 
# From -- ./inp_files/70941.got.cif
#   From: 2010.05.17/outbox.cif.g08.bks.cpg/sg13_36_cif.got.tgz:70941.got - 2010.06.03 16:44:36.
