data_PCOD9237889
_publ_section_title
;
Structure prediction by ZEFSAII (Michael W. Deem and Ramdas Pophale) SiO2 
 PCOD9237889
Probable space group: P 2/C
;
_chemical_formula_sum "Si O2"
_cell_formula_units_Z 18
_cell_length_a 12.914579
_cell_length_b 6.786568
_cell_length_c 18.753305
_cell_angle_alpha 90.000000
_cell_angle_beta 30.677520
_cell_angle_gamma 90.000000
_cell_volume 838.597232
_symmetry_space_group_name_H-M "P 2/C"
_symmetry_group_IT_number 13
_symmetry_cell_setting 'monoclinic'
loop_
_space_group_symop_operation_xyz
x,y,z
-x,y,1/2-z
-x,-y,-z
x,-y,1/2+z
loop_
_atom_site_type_symbol
_atom_site_label
_atom_site_fract_x
_atom_site_fract_y
_atom_site_fract_z
Si Si1 0.211452 0.641217 0.438697
Si Si2 0.260082 0.307724 0.301238
Si Si3 0.500000 0.987646 0.250000
Si Si4 0.490456 0.770655 0.519979
Si Si5 0.217304 0.488085 0.090514
O O1 0.298611 0.511605 0.321475
O O2 0.339677 0.836113 0.379088
O O3 0.205479 0.503938 0.512347
O O4 0.983056 0.706888 0.555288
O O5 0.344011 0.295365 0.171651
O O6 0.373864 0.129919 0.273233
O O7 0.708847 0.687575 0.414725
O O8 0.392943 0.663706 0.509791
O O9 0.500000 0.000000 0.500000
O O10 0.000000 0.426655 0.250000
#
# Coordination Sequence:
#
# PCOD9237889 Si02
#       5
#     4   4   2   4   4
#     4  11  24  44  70  94 139 180 225 281 333 403
#     4  11  24  44  67 100 133 178 228 277 339 401
#     4  12  22  40  66 102 132 172 230 278 332 390
#     4  11  24  43  68  99 134 174 223 277 339 400
#     4  11  23  44  66  95 134 178 221 274 339 401
#
# _framework density 21.464417000000001
#
# number of rings (size 3 to 8) (size 9 to 14) (size 15 to 20)
#    0.000    0.889    2.222    5.333    0.000    2.667 
#    8.000    0.000    0.000    0.000    0.000    0.000 
#    0.000    0.000    0.000    0.000    0.000    0.000 
#
# Total GULP energy -100622.097170 kJ/mol
# GULP energy per Si atom -5590.116509 kJ/mol
# Density = 2.141556 g / cm^3
# Si number density = 21.464417 Si / 1000 Ang^3
#
#
#
# Elastic Constant Matrix: (Units=GPa)
#
#
# Indices 1 2 3 4 5 6 
#
# 1 118.9777 51.6247 29.6062 0.0000 -13.0363 0.0000
# 2 51.6247 130.7513 21.2024 0.0000 -12.2885 0.0000
# 3 29.6062 21.2024 76.2160 0.0000 -3.4287 0.0000
# 4 0.0000 0.0000 0.0000 26.4312 0.0000 -5.5715
# 5 -13.0363 -12.2885 -3.4287 0.0000 43.6015 0.0000
# 6 0.0000 0.0000 0.0000 -5.5715 0.0000 31.2430
#
#
#
# Elastic Compliance Matrix: (Units=1/GPa)
#
#
# Indices 1 2 3 4 5 6 
#
# 1 0.010992 -0.003637 -0.003167 0.000000 0.002012 0.000000
# 2 -0.003637 0.009407 -0.001138 0.000000 0.001474 0.000000
# 3 -0.003167 -0.001138 0.014662 0.000000 -0.000115 0.000000
# 4 0.000000 0.000000 0.000000 0.039312 0.000000 0.007010
# 5 0.002012 0.001474 -0.000115 0.000000 0.023943 0.000000
# 6 0.000000 0.000000 0.000000 0.007010 0.000000 0.033257
#
#
# Mechanical properties :
#
#
# Convention : Reuss Voigt Hill
#
# Bulk Modulus (GPa) = 52.14688 58.97907 55.56298
# Shear Modulus (GPa) = 32.49906 35.15593 33.82749
#
# Velocity S-wave (km/s) = 3.89535 4.05145 3.97417
# Velocity P-wave (km/s) = 6.67675 7.03014 6.85573
#
# Compressibility (1/GPa) = 0.01917660
#
# Stress axis : x y z
#
# Youngs Moduli (GPa) = 90.97715 106.30109 68.20188
#
# Poissons Ratio (x) = 0.38663 0.21603
# Poissons Ratio (y) = 0.33090 0.07760
# Poissons Ratio (z) = 0.28816 0.12095
#
# Static dielectric constant tensor:
#      x y z
#    x 1.812220 0.000000 -0.004840 
#    y 0.000000 1.747950 0.000000 
#    z -0.004840 0.000000 1.802170 
# 
# From -- ./inp_files/52421.got.cif
#   From: 2010.05.17/outbox.cif.g08.bks.cpg/sg13_27_cif.got.tgz:52421.got - 2010.06.03 16:44:36.
