data_PCOD9237260
_publ_section_title
;
Structure prediction by ZEFSAII (Michael W. Deem and Ramdas Pophale) SiO2 
 PCOD9237260
Probable space group: P 2/C
;
_chemical_formula_sum "Si O2"
_cell_formula_units_Z 16
_cell_length_a 6.350135
_cell_length_b 8.149621
_cell_length_c 13.172120
_cell_angle_alpha 90.000000
_cell_angle_beta 114.695506
_cell_angle_gamma 90.000000
_cell_volume 619.327773
_symmetry_space_group_name_H-M "P 2/C"
_symmetry_group_IT_number 13
_symmetry_cell_setting 'monoclinic'
loop_
_space_group_symop_operation_xyz
x,y,z
-x,y,1/2-z
-x,-y,-z
x,-y,1/2+z
loop_
_atom_site_type_symbol
_atom_site_label
_atom_site_fract_x
_atom_site_fract_y
_atom_site_fract_z
Si Si1 0.744954 0.877836 0.673368
Si Si2 0.500000 0.374551 0.250000
Si Si3 0.777909 0.732374 0.482750
Si Si4 0.008090 0.439858 0.635911
Si Si5 0.500000 0.144123 0.750000
O O1 0.552685 0.745645 0.666403
O O2 0.754411 0.885960 0.553523
O O3 0.000000 0.811861 0.750000
O O4 0.695931 0.027594 0.739655
O O5 0.740598 0.468570 0.318493
O O6 0.986754 0.707870 0.444089
O O7 0.570067 0.750858 0.361802
O O8 0.815922 0.570980 0.560299
O O9 0.000000 0.384932 0.750000
#
# Coordination Sequence:
#
# PCOD9237260 Si02
#       5
#     4   2   4   4   2
#     4  11  23  46  68  96 140 182 227 281 330 401
#     4  11  19  42  70 100 135 175 232 268 348 403
#     4  11  23  47  67 103 138 177 230 277 346 396
#     4  11  23  44  72 102 140 175 221 292 337 405
#     4  11  27  44  68 104 137 185 228 272 334 415
#
# _framework density 25.834461999999998
#
# number of rings (size 3 to 8) (size 9 to 14) (size 15 to 20)
#    0.000    1.000    5.000    1.500    0.000    3.000 
#   13.500    0.000    0.000    0.000    0.000    0.000 
#    0.000    0.000    0.000    0.000    0.000    0.000 
#
# Total GULP energy -89220.646148 kJ/mol
# GULP energy per Si atom -5576.290384 kJ/mol
# Density = 2.577566 g / cm^3
# Si number density = 25.834462 Si / 1000 Ang^3
#
#
#
# Elastic Constant Matrix: (Units=GPa)
#
#
# Indices 1 2 3 4 5 6 
#
# 1 97.8560 41.7218 35.2971 0.0000 -13.9462 0.0000
# 2 41.7218 60.5396 18.0890 0.0000 -11.3615 0.0000
# 3 35.2971 18.0890 173.9015 0.0000 -32.8915 0.0000
# 4 0.0000 0.0000 0.0000 -1.8732 0.0000 7.9233
# 5 -13.9462 -11.3615 -32.8915 0.0000 56.2751 0.0000
# 6 0.0000 0.0000 0.0000 7.9233 0.0000 31.6157
#
#
#
# Elastic Compliance Matrix: (Units=1/GPa)
#
#
# Indices 1 2 3 4 5 6 
#
# 1 0.015170 -0.009752 -0.001941 0.000000 0.000657 0.000000
# 2 -0.009752 0.023691 -0.000042 0.000000 0.002342 0.000000
# 3 -0.001941 -0.000042 0.006809 0.000000 0.003490 0.000000
# 4 0.000000 0.000000 0.000000 -0.259142 0.000000 0.064944
# 5 0.000657 0.002342 0.003490 0.000000 0.020445 0.000000
# 6 0.000000 0.000000 0.000000 0.064944 0.000000 0.015354
#
#
# Mechanical properties :
#
#
# Convention : Reuss Voigt Hill
#
# Bulk Modulus (GPa) = 45.04314 58.05698 51.55006
# Shear Modulus (GPa) = -34.05924 33.01612 -0.52156
#
# Velocity S-wave (km/s) = -3.63487 3.57877 -0.44980
# Velocity P-wave (km/s) = 0.37844 6.29272 4.44157
#
# Compressibility (1/GPa) = 0.02220094
#
# Stress axis : x y z
#
# Youngs Moduli (GPa) = 65.91747 42.21039 146.86937
#
# Poissons Ratio (x) = 0.41163 0.28502
# Poissons Ratio (y) = 0.64282 0.00617
# Poissons Ratio (z) = 0.12792 0.00177
#
# Static dielectric constant tensor:
#      x y z
#    x 2.076860 0.000000 -0.029700 
#    y 0.000000 2.166810 0.000000 
#    z -0.029700 0.000000 2.096200 
# 
# From -- ./inp_files/43298.got.cif
#   From: 2010.05.17/outbox.cif.g08.bks.cpg/sg13_22_cif.got.tgz:43298.got - 2010.06.03 16:44:36.
