data_PCOD9237690
_publ_section_title
;
Structure prediction by ZEFSAII (Michael W. Deem and Ramdas Pophale) SiO2 
 PCOD9237690
Probable space group: P 2/C
;
_chemical_formula_sum "Si O2"
_cell_formula_units_Z 24
_cell_length_a 22.703032
_cell_length_b 6.609987
_cell_length_c 13.119669
_cell_angle_alpha 90.000000
_cell_angle_beta 146.522816
_cell_angle_gamma 90.000000
_cell_volume 1086.014044
_symmetry_space_group_name_H-M "P 2/C"
_symmetry_group_IT_number 13
_symmetry_cell_setting 'monoclinic'
loop_
_space_group_symop_operation_xyz
x,y,z
-x,y,1/2-z
-x,-y,-z
x,-y,1/2+z
loop_
_atom_site_type_symbol
_atom_site_label
_atom_site_fract_x
_atom_site_fract_y
_atom_site_fract_z
Si Si1 0.167682 0.223871 0.955400
Si Si2 0.247233 0.552484 0.194175
Si Si3 0.500000 0.909408 0.250000
Si Si4 0.996853 0.446928 0.377893
Si Si5 0.423840 0.410470 0.802293
Si Si6 0.668072 0.250690 0.479041
Si Si7 0.000000 0.089883 0.250000
O O1 0.235157 0.172666 0.952386
O O2 0.079885 0.386038 0.784691
O O3 0.100576 0.053301 0.915432
O O4 0.248747 0.322381 0.154364
O O5 0.314769 0.660165 0.202119
O O6 0.294686 0.620164 0.369744
O O7 0.120305 0.574030 0.022085
O O8 0.524587 0.768079 0.188672
O O9 0.598492 0.059969 0.411259
O O10 0.000000 0.500000 0.500000
O O11 0.960453 0.227113 0.287311
O O12 0.396597 0.591990 0.685211
O O13 0.500000 0.500000 0.000000
#
# Coordination Sequence:
#
# PCOD9237690 Si02
#       7
#     4   4   2   4   4   4   2
#     4  11  24  46  69 106 144 192 240 283 352 426
#     4  11  22  46  71  98 148 185 229 293 359 419
#     4  12  26  48  74 108 138 180 254 292 358 436
#     4  12  24  45  68 102 151 189 231 293 352 422
#     4  11  26  49  72 100 141 188 231 302 366 419
#     4  11  26  45  72 107 142 185 238 296 358 422
#     4  12  24  44  72 102 142 196 242 286 352 422
#
# _framework density 22.099160999999999
#
# number of rings (size 3 to 8) (size 9 to 14) (size 15 to 20)
#    0.000    0.667    5.000    2.500    2.333    3.333 
#    9.000    0.000    0.000    0.000    0.000    0.000 
#    0.000    0.000    0.000    0.000    0.000    0.000 
#
# Total GULP energy -133897.809542 kJ/mol
# GULP energy per Si atom -5579.075398 kJ/mol
# Density = 2.204886 g / cm^3
# Si number density = 22.099161 Si / 1000 Ang^3
#
#
#
# Elastic Constant Matrix: (Units=GPa)
#
#
# Indices 1 2 3 4 5 6 
#
# 1 144.1562 45.3218 47.5748 0.0000 11.1272 0.0000
# 2 45.3218 86.4351 37.9258 0.0000 -1.7254 0.0000
# 3 47.5748 37.9258 96.2326 0.0000 -8.1055 0.0000
# 4 0.0000 0.0000 0.0000 24.7343 0.0000 6.0229
# 5 11.1272 -1.7254 -8.1055 0.0000 51.3030 0.0000
# 6 0.0000 0.0000 0.0000 6.0229 0.0000 32.6200
#
#
#
# Elastic Compliance Matrix: (Units=1/GPa)
#
#
# Indices 1 2 3 4 5 6 
#
# 1 0.009385 -0.003433 -0.003515 0.000000 -0.002706 0.000000
# 2 -0.003433 0.015252 -0.004265 0.000000 0.000584 0.000000
# 3 -0.003515 -0.004265 0.014049 0.000000 0.002839 0.000000
# 4 0.000000 0.000000 0.000000 0.042333 0.000000 -0.007816
# 5 -0.002706 0.000584 0.002839 0.000000 0.020547 0.000000
# 6 0.000000 0.000000 0.000000 -0.007816 0.000000 0.032099
#
#
# Mechanical properties :
#
#
# Convention : Reuss Voigt Hill
#
# Bulk Modulus (GPa) = 61.49462 65.38543 63.44003
# Shear Modulus (GPa) = 30.95767 34.79820 32.87794
#
# Velocity S-wave (km/s) = 3.74686 3.97248 3.86132
# Velocity P-wave (km/s) = 6.82683 7.11985 6.97488
#
# Compressibility (1/GPa) = 0.01626159
#
# Stress axis : x y z
#
# Youngs Moduli (GPa) = 106.55273 65.56395 71.17970
#
# Poissons Ratio (x) = 0.22507 0.25018
# Poissons Ratio (y) = 0.36578 0.30356
# Poissons Ratio (z) = 0.37451 0.27961
#
# Static dielectric constant tensor:
#      x y z
#    x 1.863620 0.000000 0.043750 
#    y 0.000000 1.874020 0.000000 
#    z 0.043750 0.000000 1.878680 
# 
# From -- ./inp_files/59244.got.cif
#   From: 2010.05.17/outbox.cif.g08.bks.cpg/sg13_30_cif.got.tgz:59244.got - 2010.06.03 16:44:36.
