data_PCOD9237142
_publ_section_title
;
Structure prediction by ZEFSAII (Michael W. Deem and Ramdas Pophale) SiO2 
 PCOD9237142
Probable space group: P 2/C
;
_chemical_formula_sum "Si O2"
_cell_formula_units_Z 24
_cell_length_a 13.018732
_cell_length_b 6.375585
_cell_length_c 24.809999
_cell_angle_alpha 90.000000
_cell_angle_beta 147.791440
_cell_angle_gamma 90.000000
_cell_volume 1097.601965
_symmetry_space_group_name_H-M "P 2/C"
_symmetry_group_IT_number 13
_symmetry_cell_setting 'monoclinic'
loop_
_space_group_symop_operation_xyz
x,y,z
-x,y,1/2-z
-x,-y,-z
x,-y,1/2+z
loop_
_atom_site_type_symbol
_atom_site_label
_atom_site_fract_x
_atom_site_fract_y
_atom_site_fract_z
Si Si1 0.864637 0.144214 0.054274
Si Si2 0.730441 0.010566 0.604692
Si Si3 0.500000 0.868009 0.250000
Si Si4 0.212078 0.435687 0.577927
Si Si5 0.408943 0.817003 0.619035
Si Si6 0.000000 0.386835 0.750000
Si Si7 0.789940 0.270982 0.231454
O O1 0.792275 0.140635 0.083417
O O2 0.089256 0.194837 0.162828
O O3 0.788865 0.321536 0.980564
O O4 0.775811 0.927056 0.991642
O O5 0.795529 0.913558 0.690068
O O6 0.500000 0.000000 0.500000
O O7 0.838684 0.235119 0.650618
O O8 0.688581 0.723647 0.337015
O O9 0.495859 0.003587 0.302223
O O10 0.335699 0.642564 0.626991
O O11 0.000000 0.500000 0.500000
O O12 0.566162 0.715003 0.649141
O O13 0.111941 0.529648 0.755053
#
# Coordination Sequence:
#
# PCOD9237142 Si02
#       7
#     4   4   2   4   4   2   4
#     4  11  25  45  70 107 139 187 239 285 364 418
#     4  12  25  47  69 104 151 190 232 293 353 431
#     4  10  26  50  70 104 140 182 242 292 370 422
#     4  11  28  48  74 107 139 185 245 303 356 428
#     4  11  27  46  74 102 142 189 235 297 361 425
#     4  12  26  44  72 102 148 190 236 288 350 420
#     4  12  26  44  71 107 145 189 238 289 350 428
#
# _framework density 21.865852
#
# number of rings (size 3 to 8) (size 9 to 14) (size 15 to 20)
#    0.000    0.667    5.000    0.500   11.667    2.000 
#    0.000    0.000    0.000    0.000    0.000    0.000 
#    0.000    0.000    0.000    0.000    0.000    0.000 
#
# Total GULP energy -134017.978529 kJ/mol
# GULP energy per Si atom -5584.082439 kJ/mol
# Density = 2.181608 g / cm^3
# Si number density = 21.865852 Si / 1000 Ang^3
#
#
#
# Elastic Constant Matrix: (Units=GPa)
#
#
# Indices 1 2 3 4 5 6 
#
# 1 79.6061 46.0954 20.1586 0.0000 24.1195 0.0000
# 2 46.0954 109.2005 66.8325 0.0000 21.0163 0.0000
# 3 20.1586 66.8325 119.6741 0.0000 -7.3100 0.0000
# 4 0.0000 0.0000 0.0000 34.9212 0.0000 0.6707
# 5 24.1195 21.0163 -7.3100 0.0000 37.6945 0.0000
# 6 0.0000 0.0000 0.0000 0.6707 0.0000 20.9391
#
#
#
# Elastic Compliance Matrix: (Units=1/GPa)
#
#
# Indices 1 2 3 4 5 6 
#
# 1 0.018790 -0.006070 -0.000307 0.000000 -0.008698 0.000000
# 2 -0.006070 0.020154 -0.010810 0.000000 -0.009449 0.000000
# 3 -0.000307 -0.010810 0.015002 0.000000 0.009133 0.000000
# 4 0.000000 0.000000 0.000000 0.028654 0.000000 -0.000918
# 5 -0.008698 -0.009449 0.009133 0.000000 0.039134 0.000000
# 6 0.000000 0.000000 0.000000 -0.000918 0.000000 0.047787
#
#
# Mechanical properties :
#
#
# Convention : Reuss Voigt Hill
#
# Bulk Modulus (GPa) = 51.08966 63.85040 57.47003
# Shear Modulus (GPa) = 23.76233 30.40391 27.08312
#
# Velocity S-wave (km/s) = 3.30014 3.73295 3.52320
# Velocity P-wave (km/s) = 6.15930 6.91696 6.54909
#
# Compressibility (1/GPa) = 0.01957343
#
# Stress axis : x y z
#
# Youngs Moduli (GPa) = 53.22108 49.61828 66.65650
#
# Poissons Ratio (x) = 0.30116 0.02045
# Poissons Ratio (y) = 0.32303 0.72054
# Poissons Ratio (z) = 0.01632 0.53636
#
# Static dielectric constant tensor:
#      x y z
#    x 1.780660 0.000000 0.031210 
#    y 0.000000 1.796910 0.000000 
#    z 0.031210 0.000000 1.881220 
# 
# From -- ./inp_files/52139.got.cif
#   From: 2010.05.17/outbox.cif.g08.bks.cpg/sg13_27_cif.got.tgz:52139.got - 2010.06.03 16:44:36.
