data_PCOD9237726
_publ_section_title
;
Structure prediction by ZEFSAII (Michael W. Deem and Ramdas Pophale) SiO2 
 PCOD9237726
Probable space group: P 2/C
;
_chemical_formula_sum "Si O2"
_cell_formula_units_Z 28
_cell_length_a 12.799653
_cell_length_b 5.839962
_cell_length_c 15.005234
_cell_angle_alpha 90.000000
_cell_angle_beta 100.628652
_cell_angle_gamma 90.000000
_cell_volume 1102.389945
_symmetry_space_group_name_H-M "P 2/C"
_symmetry_group_IT_number 13
_symmetry_cell_setting 'monoclinic'
loop_
_space_group_symop_operation_xyz
x,y,z
-x,y,1/2-z
-x,-y,-z
x,-y,1/2+z
loop_
_atom_site_type_symbol
_atom_site_label
_atom_site_fract_x
_atom_site_fract_y
_atom_site_fract_z
Si Si1 0.963833 0.280515 0.047963
Si Si2 0.728422 0.186933 0.238745
Si Si3 0.726647 0.830681 0.086686
Si Si4 0.106804 0.486146 0.795840
Si Si5 0.516948 0.742048 0.419227
Si Si6 0.491987 0.249080 0.373676
Si Si7 0.184849 0.008790 0.074514
O O1 0.942367 0.321722 0.148033
O O2 0.067984 0.121196 0.062793
O O3 0.000000 0.500000 0.000000
O O4 0.852427 0.217445 0.982502
O O5 0.811317 0.396800 0.259563
O O6 0.605327 0.259252 0.212035
O O7 0.759909 0.011761 0.321663
O O8 0.743710 0.057954 0.147577
O O9 0.820584 0.667415 0.131136
O O10 0.611920 0.735091 0.095593
O O11 0.740030 0.863971 0.984083
O O12 0.000000 0.354853 0.750000
O O13 0.550979 0.497798 0.382631
O O14 0.550618 0.755032 0.528693
O O15 0.538757 0.987881 0.375740
#
# Coordination Sequence:
#
# PCOD9237726 Si02
#       7
#     4   4   4   4   4   4   4
#     4  11  23  39  54  80 119 159 205 255 310 361
#     4  11  23  39  58  88 121 157 210 255 313 383
#     4  11  23  39  59  87 118 161 206 255 320 374
#     4  12  23  36  59  84 118 161 204 258 305 379
#     4   9  18  35  64  89 121 159 202 254 316 378
#     4   9  18  36  61  93 120 157 203 256 314 376
#     4  11  24  38  58  84 120 163 206 259 308 373
#
# _framework density 25.399357999999999
#
# number of rings (size 3 to 8) (size 9 to 14) (size 15 to 20)
#    0.000    1.429    5.714    0.000    2.000    0.571 
#    0.000    0.714    0.000    0.000    0.000    6.000 
#    0.000    0.000    0.000    0.000    0.000    0.000 
#
# Total GULP energy -156342.648168 kJ/mol
# GULP energy per Si atom -5583.666006 kJ/mol
# Density = 2.534155 g / cm^3
# Si number density = 25.399358 Si / 1000 Ang^3
#
#
#
# Elastic Constant Matrix: (Units=GPa)
#
#
# Indices 1 2 3 4 5 6 
#
# 1 105.2325 17.6783 27.6318 0.0000 24.1730 0.0000
# 2 17.6783 106.8796 11.2477 0.0000 8.2648 0.0000
# 3 27.6318 11.2477 105.2255 0.0000 32.2347 0.0000
# 4 0.0000 0.0000 0.0000 27.7651 0.0000 6.0884
# 5 24.1730 8.2648 32.2347 0.0000 44.6650 0.0000
# 6 0.0000 0.0000 0.0000 6.0884 0.0000 29.1845
#
#
#
# Elastic Compliance Matrix: (Units=1/GPa)
#
#
# Indices 1 2 3 4 5 6 
#
# 1 0.011188 -0.001337 -0.001304 0.000000 -0.004866 0.000000
# 2 -0.001337 0.009683 -0.000458 0.000000 -0.000738 0.000000
# 3 -0.001304 -0.000458 0.012392 0.000000 -0.008153 0.000000
# 4 0.000000 0.000000 0.000000 0.037743 0.000000 -0.007874
# 5 -0.004866 -0.000738 -0.008153 0.000000 0.031043 0.000000
# 6 0.000000 0.000000 0.000000 -0.007874 0.000000 0.035907
#
#
# Mechanical properties :
#
#
# Convention : Reuss Voigt Hill
#
# Bulk Modulus (GPa) = 36.94874 47.82813 42.38844
# Shear Modulus (GPa) = 32.64220 37.70824 35.17522
#
# Velocity S-wave (km/s) = 3.58880 3.85725 3.72544
# Velocity P-wave (km/s) = 5.63483 6.22167 5.93551
#
# Compressibility (1/GPa) = 0.02706452
#
# Stress axis : x y z
#
# Youngs Moduli (GPa) = 89.38440 103.27714 80.69445
#
# Poissons Ratio (x) = 0.13807 0.10524
# Poissons Ratio (y) = 0.11950 0.03696
# Poissons Ratio (z) = 0.11658 0.04730
#
# Static dielectric constant tensor:
#      x y z
#    x 2.023380 0.000000 -0.009800 
#    y 0.000000 2.135670 0.000000 
#    z -0.009800 0.000000 2.002170 
# 
# From -- ./inp_files/54389.got.cif
#   From: 2010.05.17/outbox.cif.g08.bks.cpg/sg13_28_cif.got.tgz:54389.got - 2010.06.03 16:44:36.
