data_PCOD9237864
_publ_section_title
;
Structure prediction by ZEFSAII (Michael W. Deem and Ramdas Pophale) SiO2 
 PCOD9237864
Probable space group: P 2/C
;
_chemical_formula_sum "Si O2"
_cell_formula_units_Z 20
_cell_length_a 14.505953
_cell_length_b 4.902291
_cell_length_c 24.274640
_cell_angle_alpha 90.000000
_cell_angle_beta 153.151020
_cell_angle_gamma 90.000000
_cell_volume 779.634318
_symmetry_space_group_name_H-M "P 2/C"
_symmetry_group_IT_number 13
_symmetry_cell_setting 'monoclinic'
loop_
_space_group_symop_operation_xyz
x,y,z
-x,y,1/2-z
-x,-y,-z
x,-y,1/2+z
loop_
_atom_site_type_symbol
_atom_site_label
_atom_site_fract_x
_atom_site_fract_y
_atom_site_fract_z
Si Si1 0.504530 0.953185 0.861288
Si Si2 0.654892 0.301680 0.550745
Si Si3 0.953658 0.249236 0.803943
Si Si4 0.069708 0.746030 0.633887
Si Si5 0.345778 0.549790 0.117921
O O1 0.536557 0.875110 0.942191
O O2 0.644303 0.759250 0.897564
O O3 0.274995 0.878633 0.720017
O O4 0.561326 0.262891 0.880892
O O5 0.500000 0.500000 0.500000
O O6 0.787756 0.164505 0.670023
O O7 0.850133 0.400043 0.618431
O O8 0.867332 0.473440 0.799620
O O9 0.009725 0.973933 0.865531
O O10 0.884531 0.653790 0.496119
O O11 0.500000 0.587461 0.250000
#
# Coordination Sequence:
#
# PCOD9237864 Si02
#       5
#     4   4   4   4   4
#     4  12  26  45  73 103 139 181 233 284 349 421
#     4  11  23  43  68 106 140 185 223 269 342 417
#     4  11  25  41  67 101 143 186 220 277 338 416
#     4  12  24  46  69 100 140 181 233 285 344 415
#     4  12  27  49  72  99 136 181 237 301 351 400
#
# _framework density 25.653051000000001
#
# number of rings (size 3 to 8) (size 9 to 14) (size 15 to 20)
#    0.000    0.400    6.000    1.800    0.000    7.200 
#    0.000    0.000    0.000    0.000    0.000    0.000 
#    0.000    0.000    0.000    0.000    0.000    0.000 
#
# Total GULP energy -111922.224162 kJ/mol
# GULP energy per Si atom -5596.111208 kJ/mol
# Density = 2.559466 g / cm^3
# Si number density = 25.653051 Si / 1000 Ang^3
#
#
#
# Elastic Constant Matrix: (Units=GPa)
#
#
# Indices 1 2 3 4 5 6 
#
# 1 40.5879 22.0118 32.1938 0.0000 0.6652 0.0000
# 2 22.0118 78.8598 5.2106 0.0000 -4.8583 0.0000
# 3 32.1938 5.2106 187.4409 0.0000 -17.8654 0.0000
# 4 0.0000 0.0000 0.0000 198.1201 0.0000 41.4497
# 5 0.6652 -4.8583 -17.8654 0.0000 57.2168 0.0000
# 6 0.0000 0.0000 0.0000 41.4497 0.0000 39.1069
#
#
#
# Elastic Compliance Matrix: (Units=1/GPa)
#
#
# Indices 1 2 3 4 5 6 
#
# 1 0.034532 -0.009434 -0.005961 0.000000 -0.003064 0.000000
# 2 -0.009434 0.015337 0.001369 0.000000 0.001839 0.000000
# 3 -0.005961 0.001369 0.006533 0.000000 0.002225 0.000000
# 4 0.000000 0.000000 0.000000 0.006486 0.000000 -0.006874
# 5 -0.003064 0.001839 0.002225 0.000000 0.018364 0.000000
# 6 0.000000 0.000000 0.000000 -0.006874 0.000000 0.032857
#
#
# Mechanical properties :
#
#
# Convention : Reuss Voigt Hill
#
# Bulk Modulus (GPa) = 35.27173 47.30233 41.28703
# Shear Modulus (GPa) = 32.97947 75.38693 54.18320
#
# Velocity S-wave (km/s) = 3.58941 5.42687 4.60080
# Velocity P-wave (km/s) = 5.56398 7.59916 6.65977
#
# Compressibility (1/GPa) = 0.02835131
#
# Stress axis : x y z
#
# Youngs Moduli (GPa) = 28.95844 65.20279 153.07245
#
# Poissons Ratio (x) = 0.61511 0.91244
# Poissons Ratio (y) = 0.27319 -0.20960
# Poissons Ratio (z) = 0.17262 -0.08928
#
# Static dielectric constant tensor:
#      x y z
#    x 2.087490 0.000000 0.042890 
#    y 0.000000 1.943580 0.000000 
#    z 0.042890 0.000000 2.068410 
# 
# From -- ./inp_files/97198.got.cif
#   From: 2010.05.17/outbox.cif.g08.bks.cpg/sg13_49_cif.got.tgz:97198.got - 2010.06.03 16:44:36.
