data_PCOD9237347
_publ_section_title
;
Structure prediction by ZEFSAII (Michael W. Deem and Ramdas Pophale) SiO2 
 PCOD9237347
Probable space group: P 2/C
;
_chemical_formula_sum "Si O2"
_cell_formula_units_Z 24
_cell_length_a 24.943672
_cell_length_b 10.687523
_cell_length_c 9.407700
_cell_angle_alpha 90.000000
_cell_angle_beta 150.240204
_cell_angle_gamma 90.000000
_cell_volume 1244.864272
_symmetry_space_group_name_H-M "P 2/C"
_symmetry_group_IT_number 13
_symmetry_cell_setting 'monoclinic'
loop_
_space_group_symop_operation_xyz
x,y,z
-x,y,1/2-z
-x,-y,-z
x,-y,1/2+z
loop_
_atom_site_type_symbol
_atom_site_label
_atom_site_fract_x
_atom_site_fract_y
_atom_site_fract_z
Si Si1 0.582426 0.970018 0.559841
Si Si2 0.241288 0.245010 0.035998
Si Si3 0.397424 0.254291 0.916870
Si Si4 0.067134 0.588041 0.264481
Si Si5 0.739638 0.406622 0.698530
Si Si6 0.597785 0.371031 0.870607
O O1 0.688621 0.883664 0.824111
O O2 0.500000 0.000000 0.500000
O O3 0.623952 0.107541 0.611579
O O4 0.500000 0.917974 0.250000
O O5 0.313291 0.309158 0.323690
O O6 0.121642 0.287795 0.818335
O O7 0.242524 0.308968 0.885176
O O8 0.299688 0.337322 0.749838
O O9 0.424434 0.286528 0.816952
O O10 0.500000 0.284208 0.250000
O O11 0.159576 0.493743 0.534499
O O12 0.000000 0.624525 0.250000
O O13 0.000000 0.500000 0.000000
O O14 0.644651 0.497641 0.425884
O O15 0.500000 0.394163 0.750000
#
# Coordination Sequence:
#
# PCOD9237347 Si02
#       6
#     4   4   4   4   4   4
#     4  11  22  39  60  87 127 171 211 250 306 381
#     4  11  22  37  61  88 118 161 211 252 315 382
#     4  11  23  37  57  87 126 167 205 252 310 380
#     4  11  23  43  66  93 121 157 206 270 328 381
#     4  11  23  37  60  88 120 158 202 258 328 382
#     4  11  21  34  54  87 125 158 200 253 313 386
#
# _framework density 19.279211
#
# number of rings (size 3 to 8) (size 9 to 14) (size 15 to 20)
#    0.000    1.000    1.667    8.000    2.333    2.000 
#    0.000    0.833    0.000    2.000    0.000    0.000 
#    0.000    0.000    0.000    0.000    0.000    0.000 
#
# Total GULP energy -133814.004661 kJ/mol
# GULP energy per Si atom -5575.583528 kJ/mol
# Density = 1.923533 g / cm^3
# Si number density = 19.279211 Si / 1000 Ang^3
#
#
#
# Elastic Constant Matrix: (Units=GPa)
#
#
# Indices 1 2 3 4 5 6 
#
# 1 140.6704 33.9520 39.0979 0.0000 6.8572 0.0000
# 2 33.9520 86.1404 26.5249 0.0000 18.1796 0.0000
# 3 39.0979 26.5249 73.8572 0.0000 -1.1289 0.0000
# 4 0.0000 0.0000 0.0000 41.3481 0.0000 8.4458
# 5 6.8572 18.1796 -1.1289 0.0000 31.9885 0.0000
# 6 0.0000 0.0000 0.0000 8.4458 0.0000 31.8803
#
#
#
# Elastic Compliance Matrix: (Units=1/GPa)
#
#
# Indices 1 2 3 4 5 6 
#
# 1 0.008730 -0.002066 -0.003892 0.000000 -0.000834 0.000000
# 2 -0.002066 0.015684 -0.004671 0.000000 -0.008635 0.000000
# 3 -0.003892 -0.004671 0.017340 0.000000 0.004101 0.000000
# 4 0.000000 0.000000 0.000000 0.025569 0.000000 -0.006774
# 5 -0.000834 -0.008635 0.004101 0.000000 0.036492 0.000000
# 6 0.000000 0.000000 0.000000 -0.006774 0.000000 0.033162
#
#
# Mechanical properties :
#
#
# Convention : Reuss Voigt Hill
#
# Bulk Modulus (GPa) = 48.79068 55.53528 52.16298
# Shear Modulus (GPa) = 30.29062 34.44960 32.37011
#
# Velocity S-wave (km/s) = 3.96808 4.23173 4.10203
# Velocity P-wave (km/s) = 6.80856 7.26258 7.03923
#
# Compressibility (1/GPa) = 0.02049572
#
# Stress axis : x y z
#
# Youngs Moduli (GPa) = 114.54797 63.75855 57.66956
#
# Poissons Ratio (x) = 0.13175 0.22445
# Poissons Ratio (y) = 0.23669 0.26937
# Poissons Ratio (z) = 0.44583 0.29781
#
# Static dielectric constant tensor:
#      x y z
#    x 1.690580 0.000000 0.028900 
#    y 0.000000 1.718340 0.000000 
#    z 0.028900 0.000000 1.686100 
# 
# From -- ./inp_files/24168.got.cif
#   From: 2010.05.17/outbox.cif.g08.bks.cpg/sg13_13_cif.got.tgz:24168.got - 2010.06.03 16:44:36.
