data_PCOD9237976
_publ_section_title
;
Structure prediction by ZEFSAII (Michael W. Deem and Ramdas Pophale) SiO2 
 PCOD9237976
Probable space group: P 2/C
;
_chemical_formula_sum "Si O2"
_cell_formula_units_Z 20
_cell_length_a 18.000032
_cell_length_b 5.584809
_cell_length_c 14.176722
_cell_angle_alpha 90.000000
_cell_angle_beta 145.357516
_cell_angle_gamma 90.000000
_cell_volume 810.126243
_symmetry_space_group_name_H-M "P 2/C"
_symmetry_group_IT_number 13
_symmetry_cell_setting 'monoclinic'
loop_
_space_group_symop_operation_xyz
x,y,z
-x,y,1/2-z
-x,-y,-z
x,-y,1/2+z
loop_
_atom_site_type_symbol
_atom_site_label
_atom_site_fract_x
_atom_site_fract_y
_atom_site_fract_z
Si Si1 0.804650 0.906666 0.328665
Si Si2 0.500000 0.128185 0.250000
Si Si3 0.000000 0.625751 0.250000
Si Si4 0.216278 0.002159 0.980130
Si Si5 0.541530 0.255768 0.494745
Si Si6 0.920500 0.274986 0.330433
O O1 0.698557 0.762165 0.158535
O O2 0.945856 0.785041 0.475453
O O3 0.769796 0.887575 0.402330
O O4 0.815133 0.177854 0.297699
O O5 0.637079 0.994578 0.406253
O O6 0.483517 0.268847 0.329513
O O7 0.135890 0.757463 0.417959
O O8 0.044352 0.500974 0.197996
O O9 0.121008 0.893401 0.801651
O O10 0.500000 0.500000 0.500000
O O11 0.500000 0.000000 0.500000
#
# Coordination Sequence:
#
# PCOD9237976 Si02
#       6
#     4   2   2   4   4   4
#     4  11  23  47  73 105 152 194 265 328 396 474
#     4  12  28  50  76 112 164 214 264 340 404 484
#     4  12  24  42  76 106 150 204 256 326 398 474
#     4  12  24  48  70 110 151 198 262 320 398 474
#     4  12  29  50  79 115 158 214 267 325 404 485
#     4  11  24  44  72 108 146 196 256 329 393 468
#
# _framework density 24.687512999999999
#
# number of rings (size 3 to 8) (size 9 to 14) (size 15 to 20)
#    0.000    0.400    8.000    0.000    2.800    3.200 
#    0.000    0.000    0.000    0.000    0.000    0.000 
#    0.000    0.000    0.000    0.000    0.000    0.000 
#
# Total GULP energy -111444.885383 kJ/mol
# GULP energy per Si atom -5572.244269 kJ/mol
# Density = 2.463132 g / cm^3
# Si number density = 24.687513 Si / 1000 Ang^3
#
#
#
# Elastic Constant Matrix: (Units=GPa)
#
#
# Indices 1 2 3 4 5 6 
#
# 1 97.6520 30.8161 23.1012 0.0000 -14.6984 0.0000
# 2 30.8161 63.2953 30.9394 0.0000 -1.8418 0.0000
# 3 23.1012 30.9394 146.4508 0.0000 -5.6709 0.0000
# 4 0.0000 0.0000 0.0000 15.0102 0.0000 -3.9909
# 5 -14.6984 -1.8418 -5.6709 0.0000 72.2711 0.0000
# 6 0.0000 0.0000 0.0000 -3.9909 0.0000 28.8884
#
#
#
# Elastic Compliance Matrix: (Units=1/GPa)
#
#
# Indices 1 2 3 4 5 6 
#
# 1 0.012559 -0.005712 -0.000683 0.000000 0.002355 0.000000
# 2 -0.005712 0.020218 -0.003406 0.000000 -0.000914 0.000000
# 3 -0.000683 -0.003406 0.007670 0.000000 0.000376 0.000000
# 4 0.000000 0.000000 0.000000 0.069162 0.000000 0.009555
# 5 0.002355 -0.000914 0.000376 0.000000 0.014322 0.000000
# 6 0.000000 0.000000 0.000000 0.009555 0.000000 0.035936
#
#
# Mechanical properties :
#
#
# Convention : Reuss Voigt Hill
#
# Bulk Modulus (GPa) = 47.97209 53.01239 50.49224
# Shear Modulus (GPa) = 26.82155 38.07002 32.44578
#
# Velocity S-wave (km/s) = 3.29970 3.93119 3.62920
# Velocity P-wave (km/s) = 5.83020 6.49043 6.16915
#
# Compressibility (1/GPa) = 0.02084545
#
# Stress axis : x y z
#
# Youngs Moduli (GPa) = 79.62349 49.46060 130.37745
#
# Poissons Ratio (x) = 0.28252 0.08906
# Poissons Ratio (y) = 0.45482 0.44402
# Poissons Ratio (z) = 0.05439 0.16845
#
# Static dielectric constant tensor:
#      x y z
#    x 2.078620 0.000000 0.025130 
#    y 0.000000 2.110130 0.000000 
#    z 0.025130 0.000000 2.074180 
# 
# From -- ./inp_files/49017.got.cif
#   From: 2010.05.17/outbox.cif.g08.bks.cpg/sg13_25_cif.got.tgz:49017.got - 2010.06.03 16:44:36.
