data_PCOD9237502
_publ_section_title
;
Structure prediction by ZEFSAII (Michael W. Deem and Ramdas Pophale) SiO2 
 PCOD9237502
Probable space group: P 2/C
;
_chemical_formula_sum "Si O2"
_cell_formula_units_Z 18
_cell_length_a 15.949348
_cell_length_b 8.863814
_cell_length_c 15.561466
_cell_angle_alpha 90.000000
_cell_angle_beta 25.254862
_cell_angle_gamma 90.000000
_cell_volume 938.601479
_symmetry_space_group_name_H-M "P 2/C"
_symmetry_group_IT_number 13
_symmetry_cell_setting 'monoclinic'
loop_
_space_group_symop_operation_xyz
x,y,z
-x,y,1/2-z
-x,-y,-z
x,-y,1/2+z
loop_
_atom_site_type_symbol
_atom_site_label
_atom_site_fract_x
_atom_site_fract_y
_atom_site_fract_z
Si Si1 0.395235 0.659578 0.599459
Si Si2 0.000000 0.970703 0.250000
Si Si3 0.230195 0.161914 0.801912
Si Si4 0.045865 0.266056 0.299092
Si Si5 0.157232 0.834518 0.945464
O O1 0.500000 0.500000 0.500000
O O2 0.559892 0.781146 0.421542
O O3 0.219098 0.665134 0.693733
O O4 0.296078 0.703037 0.782214
O O5 0.856586 0.871873 0.441260
O O6 0.899084 0.092013 0.278721
O O7 0.225999 0.986556 0.832256
O O8 0.146293 0.249793 0.963466
O O9 0.064847 0.191431 0.882726
O O10 0.000000 0.340968 0.250000
#
# Coordination Sequence:
#
# PCOD9237502 Si02
#       5
#     4   2   4   4   4
#     4  11  22  35  59  90 118 156 197 229 289 362
#     4   8  16  36  60  80 114 150 196 248 294 322
#     4   9  18  35  60  84 109 147 199 237 284 346
#     4   8  18  36  57  85 109 152 193 247 290 333
#     4   9  18  35  59  86 113 151 190 244 292 334
#
# _framework density 19.177468000000001
#
# number of rings (size 3 to 8) (size 9 to 14) (size 15 to 20)
#    0.667    2.222    0.000    2.000    0.000    4.444 
#    0.000    3.333   14.667    0.000    0.000    0.000 
#    0.000    0.000    0.000    0.000    0.000    0.000 
#
# Total GULP energy -100265.428842 kJ/mol
# GULP energy per Si atom -5570.301602 kJ/mol
# Density = 1.913382 g / cm^3
# Si number density = 19.177468 Si / 1000 Ang^3
#
#
#
# Elastic Constant Matrix: (Units=GPa)
#
#
# Indices 1 2 3 4 5 6 
#
# 1 51.8607 17.4762 34.3579 0.0000 21.3267 0.0000
# 2 17.4762 47.3183 28.8736 0.0000 2.7069 0.0000
# 3 34.3579 28.8736 90.9872 0.0000 11.3560 0.0000
# 4 0.0000 0.0000 0.0000 31.3691 0.0000 -3.9961
# 5 21.3267 2.7069 11.3560 0.0000 23.6030 0.0000
# 6 0.0000 0.0000 0.0000 -3.9961 0.0000 11.5337
#
#
#
# Elastic Compliance Matrix: (Units=1/GPa)
#
#
# Indices 1 2 3 4 5 6 
#
# 1 0.040954 -0.007802 -0.009024 0.000000 -0.031768 0.000000
# 2 -0.007802 0.027720 -0.006738 0.000000 0.007112 0.000000
# 3 -0.009024 -0.006738 0.016407 0.000000 0.001032 0.000000
# 4 0.000000 0.000000 0.000000 0.033350 0.000000 0.011555
# 5 -0.031768 0.007112 0.001032 0.000000 0.069759 0.000000
# 6 0.000000 0.000000 0.000000 0.011555 0.000000 0.090706
#
#
# Mechanical properties :
#
#
# Convention : Reuss Voigt Hill
#
# Bulk Modulus (GPa) = 26.34825 39.06460 32.70642
# Shear Modulus (GPa) = 14.76339 20.59839 17.68089
#
# Velocity S-wave (km/s) = 2.77759 3.28089 3.03968
# Velocity P-wave (km/s) = 4.90466 5.89632 5.42320
#
# Compressibility (1/GPa) = 0.03795319
#
# Stress axis : x y z
#
# Youngs Moduli (GPa) = 24.41786 36.07546 60.94776
#
# Poissons Ratio (x) = 0.28145 0.54999
# Poissons Ratio (y) = 0.19050 0.41067
# Poissons Ratio (z) = 0.22034 0.24308
#
# Static dielectric constant tensor:
#      x y z
#    x 1.703280 0.000000 0.027900 
#    y 0.000000 1.713790 0.000000 
#    z 0.027900 0.000000 1.643830 
# 
# From -- ./inp_files/60586.got.cif
#   From: 2010.05.17/outbox.cif.g08.bks.cpg/sg13_31_cif.got.tgz:60586.got - 2010.06.03 16:44:36.
