data_PCOD9237361
_publ_section_title
;
Structure prediction by ZEFSAII (Michael W. Deem and Ramdas Pophale) SiO2 
 PCOD9237361
Probable space group: P 2/C
;
_chemical_formula_sum "Si O2"
_cell_formula_units_Z 18
_cell_length_a 14.888237
_cell_length_b 6.603430
_cell_length_c 8.015455
_cell_angle_alpha 90.000000
_cell_angle_beta 83.279231
_cell_angle_gamma 90.000000
_cell_volume 782.611791
_symmetry_space_group_name_H-M "P 2/C"
_symmetry_group_IT_number 13
_symmetry_cell_setting 'monoclinic'
loop_
_space_group_symop_operation_xyz
x,y,z
-x,y,1/2-z
-x,-y,-z
x,-y,1/2+z
loop_
_atom_site_type_symbol
_atom_site_label
_atom_site_fract_x
_atom_site_fract_y
_atom_site_fract_z
Si Si1 0.906614 0.176137 0.710828
Si Si2 0.500000 0.136053 0.750000
Si Si3 0.369149 0.880062 0.016330
Si Si4 0.758043 0.838390 0.735778
Si Si5 0.906658 0.572234 0.871900
O O1 0.829069 0.019424 0.684310
O O2 0.888782 0.331200 0.867290
O O3 0.917302 0.320706 0.547675
O O4 0.000000 0.072801 0.750000
O O5 0.561286 0.993293 0.620745
O O6 0.571707 0.241412 0.859361
O O7 0.312524 0.055595 0.122488
O O8 0.298527 0.767512 0.912459
O O9 0.819452 0.668929 0.804288
O O10 0.000000 0.605639 0.750000
#
# Coordination Sequence:
#
# PCOD9237361 Si02
#       5
#     4   2   4   4   4
#     4  11  24  38  56  81 119 161 193 235 283 327
#     4   8  16  34  54  86 120 138 182 232 292 356
#     4   9  18  32  57  88 114 144 185 236 286 347
#     4  11  21  35  59  90 114 146 203 235 275 333
#     4  11  24  38  56  81 119 161 193 235 283 327
#
# _framework density 22.999911000000001
#
# number of rings (size 3 to 8) (size 9 to 14) (size 15 to 20)
#    0.000    1.778    2.222    3.333    6.222    1.778 
#    0.000    0.000    0.000    0.000    0.000  108.889 
#    0.000    0.000    0.000    0.000    0.000    0.000 
#
# Total GULP energy -100517.032293 kJ/mol
# GULP energy per Si atom -5584.279572 kJ/mol
# Density = 2.294756 g / cm^3
# Si number density = 22.999911 Si / 1000 Ang^3
#
#
#
# Elastic Constant Matrix: (Units=GPa)
#
#
# Indices 1 2 3 4 5 6 
#
# 1 162.8165 15.7825 68.2609 0.0000 39.3841 0.0000
# 2 15.7825 45.7520 -0.6148 0.0000 4.0095 0.0000
# 3 68.2609 -0.6148 97.4649 0.0000 32.7058 0.0000
# 4 0.0000 0.0000 0.0000 -28.5330 0.0000 -6.2211
# 5 39.3841 4.0095 32.7058 0.0000 76.5705 0.0000
# 6 0.0000 0.0000 0.0000 -6.2211 0.0000 7.8290
#
#
#
# Elastic Compliance Matrix: (Units=1/GPa)
#
#
# Indices 1 2 3 4 5 6 
#
# 1 0.009450 -0.003149 -0.005910 0.000000 -0.002172 0.000000
# 2 -0.003149 0.023038 0.002582 0.000000 -0.000690 0.000000
# 3 -0.005910 0.002582 0.015689 0.000000 -0.003797 0.000000
# 4 0.000000 0.000000 0.000000 -0.029872 0.000000 -0.023737
# 5 -0.002172 -0.000690 -0.003797 0.000000 0.015835 0.000000
# 6 0.000000 0.000000 0.000000 -0.023737 0.000000 0.108868
#
#
# Mechanical properties :
#
#
# Convention : Reuss Voigt Hill
#
# Bulk Modulus (GPa) = 28.38899 52.54342 40.46620
# Shear Modulus (GPa) = 29.81458 26.01362 27.91410
#
# Velocity S-wave (km/s) = 3.60431 3.36673 3.48754
# Velocity P-wave (km/s) = 5.44897 6.16505 5.81804
#
# Compressibility (1/GPa) = 0.03522493
#
# Stress axis : x y z
#
# Youngs Moduli (GPa) = 105.82001 43.40589 63.73718
#
# Poissons Ratio (x) = 0.13668 0.37666
# Poissons Ratio (y) = 0.33322 -0.16458
# Poissons Ratio (z) = 0.62535 -0.11208
#
# Static dielectric constant tensor:
#      x y z
#    x 1.886750 0.000000 0.020860 
#    y 0.000000 1.797980 0.000000 
#    z 0.020860 0.000000 1.950060 
# 
# From -- ./inp_files/14513.got.cif
#   From: 2010.05.17/outbox.cif.g08.bks.cpg/sg13_8_cif.got.tgz:14513.got - 2010.06.03 16:44:36.
