data_PCOD9237034
_publ_section_title
;
Structure prediction by ZEFSAII (Michael W. Deem and Ramdas Pophale) SiO2 
 PCOD9237034
Probable space group: P 2/C
;
_chemical_formula_sum "Si O2"
_cell_formula_units_Z 28
_cell_length_a 11.655812
_cell_length_b 8.483280
_cell_length_c 13.701793
_cell_angle_alpha 90.000000
_cell_angle_beta 55.420440
_cell_angle_gamma 90.000000
_cell_volume 1115.481490
_symmetry_space_group_name_H-M "P 2/C"
_symmetry_group_IT_number 13
_symmetry_cell_setting 'monoclinic'
loop_
_space_group_symop_operation_xyz
x,y,z
-x,y,1/2-z
-x,-y,-z
x,-y,1/2+z
loop_
_atom_site_type_symbol
_atom_site_label
_atom_site_fract_x
_atom_site_fract_y
_atom_site_fract_z
Si Si1 0.500000 0.438494 0.750000
Si Si2 0.160583 0.870587 0.857199
Si Si3 0.725652 0.209812 0.682743
Si Si4 0.837912 0.608477 0.302067
Si Si5 0.636075 0.344913 0.351547
Si Si6 0.540814 0.122200 0.562566
Si Si7 0.221991 0.118699 0.535586
Si Si8 0.000000 0.089938 0.250000
O O1 0.634808 0.327080 0.655390
O O2 0.452363 0.545561 0.680643
O O3 0.301118 0.795385 0.745204
O O4 0.045766 0.831455 0.830118
O O5 0.173609 0.058158 0.868513
O O6 0.147790 0.815484 0.974418
O O7 0.815932 0.327811 0.703946
O O8 0.591611 0.147625 0.806734
O O9 0.766382 0.440498 0.332281
O O10 0.749110 0.724466 0.415977
O O11 0.000000 0.609321 0.250000
O O12 0.569181 0.273038 0.480732
O O13 0.500000 0.000000 0.500000
O O14 0.664208 0.015084 0.551559
O O15 0.127293 0.019683 0.655806
#
# Coordination Sequence:
#
# PCOD9237034 Si02
#       8
#     2   4   4   4   4   4   4   2
#     4  10  26  40  62 106 148 184 234 290 364 452
#     4  12  25  43  76 105 138 192 251 306 355 436
#     4  11  22  46  69 103 147 191 240 303 368 433
#     4  11  23  44  69  96 152 199 233 300 377 430
#     4  11  26  42  68 104 147 191 237 310 362 437
#     4  12  22  43  72 103 138 195 241 304 367 423
#     4  12  24  42  75 102 140 197 247 300 367 433
#     4  12  22  48  68 106 144 186 252 306 354 426
#
# _framework density 25.101267
#
# number of rings (size 3 to 8) (size 9 to 14) (size 15 to 20)
#    0.000    0.571    6.429    1.286    3.000    4.000 
#    0.000    0.714    0.000    0.000    0.000    0.000 
#    0.000    0.000    0.000    0.000    0.000    0.000 
#
# Total GULP energy -156220.010574 kJ/mol
# GULP energy per Si atom -5579.286092 kJ/mol
# Density = 2.504414 g / cm^3
# Si number density = 25.101267 Si / 1000 Ang^3
#
#
#
# Elastic Constant Matrix: (Units=GPa)
#
#
# Indices 1 2 3 4 5 6 
#
# 1 155.1915 23.2585 6.1869 0.0000 10.4385 0.0000
# 2 23.2585 94.1950 -1.4770 0.0000 -4.5690 0.0000
# 3 6.1869 -1.4770 54.0662 0.0000 8.1228 0.0000
# 4 0.0000 0.0000 0.0000 21.8588 0.0000 -0.1481
# 5 10.4385 -4.5690 8.1228 0.0000 34.9327 0.0000
# 6 0.0000 0.0000 0.0000 -0.1481 0.0000 11.5047
#
#
#
# Elastic Compliance Matrix: (Units=1/GPa)
#
#
# Indices 1 2 3 4 5 6 
#
# 1 0.006882 -0.001813 -0.000510 0.000000 -0.002175 0.000000
# 2 -0.001813 0.011162 0.000219 0.000000 0.001951 0.000000
# 3 -0.000510 0.000219 0.019204 0.000000 -0.004284 0.000000
# 4 0.000000 0.000000 0.000000 0.045752 0.000000 0.000589
# 5 -0.002175 0.001951 -0.004284 0.000000 0.030528 0.000000
# 6 0.000000 0.000000 0.000000 0.000589 0.000000 0.086929
#
#
# Mechanical properties :
#
#
# Convention : Reuss Voigt Hill
#
# Bulk Modulus (GPa) = 30.26608 39.93216 35.09912
# Shear Modulus (GPa) = 23.18279 32.02485 27.60382
#
# Velocity S-wave (km/s) = 3.04233 3.57575 3.31977
# Velocity P-wave (km/s) = 4.94214 5.74377 5.35797
#
# Compressibility (1/GPa) = 0.03304029
#
# Stress axis : x y z
#
# Youngs Moduli (GPa) = 145.30731 89.59014 52.07276
#
# Poissons Ratio (x) = 0.16241 0.02657
# Poissons Ratio (y) = 0.26341 -0.01142
# Poissons Ratio (z) = 0.07415 -0.01965
#
# Static dielectric constant tensor:
#      x y z
#    x 2.025210 0.000000 -0.045390 
#    y 0.000000 1.976470 0.000000 
#    z -0.045390 0.000000 1.919410 
# 
# From -- ./inp_files/49943.got.cif
#   From: 2010.05.17/outbox.cif.g08.bks.cpg/sg13_25_cif.got.tgz:49943.got - 2010.06.03 16:44:36.
