data_PCOD9237831
_publ_section_title
;
Structure prediction by ZEFSAII (Michael W. Deem and Ramdas Pophale) SiO2 
 PCOD9237831
Probable space group: P 2/C
;
_chemical_formula_sum "Si O2"
_cell_formula_units_Z 30
_cell_length_a 17.789562
_cell_length_b 11.918640
_cell_length_c 10.031687
_cell_angle_alpha 90.000000
_cell_angle_beta 142.432824
_cell_angle_gamma 90.000000
_cell_volume 1296.808466
_symmetry_space_group_name_H-M "P 2/C"
_symmetry_group_IT_number 13
_symmetry_cell_setting 'monoclinic'
loop_
_space_group_symop_operation_xyz
x,y,z
-x,y,1/2-z
-x,-y,-z
x,-y,1/2+z
loop_
_atom_site_type_symbol
_atom_site_label
_atom_site_fract_x
_atom_site_fract_y
_atom_site_fract_z
Si Si1 0.500000 0.987151 0.750000
Si Si2 0.280181 0.149696 0.001788
Si Si3 0.609006 0.188023 0.053423
Si Si4 0.243066 0.491256 0.481891
Si Si5 0.923483 0.022883 0.259188
Si Si6 0.604067 0.438975 0.061411
Si Si7 0.941313 0.323639 0.814359
Si Si8 0.835492 0.746741 0.682582
O O1 0.478157 0.082661 0.603845
O O2 0.609480 0.897382 0.932835
O O3 0.342482 0.180019 0.228716
O O4 0.176281 0.241584 0.821269
O O5 0.204791 0.036934 0.914834
O O6 0.555545 0.313547 0.967114
O O7 0.728110 0.197927 0.123172
O O8 0.344581 0.491946 0.504288
O O9 0.284125 0.555001 0.674119
O O10 0.119648 0.553848 0.261654
O O11 0.217866 0.359650 0.470691
O O12 0.893876 0.151092 0.185365
O O13 0.000000 0.967499 0.250000
O O14 0.000000 0.000000 0.500000
O O15 0.500000 0.500000 0.000000
O O16 0.000000 0.307085 0.750000
O O17 0.053732 0.299247 0.070496
#
# Coordination Sequence:
#
# PCOD9237831 Si02
#       8
#     2   4   4   4   4   4   4   4
#     4  12  28  42  72 102 142 192 258 308 354 454
#     4  12  24  44  70 100 140 190 243 290 373 434
#     4  11  24  48  66 102 144 193 238 300 378 425
#     4  11  25  45  69 113 142 192 245 298 369 438
#     4  12  25  42  70 102 140 185 238 295 356 433
#     4  11  25  44  76 102 150 196 244 299 364 442
#     4  12  22  43  73 102 148 194 238 301 373 445
#     4  11  23  42  70 102 142 187 233 296 367 432
#
# _framework density 23.133718999999999
#
# number of rings (size 3 to 8) (size 9 to 14) (size 15 to 20)
#    0.000    0.533    5.333    3.200    3.733    2.667 
#    0.000    0.000    0.000    0.000    0.000    0.000 
#    0.000    0.000    0.000    0.000    0.000    0.000 
#
# Total GULP energy -167435.347363 kJ/mol
# GULP energy per Si atom -5581.178245 kJ/mol
# Density = 2.308107 g / cm^3
# Si number density = 23.133719 Si / 1000 Ang^3
#
#
#
# Elastic Constant Matrix: (Units=GPa)
#
#
# Indices 1 2 3 4 5 6 
#
# 1 55.0199 20.8126 -2.7324 0.0000 11.5578 0.0000
# 2 20.8126 114.6056 0.3410 0.0000 6.7613 0.0000
# 3 -2.7324 0.3410 62.1245 0.0000 -5.3896 0.0000
# 4 0.0000 0.0000 0.0000 34.6863 0.0000 6.6856
# 5 11.5578 6.7613 -5.3896 0.0000 37.5504 0.0000
# 6 0.0000 0.0000 0.0000 6.6856 0.0000 33.6452
#
#
#
# Elastic Compliance Matrix: (Units=1/GPa)
#
#
# Indices 1 2 3 4 5 6 
#
# 1 0.020686 -0.003422 0.000435 0.000000 -0.005688 0.000000
# 2 -0.003422 0.009388 -0.000261 0.000000 -0.000674 0.000000
# 3 0.000435 -0.000261 0.016313 0.000000 0.002254 0.000000
# 4 0.000000 0.000000 0.000000 0.029978 0.000000 -0.005957
# 5 -0.005688 -0.000674 0.002254 0.000000 0.028827 0.000000
# 6 0.000000 0.000000 0.000000 -0.005957 0.000000 0.030906
#
#
# Mechanical properties :
#
#
# Convention : Reuss Voigt Hill
#
# Bulk Modulus (GPa) = 25.06816 29.84361 27.45589
# Shear Modulus (GPa) = 32.07391 35.39830 33.73611
#
# Velocity S-wave (km/s) = 3.72756 3.91597 3.82292
# Velocity P-wave (km/s) = 5.42088 5.77710 5.60182
#
# Compressibility (1/GPa) = 0.03989124
#
# Stress axis : x y z
#
# Youngs Moduli (GPa) = 48.34097 106.52292 61.30137
#
# Poissons Ratio (x) = 0.36456 -0.02667
# Poissons Ratio (y) = 0.16544 0.01597
# Poissons Ratio (z) = -0.02103 0.02776
#
# Static dielectric constant tensor:
#      x y z
#    x 1.814500 0.000000 -0.066780 
#    y 0.000000 1.917640 0.000000 
#    z -0.066780 0.000000 1.811940 
# 
# From -- ./inp_files/40901.got.cif
#   From: 2010.05.17/outbox.cif.g08.bks.cpg/sg13_21_cif.got.tgz:40901.got - 2010.06.03 16:44:36.
