data_PCOD9237216
_publ_section_title
;
Structure prediction by ZEFSAII (Michael W. Deem and Ramdas Pophale) SiO2 
 PCOD9237216
Probable space group: P 2/C
;
_chemical_formula_sum "Si O2"
_cell_formula_units_Z 24
_cell_length_a 23.413927
_cell_length_b 10.176715
_cell_length_c 23.838821
_cell_angle_alpha 90.000000
_cell_angle_beta 12.329405
_cell_angle_gamma 90.000000
_cell_volume 1212.911710
_symmetry_space_group_name_H-M "P 2/C"
_symmetry_group_IT_number 13
_symmetry_cell_setting 'monoclinic'
loop_
_space_group_symop_operation_xyz
x,y,z
-x,y,1/2-z
-x,-y,-z
x,-y,1/2+z
loop_
_atom_site_type_symbol
_atom_site_label
_atom_site_fract_x
_atom_site_fract_y
_atom_site_fract_z
Si Si1 0.196525 0.876082 0.421744
Si Si2 0.338855 0.974763 0.598180
Si Si3 0.616957 0.362058 0.199126
Si Si4 0.164931 0.791570 0.186631
Si Si5 0.223622 0.344996 0.986982
Si Si6 0.815118 0.966126 0.456741
O O1 0.159798 0.748945 0.495847
O O2 0.472517 0.888432 0.123613
O O3 0.193021 0.996991 0.468854
O O4 0.943318 0.900667 0.624504
O O5 0.273140 0.114234 0.631131
O O6 0.500000 0.000000 0.500000
O O7 0.500000 0.322325 0.250000
O O8 0.378908 0.322193 0.468773
O O9 0.702650 0.511754 0.109638
O O10 0.875104 0.276447 0.967680
O O11 0.124046 0.881180 0.169048
O O12 0.500000 0.295225 0.750000
O O13 0.000000 0.366040 0.250000
O O14 0.000000 0.081207 0.250000
O O15 0.500000 0.965899 0.750000
#
# Coordination Sequence:
#
# PCOD9237216 Si02
#       6
#     4   4   4   4   4   4
#     4  11  22  37  59  84 111 149 191 233 286 343
#     4  11  24  41  61  83 110 148 195 253 303 331
#     4  11  21  34  55  84 120 155 182 216 270 342
#     4  11  21  34  54  80 111 148 187 229 281 338
#     4  11  22  38  59  86 123 159 188 220 269 345
#     4  11  19  30  51  83 118 143 175 227 284 347
#
# _framework density 19.787094
#
# number of rings (size 3 to 8) (size 9 to 14) (size 15 to 20)
#    0.000    1.000    0.000   11.500    0.000    0.000 
#    0.000    0.000    0.000    6.000    0.000    0.000 
#    0.000    0.000    0.000    0.000    0.000    0.000 
#
# Total GULP energy -133644.959344 kJ/mol
# GULP energy per Si atom -5568.539973 kJ/mol
# Density = 1.974206 g / cm^3
# Si number density = 19.787094 Si / 1000 Ang^3
#
#
#
# Elastic Constant Matrix: (Units=GPa)
#
#
# Indices 1 2 3 4 5 6 
#
# 1 97.0525 31.0946 13.0783 0.0000 -33.5217 0.0000
# 2 31.0946 106.9184 25.8697 0.0000 -13.0900 0.0000
# 3 13.0783 25.8697 108.6983 0.0000 -14.2392 0.0000
# 4 0.0000 0.0000 0.0000 18.7197 0.0000 -7.1465
# 5 -33.5217 -13.0900 -14.2392 0.0000 34.5586 0.0000
# 6 0.0000 0.0000 0.0000 -7.1465 0.0000 10.0733
#
#
#
# Elastic Compliance Matrix: (Units=1/GPa)
#
#
# Indices 1 2 3 4 5 6 
#
# 1 0.016388 -0.003105 0.000735 0.000000 0.015024 0.000000
# 2 -0.003105 0.010804 -0.002174 0.000000 0.000185 0.000000
# 3 0.000735 -0.002174 0.010163 0.000000 0.004077 0.000000
# 4 0.000000 0.000000 0.000000 0.073262 0.000000 0.051976
# 5 0.015024 0.000185 0.004077 0.000000 0.045259 0.000000
# 6 0.000000 0.000000 0.000000 0.051976 0.000000 0.136146
#
#
# Mechanical properties :
#
#
# Convention : Reuss Voigt Hill
#
# Bulk Modulus (GPa) = 35.37402 50.30606 42.84004
# Shear Modulus (GPa) = 16.10136 28.84545 22.47340
#
# Velocity S-wave (km/s) = 2.85569 3.82225 3.37376
# Velocity P-wave (km/s) = 5.36558 6.70509 6.07238
#
# Compressibility (1/GPa) = 0.02826933
#
# Stress axis : x y z
#
# Youngs Moduli (GPa) = 61.01851 92.55432 98.39883
#
# Poissons Ratio (x) = 0.28736 -0.07234
# Poissons Ratio (y) = 0.18945 0.21388
# Poissons Ratio (z) = -0.04486 0.20118
#
# Static dielectric constant tensor:
#      x y z
#    x 1.797810 0.000000 0.049470 
#    y 0.000000 1.777730 0.000000 
#    z 0.049470 0.000000 1.799810 
# 
# From -- ./inp_files/89076.got.cif
#   From: 2010.05.17/outbox.cif.g08.bks.cpg/sg13_45_cif.got.tgz:89076.got - 2010.06.03 16:44:36.
