data_PCOD9237047
_publ_section_title
;
Structure prediction by ZEFSAII (Michael W. Deem and Ramdas Pophale) SiO2 
 PCOD9237047
Probable space group: P 2/C
;
_chemical_formula_sum "Si O2"
_cell_formula_units_Z 32
_cell_length_a 8.666621
_cell_length_b 15.077315
_cell_length_c 22.916580
_cell_angle_alpha 90.000000
_cell_angle_beta 149.249958
_cell_angle_gamma 90.000000
_cell_volume 1531.066569
_symmetry_space_group_name_H-M "P 2/C"
_symmetry_group_IT_number 13
_symmetry_cell_setting 'monoclinic'
loop_
_space_group_symop_operation_xyz
x,y,z
-x,y,1/2-z
-x,-y,-z
x,-y,1/2+z
loop_
_atom_site_type_symbol
_atom_site_label
_atom_site_fract_x
_atom_site_fract_y
_atom_site_fract_z
Si Si1 0.135523 0.269160 0.885654
Si Si2 0.267154 0.363601 0.227336
Si Si3 0.673982 0.112960 0.746741
Si Si4 0.793403 0.556774 0.239988
Si Si5 0.355090 0.674693 0.037637
Si Si6 0.539220 0.794645 0.891427
Si Si7 0.778747 0.082063 0.293264
Si Si8 0.121128 0.156512 0.506681
O O1 0.892572 0.191132 0.797955
O O2 0.951174 0.363210 0.828395
O O3 0.364549 0.285586 0.907069
O O4 0.340843 0.236378 0.006722
O O5 0.500000 0.353209 0.250000
O O6 0.253637 0.464849 0.243084
O O7 0.395081 0.293809 0.315848
O O8 0.929952 0.341426 0.096291
O O9 0.500000 0.138231 0.750000
O O10 0.388822 0.092230 0.612549
O O11 0.851955 0.021235 0.811516
O O12 0.000000 0.541319 0.250000
O O13 0.476312 0.589789 0.110890
O O14 0.257870 0.745930 0.053416
O O15 0.300014 0.870364 0.793313
O O16 0.835840 0.835912 0.956074
O O17 0.500000 0.085309 0.250000
O O18 0.028063 0.135274 0.410464
#
# Coordination Sequence:
#
# PCOD9237047 Si02
#       8
#     4   4   4   4   4   4   4   4
#     4  11  25  41  64  94 129 169 215 257 319 381
#     4  12  25  42  68  96 124 168 214 263 320 373
#     4  11  22  37  67  99 127 170 219 265 314 373
#     4  10  26  44  63  93 128 168 212 255 323 388
#     4  11  24  45  65  88 133 172 205 262 322 380
#     4  11  22  40  65  97 125 164 219 265 314 375
#     4   9  21  37  62  97 131 166 215 263 321 374
#     4  11  20  41  67  88 134 170 209 269 314 371
#
# _framework density 20.900461
#
# number of rings (size 3 to 8) (size 9 to 14) (size 15 to 20)
#    0.000    1.250    5.000    0.375    5.250    4.500 
#    0.000    0.625    2.750    0.000    0.000    0.000 
#    0.000    0.000    0.000    0.000    0.000    0.000 
#
# Total GULP energy -178481.800837 kJ/mol
# GULP energy per Si atom -5577.556276 kJ/mol
# Density = 2.085289 g / cm^3
# Si number density = 20.900461 Si / 1000 Ang^3
#
#
#
# Elastic Constant Matrix: (Units=GPa)
#
#
# Indices 1 2 3 4 5 6 
#
# 1 25.2254 15.2385 16.1260 0.0000 -2.0764 0.0000
# 2 15.2385 95.0339 13.4592 0.0000 4.1797 0.0000
# 3 16.1260 13.4592 97.6782 0.0000 -4.0109 0.0000
# 4 0.0000 0.0000 0.0000 38.8670 0.0000 34.8002
# 5 -2.0764 4.1797 -4.0109 0.0000 26.3431 0.0000
# 6 0.0000 0.0000 0.0000 34.8002 0.0000 90.6300
#
#
#
# Elastic Compliance Matrix: (Units=1/GPa)
#
#
# Indices 1 2 3 4 5 6 
#
# 1 0.048594 -0.006986 -0.006900 0.000000 0.003888 0.000000
# 2 -0.006986 0.011836 -0.000581 0.000000 -0.002517 0.000000
# 3 -0.006900 -0.000581 0.011510 0.000000 0.001301 0.000000
# 4 0.000000 0.000000 0.000000 0.039209 0.000000 -0.015055
# 5 0.003888 -0.002517 0.001301 0.000000 0.038864 0.000000
# 6 0.000000 0.000000 0.000000 -0.015055 0.000000 0.016815
#
#
# Mechanical properties :
#
#
# Convention : Reuss Voigt Hill
#
# Bulk Modulus (GPa) = 23.25256 34.17611 28.71434
# Shear Modulus (GPa) = 23.79853 42.70894 33.25374
#
# Velocity S-wave (km/s) = 3.37807 4.52535 3.99313
# Velocity P-wave (km/s) = 5.13465 6.61002 5.91849
#
# Compressibility (1/GPa) = 0.04300601
#
# Stress axis : x y z
#
# Youngs Moduli (GPa) = 20.57880 84.49041 86.87834
#
# Poissons Ratio (x) = 0.59022 0.59949
# Poissons Ratio (y) = 0.14376 0.05047
# Poissons Ratio (z) = 0.14200 0.04908
#
# Static dielectric constant tensor:
#      x y z
#    x 1.733920 0.000000 -0.014740 
#    y 0.000000 1.734690 0.000000 
#    z -0.014740 0.000000 1.830730 
# 
# From -- ./inp_files/85366.got.cif
#   From: 2010.05.17/outbox.cif.g08.bks.cpg/sg13_43_cif.got.tgz:85366.got - 2010.06.03 16:44:36.
