data_PCOD9237683
_publ_section_title
;
Structure prediction by ZEFSAII (Michael W. Deem and Ramdas Pophale) SiO2 
 PCOD9237683
Probable space group: P 2/C
;
_chemical_formula_sum "Si O2"
_cell_formula_units_Z 20
_cell_length_a 11.089705
_cell_length_b 11.629225
_cell_length_c 8.755528
_cell_angle_alpha 90.000000
_cell_angle_beta 49.680954
_cell_angle_gamma 90.000000
_cell_volume 860.927039
_symmetry_space_group_name_H-M "P 2/C"
_symmetry_group_IT_number 13
_symmetry_cell_setting 'monoclinic'
loop_
_space_group_symop_operation_xyz
x,y,z
-x,y,1/2-z
-x,-y,-z
x,-y,1/2+z
loop_
_atom_site_type_symbol
_atom_site_label
_atom_site_fract_x
_atom_site_fract_y
_atom_site_fract_z
Si Si1 0.556856 0.719449 0.525364
Si Si2 0.658722 0.948295 0.531412
Si Si3 0.867782 0.097015 0.144410
Si Si4 0.823831 0.437448 0.924860
Si Si5 0.218458 0.338837 0.207291
O O1 0.500000 0.725907 0.750000
O O2 0.620059 0.847222 0.443304
O O3 0.695187 0.625607 0.422077
O O4 0.403980 0.695645 0.548929
O O5 0.500000 0.984471 0.750000
O O6 0.772419 0.892565 0.564921
O O7 0.752871 0.045485 0.367210
O O8 0.893865 0.227452 0.179213
O O9 0.000000 0.000000 0.000000
O O10 0.819160 0.572953 0.895494
O O11 0.000000 0.393251 0.750000
O O12 0.790993 0.409752 0.127068
#
# Coordination Sequence:
#
# PCOD9237683 Si02
#       5
#     4   4   4   4   4
#     4   9  19  41  71  90 131 179 232 273 343 412
#     4  11  22  45  71  98 139 188 233 290 356 421
#     4  12  26  43  71 105 145 181 238 298 360 416
#     4  11  23  41  69  95 139 181 227 284 350 413
#     4  11  24  46  65 102 139 184 232 286 349 430
#
# _framework density 23.230771000000001
#
# number of rings (size 3 to 8) (size 9 to 14) (size 15 to 20)
#    0.000    1.200    6.000    2.400    2.800    1.600 
#    3.600    3.000    0.000    0.000    0.000    0.000 
#    0.000    0.000    0.000    0.000    0.000    0.000 
#
# Total GULP energy -111786.856984 kJ/mol
# GULP energy per Si atom -5589.342849 kJ/mol
# Density = 2.317790 g / cm^3
# Si number density = 23.230771 Si / 1000 Ang^3
#
#
#
# Elastic Constant Matrix: (Units=GPa)
#
#
# Indices 1 2 3 4 5 6 
#
# 1 69.8640 28.6748 18.7702 0.0000 -20.2860 0.0000
# 2 28.6748 158.5894 68.0758 0.0000 4.0534 0.0000
# 3 18.7702 68.0758 53.9131 0.0000 -16.0711 0.0000
# 4 0.0000 0.0000 0.0000 28.7068 0.0000 -3.5772
# 5 -20.2860 4.0534 -16.0711 0.0000 27.2571 0.0000
# 6 0.0000 0.0000 0.0000 -3.5772 0.0000 39.8427
#
#
#
# Elastic Compliance Matrix: (Units=1/GPa)
#
#
# Indices 1 2 3 4 5 6 
#
# 1 0.022582 -0.010202 0.012718 0.000000 0.025822 0.000000
# 2 -0.010202 0.026232 -0.040034 0.000000 -0.035098 0.000000
# 3 0.012718 -0.040034 0.084038 0.000000 0.064968 0.000000
# 4 0.000000 0.000000 0.000000 0.035229 0.000000 0.003163
# 5 0.025822 -0.035098 0.064968 0.000000 0.099431 0.000000
# 6 0.000000 0.000000 0.000000 0.003163 0.000000 0.025383
#
#
# Mechanical properties :
#
#
# Convention : Reuss Voigt Hill
#
# Bulk Modulus (GPa) = 17.29662 57.04536 37.17099
# Shear Modulus (GPa) = 12.91311 30.28434 21.59873
#
# Velocity S-wave (km/s) = 2.36023 3.61450 3.05248
# Velocity P-wave (km/s) = 3.85867 6.48296 5.33470
#
# Compressibility (1/GPa) = 0.05781478
#
# Stress axis : x y z
#
# Youngs Moduli (GPa) = 44.28334 38.12102 11.89941
#
# Poissons Ratio (x) = 0.38892 -0.15133
# Poissons Ratio (y) = 0.45179 0.47638
# Poissons Ratio (z) = -0.56317 1.52613
#
# Static dielectric constant tensor:
#      x y z
#    x 1.937710 0.000000 -0.048960 
#    y 0.000000 1.947740 0.000000 
#    z -0.048960 0.000000 1.870480 
# 
# From -- ./inp_files/11853.got.cif
#   From: 2010.05.17/outbox.cif.g08.bks.cpg/sg13_6_cif.got.tgz:11853.got - 2010.06.03 16:44:36.
