data_PCOD9237589
_publ_section_title
;
Structure prediction by ZEFSAII (Michael W. Deem and Ramdas Pophale) SiO2 
 PCOD9237589
Probable space group: P 2/C
;
_chemical_formula_sum "Si O2"
_cell_formula_units_Z 24
_cell_length_a 10.585342
_cell_length_b 7.792595
_cell_length_c 22.030378
_cell_angle_alpha 90.000000
_cell_angle_beta 34.480994
_cell_angle_gamma 90.000000
_cell_volume 1028.791312
_symmetry_space_group_name_H-M "P 2/C"
_symmetry_group_IT_number 13
_symmetry_cell_setting 'monoclinic'
loop_
_space_group_symop_operation_xyz
x,y,z
-x,y,1/2-z
-x,-y,-z
x,-y,1/2+z
loop_
_atom_site_type_symbol
_atom_site_label
_atom_site_fract_x
_atom_site_fract_y
_atom_site_fract_z
Si Si1 0.942253 0.884197 0.628140
Si Si2 0.971248 0.257351 0.577755
Si Si3 0.816250 0.347219 0.770354
Si Si4 0.238821 0.274484 0.188993
Si Si5 0.574904 0.828106 0.003514
Si Si6 0.741841 0.594598 0.626980
O O1 0.771587 0.868844 0.753655
O O2 0.899563 0.716924 0.604806
O O3 0.190805 0.866783 0.556610
O O4 0.923187 0.054082 0.594142
O O5 0.934882 0.281891 0.663399
O O6 0.808487 0.394987 0.608756
O O7 0.210385 0.325408 0.458548
O O8 0.748612 0.542500 0.784072
O O9 0.000000 0.345761 0.750000
O O10 0.603813 0.243793 0.878602
O O11 0.398294 0.287898 0.067441
O O12 0.000000 0.253648 0.250000
O O13 0.500000 0.000000 0.000000
O O14 0.500000 0.619737 0.750000
#
# Coordination Sequence:
#
# PCOD9237589 Si02
#       6
#     4   4   4   4   4   4
#     4  11  23  46  71 101 142 189 237 292 358 429
#     4  11  25  46  70 101 141 181 236 299 364 427
#     4  11  22  40  67 103 140 190 232 288 361 430
#     4   9  20  40  64  98 142 179 229 288 350 428
#     4  11  23  39  65 109 146 186 233 287 353 434
#     4  11  27  49  72 101 135 184 246 305 358 425
#
# _framework density 23.328344000000001
#
# number of rings (size 3 to 8) (size 9 to 14) (size 15 to 20)
#    0.000    1.333    1.667    3.000    0.000    8.667 
#    3.000    0.000    0.000    0.000    0.000    0.000 
#    0.000    0.000    0.000    0.000    0.000    0.000 
#
# Total GULP energy -133991.032134 kJ/mol
# GULP energy per Si atom -5582.959672 kJ/mol
# Density = 2.327525 g / cm^3
# Si number density = 23.328344 Si / 1000 Ang^3
#
#
#
# Elastic Constant Matrix: (Units=GPa)
#
#
# Indices 1 2 3 4 5 6 
#
# 1 61.9544 37.3816 40.3228 0.0000 11.3053 0.0000
# 2 37.3816 127.4253 47.5442 0.0000 8.9732 0.0000
# 3 40.3228 47.5442 178.7729 0.0000 33.2235 0.0000
# 4 0.0000 0.0000 0.0000 31.1287 0.0000 20.2844
# 5 11.3053 8.9732 33.2235 0.0000 45.9637 0.0000
# 6 0.0000 0.0000 0.0000 20.2844 0.0000 30.0798
#
#
#
# Elastic Compliance Matrix: (Units=1/GPa)
#
#
# Indices 1 2 3 4 5 6 
#
# 1 0.021594 -0.005013 -0.003156 0.000000 -0.002051 0.000000
# 2 -0.005013 0.009876 -0.001579 0.000000 0.000446 0.000000
# 3 -0.003156 -0.001579 0.007536 0.000000 -0.004363 0.000000
# 4 0.000000 0.000000 0.000000 0.057307 0.000000 -0.038645
# 5 -0.002051 0.000446 -0.004363 0.000000 0.025327 0.000000
# 6 0.000000 0.000000 0.000000 -0.038645 0.000000 0.059305
#
#
# Mechanical properties :
#
#
# Convention : Reuss Voigt Hill
#
# Bulk Modulus (GPa) = 51.25394 68.73889 59.99642
# Shear Modulus (GPa) = 24.16102 37.62803 30.89452
#
# Velocity S-wave (km/s) = 3.22171 4.02054 3.64309
# Velocity P-wave (km/s) = 5.98812 7.14722 6.59319
#
# Compressibility (1/GPa) = 0.01951069
#
# Stress axis : x y z
#
# Youngs Moduli (GPa) = 46.30912 101.25641 132.69198
#
# Poissons Ratio (x) = 0.50757 0.41881
# Poissons Ratio (y) = 0.23214 0.20949
# Poissons Ratio (z) = 0.14616 0.15986
#
# Static dielectric constant tensor:
#      x y z
#    x 1.885010 0.000000 0.112240 
#    y 0.000000 1.840800 0.000000 
#    z 0.112240 0.000000 2.203710 
# 
# From -- ./inp_files/86282.got.cif
#   From: 2010.05.17/outbox.cif.g08.bks.cpg/sg13_44_cif.got.tgz:86282.got - 2010.06.03 16:44:36.
