data_PCOD9237110
_publ_section_title
;
Structure prediction by ZEFSAII (Michael W. Deem and Ramdas Pophale) SiO2 
 PCOD9237110
Probable space group: P 2/C
;
_chemical_formula_sum "Si O2"
_cell_formula_units_Z 22
_cell_length_a 11.256131
_cell_length_b 6.393860
_cell_length_c 15.412820
_cell_angle_alpha 90.000000
_cell_angle_beta 94.911704
_cell_angle_gamma 90.000000
_cell_volume 1105.189190
_symmetry_space_group_name_H-M "P 2/C"
_symmetry_group_IT_number 13
_symmetry_cell_setting 'monoclinic'
loop_
_space_group_symop_operation_xyz
x,y,z
-x,y,1/2-z
-x,-y,-z
x,-y,1/2+z
loop_
_atom_site_type_symbol
_atom_site_label
_atom_site_fract_x
_atom_site_fract_y
_atom_site_fract_z
Si Si1 0.806675 0.814993 0.669339
Si Si2 0.459220 0.718603 0.461644
Si Si3 0.621648 0.526784 0.216658
Si Si4 0.709727 0.031393 0.981542
Si Si5 0.000000 0.497392 0.750000
Si Si6 0.187643 0.185156 0.688600
O O1 0.693374 0.671679 0.686493
O O2 0.783017 0.901048 0.571518
O O3 0.915447 0.652342 0.689437
O O4 0.819534 0.006796 0.737566
O O5 0.500000 0.500000 0.500000
O O6 0.411103 0.686681 0.362023
O O7 0.582164 0.848287 0.469822
O O8 0.345751 0.801139 0.509222
O O9 0.500000 0.450215 0.250000
O O10 0.701045 0.660582 0.287285
O O11 0.787946 0.075265 0.901694
O O12 0.924122 0.341281 0.806555
#
# Coordination Sequence:
#
# PCOD9237110 Si02
#       6
#     4   4   4   4   2   4
#     4  11  24  44  66  93 127 173 218 273 329 380
#     4  11  22  38  57 101 143 168 208 254 316 398
#     4  11  22  37  65  95 139 175 207 261 319 393
#     4  11  24  38  68  97 134 176 210 264 323 394
#     4  10  26  48  68  86 126 166 226 290 318 384
#     4  11  24  44  65  96 128 170 224 269 328 382
#
# _framework density 19.906095000000001
#
# number of rings (size 3 to 8) (size 9 to 14) (size 15 to 20)
#    0.000    1.091    5.455    0.545    2.545    1.455 
#    0.000    3.636    0.000    0.000    0.000    0.000 
#    0.000    0.000    0.000    0.000    0.000    0.000 
#
# Total GULP energy -122781.238186 kJ/mol
# GULP energy per Si atom -5580.965372 kJ/mol
# Density = 1.986079 g / cm^3
# Si number density = 19.906095 Si / 1000 Ang^3
#
#
#
# Elastic Constant Matrix: (Units=GPa)
#
#
# Indices 1 2 3 4 5 6 
#
# 1 121.2130 44.3904 54.6366 0.0000 -3.6873 0.0000
# 2 44.3904 83.8026 50.0486 0.0000 1.9656 0.0000
# 3 54.6366 50.0486 129.8798 0.0000 -4.5162 0.0000
# 4 0.0000 0.0000 0.0000 7.9218 0.0000 28.0508
# 5 -3.6873 1.9656 -4.5162 0.0000 13.0356 0.0000
# 6 0.0000 0.0000 0.0000 28.0508 0.0000 -17.7359
#
#
#
# Elastic Compliance Matrix: (Units=1/GPa)
#
#
# Indices 1 2 3 4 5 6 
#
# 1 0.011234 -0.004223 -0.003002 0.000000 0.002774 0.000000
# 2 -0.004223 0.017348 -0.005102 0.000000 -0.005578 0.000000
# 3 -0.003002 -0.005102 0.011059 0.000000 0.003752 0.000000
# 4 0.000000 0.000000 0.000000 0.019125 0.000000 0.030248
# 5 0.002774 -0.005578 0.003752 0.000000 0.079639 0.000000
# 6 0.000000 0.000000 0.000000 0.030248 0.000000 -0.008542
#
#
# Mechanical properties :
#
#
# Convention : Reuss Voigt Hill
#
# Bulk Modulus (GPa) = 66.72884 70.33852 68.53368
# Shear Modulus (GPa) = 31.34555 13.03229 22.18892
#
# Velocity S-wave (km/s) = 3.97252 2.56146 3.34230
# Velocity P-wave (km/s) = 7.39160 6.64530 7.02836
#
# Compressibility (1/GPa) = 0.01498602
#
# Stress axis : x y z
#
# Youngs Moduli (GPa) = 89.01547 57.64442 90.42445
#
# Poissons Ratio (x) = 0.24342 0.27146
# Poissons Ratio (y) = 0.37590 0.46138
# Poissons Ratio (z) = 0.26723 0.29413
#
# Static dielectric constant tensor:
#      x y z
#    x 1.698330 0.000000 -0.025810 
#    y 0.000000 1.747090 0.000000 
#    z -0.025810 0.000000 1.635400 
# 
# From -- ./inp_files/48951.got.cif
#   From: 2010.05.17/outbox.cif.g08.bks.cpg/sg13_25_cif.got.tgz:48951.got - 2010.06.03 16:44:36.
