data_PCOD9237099
_publ_section_title
;
Structure prediction by ZEFSAII (Michael W. Deem and Ramdas Pophale) SiO2 
 PCOD9237099
Probable space group: P 2/C
;
_chemical_formula_sum "Si O2"
_cell_formula_units_Z 18
_cell_length_a 14.403554
_cell_length_b 4.963198
_cell_length_c 14.467721
_cell_angle_alpha 90.000000
_cell_angle_beta 135.229914
_cell_angle_gamma 90.000000
_cell_volume 728.394510
_symmetry_space_group_name_H-M "P 2/C"
_symmetry_group_IT_number 13
_symmetry_cell_setting 'monoclinic'
loop_
_space_group_symop_operation_xyz
x,y,z
-x,y,1/2-z
-x,-y,-z
x,-y,1/2+z
loop_
_atom_site_type_symbol
_atom_site_label
_atom_site_fract_x
_atom_site_fract_y
_atom_site_fract_z
Si Si1 0.500000 0.019487 0.250000
Si Si2 0.406577 0.655294 0.862861
Si Si3 0.747109 0.293884 0.886002
Si Si4 0.148917 0.932494 0.688573
Si Si5 0.988438 0.440946 0.636536
O O1 0.523649 0.191057 0.173513
O O2 0.372140 0.835248 0.141948
O O3 0.320950 0.431877 0.749729
O O4 0.296629 0.857896 0.828528
O O5 0.500000 0.500000 0.000000
O O6 0.830802 0.052532 0.899585
O O7 0.837035 0.507654 0.002154
O O8 0.063114 0.156302 0.680944
O O9 0.069471 0.655209 0.633083
O O10 0.000000 0.531273 0.750000
#
# Coordination Sequence:
#
# PCOD9237099 Si02
#       5
#     2   4   4   4   4
#     4  10  26  46  76 118 152 216 266 326 404 478
#     4  11  26  49  78 112 162 209 263 328 402 482
#     4  11  25  48  75 107 159 200 265 332 396 482
#     4  11  25  49  75 109 148 202 260 319 398 469
#     4  12  27  46  76 112 151 201 266 330 395 471
#
# _framework density 24.711880000000001
#
# number of rings (size 3 to 8) (size 9 to 14) (size 15 to 20)
#    0.000    0.889    2.222    2.667    6.222    8.889 
#    4.000    0.000    0.000    0.000    0.000    0.000 
#    0.000    0.000    0.000    0.000    0.000    0.000 
#
# Total GULP energy -100770.410193 kJ/mol
# GULP energy per Si atom -5598.356122 kJ/mol
# Density = 2.465563 g / cm^3
# Si number density = 24.711880 Si / 1000 Ang^3
#
#
#
# Elastic Constant Matrix: (Units=GPa)
#
#
# Indices 1 2 3 4 5 6 
#
# 1 107.6698 52.2906 62.6693 0.0000 29.5844 0.0000
# 2 52.2906 149.7360 68.4416 0.0000 16.7007 0.0000
# 3 62.6693 68.4416 211.0608 0.0000 10.6237 0.0000
# 4 0.0000 0.0000 0.0000 42.1295 0.0000 23.6302
# 5 29.5844 16.7007 10.6237 0.0000 23.6206 0.0000
# 6 0.0000 0.0000 0.0000 23.6302 0.0000 44.6684
#
#
#
# Elastic Compliance Matrix: (Units=1/GPa)
#
#
# Indices 1 2 3 4 5 6 
#
# 1 0.017714 -0.002480 -0.003506 0.000000 -0.018856 0.000000
# 2 -0.002480 0.008685 -0.001972 0.000000 -0.002148 0.000000
# 3 -0.003506 -0.001972 0.006269 0.000000 0.002966 0.000000
# 4 0.000000 0.000000 0.000000 0.033751 0.000000 -0.017855
# 5 -0.018856 -0.002148 0.002966 0.000000 0.066137 0.000000
# 6 0.000000 0.000000 0.000000 -0.017855 0.000000 0.031833
#
#
# Mechanical properties :
#
#
# Convention : Reuss Voigt Hill
#
# Bulk Modulus (GPa) = 59.69559 92.80773 76.25166
# Shear Modulus (GPa) = 26.89757 41.08805 33.99281
#
# Velocity S-wave (km/s) = 3.30274 4.08203 3.71289
# Velocity P-wave (km/s) = 6.22521 7.73658 7.02168
#
# Compressibility (1/GPa) = 0.01675166
#
# Stress axis : x y z
#
# Youngs Moduli (GPa) = 56.45195 115.13526 159.50908
#
# Poissons Ratio (x) = 0.28557 0.55930
# Poissons Ratio (y) = 0.14002 0.31454
# Poissons Ratio (z) = 0.19794 0.22704
#
# Static dielectric constant tensor:
#      x y z
#    x 2.073910 0.000000 0.068040 
#    y 0.000000 2.023740 0.000000 
#    z 0.068040 0.000000 1.955690 
# 
# From -- ./inp_files/52444.got.cif
#   From: 2010.05.17/outbox.cif.g08.bks.cpg/sg13_27_cif.got.tgz:52444.got - 2010.06.03 16:44:36.
