data_PCOD9237804
_publ_section_title
;
Structure prediction by ZEFSAII (Michael W. Deem and Ramdas Pophale) SiO2 
 PCOD9237804
Probable space group: P 2/C
;
_chemical_formula_sum "Si O2"
_cell_formula_units_Z 32
_cell_length_a 30.761160
_cell_length_b 12.302830
_cell_length_c 9.965025
_cell_angle_alpha 90.000000
_cell_angle_beta 153.730456
_cell_angle_gamma 90.000000
_cell_volume 1669.137942
_symmetry_space_group_name_H-M "P 2/C"
_symmetry_group_IT_number 13
_symmetry_cell_setting 'monoclinic'
loop_
_space_group_symop_operation_xyz
x,y,z
-x,y,1/2-z
-x,-y,-z
x,-y,1/2+z
loop_
_atom_site_type_symbol
_atom_site_label
_atom_site_fract_x
_atom_site_fract_y
_atom_site_fract_z
Si Si1 0.624948 0.221711 0.795868
Si Si2 0.875053 0.278272 0.204135
Si Si3 0.063224 0.389469 0.674093
Si Si4 0.563227 0.110529 0.174132
Si Si5 0.766028 0.588528 0.635476
Si Si6 0.811853 0.347890 0.731950
Si Si7 0.266016 0.911494 0.135424
Si Si8 0.688138 0.152127 0.268037
O O1 0.508372 0.203520 0.466086
O O2 0.678351 0.143260 0.836641
O O3 0.668610 0.341301 0.892162
O O4 0.654710 0.183307 0.026904
O O5 0.821675 0.356716 0.163461
O O6 0.991630 0.296468 0.533876
O O7 0.845259 0.316690 0.973027
O O8 0.831400 0.158678 0.107866
O O9 0.098047 0.367170 0.619895
O O10 0.000000 0.500000 0.500000
O O11 0.159168 0.400510 0.032189
O O12 0.659168 0.099478 0.532222
O O13 0.598053 0.132844 0.119948
O O14 0.500000 0.000000 0.000000
O O15 0.752512 0.461114 0.572687
O O16 0.749995 0.250014 0.499977
O O17 0.252506 0.038910 0.072662
#
# Coordination Sequence:
#
# PCOD9237804 Si02
#       8
#     4   4   4   4   4   4   4   4
#     4  11  24  38  64  96 128 167 212 270 324 369
#     4  11  24  38  64  96 128 167 212 270 324 369
#     4  12  22  40  69  97 123 166 226 262 312 387
#     4  12  22  40  69  97 123 166 226 262 312 387
#     4  11  23  42  63  97 132 164 215 268 321 386
#     4  12  23  41  65  96 132 167 211 270 326 382
#     4  11  23  42  63  97 132 164 215 268 321 386
#     4  12  23  41  65  96 132 167 211 270 326 382
#
# _framework density 19.171572999999999
#
# number of rings (size 3 to 8) (size 9 to 14) (size 15 to 20)
#    0.000    0.500    7.500    1.500    0.000    0.000 
#    0.000    1.250    0.000    3.000    0.000    0.000 
#    0.000    0.000    0.000    0.000    0.000    0.000 
#
# Total GULP energy -178913.774999 kJ/mol
# GULP energy per Si atom -5591.055469 kJ/mol
# Density = 1.912794 g / cm^3
# Si number density = 19.171573 Si / 1000 Ang^3
#
#
#
# Elastic Constant Matrix: (Units=GPa)
#
#
# Indices 1 2 3 4 5 6 
#
# 1 118.1415 34.3875 1.9433 0.0000 -7.3870 0.0000
# 2 34.3875 143.4831 29.6003 0.0000 18.5642 0.0000
# 3 1.9433 29.6003 46.1895 0.0000 -5.1872 0.0000
# 4 0.0000 0.0000 0.0000 36.8119 0.0000 7.2500
# 5 -7.3870 18.5642 -5.1872 0.0000 39.7026 0.0000
# 6 0.0000 0.0000 0.0000 7.2500 0.0000 33.6325
#
#
#
# Elastic Compliance Matrix: (Units=1/GPa)
#
#
# Indices 1 2 3 4 5 6 
#
# 1 0.009574 -0.003168 0.002024 0.000000 0.003527 0.000000
# 2 -0.003168 0.009956 -0.006938 0.000000 -0.006151 0.000000
# 3 0.002024 -0.006938 0.026811 0.000000 0.007123 0.000000
# 4 0.000000 0.000000 0.000000 0.028370 0.000000 -0.006115
# 5 0.003527 -0.006151 0.007123 0.000000 0.029650 0.000000
# 6 0.000000 0.000000 0.000000 -0.006115 0.000000 0.031051
#
#
# Mechanical properties :
#
#
# Convention : Reuss Voigt Hill
#
# Bulk Modulus (GPa) = 33.13895 48.85294 40.99595
# Shear Modulus (GPa) = 30.93388 38.15492 34.54440
#
# Velocity S-wave (km/s) = 4.02123 4.46599 4.24943
# Velocity P-wave (km/s) = 6.23566 7.22016 6.74589
#
# Compressibility (1/GPa) = 0.03017597
#
# Stress axis : x y z
#
# Youngs Moduli (GPa) = 104.45067 100.44329 37.29845
#
# Poissons Ratio (x) = 0.31824 -0.07548
# Poissons Ratio (y) = 0.33094 0.25876
# Poissons Ratio (z) = -0.21138 0.69684
#
# Static dielectric constant tensor:
#      x y z
#    x 1.676360 0.000000 0.005000 
#    y 0.000000 1.679810 0.000000 
#    z 0.005000 0.000000 1.674160 
# 
# From -- ./inp_files/24956.got.cif
#   From: 2010.05.17/outbox.cif.g08.bks.cpg/sg13_13_cif.got.tgz:24956.got - 2010.06.03 16:44:36.
