data_PCOD9237878
_publ_section_title
;
Structure prediction by ZEFSAII (Michael W. Deem and Ramdas Pophale) SiO2 
 PCOD9237878
Probable space group: P 2/C
;
_chemical_formula_sum "Si O2"
_cell_formula_units_Z 20
_cell_length_a 5.187814
_cell_length_b 8.851561
_cell_length_c 22.378991
_cell_angle_alpha 90.000000
_cell_angle_beta 61.110562
_cell_angle_gamma 90.000000
_cell_volume 899.761702
_symmetry_space_group_name_H-M "P 2/C"
_symmetry_group_IT_number 13
_symmetry_cell_setting 'monoclinic'
loop_
_space_group_symop_operation_xyz
x,y,z
-x,y,1/2-z
-x,-y,-z
x,-y,1/2+z
loop_
_atom_site_type_symbol
_atom_site_label
_atom_site_fract_x
_atom_site_fract_y
_atom_site_fract_z
Si Si1 0.190409 0.046337 0.419912
Si Si2 0.768363 0.119950 0.880674
Si Si3 0.000000 0.681576 0.250000
Si Si4 0.617919 0.627699 0.028433
Si Si5 0.229728 0.369896 0.397983
Si Si6 0.500000 0.479013 0.250000
O O1 0.362060 0.207789 0.401452
O O2 0.467712 0.935187 0.383962
O O3 0.000000 0.000000 0.500000
O O4 0.964434 0.006063 0.391474
O O5 0.629010 0.244358 0.940957
O O6 0.952535 0.213062 0.812322
O O7 0.721427 0.577488 0.265460
O O8 0.691360 0.531742 0.080440
O O9 0.500000 0.500000 0.000000
O O10 0.910674 0.673671 0.960842
O O11 0.295376 0.389298 0.320440
#
# Coordination Sequence:
#
# PCOD9237878 Si02
#       6
#     4   4   2   4   4   2
#     4  12  26  46  71 107 145 187 234 302 355 433
#     4  12  26  45  73 100 142 191 235 288 365 425
#     4  12  26  48  72 102 144 186 242 294 356 436
#     4  11  23  43  72 101 133 192 240 293 342 432
#     4  11  26  42  71 103 143 183 242 295 364 417
#     4  12  26  46  70 108 140 186 236 314 352 424
#
# _framework density 22.228109
#
# number of rings (size 3 to 8) (size 9 to 14) (size 15 to 20)
#    0.000    0.400    4.000    4.200    5.600    1.600 
#    0.000    0.000    0.000    0.000    0.000    0.000 
#    0.000    0.000    0.000    0.000    0.000    0.000 
#
# Total GULP energy -111452.256024 kJ/mol
# GULP energy per Si atom -5572.612801 kJ/mol
# Density = 2.217752 g / cm^3
# Si number density = 22.228109 Si / 1000 Ang^3
#
#
#
# Elastic Constant Matrix: (Units=GPa)
#
#
# Indices 1 2 3 4 5 6 
#
# 1 72.1152 -2.3121 6.3804 0.0000 -1.0419 0.0000
# 2 -2.3121 57.6804 16.5014 0.0000 -4.5756 0.0000
# 3 6.3804 16.5014 138.2671 0.0000 6.7807 0.0000
# 4 0.0000 0.0000 0.0000 46.3655 0.0000 18.3480
# 5 -1.0419 -4.5756 6.7807 0.0000 20.7706 0.0000
# 6 0.0000 0.0000 0.0000 18.3480 0.0000 43.4901
#
#
#
# Elastic Compliance Matrix: (Units=1/GPa)
#
#
# Indices 1 2 3 4 5 6 
#
# 1 0.013983 0.000884 -0.000808 0.000000 0.001160 0.000000
# 2 0.000884 0.018475 -0.002487 0.000000 0.004926 0.000000
# 3 -0.000808 -0.002487 0.007719 0.000000 -0.003108 0.000000
# 4 0.000000 0.000000 0.000000 0.025890 0.000000 -0.010923
# 5 0.001160 0.004926 -0.003108 0.000000 0.050303 0.000000
# 6 0.000000 0.000000 0.000000 -0.010923 0.000000 0.027602
#
#
# Mechanical properties :
#
#
# Convention : Reuss Voigt Hill
#
# Bulk Modulus (GPa) = 28.28509 34.35579 31.32044
# Shear Modulus (GPa) = 31.13729 38.62478 34.88104
#
# Velocity S-wave (km/s) = 3.74680 4.17304 3.96565
# Velocity P-wave (km/s) = 5.60986 6.22162 5.92364
#
# Compressibility (1/GPa) = 0.03535431
#
# Stress axis : x y z
#
# Youngs Moduli (GPa) = 71.51423 54.12830 129.55193
#
# Poissons Ratio (x) = -0.04783 0.10462
# Poissons Ratio (y) = -0.06319 0.32222
# Poissons Ratio (z) = 0.05775 0.13463
#
# Static dielectric constant tensor:
#      x y z
#    x 1.762990 0.000000 0.113250 
#    y 0.000000 1.767830 0.000000 
#    z 0.113250 0.000000 1.679030 
# 
# From -- ./inp_files/60638.got.cif
#   From: 2010.05.17/outbox.cif.g08.bks.cpg/sg13_31_cif.got.tgz:60638.got - 2010.06.03 16:44:36.
