data_PCOD9237693
_publ_section_title
;
Structure prediction by ZEFSAII (Michael W. Deem and Ramdas Pophale) SiO2 
 PCOD9237693
Probable space group: P 2/C
;
_chemical_formula_sum "Si O2"
_cell_formula_units_Z 32
_cell_length_a 17.460050
_cell_length_b 10.970380
_cell_length_c 14.098534
_cell_angle_alpha 90.000000
_cell_angle_beta 32.714304
_cell_angle_gamma 90.000000
_cell_volume 1459.475952
_symmetry_space_group_name_H-M "P 2/C"
_symmetry_group_IT_number 13
_symmetry_cell_setting 'monoclinic'
loop_
_space_group_symop_operation_xyz
x,y,z
-x,y,1/2-z
-x,-y,-z
x,-y,1/2+z
loop_
_atom_site_type_symbol
_atom_site_label
_atom_site_fract_x
_atom_site_fract_y
_atom_site_fract_z
Si Si1 0.833986 0.026011 0.441944
Si Si2 0.650139 0.050523 0.449595
Si Si3 0.137315 0.556438 0.973041
Si Si4 0.287528 0.808037 0.812017
Si Si5 0.633960 0.801909 0.234435
Si Si6 0.814391 0.552444 0.280008
Si Si7 0.395449 0.236942 0.523242
Si Si8 0.656670 0.565550 0.090285
O O1 0.756632 0.066552 0.425742
O O2 0.780948 0.124501 0.574824
O O3 0.000000 0.021487 0.250000
O O4 0.774484 0.897984 0.543513
O O5 0.692165 0.116707 0.307596
O O6 0.495029 0.102030 0.639265
O O7 0.642837 0.905479 0.442783
O O8 0.186014 0.693853 0.901746
O O9 0.163599 0.471501 0.853929
O O10 0.234870 0.505314 0.955067
O O11 0.969262 0.557119 0.164710
O O12 0.442563 0.757130 0.679564
O O13 0.607368 0.735222 0.361443
O O14 0.639047 0.700077 0.149265
O O15 0.719672 0.671850 0.400035
O O16 0.725011 0.440412 0.415655
O O17 0.500000 0.509964 0.250000
#
# Coordination Sequence:
#
# PCOD9237693 Si02
#       8
#     4   4   4   4   4   4   4   4
#     4  12  27  41  65 104 142 184 235 287 358 425
#     4  11  24  46  73  99 139 183 230 298 351 413
#     4  11  27  48  67 102 150 181 240 291 354 441
#     4  11  25  45  70 102 136 184 238 297 347 420
#     4  11  23  48  70 106 139 180 239 299 346 424
#     4  11  27  47  71 103 140 196 226 294 367 418
#     4  11  22  46  77  99 140 180 238 292 351 416
#     4  12  26  44  75 103 140 186 239 295 348 421
#
# _framework density 21.925677
#
# number of rings (size 3 to 8) (size 9 to 14) (size 15 to 20)
#    0.000    0.750    3.750    3.000    8.750    3.500 
#    0.000    0.000    0.000    0.000    0.000    0.000 
#    0.000    0.000    0.000    0.000    0.000    0.000 
#
# Total GULP energy -179010.921479 kJ/mol
# GULP energy per Si atom -5594.091296 kJ/mol
# Density = 2.187577 g / cm^3
# Si number density = 21.925677 Si / 1000 Ang^3
#
#
#
# Elastic Constant Matrix: (Units=GPa)
#
#
# Indices 1 2 3 4 5 6 
#
# 1 79.1353 19.7567 52.7896 0.0000 -22.1198 0.0000
# 2 19.7567 94.3629 45.4886 0.0000 -5.1166 0.0000
# 3 52.7896 45.4886 179.7633 0.0000 -28.1933 0.0000
# 4 0.0000 0.0000 0.0000 28.5825 0.0000 5.0339
# 5 -22.1198 -5.1166 -28.1933 0.0000 29.5098 0.0000
# 6 0.0000 0.0000 0.0000 5.0339 0.0000 33.4675
#
#
#
# Elastic Compliance Matrix: (Units=1/GPa)
#
#
# Indices 1 2 3 4 5 6 
#
# 1 0.018078 -0.001642 -0.003308 0.000000 0.010105 0.000000
# 2 -0.001642 0.012243 -0.002912 0.000000 -0.001891 0.000000
# 3 -0.003308 -0.002912 0.008002 0.000000 0.004660 0.000000
# 4 0.000000 0.000000 0.000000 0.035938 0.000000 -0.005406
# 5 0.010105 -0.001891 0.004660 0.000000 0.045587 0.000000
# 6 0.000000 0.000000 0.000000 -0.005406 0.000000 0.030693
#
#
# Mechanical properties :
#
#
# Convention : Reuss Voigt Hill
#
# Bulk Modulus (GPa) = 44.25296 65.48126 54.86711
# Shear Modulus (GPa) = 28.76887 33.99374 31.38130
#
# Velocity S-wave (km/s) = 3.62623 3.94179 3.78730
# Velocity P-wave (km/s) = 6.14490 7.11666 6.64856
#
# Compressibility (1/GPa) = 0.02259736
#
# Stress axis : x y z
#
# Youngs Moduli (GPa) = 55.31513 81.68228 124.96444
#
# Poissons Ratio (x) = 0.13414 0.41344
# Poissons Ratio (y) = 0.09084 0.36392
# Poissons Ratio (z) = 0.18301 0.23787
#
# Static dielectric constant tensor:
#      x y z
#    x 1.833830 0.000000 0.030320 
#    y 0.000000 1.795310 0.000000 
#    z 0.030320 0.000000 1.780120 
# 
# From -- ./inp_files/55812.got.cif
#   From: 2010.05.17/outbox.cif.g08.bks.cpg/sg13_28_cif.got.tgz:55812.got - 2010.06.03 16:44:36.
