data_PCOD9237808
_publ_section_title
;
Structure prediction by ZEFSAII (Michael W. Deem and Ramdas Pophale) SiO2 
 PCOD9237808
Probable space group: P 2/C
;
_chemical_formula_sum "Si O2"
_cell_formula_units_Z 28
_cell_length_a 8.273260
_cell_length_b 14.358998
_cell_length_c 14.456491
_cell_angle_alpha 90.000000
_cell_angle_beta 131.401080
_cell_angle_gamma 90.000000
_cell_volume 1288.196323
_symmetry_space_group_name_H-M "P 2/C"
_symmetry_group_IT_number 13
_symmetry_cell_setting 'monoclinic'
loop_
_space_group_symop_operation_xyz
x,y,z
-x,y,1/2-z
-x,-y,-z
x,-y,1/2+z
loop_
_atom_site_type_symbol
_atom_site_label
_atom_site_fract_x
_atom_site_fract_y
_atom_site_fract_z
Si Si1 0.734249 0.767082 0.793248
Si Si2 0.751509 0.401804 0.868446
Si Si3 0.488188 0.099136 0.618639
Si Si4 0.747954 0.928039 0.663644
Si Si5 0.042234 0.893001 0.036992
Si Si6 0.868556 0.232677 0.784911
Si Si7 0.020913 0.575062 0.646709
O O1 0.500000 0.760591 0.750000
O O2 0.716054 0.825957 0.693091
O O3 0.834406 0.666486 0.814751
O O4 0.897207 0.830137 0.915416
O O5 0.500000 0.405676 0.750000
O O6 0.839339 0.306967 0.855337
O O7 0.865093 0.486212 0.856684
O O8 0.811599 0.408609 0.000419
O O9 0.355752 0.075977 0.476041
O O10 0.298830 0.119797 0.619486
O O11 0.643592 0.187730 0.667635
O O12 0.630502 0.005233 0.682815
O O13 0.000000 0.948620 0.750000
O O14 0.996652 0.854360 0.121958
O O15 0.000000 0.000000 0.000000
O O16 0.000000 0.274554 0.750000
O O17 0.000000 0.563074 0.750000
#
# Coordination Sequence:
#
# PCOD9237808 Si02
#       7
#     4   4   4   4   4   4   4
#     4  12  25  42  68  99 141 187 231 290 359 423
#     4  11  25  50  78 109 149 189 239 302 367 432
#     4  11  25  41  68  97 139 185 239 294 357 421
#     4  11  23  42  65 100 138 184 239 296 353 431
#     4  12  25  44  66  96 139 187 237 294 352 417
#     4  12  27  44  71 104 140 188 243 291 359 430
#     4  11  26  48  77 110 148 188 242 299 365 443
#
# _framework density 21.735817999999998
#
# number of rings (size 3 to 8) (size 9 to 14) (size 15 to 20)
#    0.000    0.571    2.857    4.714    6.000    0.571 
#    0.000    0.000    0.000    0.000    0.000    0.000 
#    0.000    0.000    0.000    0.000    0.000    0.000 
#
# Total GULP energy -156636.042341 kJ/mol
# GULP energy per Si atom -5594.144369 kJ/mol
# Density = 2.168635 g / cm^3
# Si number density = 21.735818 Si / 1000 Ang^3
#
#
#
# Elastic Constant Matrix: (Units=GPa)
#
#
# Indices 1 2 3 4 5 6 
#
# 1 94.3920 28.9654 52.8796 0.0000 1.8644 0.0000
# 2 28.9654 133.4172 40.3634 0.0000 4.2000 0.0000
# 3 52.8796 40.3634 124.0097 0.0000 -5.4599 0.0000
# 4 0.0000 0.0000 0.0000 34.0208 0.0000 -2.3547
# 5 1.8644 4.2000 -5.4599 0.0000 34.2107 0.0000
# 6 0.0000 0.0000 0.0000 -2.3547 0.0000 23.4655
#
#
#
# Elastic Compliance Matrix: (Units=1/GPa)
#
#
# Indices 1 2 3 4 5 6 
#
# 1 0.014223 -0.001314 -0.005704 0.000000 -0.001524 0.000000
# 2 -0.001314 0.008509 -0.002268 0.000000 -0.001335 0.000000
# 3 -0.005704 -0.002268 0.011340 0.000000 0.002399 0.000000
# 4 0.000000 0.000000 0.000000 0.029599 0.000000 0.002970
# 5 -0.001524 -0.001335 0.002399 0.000000 0.029860 0.000000
# 6 0.000000 0.000000 0.000000 0.002970 0.000000 0.042914
#
#
# Mechanical properties :
#
#
# Convention : Reuss Voigt Hill
#
# Bulk Modulus (GPa) = 64.51930 66.24841 65.38386
# Shear Modulus (GPa) = 31.21398 33.64676 32.43037
#
# Velocity S-wave (km/s) = 3.79365 3.93871 3.86686
# Velocity P-wave (km/s) = 6.99549 7.15749 7.07696
#
# Compressibility (1/GPa) = 0.01549924
#
# Stress axis : x y z
#
# Youngs Moduli (GPa) = 70.30811 117.52636 88.18284
#
# Poissons Ratio (x) = 0.15445 0.50302
# Poissons Ratio (y) = 0.09240 0.19999
# Poissons Ratio (z) = 0.40106 0.26653
#
# Static dielectric constant tensor:
#      x y z
#    x 1.833770 0.000000 -0.035570 
#    y 0.000000 1.767500 0.000000 
#    z -0.035570 0.000000 1.849760 
# 
# From -- ./inp_files/47725.got.cif
#   From: 2010.05.17/outbox.cif.g08.bks.cpg/sg13_24_cif.got.tgz:47725.got - 2010.06.03 16:44:36.
