data_PCOD9237528
_publ_section_title
;
Structure prediction by ZEFSAII (Michael W. Deem and Ramdas Pophale) SiO2 
 PCOD9237528
Probable space group: P 2/C
;
_chemical_formula_sum "Si O2"
_cell_formula_units_Z 28
_cell_length_a 27.392810
_cell_length_b 10.209657
_cell_length_c 9.919385
_cell_angle_alpha 90.000000
_cell_angle_beta 142.732233
_cell_angle_gamma 90.000000
_cell_volume 1679.870832
_symmetry_space_group_name_H-M "P 2/C"
_symmetry_group_IT_number 13
_symmetry_cell_setting 'monoclinic'
loop_
_space_group_symop_operation_xyz
x,y,z
-x,y,1/2-z
-x,-y,-z
x,-y,1/2+z
loop_
_atom_site_type_symbol
_atom_site_label
_atom_site_fract_x
_atom_site_fract_y
_atom_site_fract_z
Si Si1 0.944334 0.025243 0.006918
Si Si2 0.495531 0.128194 0.898102
Si Si3 0.852611 0.239035 0.389032
Si Si4 0.940296 0.499322 0.494266
Si Si5 0.328416 0.858848 0.697643
Si Si6 0.836354 0.261943 0.674004
Si Si7 0.318565 0.121049 0.495600
O O1 0.877473 0.130588 0.820832
O O2 0.903570 0.890823 0.966914
O O3 0.000000 0.076696 0.250000
O O4 0.000000 0.000000 0.000000
O O5 0.500000 0.091452 0.750000
O O6 0.405928 0.185968 0.720020
O O7 0.580722 0.197430 0.115470
O O8 0.500000 0.000000 0.000000
O O9 0.893373 0.362442 0.407042
O O10 0.854068 0.266120 0.552690
O O11 0.760173 0.207010 0.145823
O O12 0.876104 0.614825 0.333562
O O13 0.000000 0.519721 0.750000
O O14 0.000000 0.500000 0.500000
O O15 0.259002 0.754451 0.516016
O O16 0.317236 0.984817 0.575849
O O17 0.316769 0.902080 0.829222
#
# Coordination Sequence:
#
# PCOD9237528 Si02
#       7
#     4   4   4   4   4   4   4
#     4  12  22  35  55  77 107 136 173 225 276 314
#     4   8  14  26  48  76 107 140 166 201 260 319
#     4  11  22  39  55  79 111 136 180 229 264 319
#     4  12  24  43  59  73 105 146 189 227 271 320
#     4   9  17  31  51  80 111 136 172 214 261 318
#     4  11  22  38  56  80 107 140 181 224 266 320
#     4   9  17  31  52  79 110 139 169 214 264 316
#
# _framework density 16.667949
#
# number of rings (size 3 to 8) (size 9 to 14) (size 15 to 20)
#    0.000    1.714    4.286    1.714    0.000    0.000 
#    2.571    0.000    0.000    0.857    0.000    0.000 
#    0.000    0.000    0.000    0.000    0.000    0.000 
#
# Total GULP energy -156028.321756 kJ/mol
# GULP energy per Si atom -5572.440063 kJ/mol
# Density = 1.663001 g / cm^3
# Si number density = 16.667949 Si / 1000 Ang^3
#
#
#
# Elastic Constant Matrix: (Units=GPa)
#
#
# Indices 1 2 3 4 5 6 
#
# 1 76.8492 19.1528 48.3738 0.0000 21.3510 0.0000
# 2 19.1528 71.8357 34.5682 0.0000 16.3756 0.0000
# 3 48.3738 34.5682 121.1437 0.0000 27.6522 0.0000
# 4 0.0000 0.0000 0.0000 21.3586 0.0000 4.2236
# 5 21.3510 16.3756 27.6522 0.0000 34.1825 0.0000
# 6 0.0000 0.0000 0.0000 4.2236 0.0000 21.0893
#
#
#
# Elastic Compliance Matrix: (Units=1/GPa)
#
#
# Indices 1 2 3 4 5 6 
#
# 1 0.018644 -0.000694 -0.005721 0.000000 -0.006685 0.000000
# 2 -0.000694 0.016864 -0.003422 0.000000 -0.004878 0.000000
# 3 -0.005721 -0.003422 0.012664 0.000000 -0.005032 0.000000
# 4 0.000000 0.000000 0.000000 0.048750 0.000000 -0.009763
# 5 -0.006685 -0.004878 -0.005032 0.000000 0.039838 0.000000
# 6 0.000000 0.000000 0.000000 -0.009763 0.000000 0.049373
#
#
# Mechanical properties :
#
#
# Convention : Reuss Voigt Hill
#
# Bulk Modulus (GPa) = 35.08888 52.66869 43.87879
# Shear Modulus (GPa) = 23.22287 26.50833 24.86560
#
# Velocity S-wave (km/s) = 3.73670 3.99228 3.86660
# Velocity P-wave (km/s) = 6.30195 7.27451 6.80562
#
# Compressibility (1/GPa) = 0.02849905
#
# Stress axis : x y z
#
# Youngs Moduli (GPa) = 53.63747 59.29743 78.96395
#
# Poissons Ratio (x) = 0.04115 0.45173
# Poissons Ratio (y) = 0.03723 0.27019
# Poissons Ratio (z) = 0.30684 0.20290
#
# Static dielectric constant tensor:
#      x y z
#    x 1.577040 0.000000 0.026900 
#    y 0.000000 1.518320 0.000000 
#    z 0.026900 0.000000 1.546560 
# 
# From -- ./inp_files/24596.got.cif
#   From: 2010.05.17/outbox.cif.g08.bks.cpg/sg13_13_cif.got.tgz:24596.got - 2010.06.03 16:44:36.
