data_PCOD9237909
_publ_section_title
;
Structure prediction by ZEFSAII (Michael W. Deem and Ramdas Pophale) SiO2 
 PCOD9237909
Probable space group: P 2/C
;
_chemical_formula_sum "Si O2"
_cell_formula_units_Z 22
_cell_length_a 16.049256
_cell_length_b 9.543933
_cell_length_c 7.216108
_cell_angle_alpha 90.000000
_cell_angle_beta 45.764029
_cell_angle_gamma 90.000000
_cell_volume 791.926735
_symmetry_space_group_name_H-M "P 2/C"
_symmetry_group_IT_number 13
_symmetry_cell_setting 'monoclinic'
loop_
_space_group_symop_operation_xyz
x,y,z
-x,y,1/2-z
-x,-y,-z
x,-y,1/2+z
loop_
_atom_site_type_symbol
_atom_site_label
_atom_site_fract_x
_atom_site_fract_y
_atom_site_fract_z
Si Si1 0.794792 0.930839 0.799045
Si Si2 0.577254 0.139546 0.904423
Si Si3 0.264928 0.795696 0.003940
Si Si4 0.745158 0.528746 0.724279
Si Si5 0.112409 0.675034 0.691063
Si Si6 0.500000 0.626846 0.250000
O O1 0.749551 0.868624 0.676005
O O2 0.000000 0.636847 0.750000
O O3 0.894329 0.832659 0.725691
O O4 0.822202 0.095829 0.754071
O O5 0.622599 0.174854 0.041279
O O6 0.518925 0.272854 0.897298
O O7 0.686884 0.106310 0.600789
O O8 0.500000 0.000000 0.000000
O O9 0.253177 0.635296 0.956769
O O10 0.779174 0.372668 0.607789
O O11 0.851170 0.588085 0.683607
O O12 0.618312 0.545690 0.014448
#
# Coordination Sequence:
#
# PCOD9237909 Si02
#       6
#     4   4   4   4   4   2
#     4  11  23  45  70 111 148 194 262 311 381 457
#     4  12  24  40  71 107 160 203 238 300 384 472
#     4  11  23  44  72 106 157 198 252 311 372 470
#     4  11  27  47  76 110 151 206 258 315 394 460
#     4  11  26  52  77 103 147 204 270 324 382 454
#     4  12  24  46  68 116 158 194 254 312 384 472
#
# _framework density 27.780346000000002
#
# number of rings (size 3 to 8) (size 9 to 14) (size 15 to 20)
#    0.000    0.727    5.455    2.727    2.545    3.636 
#    0.000    4.545    0.000    1.091    0.000    0.000 
#    0.000    0.000    0.000    0.000    0.000    0.000 
#
# Total GULP energy -123048.725939 kJ/mol
# GULP energy per Si atom -5593.123906 kJ/mol
# Density = 2.771712 g / cm^3
# Si number density = 27.780346 Si / 1000 Ang^3
#
#
#
# Elastic Constant Matrix: (Units=GPa)
#
#
# Indices 1 2 3 4 5 6 
#
# 1 250.9405 74.7986 66.9482 0.0000 20.4343 0.0000
# 2 74.7986 178.1546 24.3406 0.0000 -15.1351 0.0000
# 3 66.9482 24.3406 60.1303 0.0000 9.0334 0.0000
# 4 0.0000 0.0000 0.0000 26.1171 0.0000 16.6952
# 5 20.4343 -15.1351 9.0334 0.0000 49.3844 0.0000
# 6 0.0000 0.0000 0.0000 16.6952 0.0000 22.7242
#
#
#
# Elastic Compliance Matrix: (Units=1/GPa)
#
#
# Indices 1 2 3 4 5 6 
#
# 1 0.006349 -0.002042 -0.005916 0.000000 -0.002170 0.000000
# 2 -0.002042 0.006870 -0.000978 0.000000 0.003129 0.000000
# 3 -0.005916 -0.000978 0.023948 0.000000 -0.002232 0.000000
# 4 0.000000 0.000000 0.000000 0.072196 0.000000 -0.053041
# 5 -0.002170 0.003129 -0.002232 0.000000 0.022515 0.000000
# 6 0.000000 0.000000 0.000000 -0.053041 0.000000 0.082975
#
#
# Mechanical properties :
#
#
# Convention : Reuss Voigt Hill
#
# Bulk Modulus (GPa) = 51.82407 91.26670 71.54538
# Shear Modulus (GPa) = 20.90694 41.18767 31.04731
#
# Velocity S-wave (km/s) = 2.74630 3.85466 3.34668
# Velocity P-wave (km/s) = 5.36205 7.26192 6.38307
#
# Compressibility (1/GPa) = 0.01929605
#
# Stress axis : x y z
#
# Youngs Moduli (GPa) = 157.51484 145.56690 41.75630
#
# Poissons Ratio (x) = 0.29719 0.24703
# Poissons Ratio (y) = 0.32158 0.04083
# Poissons Ratio (z) = 0.93185 0.14234
#
# Static dielectric constant tensor:
#      x y z
#    x 2.166360 0.000000 0.071670 
#    y 0.000000 2.229850 0.000000 
#    z 0.071670 0.000000 2.318190 
# 
# From -- ./inp_files/18017.got.cif
#   From: 2010.05.17/outbox.cif.g08.bks.cpg/sg13_10_cif.got.tgz:18017.got - 2010.06.03 16:44:36.
