data_PCOD9237029
_publ_section_title
;
Structure prediction by ZEFSAII (Michael W. Deem and Ramdas Pophale) SiO2 
 PCOD9237029
Probable space group: P 2/C
;
_chemical_formula_sum "Si O2"
_cell_formula_units_Z 16
_cell_length_a 14.193723
_cell_length_b 4.976026
_cell_length_c 8.796949
_cell_angle_alpha 90.000000
_cell_angle_beta 98.754993
_cell_angle_gamma 90.000000
_cell_volume 614.074464
_symmetry_space_group_name_H-M "P 2/C"
_symmetry_group_IT_number 13
_symmetry_cell_setting 'monoclinic'
loop_
_space_group_symop_operation_xyz
x,y,z
-x,y,1/2-z
-x,-y,-z
x,-y,1/2+z
loop_
_atom_site_type_symbol
_atom_site_label
_atom_site_fract_x
_atom_site_fract_y
_atom_site_fract_z
Si Si1 0.429580 0.751320 0.473431
Si Si2 0.000000 0.000000 0.000000
Si Si3 0.000000 0.582080 0.250000
Si Si4 0.696325 0.935983 0.326872
Si Si5 0.170551 0.183619 0.394206
O O1 0.500000 0.500000 0.500000
O O2 0.373303 0.769275 0.300244
O O3 0.500000 0.000000 0.500000
O O4 0.356855 0.829999 0.591067
O O5 0.893544 0.950046 0.045745
O O6 0.961374 0.237988 0.877631
O O7 0.085010 0.380564 0.321359
O O8 0.750200 0.746027 0.461720
O O9 0.771416 0.076587 0.233768
#
# Coordination Sequence:
#
# PCOD9237029 Si02
#       5
#     4   2   2   4   4
#     4  11  26  54  83 114 167 213 276 342 437 485
#     4  12  26  48  74 118 166 206 278 316 410 490
#     4  12  26  48  80 106 174 218 262 336 398 488
#     4  10  25  51  82 125 157 207 283 341 400 527
#     4  11  24  50  78 117 161 212 265 331 410 470
#
# _framework density 26.055474
#
# number of rings (size 3 to 8) (size 9 to 14) (size 15 to 20)
#    0.000    1.000    0.000    5.250    0.000    4.000 
#   45.000    8.750    0.000    0.000    0.000    0.000 
#    0.000    0.000    0.000    0.000    0.000    0.000 
#
# Total GULP energy -89167.612756 kJ/mol
# GULP energy per Si atom -5572.975797 kJ/mol
# Density = 2.599617 g / cm^3
# Si number density = 26.055474 Si / 1000 Ang^3
#
#
#
# Elastic Constant Matrix: (Units=GPa)
#
#
# Indices 1 2 3 4 5 6 
#
# 1 201.8163 74.3363 113.5283 0.0000 3.9816 0.0000
# 2 74.3363 119.9624 86.5008 0.0000 38.0215 0.0000
# 3 113.5283 86.5008 220.5600 0.0000 39.4622 0.0000
# 4 0.0000 0.0000 0.0000 -4.9831 0.0000 -25.2028
# 5 3.9816 38.0215 39.4622 0.0000 63.8015 0.0000
# 6 0.0000 0.0000 0.0000 -25.2028 0.0000 6.8529
#
#
#
# Elastic Compliance Matrix: (Units=1/GPa)
#
#
# Indices 1 2 3 4 5 6 
#
# 1 0.008225 -0.003873 -0.003413 0.000000 0.003906 0.000000
# 2 -0.003873 0.014798 -0.002558 0.000000 -0.006994 0.000000
# 3 -0.003413 -0.002558 0.007852 0.000000 -0.003119 0.000000
# 4 0.000000 0.000000 0.000000 -0.010238 0.000000 -0.037654
# 5 0.003906 -0.006994 -0.003119 0.000000 0.021527 0.000000
# 6 0.000000 0.000000 0.000000 -0.037654 0.000000 0.007445
#
#
# Mechanical properties :
#
#
# Convention : Reuss Voigt Hill
#
# Bulk Modulus (GPa) = 89.40807 121.22992 105.31900
# Shear Modulus (GPa) = 68.46825 30.99915 49.73370
#
# Velocity S-wave (km/s) = 5.13176 3.45300 4.37368
# Velocity P-wave (km/s) = 8.33680 7.90735 8.12491
#
# Compressibility (1/GPa) = 0.01118467
#
# Stress axis : x y z
#
# Youngs Moduli (GPa) = 121.58427 67.57816 127.35243
#
# Poissons Ratio (x) = 0.26176 0.43469
# Poissons Ratio (y) = 0.47095 0.32580
# Poissons Ratio (z) = 0.41500 0.17288
#
# Static dielectric constant tensor:
#      x y z
#    x 2.001700 0.000000 0.141880 
#    y 0.000000 2.117850 0.000000 
#    z 0.141880 0.000000 2.507790 
# 
# From -- ./inp_files/17461.got.cif
#   From: 2010.05.17/outbox.cif.g08.bks.cpg/sg13_9_cif.got.tgz:17461.got - 2010.06.03 16:44:36.
