data_PCOD9237000
_publ_section_title
;
Structure prediction by ZEFSAII (Michael W. Deem and Ramdas Pophale) SiO2 
 PCOD9237000
Probable space group: P 2/C
;
_chemical_formula_sum "Si O2"
_cell_formula_units_Z 16
_cell_length_a 5.568834
_cell_length_b 30.138558
_cell_length_c 4.864601
_cell_angle_alpha 90.000000
_cell_angle_beta 126.744610
_cell_angle_gamma 90.000000
_cell_volume 654.236215
_symmetry_space_group_name_H-M "P 2/C"
_symmetry_group_IT_number 13
_symmetry_cell_setting 'monoclinic'
loop_
_space_group_symop_operation_xyz
x,y,z
-x,y,1/2-z
-x,-y,-z
x,-y,1/2+z
loop_
_atom_site_type_symbol
_atom_site_label
_atom_site_fract_x
_atom_site_fract_y
_atom_site_fract_z
Si Si1 0.000000 0.899852 0.250000
Si Si2 0.000000 0.724593 0.250000
Si Si3 0.500000 0.335684 0.250000
Si Si4 0.500000 0.601228 0.250000
Si Si5 0.000000 0.839966 0.750000
Si Si6 0.500000 0.966529 0.750000
Si Si7 0.000000 0.466452 0.250000
Si Si8 0.500000 0.213679 0.250000
O O1 0.873572 0.869468 0.409680
O O2 0.226453 0.932879 0.552368
O O3 0.193619 0.692937 0.589388
O O4 0.281989 0.757652 0.395251
O O5 0.591335 0.365971 0.568708
O O6 0.728596 0.567405 0.545035
O O7 0.264862 0.812832 0.778947
O O8 0.500000 0.000000 0.500000
O O9 0.000000 0.500000 0.500000
#
# Coordination Sequence:
#
# PCOD9237000 Si02
#       8
#     2   2   2   2   2   2   2   2
#     4  12  27  47  76 110 149 196 247 306 368 443
#     4  10  25  47  74 106 145 190 245 304 368 439
#     4  11  24  45  69 102 138 186 240 298 361 433
#     4  12  24  43  68  97 137 182 233 295 358 429
#     4  12  28  51  77 114 153 200 251 308 375 447
#     4  12  25  46  73 108 147 194 245 304 367 436
#     4  12  24  41  65  98 135 180 231 290 357 431
#     4  11  27  48  78 111 152 198 248 311 376 446
#
# _framework density 24.455998999999998
#
# number of rings (size 3 to 8) (size 9 to 14) (size 15 to 20)
#    0.000    0.500    0.000    7.500    0.000   12.000 
#    0.000    0.000    0.000    0.000    0.000    0.000 
#    0.000    0.000    0.000    0.000    0.000    0.000 
#
# Total GULP energy -89328.692946 kJ/mol
# GULP energy per Si atom -5583.043309 kJ/mol
# Density = 2.440034 g / cm^3
# Si number density = 24.455999 Si / 1000 Ang^3
#
#
#
# Elastic Constant Matrix: (Units=GPa)
#
#
# Indices 1 2 3 4 5 6 
#
# 1 132.3723 84.5106 61.6602 0.0000 -10.3891 0.0000
# 2 84.5106 152.2903 63.6068 0.0000 4.1755 0.0000
# 3 61.6602 63.6068 125.6710 0.0000 9.4767 0.0000
# 4 0.0000 0.0000 0.0000 -706.7088 0.0000 148.6804
# 5 -10.3891 4.1755 9.4767 0.0000 67.4755 0.0000
# 6 0.0000 0.0000 0.0000 148.6804 0.0000 -10.4649
#
#
#
# Elastic Compliance Matrix: (Units=1/GPa)
#
#
# Indices 1 2 3 4 5 6 
#
# 1 0.013298 -0.005887 -0.003767 0.000000 0.002941 0.000000
# 2 -0.005887 0.010933 -0.002553 0.000000 -0.001224 0.000000
# 3 -0.003767 -0.002553 0.011249 0.000000 -0.002002 0.000000
# 4 0.000000 0.000000 0.000000 0.000711 0.000000 0.010107
# 5 0.002941 -0.001224 -0.002002 0.000000 0.015630 0.000000
# 6 0.000000 0.000000 0.000000 0.010107 0.000000 0.048042
#
#
# Mechanical properties :
#
#
# Convention : Reuss Voigt Hill
#
# Bulk Modulus (GPa) = 90.36341 92.20985 91.28663
# Shear Modulus (GPa) = 39.07295 -116.56922 -38.74814
#
# Velocity S-wave (km/s) = 4.00144 -6.91147 -3.98477
# Velocity P-wave (km/s) = 7.64057 5.08969 4.02948
#
# Compressibility (1/GPa) = 0.01106643
#
# Stress axis : x y z
#
# Youngs Moduli (GPa) = 75.19720 91.46534 88.89995
#
# Poissons Ratio (x) = 0.53845 0.33488
# Poissons Ratio (y) = 0.44268 0.22695
# Poissons Ratio (z) = 0.28326 0.23350
#
# Static dielectric constant tensor:
#      x y z
#    x 1.922290 0.000000 0.017700 
#    y 0.000000 2.022620 0.000000 
#    z 0.017700 0.000000 1.905600 
# 
# From -- ./inp_files/637.got.cif
#   From: 2010.05.17/outbox.cif.g08.bks.cpg/sg13_1_cif.got.tgz:637.got - 2010.06.03 16:44:36.
