data_PCOD9237195
_publ_section_title
;
Structure prediction by ZEFSAII (Michael W. Deem and Ramdas Pophale) SiO2 
 PCOD9237195
Probable space group: P 2/C
;
_chemical_formula_sum "Si O2"
_cell_formula_units_Z 24
_cell_length_a 15.635973
_cell_length_b 9.484479
_cell_length_c 15.945573
_cell_angle_alpha 90.000000
_cell_angle_beta 141.194993
_cell_angle_gamma 90.000000
_cell_volume 1481.899503
_symmetry_space_group_name_H-M "P 2/C"
_symmetry_group_IT_number 13
_symmetry_cell_setting 'monoclinic'
loop_
_space_group_symop_operation_xyz
x,y,z
-x,y,1/2-z
-x,-y,-z
x,-y,1/2+z
loop_
_atom_site_type_symbol
_atom_site_label
_atom_site_fract_x
_atom_site_fract_y
_atom_site_fract_z
Si Si1 0.105629 0.580053 0.195199
Si Si2 0.845861 0.680824 0.663767
Si Si3 0.193385 0.580211 0.590719
Si Si4 0.164079 0.836071 0.141777
Si Si5 0.849865 0.163200 0.341269
Si Si6 0.340599 0.320269 0.638274
O O1 0.161320 0.482201 0.311216
O O2 0.147223 0.499998 0.140818
O O3 0.159422 0.737596 0.221122
O O4 0.941003 0.580972 0.070509
O O5 0.821944 0.775675 0.727828
O O6 0.740948 0.709405 0.509539
O O7 0.000000 0.706256 0.750000
O O8 0.223000 0.737670 0.645116
O O9 0.308259 0.483116 0.638156
O O10 0.272930 0.773960 0.159790
O O11 0.184997 0.999658 0.176855
O O12 0.012573 0.819533 0.984834
O O13 0.500000 0.295999 0.750000
#
# Coordination Sequence:
#
# PCOD9237195 Si02
#       6
#     4   4   4   4   4   4
#     4   8  14  27  51  71  94 122 162 206 235 287
#     4  11  17  31  52  78  97 125 173 214 248 278
#     4   8  14  29  48  71  94 127 161 194 246 291
#     4   9  17  33  51  77 103 132 165 199 257 301
#     4   9  17  31  56  75  98 133 169 207 242 303
#     4  11  21  33  50  74 104 132 164 210 255 294
#
# _framework density 16.195430000000002
#
# number of rings (size 3 to 8) (size 9 to 14) (size 15 to 20)
#    0.000    2.667    3.333    2.000    0.000    0.000 
#    0.000   11.667    0.000    0.000    0.000    0.000 
#    0.000    0.000    0.000    0.000    0.000    0.000 
#
# Total GULP energy -133647.942336 kJ/mol
# GULP energy per Si atom -5568.664264 kJ/mol
# Density = 1.615857 g / cm^3
# Si number density = 16.195430 Si / 1000 Ang^3
#
#
#
# Elastic Constant Matrix: (Units=GPa)
#
#
# Indices 1 2 3 4 5 6 
#
# 1 71.5355 38.3818 41.4406 0.0000 5.9827 0.0000
# 2 38.3818 127.2457 25.2683 0.0000 2.0879 0.0000
# 3 41.4406 25.2683 71.7149 0.0000 3.0423 0.0000
# 4 0.0000 0.0000 0.0000 10.1920 0.0000 -3.5180
# 5 5.9827 2.0879 3.0423 0.0000 20.4319 0.0000
# 6 0.0000 0.0000 0.0000 -3.5180 0.0000 21.2337
#
#
#
# Elastic Compliance Matrix: (Units=1/GPa)
#
#
# Indices 1 2 3 4 5 6 
#
# 1 0.023802 -0.004742 -0.011883 0.000000 -0.004715 0.000000
# 2 -0.004742 0.009399 -0.000593 0.000000 0.000516 0.000000
# 3 -0.011883 -0.000593 0.021002 0.000000 0.000413 0.000000
# 4 0.000000 0.000000 0.000000 0.104068 0.000000 0.017242
# 5 -0.004715 0.000516 0.000413 0.000000 0.050210 0.000000
# 6 0.000000 0.000000 0.000000 0.017242 0.000000 0.049952
#
#
# Mechanical properties :
#
#
# Convention : Reuss Voigt Hill
#
# Bulk Modulus (GPa) = 50.59255 53.40863 52.00059
# Shear Modulus (GPa) = 16.69690 21.39853 19.04772
#
# Velocity S-wave (km/s) = 3.21435 3.63887 3.43318
# Velocity P-wave (km/s) = 6.71436 7.12070 6.92051
#
# Compressibility (1/GPa) = 0.01976576
#
# Stress axis : x y z
#
# Youngs Moduli (GPa) = 42.01388 106.39922 47.61434
#
# Poissons Ratio (x) = 0.50458 0.56579
# Poissons Ratio (y) = 0.19924 0.02824
# Poissons Ratio (z) = 0.49924 0.06310
#
# Static dielectric constant tensor:
#      x y z
#    x 1.542840 0.000000 -0.016310 
#    y 0.000000 1.579660 0.000000 
#    z -0.016310 0.000000 1.524680 
# 
# From -- ./inp_files/49570.got.cif
#   From: 2010.05.17/outbox.cif.g08.bks.cpg/sg13_25_cif.got.tgz:49570.got - 2010.06.03 16:44:36.
