data_PCOD9237328
_publ_section_title
;
Structure prediction by ZEFSAII (Michael W. Deem and Ramdas Pophale) SiO2 
 PCOD9237328
Probable space group: P 2/C
;
_chemical_formula_sum "Si O2"
_cell_formula_units_Z 32
_cell_length_a 12.378905
_cell_length_b 12.869339
_cell_length_c 14.584502
_cell_angle_alpha 90.000000
_cell_angle_beta 43.674431
_cell_angle_gamma 90.000000
_cell_volume 1604.468928
_symmetry_space_group_name_H-M "P 2/C"
_symmetry_group_IT_number 13
_symmetry_cell_setting 'monoclinic'
loop_
_space_group_symop_operation_xyz
x,y,z
-x,y,1/2-z
-x,-y,-z
x,-y,1/2+z
loop_
_atom_site_type_symbol
_atom_site_label
_atom_site_fract_x
_atom_site_fract_y
_atom_site_fract_z
Si Si1 0.361775 0.937114 0.407434
Si Si2 0.904908 0.524302 0.150634
Si Si3 0.447879 0.224572 0.007310
Si Si4 0.106820 0.300312 0.267863
Si Si5 0.622986 0.633819 0.250590
Si Si6 0.119553 0.800694 0.457247
Si Si7 0.969327 0.249775 0.872426
Si Si8 0.380670 0.815717 0.906301
O O1 0.500000 0.911706 0.250000
O O2 0.406137 0.879117 0.474631
O O3 0.202170 0.892341 0.461744
O O4 0.353042 0.060306 0.421582
O O5 0.915881 0.423114 0.205709
O O6 0.724921 0.544159 0.233936
O O7 0.970976 0.631530 0.151552
O O8 0.000000 0.500000 0.000000
O O9 0.537053 0.299482 0.881383
O O10 0.284322 0.273930 0.138398
O O11 0.548035 0.208540 0.037548
O O12 0.000000 0.263387 0.250000
O O13 0.035987 0.242315 0.399256
O O14 0.500000 0.598622 0.250000
O O15 0.750545 0.708988 0.123536
O O16 0.070426 0.817939 0.382315
O O17 0.000000 0.216275 0.750000
O O18 0.785378 0.240446 0.004505
O O19 0.500000 0.790277 0.750000
#
# Coordination Sequence:
#
# PCOD9237328 Si02
#       8
#     4   4   4   4   4   4   4   4
#     4  11  22  42  72  98 128 179 218 270 332 391
#     4  11  24  42  67  93 132 180 217 271 337 396
#     4  12  23  42  69  99 135 168 222 277 324 392
#     4  12  23  40  67  99 133 167 218 280 329 385
#     4  11  20  41  70  93 127 175 223 266 330 394
#     4  11  20  42  69  92 130 173 220 263 330 393
#     4  11  24  45  68  93 133 178 215 272 332 391
#     4  11  26  44  64  99 138 174 215 272 335 389
#
# _framework density 19.944292999999998
#
# number of rings (size 3 to 8) (size 9 to 14) (size 15 to 20)
#    0.000    0.750    6.250    3.000    0.000    1.000 
#    4.500    0.000    0.000    0.000    0.000    0.000 
#    0.000    0.000    0.000    0.000    0.000    0.000 
#
# Total GULP energy -178875.883170 kJ/mol
# GULP energy per Si atom -5589.871349 kJ/mol
# Density = 1.989890 g / cm^3
# Si number density = 19.944293 Si / 1000 Ang^3
#
#
#
# Elastic Constant Matrix: (Units=GPa)
#
#
# Indices 1 2 3 4 5 6 
#
# 1 148.7086 25.6958 20.3254 0.0000 4.2669 0.0000
# 2 25.6958 36.8317 21.9019 0.0000 -3.3926 0.0000
# 3 20.3254 21.9019 95.0452 0.0000 -5.1104 0.0000
# 4 0.0000 0.0000 0.0000 18.7135 0.0000 -9.1476
# 5 4.2669 -3.3926 -5.1104 0.0000 32.6107 0.0000
# 6 0.0000 0.0000 0.0000 -9.1476 0.0000 -4.1556
#
#
#
# Elastic Compliance Matrix: (Units=1/GPa)
#
#
# Indices 1 2 3 4 5 6 
#
# 1 0.007750 -0.005238 -0.000539 0.000000 -0.001643 0.000000
# 2 -0.005238 0.035153 -0.006804 0.000000 0.003276 0.000000
# 3 -0.000539 -0.006804 0.012274 0.000000 0.001286 0.000000
# 4 0.000000 0.000000 0.000000 0.025740 0.000000 -0.056661
# 5 -0.001643 0.003276 0.001286 0.000000 0.031422 0.000000
# 6 0.000000 0.000000 0.000000 -0.056661 0.000000 -0.115913
#
#
# Mechanical properties :
#
#
# Convention : Reuss Voigt Hill
#
# Bulk Modulus (GPa) = 33.31695 46.27019 39.79357
# Shear Modulus (GPa) = 158.26217 23.61121 90.93669
#
# Velocity S-wave (km/s) = 8.91764 3.44446 6.75976
# Velocity P-wave (km/s) = 11.08033 6.25053 8.99563
#
# Compressibility (1/GPa) = 0.03001475
#
# Stress axis : x y z
#
# Youngs Moduli (GPa) = 129.02441 28.44716 81.47573
#
# Poissons Ratio (x) = 0.14901 0.04389
# Poissons Ratio (y) = 0.67585 0.55438
# Poissons Ratio (z) = 0.06951 0.19356
#
# Static dielectric constant tensor:
#      x y z
#    x 1.705520 0.000000 0.009110 
#    y 0.000000 1.687570 0.000000 
#    z 0.009110 0.000000 1.718090 
# 
# From -- ./inp_files/51466.got.cif
#   From: 2010.05.17/outbox.cif.g08.bks.cpg/sg13_26_cif.got.tgz:51466.got - 2010.06.03 16:44:36.
