data_PCOD9237803
_publ_section_title
;
Structure prediction by ZEFSAII (Michael W. Deem and Ramdas Pophale) SiO2 
 PCOD9237803
Probable space group: P 2/C
;
_chemical_formula_sum "Si O2"
_cell_formula_units_Z 22
_cell_length_a 8.865171
_cell_length_b 8.243260
_cell_length_c 20.790377
_cell_angle_alpha 90.000000
_cell_angle_beta 41.272242
_cell_angle_gamma 90.000000
_cell_volume 1002.198851
_symmetry_space_group_name_H-M "P 2/C"
_symmetry_group_IT_number 13
_symmetry_cell_setting 'monoclinic'
loop_
_space_group_symop_operation_xyz
x,y,z
-x,y,1/2-z
-x,-y,-z
x,-y,1/2+z
loop_
_atom_site_type_symbol
_atom_site_label
_atom_site_fract_x
_atom_site_fract_y
_atom_site_fract_z
Si Si1 0.759749 0.417536 0.791896
Si Si2 0.922257 0.229500 0.195292
Si Si3 0.500000 0.261401 0.750000
Si Si4 0.786992 0.964313 0.612530
Si Si5 0.452423 0.746931 0.486762
Si Si6 0.532177 0.908998 0.893317
O O1 0.823017 0.597793 0.749252
O O2 0.633688 0.346143 0.767523
O O3 0.572014 0.395613 0.908869
O O4 0.000000 0.353416 0.750000
O O5 0.842408 0.143137 0.155752
O O6 0.795894 0.116633 0.289837
O O7 0.187888 0.264044 0.092242
O O8 0.688056 0.138946 0.662030
O O9 0.602825 0.874445 0.627918
O O10 0.000000 0.000000 0.500000
O O11 0.562503 0.795130 0.519714
O O12 0.488390 0.907734 0.431107
#
# Coordination Sequence:
#
# PCOD9237803 Si02
#       6
#     4   4   2   4   4   4
#     4  12  29  49  74 110 159 205 248 311 382 468
#     4  12  25  48  74 106 152 198 249 317 380 456
#     4  12  26  50  72 110 152 196 260 308 382 446
#     4  12  23  46  73 108 144 191 261 321 370 449
#     4  11  25  48  71 113 146 197 259 313 378 455
#     4  11  23  41  76 104 144 195 251 319 372 434
#
# _framework density 21.951732
#
# number of rings (size 3 to 8) (size 9 to 14) (size 15 to 20)
#    0.000    0.364    5.455    1.636    5.091    5.818 
#    0.000    1.818    0.000    0.000    0.000    0.000 
#    0.000    0.000    0.000    0.000    0.000    0.000 
#
# Total GULP energy -122577.926457 kJ/mol
# GULP energy per Si atom -5571.723930 kJ/mol
# Density = 2.190177 g / cm^3
# Si number density = 21.951732 Si / 1000 Ang^3
#
#
#
# Elastic Constant Matrix: (Units=GPa)
#
#
# Indices 1 2 3 4 5 6 
#
# 1 88.5751 34.7721 38.1999 0.0000 5.6543 0.0000
# 2 34.7721 101.4526 71.0206 0.0000 1.8128 0.0000
# 3 38.1999 71.0206 215.5509 0.0000 -1.9600 0.0000
# 4 0.0000 0.0000 0.0000 37.6431 0.0000 31.7130
# 5 5.6543 1.8128 -1.9600 0.0000 41.6338 0.0000
# 6 0.0000 0.0000 0.0000 31.7130 0.0000 6.4516
#
#
#
# Elastic Compliance Matrix: (Units=1/GPa)
#
#
# Indices 1 2 3 4 5 6 
#
# 1 0.013365 -0.003745 -0.001150 0.000000 -0.001706 0.000000
# 2 -0.003745 0.013885 -0.003914 0.000000 -0.000280 0.000000
# 3 -0.001150 -0.003914 0.006138 0.000000 0.000616 0.000000
# 4 0.000000 0.000000 0.000000 -0.008457 0.000000 0.041572
# 5 -0.001706 -0.000280 0.000616 0.000000 0.024292 0.000000
# 6 0.000000 0.000000 0.000000 0.041572 0.000000 -0.049345
#
#
# Mechanical properties :
#
#
# Convention : Reuss Voigt Hill
#
# Bulk Modulus (GPa) = 63.40997 77.06265 70.23631
# Shear Modulus (GPa) = 219.75283 34.58477 127.16880
#
# Velocity S-wave (km/s) = 10.01622 3.97355 7.61951
# Velocity P-wave (km/s) = 12.75598 7.49892 10.46300
#
# Compressibility (1/GPa) = 0.01577039
#
# Stress axis : x y z
#
# Youngs Moduli (GPa) = 74.82220 72.01881 162.91344
#
# Poissons Ratio (x) = 0.26972 0.18736
# Poissons Ratio (y) = 0.28022 0.63761
# Poissons Ratio (z) = 0.08605 0.28187
#
# Static dielectric constant tensor:
#      x y z
#    x 1.754320 0.000000 0.073500 
#    y 0.000000 1.840370 0.000000 
#    z 0.073500 0.000000 1.709700 
# 
# From -- ./inp_files/75541.got.cif
#   From: 2010.05.17/outbox.cif.g08.bks.cpg/sg13_38_cif.got.tgz:75541.got - 2010.06.03 16:44:36.
