data_PCOD9237755
_publ_section_title
;
Structure prediction by ZEFSAII (Michael W. Deem and Ramdas Pophale) SiO2 
 PCOD9237755
Probable space group: P 2/C
;
_chemical_formula_sum "Si O2"
_cell_formula_units_Z 30
_cell_length_a 11.990896
_cell_length_b 12.040007
_cell_length_c 19.682930
_cell_angle_alpha 90.000000
_cell_angle_beta 151.549292
_cell_angle_gamma 90.000000
_cell_volume 1353.761576
_symmetry_space_group_name_H-M "P 2/C"
_symmetry_group_IT_number 13
_symmetry_cell_setting 'monoclinic'
loop_
_space_group_symop_operation_xyz
x,y,z
-x,y,1/2-z
-x,-y,-z
x,-y,1/2+z
loop_
_atom_site_type_symbol
_atom_site_label
_atom_site_fract_x
_atom_site_fract_y
_atom_site_fract_z
Si Si1 0.525667 0.279307 0.521522
Si Si2 0.013993 0.290268 0.441044
Si Si3 0.217545 0.111026 0.920710
Si Si4 0.739875 0.259795 0.423327
Si Si5 0.823750 0.851251 0.591320
Si Si6 0.626224 0.489384 0.889832
Si Si7 0.000000 0.586162 0.250000
Si Si8 0.254592 0.551690 0.788583
O O1 0.556301 0.168993 0.491784
O O2 0.404755 0.226340 0.522036
O O3 0.776828 0.337514 0.645351
O O4 0.358595 0.375311 0.404384
O O5 0.054549 0.188310 0.412580
O O6 0.209883 0.383548 0.534335
O O7 0.955098 0.258413 0.485712
O O8 0.792934 0.359895 0.295539
O O9 0.000000 0.121960 0.750000
O O10 0.241104 0.980115 0.944774
O O11 0.202137 0.175854 0.984146
O O12 0.500000 0.236570 0.250000
O O13 0.726809 0.384316 0.447789
O O14 0.000000 0.831262 0.750000
O O15 0.500000 0.495797 0.750000
O O16 0.446470 0.472971 0.856431
O O17 0.026215 0.505433 0.198700
#
# Coordination Sequence:
#
# PCOD9237755 Si02
#       8
#     4   4   4   4   4   4   2   4
#     4  12  22  45  65 101 144 183 239 289 360 426
#     4  12  23  42  68  96 137 185 233 288 358 430
#     4  11  25  46  74 106 136 188 247 306 357 416
#     4  11  23  46  71 100 139 187 237 289 361 437
#     4  11  25  45  71 102 140 187 243 301 359 420
#     4  11  23  40  65  98 138 188 228 289 356 436
#     4  12  26  36  62 108 148 184 220 298 356 418
#     4  12  22  39  66  98 141 186 233 279 354 440
#
# _framework density 22.160474000000001
#
# number of rings (size 3 to 8) (size 9 to 14) (size 15 to 20)
#    0.000    0.533    6.000    3.600    0.000    0.533 
#    2.400    1.333    0.000    0.000    0.000    0.000 
#    0.000    0.000    0.000    0.000    0.000    0.000 
#
# Total GULP energy -167406.595685 kJ/mol
# GULP energy per Si atom -5580.219856 kJ/mol
# Density = 2.211004 g / cm^3
# Si number density = 22.160474 Si / 1000 Ang^3
#
#
#
# Elastic Constant Matrix: (Units=GPa)
#
#
# Indices 1 2 3 4 5 6 
#
# 1 166.5107 48.3160 28.6151 0.0000 9.7456 0.0000
# 2 48.3160 110.1068 44.8028 0.0000 -4.7174 0.0000
# 3 28.6151 44.8028 63.4987 0.0000 -5.1676 0.0000
# 4 0.0000 0.0000 0.0000 25.1879 0.0000 -2.2685
# 5 9.7456 -4.7174 -5.1676 0.0000 31.2296 0.0000
# 6 0.0000 0.0000 0.0000 -2.2685 0.0000 28.4203
#
#
#
# Elastic Compliance Matrix: (Units=1/GPa)
#
#
# Indices 1 2 3 4 5 6 
#
# 1 0.007220 -0.002627 -0.001638 0.000000 -0.002921 0.000000
# 2 -0.002627 0.013701 -0.008361 0.000000 0.001506 0.000000
# 3 -0.001638 -0.008361 0.022629 0.000000 0.002993 0.000000
# 4 0.000000 0.000000 0.000000 0.039989 0.000000 0.003192
# 5 -0.002921 0.001506 0.002993 0.000000 0.033655 0.000000
# 6 0.000000 0.000000 0.000000 0.003192 0.000000 0.035441
#
#
# Mechanical properties :
#
#
# Convention : Reuss Voigt Hill
#
# Bulk Modulus (GPa) = 54.64711 64.84267 59.74489
# Shear Modulus (GPa) = 27.17575 31.52641 29.35108
#
# Velocity S-wave (km/s) = 3.50568 3.77588 3.64329
# Velocity P-wave (km/s) = 6.41090 6.95225 6.68705
#
# Compressibility (1/GPa) = 0.01829923
#
# Stress axis : x y z
#
# Youngs Moduli (GPa) = 138.49758 72.98496 44.19063
#
# Poissons Ratio (x) = 0.19173 0.07238
# Poissons Ratio (y) = 0.36384 0.36947
# Poissons Ratio (z) = 0.22685 0.61022
#
# Static dielectric constant tensor:
#      x y z
#    x 1.815780 0.000000 0.035710 
#    y 0.000000 1.799930 0.000000 
#    z 0.035710 0.000000 1.975340 
# 
# From -- ./inp_files/78645.got.cif
#   From: 2010.05.17/outbox.cif.g08.bks.cpg/sg13_40_cif.got.tgz:78645.got - 2010.06.03 16:44:36.
