data_PCOD9237540
_publ_section_title
;
Structure prediction by ZEFSAII (Michael W. Deem and Ramdas Pophale) SiO2 
 PCOD9237540
Probable space group: P 2/C
;
_chemical_formula_sum "Si O2"
_cell_formula_units_Z 16
_cell_length_a 9.661978
_cell_length_b 7.012939
_cell_length_c 24.053479
_cell_angle_alpha 90.000000
_cell_angle_beta 158.341807
_cell_angle_gamma 90.000000
_cell_volume 601.521589
_symmetry_space_group_name_H-M "P 2/C"
_symmetry_group_IT_number 13
_symmetry_cell_setting 'monoclinic'
loop_
_space_group_symop_operation_xyz
x,y,z
-x,y,1/2-z
-x,-y,-z
x,-y,1/2+z
loop_
_atom_site_type_symbol
_atom_site_label
_atom_site_fract_x
_atom_site_fract_y
_atom_site_fract_z
Si Si1 0.850148 0.543238 0.089171
Si Si2 0.000855 0.157400 0.417397
Si Si3 0.504877 0.200213 0.689471
Si Si4 0.431032 0.098420 0.413999
O O1 0.226273 0.657920 0.246623
O O2 0.500000 0.500000 0.000000
O O3 0.985145 0.349006 0.112163
O O4 0.651082 0.711652 0.980628
O O5 0.063630 0.202725 0.505654
O O6 0.414539 0.060827 0.568938
O O7 0.722057 0.001990 0.286770
O O8 0.500000 0.292534 0.750000
O O9 0.000000 0.138531 0.250000
O O10 0.500000 0.000000 0.500000
#
# Coordination Sequence:
#
# PCOD9237540 Si02
#       4
#     4   4   4   4
#     4  11  25  40  69 108 139 178 229 296 361 421
#     4  11  25  43  72  99 143 186 238 298 355 425
#     4  11  27  48  70 101 141 194 246 294 357 428
#     4  11  22  38  63  98 140 173 222 281 354 419
#
# _framework density 26.599211
#
# number of rings (size 3 to 8) (size 9 to 14) (size 15 to 20)
#    0.000    1.000    2.500    3.750    3.500    4.000 
#    0.000    0.000    0.000    0.000    0.000    0.000 
#    0.000    0.000    0.000    0.000    0.000    0.000 
#
# Total GULP energy -89166.276077 kJ/mol
# GULP energy per Si atom -5572.892255 kJ/mol
# Density = 2.653867 g / cm^3
# Si number density = 26.599211 Si / 1000 Ang^3
#
#
#
# Elastic Constant Matrix: (Units=GPa)
#
#
# Indices 1 2 3 4 5 6 
#
# 1 41.5599 34.3488 34.0993 0.0000 2.4055 0.0000
# 2 34.3488 192.0625 57.2677 0.0000 8.6794 0.0000
# 3 34.0993 57.2677 128.5817 0.0000 -11.4943 0.0000
# 4 0.0000 0.0000 0.0000 55.2635 0.0000 10.9052
# 5 2.4055 8.6794 -11.4943 0.0000 49.9342 0.0000
# 6 0.0000 0.0000 0.0000 10.9052 0.0000 36.4764
#
#
#
# Elastic Compliance Matrix: (Units=1/GPa)
#
#
# Indices 1 2 3 4 5 6 
#
# 1 0.033334 -0.003611 -0.007473 0.000000 -0.002698 0.000000
# 2 -0.003611 0.006539 -0.002083 0.000000 -0.001442 0.000000
# 3 -0.007473 -0.002083 0.010977 0.000000 0.003249 0.000000
# 4 0.000000 0.000000 0.000000 0.019230 0.000000 -0.005749
# 5 -0.002698 -0.001442 0.003249 0.000000 0.021155 0.000000
# 6 0.000000 0.000000 0.000000 -0.005749 0.000000 0.029134
#
#
# Mechanical properties :
#
#
# Convention : Reuss Voigt Hill
#
# Bulk Modulus (GPa) = 40.79172 68.18175 54.48673
# Shear Modulus (GPa) = 32.28407 44.10072 38.19239
#
# Velocity S-wave (km/s) = 3.48763 4.07624 3.79337
# Velocity P-wave (km/s) = 5.62024 6.91686 6.30198
#
# Compressibility (1/GPa) = 0.02451478
#
# Stress axis : x y z
#
# Youngs Moduli (GPa) = 29.99950 152.93038 91.09722
#
# Poissons Ratio (x) = 0.55229 0.68075
# Poissons Ratio (y) = 0.10834 0.18980
# Poissons Ratio (z) = 0.22418 0.31863
#
# Static dielectric constant tensor:
#      x y z
#    x 2.304230 0.000000 0.413340 
#    y 0.000000 2.574030 0.000000 
#    z 0.413340 0.000000 1.743470 
# 
# From -- ./inp_files/41030.got.cif
#   From: 2010.05.17/outbox.cif.g08.bks.cpg/sg13_21_cif.got.tgz:41030.got - 2010.06.03 16:44:36.
