data_PCOD9237025
_publ_section_title
;
Structure prediction by ZEFSAII (Michael W. Deem and Ramdas Pophale) SiO2 
 PCOD9237025
Probable space group: P 2/C
;
_chemical_formula_sum "Si O2"
_cell_formula_units_Z 22
_cell_length_a 20.203628
_cell_length_b 4.442565
_cell_length_c 8.885105
_cell_angle_alpha 90.000000
_cell_angle_beta 69.217932
_cell_angle_gamma 90.000000
_cell_volume 745.603536
_symmetry_space_group_name_H-M "P 2/C"
_symmetry_group_IT_number 13
_symmetry_cell_setting 'monoclinic'
loop_
_space_group_symop_operation_xyz
x,y,z
-x,y,1/2-z
-x,-y,-z
x,-y,1/2+z
loop_
_atom_site_type_symbol
_atom_site_label
_atom_site_fract_x
_atom_site_fract_y
_atom_site_fract_z
Si Si1 0.301688 0.672207 0.177657
Si Si2 0.000000 0.500000 0.500000
Si Si3 0.500000 0.994650 0.250000
Si Si4 0.598328 0.168432 0.423514
Si Si5 0.213046 0.013689 0.999142
Si Si6 0.000000 0.950235 0.250000
Si Si7 0.882756 0.706694 0.672242
O O1 0.325517 0.327623 0.153923
O O2 0.378629 0.819247 0.095657
O O3 0.266426 0.777746 0.361015
O O4 0.253084 0.789673 0.081422
O O5 0.036610 0.278628 0.605049
O O6 0.914877 0.375291 0.613468
O O7 0.445088 0.795422 0.389912
O O8 0.546197 0.194727 0.326284
O O9 0.169662 0.823723 0.911654
O O10 0.159445 0.211489 0.142848
O O11 0.035141 0.192286 0.339550
#
# Coordination Sequence:
#
# PCOD9237025 Si02
#       7
#     4   2   2   4   4   2   4
#     4  11  26  51  78 115 165 218 263 335 390 477
#     4  12  26  44  80 106 142 212 240 354 406 470
#     4  10  26  48  88 126 160 220 260 338 394 480
#     4  11  26  50  81 120 168 204 274 321 403 465
#     4  10  25  51  75 108 155 213 266 328 399 501
#     4  12  26  46  74 108 158 186 260 352 402 476
#     4  11  24  52  70 113 152 195 274 325 411 482
#
# _framework density 29.5063
#
# number of rings (size 3 to 8) (size 9 to 14) (size 15 to 20)
#    0.000    1.091    1.818    2.182    2.545   10.182 
#   19.636    5.455    0.000    0.000    0.000    0.000 
#    0.000    0.000    0.000    0.000    0.000    0.000 
#
# Total GULP energy -123069.143070 kJ/mol
# GULP energy per Si atom -5594.051958 kJ/mol
# Density = 2.943914 g / cm^3
# Si number density = 29.506300 Si / 1000 Ang^3
#
#
#
# Elastic Constant Matrix: (Units=GPa)
#
#
# Indices 1 2 3 4 5 6 
#
# 1 136.8870 34.5862 87.4060 0.0000 -9.9686 0.0000
# 2 34.5862 82.8711 14.5835 0.0000 6.7893 0.0000
# 3 87.4060 14.5835 181.0884 0.0000 12.0823 0.0000
# 4 0.0000 0.0000 0.0000 46.3181 0.0000 -14.7389
# 5 -9.9686 6.7893 12.0823 0.0000 66.3719 0.0000
# 6 0.0000 0.0000 0.0000 -14.7389 0.0000 68.8616
#
#
#
# Elastic Compliance Matrix: (Units=1/GPa)
#
#
# Indices 1 2 3 4 5 6 
#
# 1 0.012412 -0.004426 -0.005860 0.000000 0.003384 0.000000
# 2 -0.004426 0.013897 0.001171 0.000000 -0.002299 0.000000
# 3 -0.005860 0.001171 0.008425 0.000000 -0.002534 0.000000
# 4 0.000000 0.000000 0.000000 0.023168 0.000000 0.004959
# 5 0.003384 -0.002299 -0.002534 0.000000 0.016271 0.000000
# 6 0.000000 0.000000 0.000000 0.004959 0.000000 0.015583
#
#
# Mechanical properties :
#
#
# Convention : Reuss Voigt Hill
#
# Bulk Modulus (GPa) = 60.59625 74.88865 67.74245
# Shear Modulus (GPa) = 44.05743 53.92837 48.99290
#
# Velocity S-wave (km/s) = 3.86833 4.27979 4.07925
# Velocity P-wave (km/s) = 6.36657 7.06100 6.72276
#
# Compressibility (1/GPa) = 0.01650267
#
# Stress axis : x y z
#
# Youngs Moduli (GPa) = 80.56791 71.96043 118.68767
#
# Poissons Ratio (x) = 0.31850 0.69553
# Poissons Ratio (y) = 0.35660 -0.13894
# Poissons Ratio (z) = 0.47214 -0.08424
#
# Static dielectric constant tensor:
#      x y z
#    x 2.436140 0.000000 -0.741560 
#    y 0.000000 2.381090 0.000000 
#    z -0.741560 0.000000 5.174920 
# 
# From -- ./inp_files/22251.got.cif
#   From: 2010.05.17/outbox.cif.g08.bks.cpg/sg13_12_cif.got.tgz:22251.got - 2010.06.03 16:44:36.
