data_PCOD9237416
_publ_section_title
;
Structure prediction by ZEFSAII (Michael W. Deem and Ramdas Pophale) SiO2 
 PCOD9237416
Probable space group: P 2/C
;
_chemical_formula_sum "Si O2"
_cell_formula_units_Z 28
_cell_length_a 11.985907
_cell_length_b 7.838333
_cell_length_c 27.358048
_cell_angle_alpha 90.000000
_cell_angle_beta 24.549125
_cell_angle_gamma 90.000000
_cell_volume 1067.880913
_symmetry_space_group_name_H-M "P 2/C"
_symmetry_group_IT_number 13
_symmetry_cell_setting 'monoclinic'
loop_
_space_group_symop_operation_xyz
x,y,z
-x,y,1/2-z
-x,-y,-z
x,-y,1/2+z
loop_
_atom_site_type_symbol
_atom_site_label
_atom_site_fract_x
_atom_site_fract_y
_atom_site_fract_z
Si Si1 0.424713 0.255600 0.987683
Si Si2 0.000000 0.927856 0.250000
Si Si3 0.926493 0.151363 0.671347
Si Si4 0.363177 0.141309 0.911859
Si Si5 0.924865 0.740587 0.066533
Si Si6 0.468879 0.754028 0.672340
Si Si7 0.500000 0.556163 0.750000
Si Si8 0.499120 0.655883 0.559155
O O1 0.718033 0.170883 0.868047
O O2 0.268352 0.166425 0.005350
O O3 0.341566 0.252700 0.077654
O O4 0.458318 0.456123 0.964498
O O5 0.036449 0.970795 0.295135
O O6 0.642162 0.249394 0.795492
O O7 0.890567 0.128429 0.626273
O O8 0.203171 0.260112 0.560471
O O9 0.150985 0.179108 0.954996
O O10 0.480577 0.954517 0.852832
O O11 0.735503 0.578491 0.145846
O O12 0.228776 0.680024 0.946741
O O13 0.363916 0.680698 0.764171
O O14 0.349935 0.688462 0.669318
#
# Coordination Sequence:
#
# PCOD9237416 Si02
#       8
#     4   2   4   4   4   4   2   4
#     4   9  18  35  66  90 126 168 207 257 313 372
#     4   8  16  30  56  94 114 162 206 246 302 364
#     4   9  18  34  62  85 121 162 205 250 309 372
#     4  11  21  39  62  92 130 170 203 261 325 385
#     4  11  22  42  63  89 127 168 209 258 321 382
#     4  11  26  39  62  96 129 162 215 265 322 389
#     4  12  24  40  64  92 122 168 212 272 308 386
#     4   9  19  38  61  96 121 164 216 258 304 374
#
# _framework density 26.220154000000001
#
# number of rings (size 3 to 8) (size 9 to 14) (size 15 to 20)
#    0.000    2.000    1.429    1.714    4.000    1.714 
#    0.000    0.000    0.000    5.143    0.000    0.000 
#    0.000    0.000    0.000    0.000    0.000    0.000 
#
# Total GULP energy -156058.663730 kJ/mol
# GULP energy per Si atom -5573.523705 kJ/mol
# Density = 2.616048 g / cm^3
# Si number density = 26.220154 Si / 1000 Ang^3
#
#
#
# Elastic Constant Matrix: (Units=GPa)
#
#
# Indices 1 2 3 4 5 6 
#
# 1 276.8811 60.4338 26.6235 0.0000 40.9166 0.0000
# 2 60.4338 94.2448 -1.6215 0.0000 18.9170 0.0000
# 3 26.6235 -1.6215 30.3472 0.0000 -3.4753 0.0000
# 4 0.0000 0.0000 0.0000 22.3279 0.0000 -4.7815
# 5 40.9166 18.9170 -3.4753 0.0000 28.4266 0.0000
# 6 0.0000 0.0000 0.0000 -4.7815 0.0000 44.5490
#
#
#
# Elastic Compliance Matrix: (Units=1/GPa)
#
#
# Indices 1 2 3 4 5 6 
#
# 1 0.005826 -0.002317 -0.006104 0.000000 -0.007590 0.000000
# 2 -0.002317 0.013171 0.002145 0.000000 -0.005167 0.000000
# 3 -0.006104 0.002145 0.039822 0.000000 0.012227 0.000000
# 4 0.000000 0.000000 0.000000 0.045841 0.000000 0.004920
# 5 -0.007590 -0.005167 0.012227 0.000000 0.051036 0.000000
# 6 0.000000 0.000000 0.000000 0.004920 0.000000 0.022975
#
#
# Mechanical properties :
#
#
# Convention : Reuss Voigt Hill
#
# Bulk Modulus (GPa) = 21.61427 63.59387 42.60407
# Shear Modulus (GPa) = 24.19600 40.12984 32.16292
#
# Velocity S-wave (km/s) = 3.04106 3.91640 3.50615
# Velocity P-wave (km/s) = 4.53784 6.69010 5.71618
#
# Compressibility (1/GPa) = 0.04626574
#
# Stress axis : x y z
#
# Youngs Moduli (GPa) = 171.64296 75.92610 25.11179
#
# Poissons Ratio (x) = 0.17596 0.15329
# Poissons Ratio (y) = 0.39778 -0.05387
# Poissons Ratio (z) = 1.04774 -0.16287
#
# Static dielectric constant tensor:
#      x y z
#    x 2.252550 0.000000 0.149860 
#    y 0.000000 2.069690 0.000000 
#    z 0.149860 0.000000 2.252940 
# 
# From -- ./inp_files/96552.got.cif
#   From: 2010.05.17/outbox.cif.g08.bks.cpg/sg13_49_cif.got.tgz:96552.got - 2010.06.03 16:44:36.
