data_PCOD9237532
_publ_section_title
;
Structure prediction by ZEFSAII (Michael W. Deem and Ramdas Pophale) SiO2 
 PCOD9237532
Probable space group: P 2/C
;
_chemical_formula_sum "Si O2"
_cell_formula_units_Z 32
_cell_length_a 15.588983
_cell_length_b 20.881190
_cell_length_c 14.885549
_cell_angle_alpha 90.000000
_cell_angle_beta 161.168963
_cell_angle_gamma 90.000000
_cell_volume 1564.020392
_symmetry_space_group_name_H-M "P 2/C"
_symmetry_group_IT_number 13
_symmetry_cell_setting 'monoclinic'
loop_
_space_group_symop_operation_xyz
x,y,z
-x,y,1/2-z
-x,-y,-z
x,-y,1/2+z
loop_
_atom_site_type_symbol
_atom_site_label
_atom_site_fract_x
_atom_site_fract_y
_atom_site_fract_z
Si Si1 0.605371 0.362911 0.454262
Si Si2 0.525303 0.992123 0.132378
Si Si3 0.625242 0.516061 0.470968
Si Si4 0.490456 0.137244 0.343475
Si Si5 0.979408 0.176083 0.949700
Si Si6 0.918677 0.321429 0.468790
Si Si7 0.103197 0.558069 0.040059
Si Si8 0.022700 0.090994 0.170809
O O1 0.500000 0.351532 0.250000
O O2 0.637225 0.439503 0.498090
O O3 0.886404 0.330357 0.752492
O O4 0.380625 0.337272 0.299033
O O5 0.812588 0.966761 0.447213
O O6 0.458143 0.061081 0.106340
O O7 0.314347 0.938806 0.951352
O O8 0.500000 0.000000 0.000000
O O9 0.500000 0.525514 0.250000
O O10 0.412212 0.547833 0.327033
O O11 0.913738 0.546578 0.767017
O O12 0.500000 0.161438 0.250000
O O13 0.707319 0.168769 0.624181
O O14 0.207246 0.147680 0.110370
O O15 0.048914 0.250040 0.034175
O O16 0.973032 0.138834 0.038207
O O17 0.029587 0.374701 0.510753
O O18 0.000000 0.500000 0.000000
O O19 0.000000 0.117129 0.250000
#
# Coordination Sequence:
#
# PCOD9237532 Si02
#       8
#     4   4   4   4   4   4   4   4
#     4  11  22  38  60  90 121 156 202 252 313 385
#     4  12  22  43  70 100 131 162 212 269 317 365
#     4  11  22  38  61  91 122 150 193 258 322 373
#     4  12  25  42  67  97 134 170 208 258 321 378
#     4  12  26  44  61  92 133 174 218 258 308 386
#     4  12  25  39  62  88 121 168 209 253 308 376
#     4  12  21  39  63  90 118 155 203 256 316 362
#     4  12  24  43  69  95 129 173 214 266 316 366
#
# _framework density 20.460090999999998
#
# number of rings (size 3 to 8) (size 9 to 14) (size 15 to 20)
#    0.000    0.250    5.000    5.250    0.000    5.000 
#    0.000    1.250    0.000    0.000    0.000    0.000 
#    0.000    0.000    0.000    0.000    0.000    0.000 
#
# Total GULP energy -179065.659312 kJ/mol
# GULP energy per Si atom -5595.801853 kJ/mol
# Density = 2.041352 g / cm^3
# Si number density = 20.460091 Si / 1000 Ang^3
#
#
#
# Elastic Constant Matrix: (Units=GPa)
#
#
# Indices 1 2 3 4 5 6 
#
# 1 110.6015 16.3625 4.3807 0.0000 -10.3830 0.0000
# 2 16.3625 89.0712 -16.9340 0.0000 -9.7856 0.0000
# 3 4.3807 -16.9340 71.5942 0.0000 -2.5387 0.0000
# 4 0.0000 0.0000 0.0000 16.2719 0.0000 7.2737
# 5 -10.3830 -9.7856 -2.5387 0.0000 31.7109 0.0000
# 6 0.0000 0.0000 0.0000 7.2737 0.0000 9.5139
#
#
#
# Elastic Compliance Matrix: (Units=1/GPa)
#
#
# Indices 1 2 3 4 5 6 
#
# 1 0.009559 -0.001644 -0.000883 0.000000 0.002552 0.000000
# 2 -0.001644 0.012529 0.003191 0.000000 0.003584 0.000000
# 3 -0.000883 0.003191 0.014843 0.000000 0.001884 0.000000
# 4 0.000000 0.000000 0.000000 0.093363 0.000000 -0.071379
# 5 0.002552 0.003584 0.001884 0.000000 0.033627 0.000000
# 6 0.000000 0.000000 0.000000 -0.071379 0.000000 0.159681
#
#
# Mechanical properties :
#
#
# Convention : Reuss Voigt Hill
#
# Bulk Modulus (GPa) = 26.13653 30.98727 28.56190
# Shear Modulus (GPa) = 14.92414 29.32985 22.12700
#
# Velocity S-wave (km/s) = 2.70372 3.79029 3.29214
# Velocity P-wave (km/s) = 4.74857 5.85945 5.33301
#
# Compressibility (1/GPa) = 0.03826063
#
# Stress axis : x y z
#
# Youngs Moduli (GPa) = 104.61146 79.81276 67.37067
#
# Poissons Ratio (x) = 0.13118 0.05950
# Poissons Ratio (y) = 0.17194 -0.21499
# Poissons Ratio (z) = 0.09239 -0.25470
#
# Static dielectric constant tensor:
#      x y z
#    x 1.770700 0.000000 -0.026890 
#    y 0.000000 1.690110 0.000000 
#    z -0.026890 0.000000 1.746060 
# 
# From -- ./inp_files/54023.got.cif
#   From: 2010.05.17/outbox.cif.g08.bks.cpg/sg13_28_cif.got.tgz:54023.got - 2010.06.03 16:44:36.
