data_PCOD9237529
_publ_section_title
;
Structure prediction by ZEFSAII (Michael W. Deem and Ramdas Pophale) SiO2 
 PCOD9237529
Probable space group: P 2/C
;
_chemical_formula_sum "Si O2"
_cell_formula_units_Z 20
_cell_length_a 21.327351
_cell_length_b 4.436546
_cell_length_c 8.076574
_cell_angle_alpha 90.000000
_cell_angle_beta 115.914298
_cell_angle_gamma 90.000000
_cell_volume 687.361976
_symmetry_space_group_name_H-M "P 2/C"
_symmetry_group_IT_number 13
_symmetry_cell_setting 'monoclinic'
loop_
_space_group_symop_operation_xyz
x,y,z
-x,y,1/2-z
-x,-y,-z
x,-y,1/2+z
loop_
_atom_site_type_symbol
_atom_site_label
_atom_site_fract_x
_atom_site_fract_y
_atom_site_fract_z
Si Si1 0.352080 0.796096 0.978617
Si Si2 0.450681 0.797108 0.826261
Si Si3 0.251911 0.813200 0.127722
Si Si4 0.152856 0.214265 0.785355
Si Si5 0.950057 0.294046 0.330680
O O1 0.400894 0.627399 0.900559
O O2 0.303939 0.005347 0.807981
O O3 0.299110 0.639725 0.046626
O O4 0.401860 0.995690 0.153860
O O5 0.500000 0.628746 0.750000
O O6 0.500000 0.000000 0.000000
O O7 0.200032 0.648754 0.193271
O O8 0.203514 0.042084 0.968897
O O9 0.105702 0.472483 0.808701
O O10 0.098053 0.967963 0.651251
O O11 0.000000 0.154946 0.250000
O O12 0.000000 0.500000 0.500000
#
# Coordination Sequence:
#
# PCOD9237529 Si02
#       5
#     4   4   4   4   4
#     4   8  14  25  42  67 104 154 192 234 280 330
#     4   8  12  19  36  67 108 154 192 234 280 330
#     4   9  18  32  50  72 104 149 192 234 280 337
#     4  11  22  38  58  82 110 149 186 234 286 337
#     4  12  24  40  60  84 112 144 186 234 286 344
#
# _framework density 29.096751999999999
#
# number of rings (size 3 to 8) (size 9 to 14) (size 15 to 20)
#    0.000    2.400    0.000    3.600    0.000    0.000 
#    0.000    0.000    0.000    0.000    0.000    0.000 
#    0.000    0.000    0.000 6177.600    0.000    0.000 
#
# Total GULP energy -112066.023976 kJ/mol
# GULP energy per Si atom -5603.301199 kJ/mol
# Density = 2.903053 g / cm^3
# Si number density = 29.096752 Si / 1000 Ang^3
#
#
#
# Elastic Constant Matrix: (Units=GPa)
#
#
# Indices 1 2 3 4 5 6 
#
# 1 266.7552 36.1776 49.8955 0.0000 -43.3658 0.0000
# 2 36.1776 80.3897 52.2415 0.0000 18.4019 0.0000
# 3 49.8955 52.2415 224.9045 0.0000 37.9274 0.0000
# 4 0.0000 0.0000 0.0000 75.8071 0.0000 23.6582
# 5 -43.3658 18.4019 37.9274 0.0000 51.6315 0.0000
# 6 0.0000 0.0000 0.0000 23.6582 0.0000 -21.1763
#
#
#
# Elastic Compliance Matrix: (Units=1/GPa)
#
#
# Indices 1 2 3 4 5 6 
#
# 1 0.005640 -0.003029 -0.001745 0.000000 0.007098 0.000000
# 2 -0.003029 0.016728 -0.002031 0.000000 -0.007015 0.000000
# 3 -0.001745 -0.002031 0.006198 0.000000 -0.005294 0.000000
# 4 0.000000 0.000000 0.000000 0.009781 0.000000 0.010927
# 5 0.007098 -0.007015 -0.005294 0.000000 0.031719 0.000000
# 6 0.000000 0.000000 0.000000 0.010927 0.000000 -0.035014
#
#
# Mechanical properties :
#
#
# Convention : Reuss Voigt Hill
#
# Bulk Modulus (GPa) = 66.85924 94.29763 80.57844
# Shear Modulus (GPa) = 93.20386 50.16808 71.68597
#
# Velocity S-wave (km/s) = 5.66586 4.15683 4.96896
# Velocity P-wave (km/s) = 8.11361 7.45102 7.78936
#
# Compressibility (1/GPa) = 0.01495679
#
# Stress axis : x y z
#
# Youngs Moduli (GPa) = 177.31067 59.78015 161.34494
#
# Poissons Ratio (x) = 0.18108 0.28148
# Poissons Ratio (y) = 0.53710 0.32764
# Poissons Ratio (z) = 0.30933 0.12139
#
# Static dielectric constant tensor:
#      x y z
#    x 2.250450 0.000000 0.016280 
#    y 0.000000 2.028950 0.000000 
#    z 0.016280 0.000000 2.187120 
# 
# From -- ./inp_files/20462.got.cif
#   From: 2010.05.17/outbox.cif.g08.bks.cpg/sg13_11_cif.got.tgz:20462.got - 2010.06.03 16:44:36.
