data_PCOD9237165
_publ_section_title
;
Structure prediction by ZEFSAII (Michael W. Deem and Ramdas Pophale) SiO2 
 PCOD9237165
Probable space group: P 2/C
;
_chemical_formula_sum "Si O2"
_cell_formula_units_Z 20
_cell_length_a 20.696322
_cell_length_b 4.719419
_cell_length_c 8.130631
_cell_angle_alpha 90.000000
_cell_angle_beta 116.593392
_cell_angle_gamma 90.000000
_cell_volume 710.139186
_symmetry_space_group_name_H-M "P 2/C"
_symmetry_group_IT_number 13
_symmetry_cell_setting 'monoclinic'
loop_
_space_group_symop_operation_xyz
x,y,z
-x,y,1/2-z
-x,-y,-z
x,-y,1/2+z
loop_
_atom_site_type_symbol
_atom_site_label
_atom_site_fract_x
_atom_site_fract_y
_atom_site_fract_z
Si Si1 0.795406 0.284996 0.553657
Si Si2 0.500000 0.601236 0.250000
Si Si3 0.896855 0.666230 0.894095
Si Si4 0.591816 0.191401 0.138197
Si Si5 0.000000 0.692092 0.750000
Si Si6 0.309304 0.217240 0.544153
O O1 0.849318 0.435961 0.742069
O O2 0.842106 0.176376 0.452307
O O3 0.739084 0.531938 0.441299
O O4 0.746372 0.033263 0.561390
O O5 0.561693 0.391895 0.248229
O O6 0.526660 0.796881 0.429931
O O7 0.944196 0.838021 0.813489
O O8 0.951017 0.502749 0.077290
O O9 0.630621 0.922673 0.266601
O O10 0.653006 0.304901 0.082794
#
# Coordination Sequence:
#
# PCOD9237165 Si02
#       6
#     4   2   4   4   2   4
#     4  11  23  41  68  99 139 183 236 298 362 427
#     4  10  26  52  78 108 146 196 244 306 368 444
#     4   9  18  36  65  98 137 183 238 292 354 423
#     4  11  26  47  75 106 145 187 244 298 368 439
#     4   8  16  34  66  96 136 186 236 294 352 418
#     4  12  26  45  72 105 142 188 238 302 368 436
#
# _framework density 28.163491
#
# number of rings (size 3 to 8) (size 9 to 14) (size 15 to 20)
#    0.000    1.600    0.000    3.600    0.000    8.800 
#    0.000    0.000    0.000   84.000    0.000    0.000 
#    0.000    0.000    0.000    0.000    0.000    0.000 
#
# Total GULP energy -112115.979619 kJ/mol
# GULP energy per Si atom -5605.798981 kJ/mol
# Density = 2.809939 g / cm^3
# Si number density = 28.163491 Si / 1000 Ang^3
#
#
#
# Elastic Constant Matrix: (Units=GPa)
#
#
# Indices 1 2 3 4 5 6 
#
# 1 228.1365 46.8070 59.4450 0.0000 -20.7118 0.0000
# 2 46.8070 101.2827 73.3982 0.0000 8.8822 0.0000
# 3 59.4450 73.3982 218.3332 0.0000 24.2794 0.0000
# 4 0.0000 0.0000 0.0000 -111.4583 0.0000 183.2672
# 5 -20.7118 8.8822 24.2794 0.0000 51.3435 0.0000
# 6 0.0000 0.0000 0.0000 183.2672 0.0000 -176.2083
#
#
#
# Elastic Compliance Matrix: (Units=1/GPa)
#
#
# Indices 1 2 3 4 5 6 
#
# 1 0.005350 -0.001902 -0.001155 0.000000 0.003033 0.000000
# 2 -0.001902 0.013731 -0.003957 0.000000 -0.001271 0.000000
# 3 -0.001155 -0.003957 0.006545 0.000000 -0.002876 0.000000
# 4 0.000000 0.000000 0.000000 0.012634 0.000000 0.013140
# 5 0.003033 -0.001271 -0.002876 0.000000 0.022280 0.000000
# 6 0.000000 0.000000 0.000000 0.013140 0.000000 0.007992
#
#
# Mechanical properties :
#
#
# Convention : Reuss Voigt Hill
#
# Bulk Modulus (GPa) = 86.21275 100.78364 93.49819
# Shear Modulus (GPa) = 57.85429 -22.72448 17.56490
#
# Velocity S-wave (km/s) = 4.53728 -2.84364 2.50006
# Velocity P-wave (km/s) = 7.62412 5.00811 6.45013
#
# Compressibility (1/GPa) = 0.01159921
#
# Stress axis : x y z
#
# Youngs Moduli (GPa) = 186.92667 72.82666 152.79873
#
# Poissons Ratio (x) = 0.13849 0.17641
# Poissons Ratio (y) = 0.35546 0.60462
# Poissons Ratio (z) = 0.21582 0.28817
#
# Static dielectric constant tensor:
#      x y z
#    x 2.230920 0.000000 0.071190 
#    y 0.000000 2.097200 0.000000 
#    z 0.071190 0.000000 2.176350 
# 
# From -- ./inp_files/22320.got.cif
#   From: 2010.05.17/outbox.cif.g08.bks.cpg/sg13_12_cif.got.tgz:22320.got - 2010.06.03 16:44:36.
