data_PCOD9237863
_publ_section_title
;
Structure prediction by ZEFSAII (Michael W. Deem and Ramdas Pophale) SiO2 
 PCOD9237863
Probable space group: P 2/C
;
_chemical_formula_sum "Si O2"
_cell_formula_units_Z 24
_cell_length_a 7.432769
_cell_length_b 11.095916
_cell_length_c 18.437125
_cell_angle_alpha 90.000000
_cell_angle_beta 138.425086
_cell_angle_gamma 90.000000
_cell_volume 1009.049677
_symmetry_space_group_name_H-M "P 2/C"
_symmetry_group_IT_number 13
_symmetry_cell_setting 'monoclinic'
loop_
_space_group_symop_operation_xyz
x,y,z
-x,y,1/2-z
-x,-y,-z
x,-y,1/2+z
loop_
_atom_site_type_symbol
_atom_site_label
_atom_site_fract_x
_atom_site_fract_y
_atom_site_fract_z
Si Si1 0.148506 0.124112 0.063608
Si Si2 0.517920 0.728385 0.932679
Si Si3 0.612907 0.768212 0.363472
Si Si4 0.660103 0.493625 0.377726
Si Si5 0.251328 0.145887 0.876532
Si Si6 0.922831 0.891790 0.644769
O O1 0.933697 0.219663 0.967243
O O2 0.140127 0.128762 0.147799
O O3 0.421277 0.164334 0.106956
O O4 0.000000 0.000000 0.000000
O O5 0.540470 0.604674 0.897250
O O6 0.251630 0.770181 0.896595
O O7 0.732157 0.745891 0.061678
O O8 0.500000 0.803815 0.250000
O O9 0.553341 0.628639 0.359469
O O10 0.494913 0.851280 0.391983
O O11 0.500000 0.465269 0.250000
O O12 0.000000 0.500000 0.500000
O O13 0.000000 0.167483 0.750000
O O14 0.220351 0.021857 0.912202
O O15 0.000000 0.916060 0.750000
#
# Coordination Sequence:
#
# PCOD9237863 Si02
#       6
#     4   4   4   4   4   4
#     4  12  23  42  71 100 142 188 234 297 376 437
#     4  12  24  45  72 100 144 189 243 310 366 434
#     4  11  24  44  70 101 137 188 248 301 365 449
#     4  11  27  49  76 108 145 197 255 307 372 443
#     4  11  23  43  68 103 144 187 241 299 369 450
#     4  11  26  43  64 108 149 184 242 300 367 453
#
# _framework density 23.784756000000002
#
# number of rings (size 3 to 8) (size 9 to 14) (size 15 to 20)
#    0.000    0.667    5.000    2.500    7.000    0.667 
#    0.000    0.833    0.000    0.000    0.000    0.000 
#    0.000    0.000    0.000    0.000    0.000    0.000 
#
# Total GULP energy -133608.894839 kJ/mol
# GULP energy per Si atom -5567.037285 kJ/mol
# Density = 2.373062 g / cm^3
# Si number density = 23.784756 Si / 1000 Ang^3
#
#
#
# Elastic Constant Matrix: (Units=GPa)
#
#
# Indices 1 2 3 4 5 6 
#
# 1 82.5597 -13.9570 13.4650 0.0000 -25.9666 0.0000
# 2 -13.9570 102.2562 17.4972 0.0000 -17.0256 0.0000
# 3 13.4650 17.4972 147.6248 0.0000 -25.6112 0.0000
# 4 0.0000 0.0000 0.0000 21.3901 0.0000 -14.5269
# 5 -25.9666 -17.0256 -25.6112 0.0000 34.7396 0.0000
# 6 0.0000 0.0000 0.0000 -14.5269 0.0000 22.8321
#
#
#
# Elastic Compliance Matrix: (Units=1/GPa)
#
#
# Indices 1 2 3 4 5 6 
#
# 1 0.018042 0.005095 0.000600 0.000000 0.016425 0.000000
# 2 0.005095 0.012108 -0.000240 0.000000 0.009565 0.000000
# 3 0.000600 -0.000240 0.007803 0.000000 0.006083 0.000000
# 4 0.000000 0.000000 0.000000 0.082322 0.000000 0.052378
# 5 0.016425 0.009565 0.006083 0.000000 0.050235 0.000000
# 6 0.000000 0.000000 0.000000 0.052378 0.000000 0.077123
#
#
# Mechanical properties :
#
#
# Convention : Reuss Voigt Hill
#
# Bulk Modulus (GPa) = 20.46593 40.71679 30.59136
# Shear Modulus (GPa) = 19.76185 36.82140 28.29162
#
# Velocity S-wave (km/s) = 2.88559 3.93887 3.45263
# Velocity P-wave (km/s) = 4.44134 6.15161 5.36506
#
# Compressibility (1/GPa) = 0.04886170
#
# Stress axis : x y z
#
# Youngs Moduli (GPa) = 55.42703 82.58709 128.15438
#
# Poissons Ratio (x) = -0.42075 -0.07690
# Poissons Ratio (y) = -0.28238 0.03081
# Poissons Ratio (z) = -0.03326 0.01985
#
# Static dielectric constant tensor:
#      x y z
#    x 2.117160 0.000000 0.215330 
#    y 0.000000 1.928460 0.000000 
#    z 0.215330 0.000000 2.168220 
# 
# From -- ./inp_files/64337.got.cif
#   From: 2010.05.17/outbox.cif.g08.bks.cpg/sg13_33_cif.got.tgz:64337.got - 2010.06.03 16:44:36.
