data_PCOD9237175
_publ_section_title
;
Structure prediction by ZEFSAII (Michael W. Deem and Ramdas Pophale) SiO2 
 PCOD9237175
Probable space group: P 2/C
;
_chemical_formula_sum "Si O2"
_cell_formula_units_Z 14
_cell_length_a 6.385477
_cell_length_b 9.615820
_cell_length_c 8.782149
_cell_angle_alpha 90.000000
_cell_angle_beta 99.603084
_cell_angle_gamma 90.000000
_cell_volume 531.681668
_symmetry_space_group_name_H-M "P 2/C"
_symmetry_group_IT_number 13
_symmetry_cell_setting 'monoclinic'
loop_
_space_group_symop_operation_xyz
x,y,z
-x,y,1/2-z
-x,-y,-z
x,-y,1/2+z
loop_
_atom_site_type_symbol
_atom_site_label
_atom_site_fract_x
_atom_site_fract_y
_atom_site_fract_z
Si Si1 0.816475 0.602055 0.544140
Si Si2 0.500000 0.469285 0.750000
Si Si3 0.106966 0.866172 0.588566
Si Si4 0.649602 0.931938 0.143676
O O1 0.678257 0.556798 0.675384
O O2 0.640953 0.609127 0.391387
O O3 0.000000 0.500000 0.500000
O O4 0.940197 0.744317 0.591965
O O5 0.768956 0.943962 0.755958
O O6 0.233777 0.820311 0.449753
O O7 0.000000 0.000000 0.500000
O O8 0.500000 0.866053 0.250000
O O9 0.500000 0.000000 0.000000
#
# Coordination Sequence:
#
# PCOD9237175 Si02
#       4
#     4   2   4   4
#     4  11  26  54  83 118 168 221 286 349 422 502
#     4  10  26  54  84 122 162 230 286 344 424 518
#     4  11  24  46  77 116 167 210 266 345 425 488
#     4   9  21  46  72 118 164 210 269 337 422 506
#
# _framework density 26.331547
#
# number of rings (size 3 to 8) (size 9 to 14) (size 15 to 20)
#    0.000    1.714    0.000    1.714    0.000    9.143 
#   51.429    8.571    0.000    0.000    0.000    0.000 
#    0.000    0.000    0.000    0.000    0.000    0.000 
#
# Total GULP energy -78104.548463 kJ/mol
# GULP energy per Si atom -5578.896319 kJ/mol
# Density = 2.627162 g / cm^3
# Si number density = 26.331547 Si / 1000 Ang^3
#
#
#
# Elastic Constant Matrix: (Units=GPa)
#
#
# Indices 1 2 3 4 5 6 
#
# 1 173.7434 94.1461 115.2867 0.0000 -0.3020 0.0000
# 2 94.1461 152.4381 80.9453 0.0000 3.2824 0.0000
# 3 115.2867 80.9453 272.1708 0.0000 3.3030 0.0000
# 4 0.0000 0.0000 0.0000 24.7933 0.0000 3.6941
# 5 -0.3020 3.2824 3.3030 0.0000 81.7163 0.0000
# 6 0.0000 0.0000 0.0000 3.6941 0.0000 32.9303
#
#
#
# Elastic Compliance Matrix: (Units=1/GPa)
#
#
# Indices 1 2 3 4 5 6 
#
# 1 0.010320 -0.004819 -0.002942 0.000000 0.000351 0.000000
# 2 -0.004819 0.010044 -0.000941 0.000000 -0.000383 0.000000
# 3 -0.002942 -0.000941 0.005203 0.000000 -0.000183 0.000000
# 4 0.000000 0.000000 0.000000 0.041019 0.000000 -0.004602
# 5 0.000351 -0.000383 -0.000183 0.000000 0.012262 0.000000
# 6 0.000000 0.000000 0.000000 -0.004602 0.000000 0.030883
#
#
# Mechanical properties :
#
#
# Convention : Reuss Voigt Hill
#
# Bulk Modulus (GPa) = 122.52409 131.01204 126.76807
# Shear Modulus (GPa) = 38.50418 48.41962 43.46190
#
# Velocity S-wave (km/s) = 3.82813 4.29283 4.06712
# Velocity P-wave (km/s) = 8.13460 8.62751 8.38468
#
# Compressibility (1/GPa) = 0.00816166
#
# Stress axis : x y z
#
# Youngs Moduli (GPa) = 96.90229 99.56014 192.20611
#
# Poissons Ratio (x) = 0.47974 0.56555
# Poissons Ratio (y) = 0.46693 0.18096
# Poissons Ratio (z) = 0.28513 0.09374
#
# Static dielectric constant tensor:
#      x y z
#    x 6.297820 0.000000 -3.523720 
#    y 0.000000 2.157060 0.000000 
#    z -3.523720 0.000000 4.940850 
# 
# From -- ./inp_files/8540.got.cif
#   From: 2010.05.17/outbox.cif.g08.bks.cpg/sg13_5_cif.got.tgz:8540.got - 2010.06.03 16:44:36.
