data_PCOD9237203
_publ_section_title
;
Structure prediction by ZEFSAII (Michael W. Deem and Ramdas Pophale) SiO2 
 PCOD9237203
Probable space group: P 2/C
;
_chemical_formula_sum "Si O2"
_cell_formula_units_Z 32
_cell_length_a 18.048014
_cell_length_b 12.357346
_cell_length_c 14.154855
_cell_angle_alpha 90.000000
_cell_angle_beta 32.774678
_cell_angle_gamma 90.000000
_cell_volume 1708.942678
_symmetry_space_group_name_H-M "P 2/C"
_symmetry_group_IT_number 13
_symmetry_cell_setting 'monoclinic'
loop_
_space_group_symop_operation_xyz
x,y,z
-x,y,1/2-z
-x,-y,-z
x,-y,1/2+z
loop_
_atom_site_type_symbol
_atom_site_label
_atom_site_fract_x
_atom_site_fract_y
_atom_site_fract_z
Si Si1 0.273628 0.225272 0.083207
Si Si2 0.511282 0.699433 0.470984
Si Si3 0.368648 0.926822 0.152247
Si Si4 0.646674 0.395909 0.645633
Si Si5 0.129923 0.075817 0.364350
Si Si6 0.622352 0.639985 0.692613
Si Si7 0.350777 0.983780 0.387918
Si Si8 0.845254 0.830631 0.451331
O O1 0.378657 0.265521 0.051208
O O2 0.142179 0.172200 0.274926
O O3 0.258476 0.316640 0.018798
O O4 0.342773 0.121685 0.960807
O O5 0.591031 0.806536 0.419893
O O6 0.613580 0.640694 0.288108
O O7 0.451433 0.638018 0.625581
O O8 0.337187 0.934711 0.297134
O O9 0.252227 0.989474 0.221330
O O10 0.500000 0.000000 0.000000
O O11 0.500000 0.387505 0.750000
O O12 0.684346 0.521654 0.604719
O O13 0.145519 0.129795 0.450172
O O14 0.000000 0.000000 0.500000
O O15 0.500000 0.662177 0.750000
O O16 0.740945 0.729675 0.560605
O O17 0.500000 0.034520 0.250000
O O18 0.230569 0.071974 0.523832
O O19 0.000000 0.810360 0.250000
#
# Coordination Sequence:
#
# PCOD9237203 Si02
#       8
#     4   4   4   4   4   4   4   4
#     4  11  18  36  62  91 124 159 194 248 313 362
#     4  11  18  35  60  92 122 153 199 254 309 359
#     4  11  19  31  54  89 124 154 196 236 307 368
#     4   9  20  35  63  94 117 155 204 261 309 353
#     4  11  23  37  57  90 127 163 200 248 303 379
#     4  11  23  40  59  90 120 158 213 260 302 358
#     4  11  18  32  57  89 121 154 194 243 299 368
#     4  11  24  39  57  82 123 171 201 244 309 364
#
# _framework density 18.725027999999998
#
# number of rings (size 3 to 8) (size 9 to 14) (size 15 to 20)
#    0.000    1.250    5.000    2.625    0.000    2.000 
#    0.000    0.000    2.750    0.750    0.000    0.000 
#    0.000    0.000    0.000    0.000    0.000    0.000 
#
# Total GULP energy -178515.052224 kJ/mol
# GULP energy per Si atom -5578.595382 kJ/mol
# Density = 1.868241 g / cm^3
# Si number density = 18.725028 Si / 1000 Ang^3
#
#
#
# Elastic Constant Matrix: (Units=GPa)
#
#
# Indices 1 2 3 4 5 6 
#
# 1 73.1989 43.7325 38.1264 0.0000 14.4507 0.0000
# 2 43.7325 120.3979 52.2776 0.0000 -4.5571 0.0000
# 3 38.1264 52.2776 86.9127 0.0000 -2.3029 0.0000
# 4 0.0000 0.0000 0.0000 27.8764 0.0000 5.0335
# 5 14.4507 -4.5571 -2.3029 0.0000 32.1829 0.0000
# 6 0.0000 0.0000 0.0000 5.0335 0.0000 22.5238
#
#
#
# Elastic Compliance Matrix: (Units=1/GPa)
#
#
# Indices 1 2 3 4 5 6 
#
# 1 0.023037 -0.005802 -0.006924 0.000000 -0.011661 0.000000
# 2 -0.005802 0.012743 -0.005012 0.000000 0.004051 0.000000
# 3 -0.006924 -0.005012 0.017655 0.000000 0.003663 0.000000
# 4 0.000000 0.000000 0.000000 0.037381 0.000000 -0.008354
# 5 -0.011661 0.004051 0.003663 0.000000 0.037144 0.000000
# 6 0.000000 0.000000 0.000000 -0.008354 0.000000 0.046264
#
#
# Mechanical properties :
#
#
# Convention : Reuss Voigt Hill
#
# Bulk Modulus (GPa) = 55.68881 60.97582 58.33231
# Shear Modulus (GPa) = 23.18154 26.27481 24.72817
#
# Velocity S-wave (km/s) = 3.52234 3.74998 3.63794
# Velocity P-wave (km/s) = 6.80789 7.16829 6.99041
#
# Compressibility (1/GPa) = 0.01795693
#
# Stress axis : x y z
#
# Youngs Moduli (GPa) = 43.40864 78.47375 56.64036
#
# Poissons Ratio (x) = 0.45534 0.39221
# Poissons Ratio (y) = 0.25188 0.28389
# Poissons Ratio (z) = 0.30058 0.39332
#
# Static dielectric constant tensor:
#      x y z
#    x 1.640610 0.000000 0.035050 
#    y 0.000000 1.644050 0.000000 
#    z 0.035050 0.000000 1.672380 
# 
# From -- ./inp_files/55783.got.cif
#   From: 2010.05.17/outbox.cif.g08.bks.cpg/sg13_28_cif.got.tgz:55783.got - 2010.06.03 16:44:36.
