data_PCOD9237877
_publ_section_title
;
Structure prediction by ZEFSAII (Michael W. Deem and Ramdas Pophale) SiO2 
 PCOD9237877
Probable space group: P 2/C
;
_chemical_formula_sum "Si O2"
_cell_formula_units_Z 24
_cell_length_a 9.129170
_cell_length_b 7.442719
_cell_length_c 14.282291
_cell_angle_alpha 90.000000
_cell_angle_beta 75.762229
_cell_angle_gamma 90.000000
_cell_volume 940.614309
_symmetry_space_group_name_H-M "P 2/C"
_symmetry_group_IT_number 13
_symmetry_cell_setting 'monoclinic'
loop_
_space_group_symop_operation_xyz
x,y,z
-x,y,1/2-z
-x,-y,-z
x,-y,1/2+z
loop_
_atom_site_type_symbol
_atom_site_label
_atom_site_fract_x
_atom_site_fract_y
_atom_site_fract_z
Si Si1 0.201234 0.124417 0.945922
Si Si2 0.095758 0.236109 0.154040
Si Si3 0.687100 0.216564 0.000072
Si Si4 0.575301 0.626138 0.836259
Si Si5 0.017418 0.632846 0.138421
Si Si6 0.524112 0.212541 0.850708
O O1 0.101743 0.238385 0.891946
O O2 0.359119 0.229837 0.921205
O O3 0.117203 0.122892 0.058131
O O4 0.254047 0.919069 0.929379
O O5 0.260761 0.293088 0.166566
O O6 0.000000 0.143314 0.250000
O O7 0.003370 0.416494 0.138997
O O8 0.623385 0.117372 0.915421
O O9 0.825291 0.331736 0.939518
O O10 0.548358 0.325889 0.065423
O O11 0.500000 0.684032 0.750000
O O12 0.593587 0.410283 0.826807
O O13 0.000000 0.677542 0.250000
O O14 0.500000 0.133958 0.750000
#
# Coordination Sequence:
#
# PCOD9237877 Si02
#       6
#     4   4   4   4   4   4
#     4  12  26  43  70 106 141 186 228 292 367 425
#     4  11  25  45  71 104 140 186 243 296 347 420
#     4  12  24  46  69 103 146 183 231 291 363 429
#     4  11  25  44  73 104 138 188 242 296 348 416
#     4  11  25  46  70 101 139 189 241 292 350 423
#     4  11  23  43  72 100 135 184 240 292 345 418
#
# _framework density 25.515239000000001
#
# number of rings (size 3 to 8) (size 9 to 14) (size 15 to 20)
#    0.000    0.667    3.333    4.000    9.333    1.333 
#    3.000    0.000    0.000    0.000    0.000    0.000 
#    0.000    0.000    0.000    0.000    0.000    0.000 
#
# Total GULP energy -134399.419236 kJ/mol
# GULP energy per Si atom -5599.975802 kJ/mol
# Density = 2.545717 g / cm^3
# Si number density = 25.515239 Si / 1000 Ang^3
#
#
#
# Elastic Constant Matrix: (Units=GPa)
#
#
# Indices 1 2 3 4 5 6 
#
# 1 66.4801 13.6289 14.0597 0.0000 -5.0872 0.0000
# 2 13.6289 64.9198 14.0020 0.0000 7.4258 0.0000
# 3 14.0597 14.0020 103.4815 0.0000 -9.6720 0.0000
# 4 0.0000 0.0000 0.0000 9.8577 0.0000 5.8296
# 5 -5.0872 7.4258 -9.6720 0.0000 42.2234 0.0000
# 6 0.0000 0.0000 0.0000 5.8296 0.0000 21.2603
#
#
#
# Elastic Compliance Matrix: (Units=1/GPa)
#
#
# Indices 1 2 3 4 5 6 
#
# 1 0.016218 -0.003320 -0.001550 0.000000 0.002183 0.000000
# 2 -0.003320 0.017025 -0.002217 0.000000 -0.003902 0.000000
# 3 -0.001550 -0.002217 0.010416 0.000000 0.002589 0.000000
# 4 0.000000 0.000000 0.000000 0.121077 0.000000 -0.033199
# 5 0.002183 -0.003902 0.002589 0.000000 0.025226 0.000000
# 6 0.000000 0.000000 0.000000 -0.033199 0.000000 0.056139
#
#
# Mechanical properties :
#
#
# Convention : Reuss Voigt Hill
#
# Bulk Modulus (GPa) = 33.91665 35.36251 34.63958
# Shear Modulus (GPa) = 18.51141 27.54767 23.02954
#
# Velocity S-wave (km/s) = 2.69644 3.28938 3.00756
# Velocity P-wave (km/s) = 4.79749 5.32129 5.06617
#
# Compressibility (1/GPa) = 0.02948405
#
# Stress axis : x y z
#
# Youngs Moduli (GPa) = 61.66151 58.73664 96.00429
#
# Poissons Ratio (x) = 0.19500 0.14883
# Poissons Ratio (y) = 0.20471 0.21287
# Poissons Ratio (z) = 0.09559 0.13024
#
# Static dielectric constant tensor:
#      x y z
#    x 2.021250 0.000000 0.043080 
#    y 0.000000 2.009720 0.000000 
#    z 0.043080 0.000000 2.013680 
# 
# From -- ./inp_files/46008.got.cif
#   From: 2010.05.17/outbox.cif.g08.bks.cpg/sg13_24_cif.got.tgz:46008.got - 2010.06.03 16:44:36.
