data_PCOD9237026
_publ_section_title
;
Structure prediction by ZEFSAII (Michael W. Deem and Ramdas Pophale) SiO2 
 PCOD9237026
Probable space group: P 2/C
;
_chemical_formula_sum "Si O2"
_cell_formula_units_Z 20
_cell_length_a 13.512315
_cell_length_b 5.125662
_cell_length_c 14.003883
_cell_angle_alpha 90.000000
_cell_angle_beta 50.982882
_cell_angle_gamma 90.000000
_cell_volume 753.573625
_symmetry_space_group_name_H-M "P 2/C"
_symmetry_group_IT_number 13
_symmetry_cell_setting 'monoclinic'
loop_
_space_group_symop_operation_xyz
x,y,z
-x,y,1/2-z
-x,-y,-z
x,-y,1/2+z
loop_
_atom_site_type_symbol
_atom_site_label
_atom_site_fract_x
_atom_site_fract_y
_atom_site_fract_z
Si Si1 0.782304 0.640288 0.416677
Si Si2 0.045457 0.663192 0.561094
Si Si3 0.459227 0.063187 0.634721
Si Si4 0.784472 0.853416 0.784819
Si Si5 0.671685 0.287927 0.629354
O O1 0.914780 0.552585 0.384507
O O2 0.779545 0.913909 0.365612
O O3 0.682315 0.551928 0.559992
O O4 0.760397 0.421022 0.349908
O O5 0.070977 0.155275 0.339596
O O6 0.000000 0.500000 0.500000
O O7 0.330714 0.891293 0.719242
O O8 0.587310 0.083250 0.619456
O O9 0.392877 0.316030 0.727807
O O10 0.500000 0.000000 0.500000
O O11 0.819566 0.201085 0.543360
#
# Coordination Sequence:
#
# PCOD9237026 Si02
#       5
#     4   4   4   4   4
#     4  10  26  49  77 123 160 221 280 347 420 513
#     4  10  25  51  76 124 170 224 281 358 436 513
#     4  11  22  49  83 119 165 225 288 348 429 508
#     4  12  26  49  85 119 165 219 288 348 429 513
#     4   9  24  50  75 124 171 223 283 355 428 509
#
# _framework density 26.540209999999998
#
# number of rings (size 3 to 8) (size 9 to 14) (size 15 to 20)
#    1.200    0.400    2.000    0.600    2.800    6.400 
#    3.600    0.000    0.000    0.000    0.000    0.000 
#    0.000    0.000    0.000    0.000    0.000    0.000 
#
# Total GULP energy -111460.588525 kJ/mol
# GULP energy per Si atom -5573.029426 kJ/mol
# Density = 2.647980 g / cm^3
# Si number density = 26.540210 Si / 1000 Ang^3
#
#
#
# Elastic Constant Matrix: (Units=GPa)
#
#
# Indices 1 2 3 4 5 6 
#
# 1 234.1288 72.4714 80.6535 0.0000 -6.4029 0.0000
# 2 72.4714 98.3664 68.9963 0.0000 -8.0375 0.0000
# 3 80.6535 68.9963 190.3495 0.0000 -35.7255 0.0000
# 4 0.0000 0.0000 0.0000 13.2617 0.0000 35.6175
# 5 -6.4029 -8.0375 -35.7255 0.0000 61.9666 0.0000
# 6 0.0000 0.0000 0.0000 35.6175 0.0000 12.5144
#
#
#
# Elastic Compliance Matrix: (Units=1/GPa)
#
#
# Indices 1 2 3 4 5 6 
#
# 1 0.005752 -0.003349 -0.001338 0.000000 -0.000611 0.000000
# 2 -0.003349 0.015664 -0.004420 0.000000 -0.000863 0.000000
# 3 -0.001338 -0.004420 0.008174 0.000000 0.004001 0.000000
# 4 0.000000 0.000000 0.000000 -0.011349 0.000000 0.032302
# 5 -0.000611 -0.000863 0.004001 0.000000 0.018269 0.000000
# 6 0.000000 0.000000 0.000000 0.032302 0.000000 -0.012027
#
#
# Mechanical properties :
#
#
# Convention : Reuss Voigt Hill
#
# Bulk Modulus (GPa) = 87.92049 107.45412 97.68730
# Shear Modulus (GPa) = 107.55278 37.59678 72.57478
#
# Velocity S-wave (km/s) = 6.37279 3.76785 5.23494
# Velocity P-wave (km/s) = 9.34607 7.71389 8.56893
#
# Compressibility (1/GPa) = 0.01137391
#
# Stress axis : x y z
#
# Youngs Moduli (GPa) = 173.85035 63.84147 122.34575
#
# Poissons Ratio (x) = 0.21383 0.16369
# Poissons Ratio (y) = 0.58228 0.54083
# Poissons Ratio (z) = 0.23260 0.28221
#
# Static dielectric constant tensor:
#      x y z
#    x 2.538470 0.000000 0.261980 
#    y 0.000000 2.100440 0.000000 
#    z 0.261980 0.000000 2.400980 
# 
# From -- ./inp_files/35666.got.cif
#   From: 2010.05.17/outbox.cif.g08.bks.cpg/sg13_18_cif.got.tgz:35666.got - 2010.06.03 16:44:36.
