data_PCOD9237246
_publ_section_title
;
Structure prediction by ZEFSAII (Michael W. Deem and Ramdas Pophale) SiO2 
 PCOD9237246
Probable space group: P 2/C
;
_chemical_formula_sum "Si O2"
_cell_formula_units_Z 32
_cell_length_a 11.410057
_cell_length_b 7.613626
_cell_length_c 22.978855
_cell_angle_alpha 90.000000
_cell_angle_beta 145.567424
_cell_angle_gamma 90.000000
_cell_volume 1128.733000
_symmetry_space_group_name_H-M "P 2/C"
_symmetry_group_IT_number 13
_symmetry_cell_setting 'monoclinic'
loop_
_space_group_symop_operation_xyz
x,y,z
-x,y,1/2-z
-x,-y,-z
x,-y,1/2+z
loop_
_atom_site_type_symbol
_atom_site_label
_atom_site_fract_x
_atom_site_fract_y
_atom_site_fract_z
Si Si1 0.509806 0.580637 0.323436
Si Si2 0.769641 0.934752 0.625940
Si Si3 0.147822 0.716530 0.663798
Si Si4 0.078484 0.229061 0.881857
Si Si5 0.836420 0.573280 0.630439
Si Si6 0.839095 0.709549 0.962139
Si Si7 0.519275 0.980697 0.689400
Si Si8 0.372194 0.233023 0.855085
O O1 0.500000 0.649587 0.250000
O O2 0.328317 0.428909 0.239611
O O3 0.732630 0.479851 0.415743
O O4 0.472275 0.582097 0.385535
O O5 0.821180 0.041200 0.588462
O O6 0.621678 0.064204 0.602198
O O7 0.000000 0.923258 0.750000
O O8 0.691207 0.737268 0.586645
O O9 0.083290 0.753095 0.570640
O O10 0.260007 0.892187 0.734346
O O11 0.963448 0.650946 0.627825
O O12 0.223748 0.376541 0.911256
O O13 0.867492 0.245671 0.759044
O O14 0.018240 0.272155 0.923225
O O15 0.000000 0.557275 0.750000
O O16 0.662786 0.854454 0.905575
O O17 0.500000 0.975693 0.750000
O O18 0.514743 0.178480 0.662033
#
# Coordination Sequence:
#
# PCOD9237246 Si02
#       8
#     4   4   4   4   4   4   4   4
#     4   9  18  35  59  85 115 159 201 237 291 375
#     4   9  21  37  56  86 121 150 202 252 291 352
#     4   9  17  35  60  83 113 161 201 229 301 372
#     4  11  22  38  60  92 122 150 197 258 304 342
#     4  11  20  36  62  88 116 157 201 250 294 353
#     4   9  21  39  56  86 129 152 186 256 311 354
#     4   9  18  35  60  82 115 163 197 238 301 366
#     4  11  19  37  62  87 112 157 214 249 281 365
#
# _framework density 28.350370999999999
#
# number of rings (size 3 to 8) (size 9 to 14) (size 15 to 20)
#    0.000    2.250    1.250    5.250    0.000    0.500 
#    2.250    6.875    0.000    0.000    0.000    0.000 
#    0.000    0.000    0.000    0.000    0.000    0.000 
#
# Total GULP energy -178637.237563 kJ/mol
# GULP energy per Si atom -5582.413674 kJ/mol
# Density = 2.828584 g / cm^3
# Si number density = 28.350371 Si / 1000 Ang^3
#
#
#
# Elastic Constant Matrix: (Units=GPa)
#
#
# Indices 1 2 3 4 5 6 
#
# 1 85.1493 21.9755 22.0338 0.0000 -13.0669 0.0000
# 2 21.9755 126.2872 28.5090 0.0000 -4.4591 0.0000
# 3 22.0338 28.5090 69.1957 0.0000 -11.3854 0.0000
# 4 0.0000 0.0000 0.0000 23.5322 0.0000 -6.9585
# 5 -13.0669 -4.4591 -11.3854 0.0000 44.7966 0.0000
# 6 0.0000 0.0000 0.0000 -6.9585 0.0000 52.2562
#
#
#
# Elastic Compliance Matrix: (Units=1/GPa)
#
#
# Indices 1 2 3 4 5 6 
#
# 1 0.013406 -0.001516 -0.003158 0.000000 0.002957 0.000000
# 2 -0.001516 0.008902 -0.003248 0.000000 -0.000381 0.000000
# 3 -0.003158 -0.003248 0.017315 0.000000 0.003156 0.000000
# 4 0.000000 0.000000 0.000000 0.044237 0.000000 0.005891
# 5 0.002957 -0.000381 0.003156 0.000000 0.023950 0.000000
# 6 0.000000 0.000000 0.000000 0.005891 0.000000 0.019921
#
#
# Mechanical properties :
#
#
# Convention : Reuss Voigt Hill
#
# Bulk Modulus (GPa) = 42.05164 47.29655 44.67409
# Shear Modulus (GPa) = 33.00337 37.99127 35.49732
#
# Velocity S-wave (km/s) = 3.41563 3.66466 3.54233
# Velocity P-wave (km/s) = 5.51547 5.88433 5.70288
#
# Compressibility (1/GPa) = 0.02378029
#
# Stress axis : x y z
#
# Youngs Moduli (GPa) = 74.59261 112.33571 57.75417
#
# Poissons Ratio (x) = 0.17025 0.18238
# Poissons Ratio (y) = 0.11305 0.18757
# Poissons Ratio (z) = 0.23556 0.36484
#
# Static dielectric constant tensor:
#      x y z
#    x 2.291140 0.000000 -0.132510 
#    y 0.000000 2.270350 0.000000 
#    z -0.132510 0.000000 2.351210 
# 
# From -- ./inp_files/78296.got.cif
#   From: 2010.05.17/outbox.cif.g08.bks.cpg/sg13_40_cif.got.tgz:78296.got - 2010.06.03 16:44:36.
