data_PCOD9237156
_publ_section_title
;
Structure prediction by ZEFSAII (Michael W. Deem and Ramdas Pophale) SiO2 
 PCOD9237156
Probable space group: P 2/C
;
_chemical_formula_sum "Si O2"
_cell_formula_units_Z 12
_cell_length_a 12.042770
_cell_length_b 4.942592
_cell_length_c 21.518657
_cell_angle_alpha 90.000000
_cell_angle_beta 19.818201
_cell_angle_gamma 90.000000
_cell_volume 434.253317
_symmetry_space_group_name_H-M "P 2/C"
_symmetry_group_IT_number 13
_symmetry_cell_setting 'monoclinic'
loop_
_space_group_symop_operation_xyz
x,y,z
-x,y,1/2-z
-x,-y,-z
x,-y,1/2+z
loop_
_atom_site_type_symbol
_atom_site_label
_atom_site_fract_x
_atom_site_fract_y
_atom_site_fract_z
Si Si1 0.698672 0.902028 0.020658
Si Si2 0.943839 0.747373 0.074811
Si Si3 0.711928 0.738471 0.854193
O O1 0.512718 0.030085 0.057840
O O2 0.420493 0.750486 0.205315
O O3 0.818258 0.167945 0.994002
O O4 0.018778 0.707915 0.844039
O O5 0.000000 0.500000 0.000000
O O6 0.000000 0.000000 0.000000
O O7 0.000000 0.812832 0.750000
O O8 0.500000 0.500000 0.000000
#
# Coordination Sequence:
#
# PCOD9237156 Si02
#       3
#     4   4   4
#     4  10  26  50  79 115 158 209 268 331 398 477
#     4  11  26  50  80 118 161 210 264 329 402 480
#     4  11  26  50  78 111 154 207 265 330 398 471
#
# _framework density 27.633638000000001
#
# number of rings (size 3 to 8) (size 9 to 14) (size 15 to 20)
#    0.000    1.333    0.000    2.000    0.000   22.667 
#    0.000    5.000    0.000    0.000    0.000    0.000 
#    0.000    0.000    0.000    0.000    0.000    0.000 
#
# Total GULP energy -67007.654145 kJ/mol
# GULP energy per Si atom -5583.971179 kJ/mol
# Density = 2.757074 g / cm^3
# Si number density = 27.633638 Si / 1000 Ang^3
#
#
#
# Elastic Constant Matrix: (Units=GPa)
#
#
# Indices 1 2 3 4 5 6 
#
# 1 124.6971 54.1307 58.4554 0.0000 -14.3253 0.0000
# 2 54.1307 207.8640 125.9396 0.0000 18.4964 0.0000
# 3 58.4554 125.9396 346.5391 0.0000 10.9949 0.0000
# 4 0.0000 0.0000 0.0000 75.8831 0.0000 19.0133
# 5 -14.3253 18.4964 10.9949 0.0000 41.4591 0.0000
# 6 0.0000 0.0000 0.0000 19.0133 0.0000 41.5465
#
#
#
# Elastic Compliance Matrix: (Units=1/GPa)
#
#
# Indices 1 2 3 4 5 6 
#
# 1 0.010103 -0.002484 -0.000955 0.000000 0.004852 0.000000
# 2 -0.002484 0.006981 -0.002009 0.000000 -0.003440 0.000000
# 3 -0.000955 -0.002009 0.003791 0.000000 -0.000439 0.000000
# 4 0.000000 0.000000 0.000000 0.014885 0.000000 -0.006812
# 5 0.004852 -0.003440 -0.000439 0.000000 0.027448 0.000000
# 6 0.000000 0.000000 0.000000 -0.006812 0.000000 0.027187
#
#
# Mechanical properties :
#
#
# Convention : Reuss Voigt Hill
#
# Bulk Modulus (GPa) = 100.21700 128.46131 114.33915
# Shear Modulus (GPa) = 47.79336 61.14937 54.47137
#
# Velocity S-wave (km/s) = 4.16328 4.70921 4.44463
# Velocity P-wave (km/s) = 7.71074 8.72680 8.23446
#
# Compressibility (1/GPa) = 0.00997835
#
# Stress axis : x y z
#
# Youngs Moduli (GPa) = 98.98033 143.24819 263.79261
#
# Poissons Ratio (x) = 0.35581 0.25205
# Poissons Ratio (y) = 0.24585 0.52993
# Poissons Ratio (z) = 0.09457 0.28777
#
# Static dielectric constant tensor:
#      x y z
#    x 2.754150 0.000000 0.460910 
#    y 0.000000 2.108690 0.000000 
#    z 0.460910 0.000000 2.396610 
# 
# From -- ./inp_files/77071.got.cif
#   From: 2010.05.17/outbox.cif.g08.bks.cpg/sg13_39_cif.got.tgz:77071.got - 2010.06.03 16:44:36.
