data_PCOD9237390
_publ_section_title
;
Structure prediction by ZEFSAII (Michael W. Deem and Ramdas Pophale) SiO2 
 PCOD9237390
Probable space group: P 2/C
;
_chemical_formula_sum "Si O2"
_cell_formula_units_Z 24
_cell_length_a 10.562832
_cell_length_b 13.002786
_cell_length_c 16.813938
_cell_angle_alpha 90.000000
_cell_angle_beta 30.357509
_cell_angle_gamma 90.000000
_cell_volume 1167.122098
_symmetry_space_group_name_H-M "P 2/C"
_symmetry_group_IT_number 13
_symmetry_cell_setting 'monoclinic'
loop_
_space_group_symop_operation_xyz
x,y,z
-x,y,1/2-z
-x,-y,-z
x,-y,1/2+z
loop_
_atom_site_type_symbol
_atom_site_label
_atom_site_fract_x
_atom_site_fract_y
_atom_site_fract_z
Si Si1 0.000000 0.122838 0.250000
Si Si2 0.214034 0.041124 0.511006
Si Si3 0.469852 0.801963 0.580017
Si Si4 0.251344 0.194116 0.738977
Si Si5 0.802591 0.567948 0.247615
Si Si6 0.500000 0.912023 0.250000
Si Si7 0.355923 0.423097 0.479049
O O1 0.186863 0.191991 0.201418
O O2 0.146779 0.045087 0.112459
O O3 0.466096 0.100622 0.400446
O O4 0.999850 0.126826 0.623512
O O5 0.268832 0.983513 0.399879
O O6 0.635335 0.816077 0.410629
O O7 0.555966 0.695907 0.574535
O O8 0.214578 0.314947 0.771444
O O9 0.430457 0.153065 0.710675
O O10 0.591804 0.492920 0.327015
O O11 0.723150 0.567423 0.384515
O O12 0.096546 0.542910 0.078187
#
# Coordination Sequence:
#
# PCOD9237390 Si02
#       7
#     2   4   4   4   4   2   4
#     4  12  22  34  62  92 124 160 208 258 302 372
#     4  12  22  41  62  88 125 170 213 251 310 369
#     4  11  21  37  62  93 124 162 209 262 313 365
#     4  11  21  39  62  88 128 167 205 255 318 369
#     4   9  18  34  59  89 122 155 199 258 319 371
#     4  12  26  38  58  96 128 170 210 250 308 384
#     4   9  18  33  59  91 121 154 199 261 319 366
#
# _framework density 20.563400999999999
#
# number of rings (size 3 to 8) (size 9 to 14) (size 15 to 20)
#    0.000    1.333    5.000    2.000    0.000    4.000 
#    0.000    0.000    0.000    2.000    0.000    0.000 
#    0.000    0.000    0.000    0.000    0.000    0.000 
#
# Total GULP energy -133949.139253 kJ/mol
# GULP energy per Si atom -5581.214136 kJ/mol
# Density = 2.051660 g / cm^3
# Si number density = 20.563401 Si / 1000 Ang^3
#
#
#
# Elastic Constant Matrix: (Units=GPa)
#
#
# Indices 1 2 3 4 5 6 
#
# 1 62.1897 35.4232 33.4961 0.0000 -29.0576 0.0000
# 2 35.4232 87.8715 49.9029 0.0000 -19.5004 0.0000
# 3 33.4961 49.9029 49.2546 0.0000 -30.2994 0.0000
# 4 0.0000 0.0000 0.0000 17.1127 0.0000 -12.8970
# 5 -29.0576 -19.5004 -30.2994 0.0000 41.3816 0.0000
# 6 0.0000 0.0000 0.0000 -12.8970 0.0000 19.6788
#
#
#
# Elastic Compliance Matrix: (Units=1/GPa)
#
#
# Indices 1 2 3 4 5 6 
#
# 1 0.028356 -0.005036 -0.006173 0.000000 0.013018 0.000000
# 2 -0.005036 0.032343 -0.040291 0.000000 -0.017796 0.000000
# 3 -0.006173 -0.040291 0.092754 0.000000 0.044593 0.000000
# 4 0.000000 0.000000 0.000000 0.115469 0.000000 0.075675
# 5 0.013018 -0.017796 0.044593 0.000000 0.057571 0.000000
# 6 0.000000 0.000000 0.000000 0.075675 0.000000 0.100412
#
#
# Mechanical properties :
#
#
# Convention : Reuss Voigt Hill
#
# Bulk Modulus (GPa) = 19.82094 48.55114 34.18604
# Shear Modulus (GPa) = 9.14543 21.00087 15.07315
#
# Velocity S-wave (km/s) = 2.11118 3.19921 2.71035
# Velocity P-wave (km/s) = 3.95002 6.10805 5.14349
#
# Compressibility (1/GPa) = 0.05045169
#
# Stress axis : x y z
#
# Youngs Moduli (GPa) = 35.26608 30.91873 10.78125
#
# Poissons Ratio (x) = 0.15572 0.06655
# Poissons Ratio (y) = 0.17762 0.43439
# Poissons Ratio (z) = 0.21769 1.24575
#
# Static dielectric constant tensor:
#      x y z
#    x 1.754560 0.000000 -0.038720 
#    y 0.000000 1.711300 0.000000 
#    z -0.038720 0.000000 1.743280 
# 
# From -- ./inp_files/33373.got.cif
#   From: 2010.05.17/outbox.cif.g08.bks.cpg/sg13_17_cif.got.tgz:33373.got - 2010.06.03 16:44:36.
