data_PCOD9237987
_publ_section_title
;
Structure prediction by ZEFSAII (Michael W. Deem and Ramdas Pophale) SiO2 
 PCOD9237987
Probable space group: P 2/C
;
_chemical_formula_sum "Si O2"
_cell_formula_units_Z 22
_cell_length_a 13.987520
_cell_length_b 5.325952
_cell_length_c 22.998364
_cell_angle_alpha 90.000000
_cell_angle_beta 151.076603
_cell_angle_gamma 90.000000
_cell_volume 828.622999
_symmetry_space_group_name_H-M "P 2/C"
_symmetry_group_IT_number 13
_symmetry_cell_setting 'monoclinic'
loop_
_space_group_symop_operation_xyz
x,y,z
-x,y,1/2-z
-x,-y,-z
x,-y,1/2+z
loop_
_atom_site_type_symbol
_atom_site_label
_atom_site_fract_x
_atom_site_fract_y
_atom_site_fract_z
Si Si1 0.004942 0.245053 0.963472
Si Si2 0.341936 0.223322 0.915130
Si Si3 0.421643 0.602994 0.644423
Si Si4 0.746280 0.497627 0.739916
Si Si5 0.000000 0.041538 0.250000
Si Si6 0.815344 0.415100 0.071485
O O1 0.216519 0.243751 0.042129
O O2 0.000000 0.500000 0.000000
O O3 0.814660 0.276511 0.820458
O O4 0.000000 0.000000 0.000000
O O5 0.377114 0.432438 0.884244
O O6 0.258611 0.340400 0.931325
O O7 0.134731 0.115722 0.778802
O O8 0.500000 0.000000 0.000000
O O9 0.500000 0.548812 0.750000
O O10 0.609472 0.682946 0.705550
O O11 0.337117 0.370120 0.561599
O O12 0.962189 0.589578 0.835312
O O13 0.838053 0.206032 0.131845
#
# Coordination Sequence:
#
# PCOD9237987 Si02
#       6
#     4   4   4   4   2   4
#     4  11  26  52  78 109 158 210 262 331 399 467
#     4  12  26  45  71 115 146 201 261 320 405 476
#     4  11  25  48  75 112 147 205 264 321 398 476
#     4  11  23  49  74 110 157 196 267 330 397 481
#     4  12  22  46  74 102 160 192 254 332 398 474
#     4  11  25  46  73 107 151 198 255 323 401 468
#
# _framework density 26.550072
#
# number of rings (size 3 to 8) (size 9 to 14) (size 15 to 20)
#    0.000    0.727    5.455    1.091    2.545    5.818 
#    9.818    0.000    0.000    0.000    0.000    0.000 
#    0.000    0.000    0.000    0.000    0.000    0.000 
#
# Total GULP energy -122824.519613 kJ/mol
# GULP energy per Si atom -5582.932710 kJ/mol
# Density = 2.648964 g / cm^3
# Si number density = 26.550072 Si / 1000 Ang^3
#
#
#
# Elastic Constant Matrix: (Units=GPa)
#
#
# Indices 1 2 3 4 5 6 
#
# 1 200.3136 46.4701 54.7648 0.0000 33.4156 0.0000
# 2 46.4701 57.9959 -5.5048 0.0000 23.5646 0.0000
# 3 54.7648 -5.5048 146.9445 0.0000 13.2321 0.0000
# 4 0.0000 0.0000 0.0000 23.3008 0.0000 8.7323
# 5 33.4156 23.5646 13.2321 0.0000 71.4791 0.0000
# 6 0.0000 0.0000 0.0000 8.7323 0.0000 24.3542
#
#
#
# Elastic Compliance Matrix: (Units=1/GPa)
#
#
# Indices 1 2 3 4 5 6 
#
# 1 0.007245 -0.005669 -0.002823 0.000000 -0.000996 0.000000
# 2 -0.005669 0.024615 0.003587 0.000000 -0.006129 0.000000
# 3 -0.002823 0.003587 0.008115 0.000000 -0.001365 0.000000
# 4 0.000000 0.000000 0.000000 0.049579 0.000000 -0.017777
# 5 -0.000996 -0.006129 -0.001365 0.000000 0.016729 0.000000
# 6 0.000000 0.000000 0.000000 -0.017777 0.000000 0.047435
#
#
# Mechanical properties :
#
#
# Convention : Reuss Voigt Hill
#
# Bulk Modulus (GPa) = 33.15053 66.30156 49.72605
# Shear Modulus (GPa) = 28.80478 44.46176 36.63327
#
# Velocity S-wave (km/s) = 3.29739 4.09667 3.71857
# Velocity P-wave (km/s) = 5.19713 6.88502 6.09974
#
# Compressibility (1/GPa) = 0.03016543
#
# Stress axis : x y z
#
# Youngs Moduli (GPa) = 138.02509 40.62507 123.23437
#
# Poissons Ratio (x) = 0.23029 0.34787
# Poissons Ratio (y) = 0.78241 -0.44200
# Poissons Ratio (z) = 0.38963 -0.14571
#
# Static dielectric constant tensor:
#      x y z
#    x 2.215880 0.000000 -0.042960 
#    y 0.000000 2.192050 0.000000 
#    z -0.042960 0.000000 2.110080 
# 
# From -- ./inp_files/87033.got.cif
#   From: 2010.05.17/outbox.cif.g08.bks.cpg/sg13_44_cif.got.tgz:87033.got - 2010.06.03 16:44:36.
