data_PCOD9237066
_publ_section_title
;
Structure prediction by ZEFSAII (Michael W. Deem and Ramdas Pophale) SiO2 
 PCOD9237066
Probable space group: P 2/C
;
_chemical_formula_sum "Si O2"
_cell_formula_units_Z 20
_cell_length_a 10.573457
_cell_length_b 5.055652
_cell_length_c 23.379737
_cell_angle_alpha 90.000000
_cell_angle_beta 140.190098
_cell_angle_gamma 90.000000
_cell_volume 800.162647
_symmetry_space_group_name_H-M "P 2/C"
_symmetry_group_IT_number 13
_symmetry_cell_setting 'monoclinic'
loop_
_space_group_symop_operation_xyz
x,y,z
-x,y,1/2-z
-x,-y,-z
x,-y,1/2+z
loop_
_atom_site_type_symbol
_atom_site_label
_atom_site_fract_x
_atom_site_fract_y
_atom_site_fract_z
Si Si1 0.276449 0.440062 0.645988
Si Si2 0.698176 0.977212 0.176987
Si Si3 0.285037 0.121402 0.939248
Si Si4 0.422563 0.517789 0.575910
Si Si5 0.082909 0.948368 0.629044
O O1 0.500000 0.424538 0.750000
O O2 0.288304 0.542961 0.585199
O O3 0.169396 0.157688 0.613710
O O4 0.153694 0.656418 0.638587
O O5 0.806593 0.902380 0.155520
O O6 0.523409 0.763510 0.118171
O O7 0.816457 0.962425 0.276519
O O8 0.599270 0.266519 0.140417
O O9 0.148399 0.975186 0.938054
O O10 0.318211 0.407609 0.979751
O O11 0.500000 0.000000 0.000000
#
# Coordination Sequence:
#
# PCOD9237066 Si02
#       5
#     4   4   4   4   4
#     4  12  23  42  68  99 131 164 221 273 321 385
#     4  11  21  42  67  94 128 171 218 264 320 385
#     4  10  26  45  65  97 136 173 216 269 324 384
#     4  11  23  41  67  93 133 172 205 272 329 376
#     4  12  24  41  71  98 126 175 219 264 326 387
#
# _framework density 24.994921000000001
#
# number of rings (size 3 to 8) (size 9 to 14) (size 15 to 20)
#    0.000    0.800    4.000    3.000    0.000    8.000 
#    0.000    6.000    0.000    0.000    0.000    0.000 
#    0.000    0.000    0.000    0.000    0.000    0.000 
#
# Total GULP energy -111970.983558 kJ/mol
# GULP energy per Si atom -5598.549178 kJ/mol
# Density = 2.493803 g / cm^3
# Si number density = 24.994921 Si / 1000 Ang^3
#
#
#
# Elastic Constant Matrix: (Units=GPa)
#
#
# Indices 1 2 3 4 5 6 
#
# 1 122.5867 6.4408 27.8132 0.0000 -0.6868 0.0000
# 2 6.4408 73.5435 30.3421 0.0000 15.9504 0.0000
# 3 27.8132 30.3421 76.6407 0.0000 1.1013 0.0000
# 4 0.0000 0.0000 0.0000 18.4979 0.0000 -8.2765
# 5 -0.6868 15.9504 1.1013 0.0000 55.0804 0.0000
# 6 0.0000 0.0000 0.0000 -8.2765 0.0000 21.1832
#
#
#
# Elastic Compliance Matrix: (Units=1/GPa)
#
#
# Indices 1 2 3 4 5 6 
#
# 1 0.008916 0.000665 -0.003499 0.000000 -0.000011 0.000000
# 2 0.000665 0.017544 -0.007116 0.000000 -0.004930 0.000000
# 3 -0.003499 -0.007116 0.017111 0.000000 0.001675 0.000000
# 4 0.000000 0.000000 0.000000 0.065513 0.000000 0.025596
# 5 -0.000011 -0.004930 0.001675 0.000000 0.019549 0.000000
# 6 0.000000 0.000000 0.000000 0.025596 0.000000 0.057208
#
#
# Mechanical properties :
#
#
# Convention : Reuss Voigt Hill
#
# Bulk Modulus (GPa) = 42.24504 44.66256 43.45380
# Shear Modulus (GPa) = 23.40469 32.83062 28.11766
#
# Velocity S-wave (km/s) = 3.06335 3.62814 3.35764
# Velocity P-wave (km/s) = 5.42681 5.95472 5.69688
#
# Compressibility (1/GPa) = 0.02367142
#
# Stress axis : x y z
#
# Youngs Moduli (GPa) = 112.15355 56.99828 58.44193
#
# Poissons Ratio (x) = -0.03792 0.20449
# Poissons Ratio (y) = -0.07460 0.41590
# Poissons Ratio (z) = 0.39242 0.40562
#
# Static dielectric constant tensor:
#      x y z
#    x 2.028310 0.000000 -0.046400 
#    y 0.000000 1.929860 0.000000 
#    z -0.046400 0.000000 2.088370 
# 
# From -- ./inp_files/74231.got.cif
#   From: 2010.05.17/outbox.cif.g08.bks.cpg/sg13_38_cif.got.tgz:74231.got - 2010.06.03 16:44:36.
