data_PCOD9237122
_publ_section_title
;
Structure prediction by ZEFSAII (Michael W. Deem and Ramdas Pophale) SiO2 
 PCOD9237122
Probable space group: P 2/C
;
_chemical_formula_sum "Si O2"
_cell_formula_units_Z 20
_cell_length_a 20.849412
_cell_length_b 4.510649
_cell_length_c 8.159934
_cell_angle_alpha 90.000000
_cell_angle_beta 65.188218
_cell_angle_gamma 90.000000
_cell_volume 696.558536
_symmetry_space_group_name_H-M "P 2/C"
_symmetry_group_IT_number 13
_symmetry_cell_setting 'monoclinic'
loop_
_space_group_symop_operation_xyz
x,y,z
-x,y,1/2-z
-x,-y,-z
x,-y,1/2+z
loop_
_atom_site_type_symbol
_atom_site_label
_atom_site_fract_x
_atom_site_fract_y
_atom_site_fract_z
Si Si1 0.199625 0.673920 0.064935
Si Si2 0.000000 0.698104 0.750000
Si Si3 0.296258 0.740175 0.235196
Si Si4 0.598920 0.752053 0.874076
Si Si5 0.098709 0.701297 0.909420
Si Si6 0.500000 0.361860 0.750000
O O1 0.249683 0.855993 0.132858
O O2 0.146346 0.507259 0.243875
O O3 0.246625 0.433567 0.916406
O O4 0.153611 0.848278 0.977864
O O5 0.049749 0.867806 0.827801
O O6 0.048785 0.494857 0.581104
O O7 0.346893 0.486181 0.109903
O O8 0.350367 0.987119 0.240816
O O9 0.553402 0.571967 0.791559
O O10 0.544364 0.834302 0.075434
#
# Coordination Sequence:
#
# PCOD9237122 Si02
#       6
#     4   2   4   4   4   2
#     4   9  19  35  56  87 137 179 232 290 346 411
#     4   8  12  22  50  86 136 182 232 286 344 406
#     4  11  24  42  66  95 134 180 227 282 347 415
#     4  11  26  46  71 100 133 175 225 280 347 417
#     4   8  14  27  49  88 135 181 232 286 344 406
#     4  10  26  48  74 104 138 176 228 290 348 420
#
# _framework density 28.712592999999998
#
# number of rings (size 3 to 8) (size 9 to 14) (size 15 to 20)
#    0.000    2.400    0.000    1.200    0.000   11.200 
#    0.000    6.000    0.000    0.000    0.000    0.000 
#    0.000 1478.400    0.000    0.000    0.000 1243.400 
#
# Total GULP energy -112118.795292 kJ/mol
# GULP energy per Si atom -5605.939765 kJ/mol
# Density = 2.864724 g / cm^3
# Si number density = 28.712593 Si / 1000 Ang^3
#
#
#
# Elastic Constant Matrix: (Units=GPa)
#
#
# Indices 1 2 3 4 5 6 
#
# 1 242.7923 42.5980 55.5424 0.0000 47.4484 0.0000
# 2 42.5980 71.4817 37.4302 0.0000 -12.7377 0.0000
# 3 55.5424 37.4302 233.5500 0.0000 -38.6161 0.0000
# 4 0.0000 0.0000 0.0000 351.1855 0.0000 -428.4287
# 5 47.4484 -12.7377 -38.6161 0.0000 57.9049 0.0000
# 6 0.0000 0.0000 0.0000 -428.4287 0.0000 536.8482
#
#
#
# Elastic Compliance Matrix: (Units=1/GPa)
#
#
# Indices 1 2 3 4 5 6 
#
# 1 0.007069 -0.004472 -0.002343 0.000000 -0.008339 0.000000
# 2 -0.004472 0.018296 -0.000672 0.000000 0.007241 0.000000
# 3 -0.002343 -0.000672 0.005889 0.000000 0.005700 0.000000
# 4 0.000000 0.000000 0.000000 0.107754 0.000000 0.085992
# 5 -0.008339 0.007241 0.005700 0.000000 0.029497 0.000000
# 6 0.000000 0.000000 0.000000 0.085992 0.000000 0.070488
#
#
# Mechanical properties :
#
#
# Convention : Reuss Voigt Hill
#
# Bulk Modulus (GPa) = 61.41947 90.99617 76.20782
# Shear Modulus (GPa) = 19.27580 216.67129 117.97354
#
# Velocity S-wave (km/s) = 2.59383 8.69632 6.41693
# Velocity P-wave (km/s) = 5.51436 11.51501 9.02783
#
# Compressibility (1/GPa) = 0.01628148
#
# Stress axis : x y z
#
# Youngs Moduli (GPa) = 141.46357 54.65591 169.80638
#
# Poissons Ratio (x) = 0.24439 0.39790
# Poissons Ratio (y) = 0.63256 0.11405
# Poissons Ratio (z) = 0.33149 0.03671
#
# Static dielectric constant tensor:
#      x y z
#    x 2.262710 0.000000 -0.015400 
#    y 0.000000 2.149900 0.000000 
#    z -0.015400 0.000000 2.124010 
# 
# From -- ./inp_files/22203.got.cif
#   From: 2010.05.17/outbox.cif.g08.bks.cpg/sg13_12_cif.got.tgz:22203.got - 2010.06.03 16:44:36.
