data_PCOD9237740
_publ_section_title
;
Structure prediction by ZEFSAII (Michael W. Deem and Ramdas Pophale) SiO2 
 PCOD9237740
Probable space group: P 2/C
;
_chemical_formula_sum "Si O2"
_cell_formula_units_Z 22
_cell_length_a 21.780744
_cell_length_b 6.504263
_cell_length_c 10.279038
_cell_angle_alpha 90.000000
_cell_angle_beta 41.802175
_cell_angle_gamma 90.000000
_cell_volume 970.650818
_symmetry_space_group_name_H-M "P 2/C"
_symmetry_group_IT_number 13
_symmetry_cell_setting 'monoclinic'
loop_
_space_group_symop_operation_xyz
x,y,z
-x,y,1/2-z
-x,-y,-z
x,-y,1/2+z
loop_
_atom_site_type_symbol
_atom_site_label
_atom_site_fract_x
_atom_site_fract_y
_atom_site_fract_z
Si Si1 0.894662 0.638090 0.375533
Si Si2 0.187288 0.357502 0.769884
Si Si3 0.631477 0.395408 0.512436
Si Si4 0.500000 0.282013 0.250000
Si Si5 0.586781 0.942127 0.273038
Si Si6 0.252616 0.959883 0.803610
O O1 0.851484 0.458661 0.535476
O O2 0.881996 0.610819 0.240799
O O3 0.834743 0.839713 0.503288
O O4 0.000000 0.661659 0.250000
O O5 0.279277 0.478993 0.582711
O O6 0.216414 0.123834 0.756023
O O7 0.562154 0.565621 0.563966
O O8 0.675539 0.215497 0.357001
O O9 0.580489 0.270905 0.706833
O O10 0.575856 0.132023 0.191260
O O11 0.684781 0.930266 0.187997
O O12 0.500000 0.000000 0.500000
#
# Coordination Sequence:
#
# PCOD9237740 Si02
#       6
#     4   4   4   2   4   4
#     4  11  25  44  71 105 138 179 230 286 353 421
#     4  11  24  45  71  99 138 182 229 287 348 416
#     4  11  23  40  61  91 127 172 224 277 340 406
#     4  12  24  38  58  86 126 166 216 276 336 400
#     4  12  24  40  62  92 129 175 228 282 338 401
#     4  11  24  42  67  96 133 178 227 283 341 407
#
# _framework density 22.665206000000001
#
# number of rings (size 3 to 8) (size 9 to 14) (size 15 to 20)
#    0.000    0.727    0.000    8.727    0.000    8.727 
#    0.000    0.000    0.000    0.000    0.000    0.000 
#    0.000    0.000    0.000    0.000    0.000    0.000 
#
# Total GULP energy -122897.223672 kJ/mol
# GULP energy per Si atom -5586.237440 kJ/mol
# Density = 2.261362 g / cm^3
# Si number density = 22.665206 Si / 1000 Ang^3
#
#
#
# Elastic Constant Matrix: (Units=GPa)
#
#
# Indices 1 2 3 4 5 6 
#
# 1 125.9437 16.8896 6.5362 0.0000 -12.2285 0.0000
# 2 16.8896 73.9123 15.5352 0.0000 1.7791 0.0000
# 3 6.5362 15.5352 64.7263 0.0000 -13.4527 0.0000
# 4 0.0000 0.0000 0.0000 -1.7371 0.0000 -19.2977
# 5 -12.2285 1.7791 -13.4527 0.0000 39.2096 0.0000
# 6 0.0000 0.0000 0.0000 -19.2977 0.0000 7.3219
#
#
#
# Elastic Compliance Matrix: (Units=1/GPa)
#
#
# Indices 1 2 3 4 5 6 
#
# 1 0.008477 -0.002051 0.000221 0.000000 0.002813 0.000000
# 2 -0.002051 0.014886 -0.003918 0.000000 -0.002660 0.000000
# 3 0.000221 -0.003918 0.017680 0.000000 0.006313 0.000000
# 4 0.000000 0.000000 0.000000 -0.019012 0.000000 -0.050108
# 5 0.002813 -0.002660 0.006313 0.000000 0.028668 0.000000
# 6 0.000000 0.000000 0.000000 -0.050108 0.000000 0.004511
#
#
# Mechanical properties :
#
#
# Convention : Reuss Voigt Hill
#
# Bulk Modulus (GPa) = 33.84667 38.05605 35.95136
# Shear Modulus (GPa) = 65.31291 24.00029 44.65660
#
# Velocity S-wave (km/s) = 5.37391 3.25761 4.44359
# Velocity P-wave (km/s) = 7.31239 5.56564 6.49797
#
# Compressibility (1/GPa) = 0.02954500
#
# Stress axis : x y z
#
# Youngs Moduli (GPa) = 117.96988 67.17778 56.56153
#
# Poissons Ratio (x) = 0.13779 -0.01249
# Poissons Ratio (y) = 0.24197 0.22163
# Poissons Ratio (z) = -0.02605 0.26323
#
# Static dielectric constant tensor:
#      x y z
#    x 1.860380 0.000000 0.087830 
#    y 0.000000 1.865960 0.000000 
#    z 0.087830 0.000000 1.899140 
# 
# From -- ./inp_files/35528.got.cif
#   From: 2010.05.17/outbox.cif.g08.bks.cpg/sg13_18_cif.got.tgz:35528.got - 2010.06.03 16:44:36.
