data_PCOD9237356
_publ_section_title
;
Structure prediction by ZEFSAII (Michael W. Deem and Ramdas Pophale) SiO2 
 PCOD9237356
Probable space group: P 2/C
;
_chemical_formula_sum "Si O2"
_cell_formula_units_Z 28
_cell_length_a 14.885196
_cell_length_b 7.785971
_cell_length_c 20.346881
_cell_angle_alpha 90.000000
_cell_angle_beta 30.387433
_cell_angle_gamma 90.000000
_cell_volume 1192.840232
_symmetry_space_group_name_H-M "P 2/C"
_symmetry_group_IT_number 13
_symmetry_cell_setting 'monoclinic'
loop_
_space_group_symop_operation_xyz
x,y,z
-x,y,1/2-z
-x,-y,-z
x,-y,1/2+z
loop_
_atom_site_type_symbol
_atom_site_label
_atom_site_fract_x
_atom_site_fract_y
_atom_site_fract_z
Si Si1 0.739675 0.282059 0.205068
Si Si2 0.656906 0.694885 0.998961
Si Si3 0.910084 0.276542 0.963595
Si Si4 0.109136 0.304138 0.034731
Si Si5 0.281002 0.301597 0.791433
Si Si6 0.507662 0.185917 0.465830
Si Si7 0.807160 0.335370 0.894820
O O1 0.721925 0.490030 0.215184
O O2 0.580548 0.200148 0.346092
O O3 0.776133 0.230286 0.106883
O O4 0.919111 0.237168 0.131696
O O5 0.819050 0.762168 0.940860
O O6 0.469703 0.757801 0.145590
O O7 0.640207 0.714205 0.931297
O O8 0.681627 0.492281 0.994713
O O9 0.847922 0.215747 0.931546
O O10 0.108469 0.231553 0.861791
O O11 0.910241 0.486498 0.955993
O O12 0.248296 0.263934 0.888758
O O13 0.305809 0.252367 0.591796
O O14 0.500000 0.000000 0.500000
O O15 0.000000 0.399897 0.750000
#
# Coordination Sequence:
#
# PCOD9237356 Si02
#       7
#     4   4   4   4   4   4   4
#     4   9  18  36  58  87 122 155 198 246 312 374
#     4  11  21  34  63  87 122 157 203 257 310 367
#     4   8  17  32  60  92 121 147 193 261 314 367
#     4   8  17  30  57  96 118 145 191 260 313 368
#     4   9  15  32  60  93 122 143 190 260 322 358
#     4  12  27  42  56  84 129 176 211 251 309 382
#     4  11  23  39  64  94 119 155 212 267 323 373
#
# _framework density 23.473389000000001
#
# number of rings (size 3 to 8) (size 9 to 14) (size 15 to 20)
#    0.000    2.286    1.429    3.429    6.000    0.571 
#    2.571    0.000    6.286    2.571    0.000    0.000 
#    0.000    0.000    0.000    0.000    0.000    0.000 
#
# Total GULP energy -156276.709872 kJ/mol
# GULP energy per Si atom -5581.311067 kJ/mol
# Density = 2.341996 g / cm^3
# Si number density = 23.473389 Si / 1000 Ang^3
#
#
#
# Elastic Constant Matrix: (Units=GPa)
#
#
# Indices 1 2 3 4 5 6 
#
# 1 134.6122 2.8880 10.5918 0.0000 -0.7443 0.0000
# 2 2.8880 26.5673 -4.7879 0.0000 -9.7886 0.0000
# 3 10.5918 -4.7879 91.2722 0.0000 6.3871 0.0000
# 4 0.0000 0.0000 0.0000 -0.7674 0.0000 6.6079
# 5 -0.7443 -9.7886 6.3871 0.0000 25.5770 0.0000
# 6 0.0000 0.0000 0.0000 6.6079 0.0000 -4.2857
#
#
#
# Elastic Compliance Matrix: (Units=1/GPa)
#
#
# Indices 1 2 3 4 5 6 
#
# 1 0.007523 -0.000953 -0.000929 0.000000 0.000086 0.000000
# 2 -0.000953 0.044058 0.001266 0.000000 0.016518 0.000000
# 3 -0.000929 0.001266 0.011296 0.000000 -0.002363 0.000000
# 4 0.000000 0.000000 0.000000 0.106147 0.000000 0.163662
# 5 0.000086 0.016518 -0.002363 0.000000 0.046012 0.000000
# 6 0.000000 0.000000 0.000000 0.163662 0.000000 0.019008
#
#
# Mechanical properties :
#
#
# Convention : Reuss Voigt Hill
#
# Bulk Modulus (GPa) = 16.22239 29.98173 23.10206
# Shear Modulus (GPa) = 19.54468 20.35543 19.95005
#
# Velocity S-wave (km/s) = 2.88867 2.94797 2.91847
# Velocity P-wave (km/s) = 4.24874 4.93840 4.60649
#
# Compressibility (1/GPa) = 0.06164320
#
# Stress axis : x y z
#
# Youngs Moduli (GPa) = 132.92964 22.69747 88.52821
#
# Poissons Ratio (x) = 0.02164 0.08224
# Poissons Ratio (y) = 0.12675 -0.11207
# Poissons Ratio (z) = 0.12350 -0.02873
#
# Static dielectric constant tensor:
#      x y z
#    x 2.059200 0.000000 0.013820 
#    y 0.000000 1.936520 0.000000 
#    z 0.013820 0.000000 1.873910 
# 
# From -- ./inp_files/79945.got.cif
#   From: 2010.05.17/outbox.cif.g08.bks.cpg/sg13_40_cif.got.tgz:79945.got - 2010.06.03 16:44:36.
