data_PCOD9237850
_publ_section_title
;
Structure prediction by ZEFSAII (Michael W. Deem and Ramdas Pophale) SiO2 
 PCOD9237850
Probable space group: P 2/C
;
_chemical_formula_sum "Si O2"
_cell_formula_units_Z 16
_cell_length_a 8.276933
_cell_length_b 18.057855
_cell_length_c 9.060442
_cell_angle_alpha 90.000000
_cell_angle_beta 146.910353
_cell_angle_gamma 90.000000
_cell_volume 739.329982
_symmetry_space_group_name_H-M "P 2/C"
_symmetry_group_IT_number 13
_symmetry_cell_setting 'monoclinic'
loop_
_space_group_symop_operation_xyz
x,y,z
-x,y,1/2-z
-x,-y,-z
x,-y,1/2+z
loop_
_atom_site_type_symbol
_atom_site_label
_atom_site_fract_x
_atom_site_fract_y
_atom_site_fract_z
Si Si1 0.826495 0.941356 0.965574
Si Si2 0.332974 0.560786 0.467746
Si Si3 0.187687 0.279037 0.745916
Si Si4 0.201929 0.800302 0.766875
O O1 0.500000 0.971020 0.750000
O O2 0.789709 0.866208 0.844754
O O3 0.000000 0.928110 0.250000
O O4 0.000000 0.000000 0.000000
O O5 0.500000 0.500000 0.500000
O O6 0.301393 0.637710 0.354997
O O7 0.000000 0.535638 0.250000
O O8 0.500000 0.574877 0.750000
O O9 0.000000 0.261611 0.750000
O O10 0.967233 0.267735 0.441311
O O11 0.467381 0.224935 0.941238
O O12 0.000000 0.823348 0.750000
#
# Coordination Sequence:
#
# PCOD9237850 Si02
#       4
#     4   4   4   4
#     4  12  26  45  69  95 130 170 210 259 314 375
#     4  11  24  42  65  93 128 168 212 262 318 380
#     4  11  23  43  66  92 127 170 212 259 318 378
#     4  12  25  42  66  98 128 164 213 264 314 373
#
# _framework density 21.641216
#
# number of rings (size 3 to 8) (size 9 to 14) (size 15 to 20)
#    0.000    0.500    0.000   10.500    0.000    5.000 
#    0.000    0.000    0.000    0.000    0.000    0.000 
#    0.000    0.000    0.000    0.000    0.000    0.000 
#
# Total GULP energy -89667.092548 kJ/mol
# GULP energy per Si atom -5604.193284 kJ/mol
# Density = 2.159196 g / cm^3
# Si number density = 21.641216 Si / 1000 Ang^3
#
#
#
# Elastic Constant Matrix: (Units=GPa)
#
#
# Indices 1 2 3 4 5 6 
#
# 1 119.7441 30.1781 18.4857 0.0000 30.9018 0.0000
# 2 30.1781 77.5896 -14.0598 0.0000 16.2745 0.0000
# 3 18.4857 -14.0598 75.7986 0.0000 24.8830 0.0000
# 4 0.0000 0.0000 0.0000 12.5820 0.0000 9.8023
# 5 30.9018 16.2745 24.8830 0.0000 46.5748 0.0000
# 6 0.0000 0.0000 0.0000 9.8023 0.0000 17.5569
#
#
#
# Elastic Compliance Matrix: (Units=1/GPa)
#
#
# Indices 1 2 3 4 5 6 
#
# 1 0.010773 -0.003403 -0.001580 0.000000 -0.005114 0.000000
# 2 -0.003403 0.016794 0.006221 0.000000 -0.006934 0.000000
# 3 -0.001580 0.006221 0.018314 0.000000 -0.010910 0.000000
# 4 0.000000 0.000000 0.000000 0.140662 0.000000 -0.078534
# 5 -0.005114 -0.006934 -0.010910 0.000000 0.033116 0.000000
# 6 0.000000 0.000000 0.000000 -0.078534 0.000000 0.100804
#
#
# Mechanical properties :
#
#
# Convention : Reuss Voigt Hill
#
# Bulk Modulus (GPa) = 20.67971 38.03780 29.35876
# Shear Modulus (GPa) = 14.96538 31.24464 23.10501
#
# Velocity S-wave (km/s) = 2.63253 3.80380 3.27102
# Velocity P-wave (km/s) = 4.33783 6.07508 5.27842
#
# Compressibility (1/GPa) = 0.04835658
#
# Stress axis : x y z
#
# Youngs Moduli (GPa) = 92.82854 59.54571 54.60424
#
# Poissons Ratio (x) = 0.20266 0.08625
# Poissons Ratio (y) = 0.31594 -0.33971
# Poissons Ratio (z) = 0.14663 -0.37045
#
# Static dielectric constant tensor:
#      x y z
#    x 1.799790 0.000000 -0.002940 
#    y 0.000000 1.770460 0.000000 
#    z -0.002940 0.000000 1.772030 
# 
# From -- ./inp_files/9284.got.cif
#   From: 2010.05.17/outbox.cif.g08.bks.cpg/sg13_5_cif.got.tgz:9284.got - 2010.06.03 16:44:36.
