data_PCOD9237561
_publ_section_title
;
Structure prediction by ZEFSAII (Michael W. Deem and Ramdas Pophale) SiO2 
 PCOD9237561
Probable space group: P 2/C
;
_chemical_formula_sum "Si O2"
_cell_formula_units_Z 32
_cell_length_a 8.997315
_cell_length_b 24.283410
_cell_length_c 15.772174
_cell_angle_alpha 90.000000
_cell_angle_beta 28.777825
_cell_angle_gamma 90.000000
_cell_volume 1658.950051
_symmetry_space_group_name_H-M "P 2/C"
_symmetry_group_IT_number 13
_symmetry_cell_setting 'monoclinic'
loop_
_space_group_symop_operation_xyz
x,y,z
-x,y,1/2-z
-x,-y,-z
x,-y,1/2+z
loop_
_atom_site_type_symbol
_atom_site_label
_atom_site_fract_x
_atom_site_fract_y
_atom_site_fract_z
Si Si1 0.129984 0.371349 0.435005
Si Si2 0.870496 0.823308 0.904210
Si Si3 0.129755 0.561641 0.276801
Si Si4 0.131487 0.241456 0.434254
Si Si5 0.129766 0.438366 0.093438
Si Si6 0.129503 0.176695 0.774708
Si Si7 0.870811 0.057726 0.465178
Si Si8 0.129172 0.057729 0.836000
O O1 0.500000 0.379229 0.250000
O O2 0.063654 0.306376 0.468164
O O3 0.987951 0.399802 0.589080
O O4 0.987962 0.399810 0.422962
O O5 0.973839 0.886762 0.867444
O O6 0.000000 0.803457 0.750000
O O7 0.991822 0.787466 0.921373
O O8 0.499999 0.822345 0.089226
O O9 0.000000 0.579634 0.250000
O O10 0.999979 0.500004 0.356389
O O11 0.499995 0.559919 0.089338
O O12 0.500000 0.234170 0.250000
O O13 0.991816 0.212540 0.586809
O O14 0.000000 0.420375 0.250000
O O15 0.026149 0.113242 0.841295
O O16 0.000000 0.196545 0.750000
O O17 0.499992 0.055558 0.647571
O O18 0.962351 0.062512 0.518823
O O19 0.999985 0.999998 0.367318
#
# Coordination Sequence:
#
# PCOD9237561 Si02
#       8
#     4   4   4   4   4   4   4   4
#     4  11  24  42  63  90 123 160 207 255 300 359
#     4  11  23  41  63  88 120 156 200 249 302 363
#     4  11  22  39  64  95 130 167 204 247 300 354
#     4  11  25  44  65  88 117 158 206 255 306 355
#     4  11  22  39  64  95 130 167 204 247 300 354
#     4  11  23  41  63  88 120 156 200 249 302 363
#     4   9  18  34  56  84 116 152 190 238 298 358
#     4   9  18  34  56  84 116 152 190 238 298 358
#
# _framework density 19.289307999999998
#
# number of rings (size 3 to 8) (size 9 to 14) (size 15 to 20)
#    0.000    1.500    1.250    4.875    0.000    5.500 
#    0.000    2.500    0.000    0.000    0.000    0.000 
#    0.000    0.000    0.000    0.000    0.000    0.000 
#
# Total GULP energy -178919.929138 kJ/mol
# GULP energy per Si atom -5591.247786 kJ/mol
# Density = 1.924540 g / cm^3
# Si number density = 19.289308 Si / 1000 Ang^3
#
#
#
# Elastic Constant Matrix: (Units=GPa)
#
#
# Indices 1 2 3 4 5 6 
#
# 1 155.3372 94.3364 73.4377 0.0000 17.9914 0.0000
# 2 94.3364 119.3799 81.9117 0.0000 12.6931 0.0000
# 3 73.4377 81.9117 122.4587 0.0000 15.6018 0.0000
# 4 0.0000 0.0000 0.0000 15.8583 0.0000 -21.2266
# 5 17.9914 12.6931 15.6018 0.0000 34.5816 0.0000
# 6 0.0000 0.0000 0.0000 -21.2266 0.0000 -4.9366
#
#
#
# Elastic Compliance Matrix: (Units=1/GPa)
#
#
# Indices 1 2 3 4 5 6 
#
# 1 0.012802 -0.008864 -0.001394 0.000000 -0.002778 0.000000
# 2 -0.008864 0.021658 -0.009279 0.000000 0.000849 0.000000
# 3 -0.001394 -0.009279 0.015578 0.000000 -0.002897 0.000000
# 4 0.000000 0.000000 0.000000 0.009334 0.000000 -0.040137
# 5 -0.002778 0.000849 -0.002897 0.000000 0.031358 0.000000
# 6 0.000000 0.000000 0.000000 -0.040137 0.000000 -0.029986
#
#
# Mechanical properties :
#
#
# Convention : Reuss Voigt Hill
#
# Bulk Modulus (GPa) = 91.21836 99.61638 95.41737
# Shear Modulus (GPa) = 48.32222 18.93335 33.62778
#
# Velocity S-wave (km/s) = 5.01056 3.13636 4.17986
# Velocity P-wave (km/s) = 8.99258 8.05426 8.53632
#
# Compressibility (1/GPa) = 0.01096270
#
# Stress axis : x y z
#
# Youngs Moduli (GPa) = 78.11505 46.17243 64.19446
#
# Poissons Ratio (x) = 0.40929 0.08948
# Poissons Ratio (y) = 0.69244 0.59566
# Poissons Ratio (z) = 0.10888 0.42844
#
# Static dielectric constant tensor:
#      x y z
#    x 1.652160 0.000000 0.004480 
#    y 0.000000 1.655780 0.000000 
#    z 0.004480 0.000000 1.647770 
# 
# From -- ./inp_files/48295.got.cif
#   From: 2010.05.17/outbox.cif.g08.bks.cpg/sg13_25_cif.got.tgz:48295.got - 2010.06.03 16:44:36.
