data_PCOD9237346
_publ_section_title
;
Structure prediction by ZEFSAII (Michael W. Deem and Ramdas Pophale) SiO2 
 PCOD9237346
Probable space group: P 2/C
;
_chemical_formula_sum "Si O2"
_cell_formula_units_Z 24
_cell_length_a 12.662720
_cell_length_b 11.451200
_cell_length_c 8.344882
_cell_angle_alpha 90.000000
_cell_angle_beta 81.393098
_cell_angle_gamma 90.000000
_cell_volume 1196.408769
_symmetry_space_group_name_H-M "P 2/C"
_symmetry_group_IT_number 13
_symmetry_cell_setting 'monoclinic'
loop_
_space_group_symop_operation_xyz
x,y,z
-x,y,1/2-z
-x,-y,-z
x,-y,1/2+z
loop_
_atom_site_type_symbol
_atom_site_label
_atom_site_fract_x
_atom_site_fract_y
_atom_site_fract_z
Si Si1 0.351382 0.198639 0.142242
Si Si2 0.418496 0.945927 0.143318
Si Si3 0.521735 0.371487 0.931673
Si Si4 0.715782 0.745718 0.494947
Si Si5 0.862461 0.113841 0.415815
Si Si6 0.083836 0.854862 0.974491
O O1 0.314477 0.264778 0.310056
O O2 0.255615 0.169319 0.037783
O O3 0.369126 0.067956 0.213399
O O4 0.450005 0.271871 0.042930
O O5 0.500000 0.888830 0.250000
O O6 0.334668 0.860750 0.080966
O O7 0.500000 0.000000 0.000000
O O8 0.500000 0.365921 0.750000
O O9 0.500000 0.500000 0.000000
O O10 0.647962 0.352668 0.926586
O O11 0.842343 0.757385 0.462902
O O12 0.886484 0.131433 0.221131
O O13 0.957467 0.167906 0.501692
O O14 0.880227 0.977125 0.452356
#
# Coordination Sequence:
#
# PCOD9237346 Si02
#       6
#     4   4   4   4   4   4
#     4  11  21  35  54  79 113 147 182 223 271 323
#     4  12  20  29  46  79 115 146 180 221 268 325
#     4  12  26  42  60  80 105 138 181 229 281 331
#     4  11  21  34  54  79 114 149 181 223 268 326
#     4   9  18  31  50  78 113 151 183 220 261 315
#     4   9  18  31  49  78 115 150 184 218 263 312
#
# _framework density 20.060034999999999
#
# number of rings (size 3 to 8) (size 9 to 14) (size 15 to 20)
#    0.000    1.333    5.000    2.000    0.000    1.333 
#    0.000    0.000    0.000    1.000    0.000    0.000 
#    0.000    0.000    0.000    0.000    0.000    0.000 
#
# Total GULP energy -133651.493197 kJ/mol
# GULP energy per Si atom -5568.812217 kJ/mol
# Density = 2.001438 g / cm^3
# Si number density = 20.060035 Si / 1000 Ang^3
#
#
#
# Elastic Constant Matrix: (Units=GPa)
#
#
# Indices 1 2 3 4 5 6 
#
# 1 143.1694 24.2131 14.3103 0.0000 44.8890 0.0000
# 2 24.2131 78.3366 10.8549 0.0000 13.5866 0.0000
# 3 14.3103 10.8549 51.8245 0.0000 23.9848 0.0000
# 4 0.0000 0.0000 0.0000 16.1002 0.0000 1.6472
# 5 44.8890 13.5866 23.9848 0.0000 29.4056 0.0000
# 6 0.0000 0.0000 0.0000 1.6472 0.0000 9.3553
#
#
#
# Elastic Compliance Matrix: (Units=1/GPa)
#
#
# Indices 1 2 3 4 5 6 
#
# 1 0.016928 -0.000779 0.011698 0.000000 -0.035023 0.000000
# 2 -0.000779 0.013914 -0.000441 0.000000 -0.004880 0.000000
# 3 0.011698 -0.000441 0.039081 0.000000 -0.049530 0.000000
# 4 0.000000 0.000000 0.000000 0.063250 0.000000 -0.011137
# 5 -0.035023 -0.004880 -0.049530 0.000000 0.130127 0.000000
# 6 0.000000 0.000000 0.000000 -0.011137 0.000000 0.108852
#
#
# Mechanical properties :
#
#
# Convention : Reuss Voigt Hill
#
# Bulk Modulus (GPa) = 11.00354 41.34302 26.17328
# Shear Modulus (GPa) = 13.10655 25.90238 19.50446
#
# Velocity S-wave (km/s) = 2.55888 3.59729 3.12156
# Velocity P-wave (km/s) = 3.77196 6.15697 5.10568
#
# Compressibility (1/GPa) = 0.09087985
#
# Stress axis : x y z
#
# Youngs Moduli (GPa) = 59.07233 71.87187 25.58780
#
# Poissons Ratio (x) = 0.05598 -0.29932
# Poissons Ratio (y) = 0.04601 0.01127
# Poissons Ratio (z) = -0.69102 0.03167
#
# Static dielectric constant tensor:
#      x y z
#    x 1.677870 0.000000 0.015410 
#    y 0.000000 1.934340 0.000000 
#    z 0.015410 0.000000 1.730520 
# 
# From -- ./inp_files/15842.got.cif
#   From: 2010.05.17/outbox.cif.g08.bks.cpg/sg13_8_cif.got.tgz:15842.got - 2010.06.03 16:44:36.
