data_PCOD9237903
_publ_section_title
;
Structure prediction by ZEFSAII (Michael W. Deem and Ramdas Pophale) SiO2 
 PCOD9237903
Probable space group: P 2/C
;
_chemical_formula_sum "Si O2"
_cell_formula_units_Z 20
_cell_length_a 11.224869
_cell_length_b 7.662005
_cell_length_c 17.269003
_cell_angle_alpha 90.000000
_cell_angle_beta 143.854905
_cell_angle_gamma 90.000000
_cell_volume 876.030824
_symmetry_space_group_name_H-M "P 2/C"
_symmetry_group_IT_number 13
_symmetry_cell_setting 'monoclinic'
loop_
_space_group_symop_operation_xyz
x,y,z
-x,y,1/2-z
-x,-y,-z
x,-y,1/2+z
loop_
_atom_site_type_symbol
_atom_site_label
_atom_site_fract_x
_atom_site_fract_y
_atom_site_fract_z
Si Si1 0.187724 0.291299 0.400421
Si Si2 0.505315 0.470361 0.666069
Si Si3 0.440966 0.195798 0.391357
Si Si4 0.176118 0.949318 0.487519
Si Si5 0.743004 0.109994 0.805808
O O1 0.290592 0.426690 0.513314
O O2 0.371192 0.218839 0.442694
O O3 0.000000 0.355485 0.250000
O O4 0.113083 0.122526 0.407864
O O5 0.500000 0.542944 0.750000
O O6 0.614948 0.616876 0.673780
O O7 0.619418 0.286741 0.732274
O O8 0.672230 0.159676 0.486927
O O9 0.329210 0.034307 0.293067
O O10 0.977218 0.850568 0.411190
O O11 0.275253 0.024172 0.618521
#
# Coordination Sequence:
#
# PCOD9237903 Si02
#       5
#     4   4   4   4   4
#     4  12  25  46  69 105 145 182 228 296 351 410
#     4  12  25  46  74 104 144 186 234 290 345 419
#     4  12  25  44  72 106 139 186 239 287 354 417
#     4  11  23  44  71 103 141 188 230 288 352 417
#     4  11  23  45  73 103 139 183 240 286 346 415
#
# _framework density 22.830245999999999
#
# number of rings (size 3 to 8) (size 9 to 14) (size 15 to 20)
#    0.000    0.400    6.000    3.000    0.000    1.600 
#    0.000    5.000    0.000    0.000    0.000    0.000 
#    0.000    0.000    0.000    0.000    0.000    0.000 
#
# Total GULP energy -111875.056840 kJ/mol
# GULP energy per Si atom -5593.752842 kJ/mol
# Density = 2.277828 g / cm^3
# Si number density = 22.830246 Si / 1000 Ang^3
#
#
#
# Elastic Constant Matrix: (Units=GPa)
#
#
# Indices 1 2 3 4 5 6 
#
# 1 91.1991 -11.5293 17.9821 0.0000 6.5557 0.0000
# 2 -11.5293 65.4398 2.4278 0.0000 3.5278 0.0000
# 3 17.9821 2.4278 101.9754 0.0000 1.8521 0.0000
# 4 0.0000 0.0000 0.0000 -8.6337 0.0000 -8.0157
# 5 6.5557 3.5278 1.8521 0.0000 41.7141 0.0000
# 6 0.0000 0.0000 0.0000 -8.0157 0.0000 6.8490
#
#
#
# Elastic Compliance Matrix: (Units=1/GPa)
#
#
# Indices 1 2 3 4 5 6 
#
# 1 0.011806 0.002263 -0.002100 0.000000 -0.001954 0.000000
# 2 0.002263 0.015797 -0.000745 0.000000 -0.001659 0.000000
# 3 -0.002100 -0.000745 0.010195 0.000000 -0.000060 0.000000
# 4 0.000000 0.000000 0.000000 -0.055510 0.000000 -0.064966
# 5 -0.001954 -0.001659 -0.000060 0.000000 0.024423 0.000000
# 6 0.000000 0.000000 0.000000 -0.064966 0.000000 0.069974
#
#
# Mechanical properties :
#
#
# Convention : Reuss Voigt Hill
#
# Bulk Modulus (GPa) = 27.29707 30.70841 29.00274
# Shear Modulus (GPa) = 55.51814 24.63480 40.07647
#
# Velocity S-wave (km/s) = 4.93666 3.28844 4.19431
# Velocity P-wave (km/s) = 6.66908 5.28190 6.01561
#
# Compressibility (1/GPa) = 0.03663396
#
# Stress axis : x y z
#
# Youngs Moduli (GPa) = 84.70518 63.30317 98.08296
#
# Poissons Ratio (x) = -0.14327 0.20599
# Poissons Ratio (y) = -0.19170 0.07308
# Poissons Ratio (z) = 0.17790 0.04716
#
# Static dielectric constant tensor:
#      x y z
#    x 1.872440 0.000000 0.010840 
#    y 0.000000 1.783320 0.000000 
#    z 0.010840 0.000000 1.904750 
# 
# From -- ./inp_files/66146.got.cif
#   From: 2010.05.17/outbox.cif.g08.bks.cpg/sg13_34_cif.got.tgz:66146.got - 2010.06.03 16:44:36.
