data_PCOD9237422
_publ_section_title
;
Structure prediction by ZEFSAII (Michael W. Deem and Ramdas Pophale) SiO2 
 PCOD9237422
Probable space group: P 2/C
;
_chemical_formula_sum "Si O2"
_cell_formula_units_Z 30
_cell_length_a 23.204015
_cell_length_b 8.810395
_cell_length_c 15.427355
_cell_angle_alpha 90.000000
_cell_angle_beta 152.683426
_cell_angle_gamma 90.000000
_cell_volume 1447.352386
_symmetry_space_group_name_H-M "P 2/C"
_symmetry_group_IT_number 13
_symmetry_cell_setting 'monoclinic'
loop_
_space_group_symop_operation_xyz
x,y,z
-x,y,1/2-z
-x,-y,-z
x,-y,1/2+z
loop_
_atom_site_type_symbol
_atom_site_label
_atom_site_fract_x
_atom_site_fract_y
_atom_site_fract_z
Si Si1 0.685168 0.826484 0.639201
Si Si2 0.023634 0.111437 0.950538
Si Si3 0.626132 0.824094 0.044170
Si Si4 0.203550 0.317749 0.877261
Si Si5 0.716330 0.185476 0.857764
Si Si6 0.000000 0.902930 0.750000
Si Si7 0.352234 0.827993 0.719946
Si Si8 0.360594 0.386993 0.584669
O O1 0.629579 0.775677 0.656878
O O2 0.661740 0.723743 0.525883
O O3 0.634313 0.993984 0.552644
O O4 0.832626 0.841331 0.853988
O O5 0.934970 0.259074 0.830480
O O6 0.999010 0.009941 0.832968
O O7 0.000000 0.000000 0.000000
O O8 0.709382 0.760748 0.078757
O O9 0.679614 0.775303 0.209831
O O10 0.480113 0.786165 0.842386
O O11 0.239282 0.250966 0.018980
O O12 0.248913 0.490448 0.937419
O O13 0.649406 0.290640 0.839752
O O14 0.673344 0.009273 0.813252
O O15 0.868025 0.187957 0.071590
O O16 0.500000 0.452196 0.750000
#
# Coordination Sequence:
#
# PCOD9237422 Si02
#       8
#     4   4   4   4   4   2   4   4
#     4  11  22  40  66  94 122 168 218 273 320 366
#     4  12  21  42  67  93 125 161 222 275 315 376
#     4  11  21  39  64  96 123 165 223 268 317 375
#     4  12  25  41  63  93 131 176 209 259 327 385
#     4  11  22  40  67  94 124 168 216 272 323 373
#     4  12  20  42  68  96 122 158 220 282 320 372
#     4  11  21  39  65  94 124 165 221 272 316 374
#     4  12  26  43  61  95 140 175 209 257 325 400
#
# _framework density 20.727502999999999
#
# number of rings (size 3 to 8) (size 9 to 14) (size 15 to 20)
#    0.000    0.533    5.333    6.000    0.000    1.600 
#    0.000    4.667    0.000    0.000    0.000    0.000 
#    0.000    0.000    0.000    0.000    0.000    0.000 
#
# Total GULP energy -167756.719766 kJ/mol
# GULP energy per Si atom -5591.890659 kJ/mol
# Density = 2.068033 g / cm^3
# Si number density = 20.727503 Si / 1000 Ang^3
#
#
#
# Elastic Constant Matrix: (Units=GPa)
#
#
# Indices 1 2 3 4 5 6 
#
# 1 72.6318 22.1650 -7.0536 0.0000 -20.8334 0.0000
# 2 22.1650 50.6605 6.6027 0.0000 -18.8520 0.0000
# 3 -7.0536 6.6027 69.3062 0.0000 4.3075 0.0000
# 4 0.0000 0.0000 0.0000 -2.1139 0.0000 32.8263
# 5 -20.8334 -18.8520 4.3075 0.0000 53.1832 0.0000
# 6 0.0000 0.0000 0.0000 32.8263 0.0000 28.2600
#
#
#
# Elastic Compliance Matrix: (Units=1/GPa)
#
#
# Indices 1 2 3 4 5 6 
#
# 1 0.017085 -0.006121 0.002051 0.000000 0.004357 0.000000
# 2 -0.006121 0.025438 -0.003475 0.000000 0.006901 0.000000
# 3 0.002051 -0.003475 0.015071 0.000000 -0.001649 0.000000
# 4 0.000000 0.000000 0.000000 -0.024848 0.000000 0.028863
# 5 0.004357 0.006901 -0.001649 0.000000 0.023089 0.000000
# 6 0.000000 0.000000 0.000000 0.028863 0.000000 0.001859
#
#
# Mechanical properties :
#
#
# Convention : Reuss Voigt Hill
#
# Bulk Modulus (GPa) = 23.52735 26.22520 24.87628
# Shear Modulus (GPa) = 57.50273 27.25816 42.38044
#
# Velocity S-wave (km/s) = 5.27280 3.63033 4.52668
# Velocity P-wave (km/s) = 6.96027 5.50020 6.27286
#
# Compressibility (1/GPa) = 0.04250373
#
# Stress axis : x y z
#
# Youngs Moduli (GPa) = 58.53118 39.31093 66.35234
#
# Poissons Ratio (x) = 0.24062 -0.13610
# Poissons Ratio (y) = 0.35827 0.23060
# Poissons Ratio (z) = -0.12006 0.13662
#
# Static dielectric constant tensor:
#      x y z
#    x 1.753100 0.000000 0.015990 
#    y 0.000000 1.729080 0.000000 
#    z 0.015990 0.000000 1.744950 
# 
# From -- ./inp_files/58701.got.cif
#   From: 2010.05.17/outbox.cif.g08.bks.cpg/sg13_30_cif.got.tgz:58701.got - 2010.06.03 16:44:36.
