data_PCOD9237809
_publ_section_title
;
Structure prediction by ZEFSAII (Michael W. Deem and Ramdas Pophale) SiO2 
 PCOD9237809
Probable space group: P 2/C
;
_chemical_formula_sum "Si O2"
_cell_formula_units_Z 26
_cell_length_a 8.488303
_cell_length_b 14.761668
_cell_length_c 15.294872
_cell_angle_alpha 90.000000
_cell_angle_beta 42.454830
_cell_angle_gamma 90.000000
_cell_volume 1293.634410
_symmetry_space_group_name_H-M "P 2/C"
_symmetry_group_IT_number 13
_symmetry_cell_setting 'monoclinic'
loop_
_space_group_symop_operation_xyz
x,y,z
-x,y,1/2-z
-x,-y,-z
x,-y,1/2+z
loop_
_atom_site_type_symbol
_atom_site_label
_atom_site_fract_x
_atom_site_fract_y
_atom_site_fract_z
Si Si1 0.605066 0.805659 0.868937
Si Si2 0.838129 0.090652 0.964479
Si Si3 0.998166 0.106997 0.093946
Si Si4 0.992740 0.607131 0.513460
Si Si5 0.500000 0.685045 0.750000
Si Si6 0.893009 0.729585 0.199808
Si Si7 0.347973 0.264955 0.960117
O O1 0.837808 0.845193 0.731297
O O2 0.488029 0.746086 0.841137
O O3 0.418507 0.884470 0.964366
O O4 0.645406 0.746829 0.938160
O O5 0.008388 0.170018 0.861287
O O6 0.850695 0.093278 0.065402
O O7 0.915637 0.990011 0.908462
O O8 0.210739 0.174699 0.984728
O O9 0.024568 0.660289 0.408717
O O10 0.195018 0.650081 0.491234
O O11 0.000000 0.500000 0.500000
O O12 0.739827 0.630835 0.656036
O O13 0.612464 0.730636 0.318443
O O14 0.000000 0.703495 0.250000
#
# Coordination Sequence:
#
# PCOD9237809 Si02
#       7
#     4   4   4   4   2   4   4
#     4  12  21  45  69  97 143 188 239 286 351 409
#     4  11  23  42  65 100 141 197 232 288 346 405
#     4  11  24  39  67 102 141 191 244 285 341 410
#     4  12  28  49  73 106 135 176 228 299 367 434
#     4  12  22  48  72  96 138 184 224 296 348 420
#     4  12  24  48  69  99 140 185 229 287 356 421
#     4  12  25  43  72 100 137 183 232 290 348 426
#
# _framework density 20.098413999999998
#
# number of rings (size 3 to 8) (size 9 to 14) (size 15 to 20)
#    0.000    0.308    7.692    0.923    4.308    1.846 
#    2.769    1.538    0.000    0.000    0.000    0.000 
#    0.000    0.000    0.000    0.000    0.000    0.000 
#
# Total GULP energy -145449.373131 kJ/mol
# GULP energy per Si atom -5594.206659 kJ/mol
# Density = 2.005267 g / cm^3
# Si number density = 20.098414 Si / 1000 Ang^3
#
#
#
# Elastic Constant Matrix: (Units=GPa)
#
#
# Indices 1 2 3 4 5 6 
#
# 1 93.7349 30.3253 25.5275 0.0000 -5.2647 0.0000
# 2 30.3253 133.7890 34.9531 0.0000 -14.8971 0.0000
# 3 25.5275 34.9531 107.6921 0.0000 -29.6121 0.0000
# 4 0.0000 0.0000 0.0000 18.0775 0.0000 1.4502
# 5 -5.2647 -14.8971 -29.6121 0.0000 51.2385 0.0000
# 6 0.0000 0.0000 0.0000 1.4502 0.0000 8.4086
#
#
#
# Elastic Compliance Matrix: (Units=1/GPa)
#
#
# Indices 1 2 3 4 5 6 
#
# 1 0.011969 -0.002187 -0.002335 0.000000 -0.000756 0.000000
# 2 -0.002187 0.008610 -0.001961 0.000000 0.001145 0.000000
# 3 -0.002335 -0.001961 0.012190 0.000000 0.006235 0.000000
# 4 0.000000 0.000000 0.000000 0.056093 0.000000 -0.009674
# 5 -0.000756 0.001145 0.006235 0.000000 0.023375 0.000000
# 6 0.000000 0.000000 0.000000 -0.009674 0.000000 0.120595
#
#
# Mechanical properties :
#
#
# Convention : Reuss Voigt Hill
#
# Bulk Modulus (GPa) = 50.49797 57.42532 53.96165
# Shear Modulus (GPa) = 19.80975 31.83891 25.82433
#
# Velocity S-wave (km/s) = 3.14289 3.98446 3.58843
# Velocity P-wave (km/s) = 6.19276 7.05705 6.63898
#
# Compressibility (1/GPa) = 0.01980278
#
# Stress axis : x y z
#
# Youngs Moduli (GPa) = 83.54578 116.14283 82.03302
#
# Poissons Ratio (x) = 0.25402 0.19156
# Poissons Ratio (y) = 0.18272 0.16088
# Poissons Ratio (z) = 0.19509 0.22778
#
# Static dielectric constant tensor:
#      x y z
#    x 1.752150 0.000000 -0.006810 
#    y 0.000000 1.691750 0.000000 
#    z -0.006810 0.000000 1.728850 
# 
# From -- ./inp_files/47865.got.cif
#   From: 2010.05.17/outbox.cif.g08.bks.cpg/sg13_24_cif.got.tgz:47865.got - 2010.06.03 16:44:36.
