data_PCOD9237479
_publ_section_title
;
Structure prediction by ZEFSAII (Michael W. Deem and Ramdas Pophale) SiO2 
 PCOD9237479
Probable space group: P 2/C
;
_chemical_formula_sum "Si O2"
_cell_formula_units_Z 30
_cell_length_a 11.428605
_cell_length_b 9.222820
_cell_length_c 13.211164
_cell_angle_alpha 90.000000
_cell_angle_beta 93.056173
_cell_angle_gamma 90.000000
_cell_volume 1390.528587
_symmetry_space_group_name_H-M "P 2/C"
_symmetry_group_IT_number 13
_symmetry_cell_setting 'monoclinic'
loop_
_space_group_symop_operation_xyz
x,y,z
-x,y,1/2-z
-x,-y,-z
x,-y,1/2+z
loop_
_atom_site_type_symbol
_atom_site_label
_atom_site_fract_x
_atom_site_fract_y
_atom_site_fract_z
Si Si1 0.870528 0.795554 0.771938
Si Si2 0.257764 0.487340 0.260476
Si Si3 0.094003 0.709200 0.161405
Si Si4 0.558308 0.112450 0.426376
Si Si5 0.500000 0.319648 0.250000
Si Si6 0.280078 0.949988 0.224048
Si Si7 0.933877 0.844500 0.003698
Si Si8 0.294859 0.242204 0.898501
O O1 0.832928 0.642412 0.725671
O O2 0.876727 0.798821 0.894470
O O3 0.000000 0.840802 0.750000
O O4 0.776431 0.909203 0.728441
O O5 0.190818 0.583496 0.173032
O O6 0.382566 0.417164 0.236228
O O7 0.273996 0.597277 0.355040
O O8 0.170201 0.854751 0.181111
O O9 0.000000 0.692740 0.250000
O O10 0.025740 0.728943 0.053539
O O11 0.486455 0.211461 0.344950
O O12 0.626330 0.226835 0.500105
O O13 0.500000 0.000000 0.500000
O O14 0.643061 0.012762 0.362348
O O15 0.346979 0.850325 0.307337
O O16 0.827209 0.836942 0.078569
O O17 0.000000 0.000000 0.000000
#
# Coordination Sequence:
#
# PCOD9237479 Si02
#       8
#     4   4   4   4   2   4   4   4
#     4  12  24  41  67 106 146 193 240 293 374 437
#     4  11  26  45  69  98 150 195 236 299 369 431
#     4  11  21  42  72 107 146 183 239 299 368 443
#     4  12  26  47  75 106 139 193 257 313 362 431
#     4  12  26  54  72 102 154 194 248 318 366 430
#     4  11  21  42  72 104 146 184 245 311 360 430
#     4  12  21  40  72 107 145 189 239 306 362 441
#     4  11  24  44  72 104 142 186 249 293 373 441
#
# _framework density 21.574528999999998
#
# number of rings (size 3 to 8) (size 9 to 14) (size 15 to 20)
#    0.000    0.533    6.667    2.400    0.000    3.200 
#    2.400    1.333    0.000    0.000    0.000    0.000 
#    0.000    0.000    0.000    0.000    0.000    0.000 
#
# Total GULP energy -167543.195278 kJ/mol
# GULP energy per Si atom -5584.773176 kJ/mol
# Density = 2.152542 g / cm^3
# Si number density = 21.574529 Si / 1000 Ang^3
#
#
#
# Elastic Constant Matrix: (Units=GPa)
#
#
# Indices 1 2 3 4 5 6 
#
# 1 93.0201 34.8016 26.2055 0.0000 -4.2271 0.0000
# 2 34.8016 120.6773 38.6226 0.0000 -0.3952 0.0000
# 3 26.2055 38.6226 85.7393 0.0000 10.0888 0.0000
# 4 0.0000 0.0000 0.0000 27.0011 0.0000 2.2160
# 5 -4.2271 -0.3952 10.0888 0.0000 45.2389 0.0000
# 6 0.0000 0.0000 0.0000 2.2160 0.0000 36.1112
#
#
#
# Elastic Compliance Matrix: (Units=1/GPa)
#
#
# Indices 1 2 3 4 5 6 
#
# 1 0.012657 -0.002732 -0.002849 0.000000 0.001794 0.000000
# 2 -0.002732 0.010325 -0.003899 0.000000 0.000704 0.000000
# 3 -0.002849 -0.003899 0.014711 0.000000 -0.003581 0.000000
# 4 0.000000 0.000000 0.000000 0.037223 0.000000 -0.002284
# 5 0.001794 0.000704 -0.003581 0.000000 0.023077 0.000000
# 6 0.000000 0.000000 0.000000 -0.002284 0.000000 0.027832
#
#
# Mechanical properties :
#
#
# Convention : Reuss Voigt Hill
#
# Bulk Modulus (GPa) = 53.38053 55.41067 54.39560
# Shear Modulus (GPa) = 33.10615 34.99071 34.04843
#
# Velocity S-wave (km/s) = 3.92152 4.03159 3.97694
# Velocity P-wave (km/s) = 6.73057 6.88555 6.80850
#
# Compressibility (1/GPa) = 0.01873342
#
# Stress axis : x y z
#
# Youngs Moduli (GPa) = 79.00962 96.85605 67.97408
#
# Poissons Ratio (x) = 0.26465 0.19363
# Poissons Ratio (y) = 0.21589 0.26500
# Poissons Ratio (z) = 0.22507 0.37760
#
# Static dielectric constant tensor:
#      x y z
#    x 1.831360 0.000000 -0.011020 
#    y 0.000000 1.794940 0.000000 
#    z -0.011020 0.000000 1.837100 
# 
# From -- ./inp_files/50047.got.cif
#   From: 2010.05.17/outbox.cif.g08.bks.cpg/sg13_26_cif.got.tgz:50047.got - 2010.06.03 16:44:36.
