data_PCOD9237791
_publ_section_title
;
Structure prediction by ZEFSAII (Michael W. Deem and Ramdas Pophale) SiO2 
 PCOD9237791
Probable space group: P 2/C
;
_chemical_formula_sum "Si O2"
_cell_formula_units_Z 20
_cell_length_a 9.165945
_cell_length_b 7.346413
_cell_length_c 28.560589
_cell_angle_alpha 90.000000
_cell_angle_beta 153.557174
_cell_angle_gamma 90.000000
_cell_volume 856.400452
_symmetry_space_group_name_H-M "P 2/C"
_symmetry_group_IT_number 13
_symmetry_cell_setting 'monoclinic'
loop_
_space_group_symop_operation_xyz
x,y,z
-x,y,1/2-z
-x,-y,-z
x,-y,1/2+z
loop_
_atom_site_type_symbol
_atom_site_label
_atom_site_fract_x
_atom_site_fract_y
_atom_site_fract_z
Si Si1 0.342365 0.082140 0.407373
Si Si2 0.126280 0.285394 0.835122
Si Si3 0.142291 0.619021 0.701941
Si Si4 0.266653 0.731346 0.558985
Si Si5 0.123985 0.347762 0.471248
O O1 0.593772 0.120733 0.437292
O O2 0.165642 0.273538 0.364414
O O3 0.500000 0.000000 0.500000
O O4 0.065638 0.929469 0.318814
O O5 0.000000 0.363416 0.750000
O O6 0.949056 0.405301 0.822829
O O7 0.516910 0.304656 0.945290
O O8 0.445836 0.665524 0.822568
O O9 0.130570 0.675950 0.644348
O O10 0.145550 0.556789 0.494463
O O11 0.974937 0.770534 0.511869
#
# Coordination Sequence:
#
# PCOD9237791 Si02
#       5
#     4   4   4   4   4
#     4  12  24  41  68  97 128 174 227 274 331 400
#     4  12  22  40  68  96 125 174 228 277 328 401
#     4  12  22  45  68  96 133 177 224 278 333 402
#     4  11  24  43  67  99 136 176 219 281 341 400
#     4  11  23  41  68  96 133 177 217 273 346 394
#
# _framework density 23.353562
#
# number of rings (size 3 to 8) (size 9 to 14) (size 15 to 20)
#    0.000    0.400    6.000    4.200    0.000    0.800 
#    0.000    0.000    0.000    0.000    0.000    0.000 
#    0.000    0.000    0.000    0.000    0.000    0.000 
#
# Total GULP energy -111687.603384 kJ/mol
# GULP energy per Si atom -5584.380169 kJ/mol
# Density = 2.330041 g / cm^3
# Si number density = 23.353562 Si / 1000 Ang^3
#
#
#
# Elastic Constant Matrix: (Units=GPa)
#
#
# Indices 1 2 3 4 5 6 
#
# 1 92.4015 25.4750 9.1181 0.0000 -19.6380 0.0000
# 2 25.4750 86.7654 -10.1970 0.0000 0.7306 0.0000
# 3 9.1181 -10.1970 101.4341 0.0000 -20.6246 0.0000
# 4 0.0000 0.0000 0.0000 22.9312 0.0000 -5.7647
# 5 -19.6380 0.7306 -20.6246 0.0000 34.6518 0.0000
# 6 0.0000 0.0000 0.0000 -5.7647 0.0000 39.1736
#
#
#
# Elastic Compliance Matrix: (Units=1/GPa)
#
#
# Indices 1 2 3 4 5 6 
#
# 1 0.013597 -0.004064 -0.000053 0.000000 0.007760 0.000000
# 2 -0.004064 0.012886 0.001294 0.000000 -0.001805 0.000000
# 3 -0.000053 0.001294 0.011356 0.000000 0.006702 0.000000
# 4 0.000000 0.000000 0.000000 0.045284 0.000000 0.006664
# 5 0.007760 -0.001805 0.006702 0.000000 0.037283 0.000000
# 6 0.000000 0.000000 0.000000 0.006664 0.000000 0.026508
#
#
# Mechanical properties :
#
#
# Convention : Reuss Voigt Hill
#
# Bulk Modulus (GPa) = 31.06268 36.59924 33.83096
# Shear Modulus (GPa) = 30.62010 36.43163 33.52586
#
# Velocity S-wave (km/s) = 3.62491 3.95397 3.79301
# Velocity P-wave (km/s) = 5.55427 6.04574 5.80521
#
# Compressibility (1/GPa) = 0.03219297
#
# Stress axis : x y z
#
# Youngs Moduli (GPa) = 73.54475 77.60516 88.05824
#
# Poissons Ratio (x) = 0.31537 0.00466
# Poissons Ratio (y) = 0.29887 -0.11392
# Poissons Ratio (z) = 0.00390 -0.10040
#
# Static dielectric constant tensor:
#      x y z
#    x 1.935140 0.000000 -0.005300 
#    y 0.000000 1.927400 0.000000 
#    z -0.005300 0.000000 2.011470 
# 
# From -- ./inp_files/95878.got.cif
#   From: 2010.05.17/outbox.cif.g08.bks.cpg/sg13_48_cif.got.tgz:95878.got - 2010.06.03 16:44:36.
