data_PCOD9237660
_publ_section_title
;
Structure prediction by ZEFSAII (Michael W. Deem and Ramdas Pophale) SiO2 
 PCOD9237660
Probable space group: P 2/C
;
_chemical_formula_sum "Si O2"
_cell_formula_units_Z 16
_cell_length_a 13.387131
_cell_length_b 5.388460
_cell_length_c 9.060982
_cell_angle_alpha 90.000000
_cell_angle_beta 68.687505
_cell_angle_gamma 90.000000
_cell_volume 608.923188
_symmetry_space_group_name_H-M "P 2/C"
_symmetry_group_IT_number 13
_symmetry_cell_setting 'monoclinic'
loop_
_space_group_symop_operation_xyz
x,y,z
-x,y,1/2-z
-x,-y,-z
x,-y,1/2+z
loop_
_atom_site_type_symbol
_atom_site_label
_atom_site_fract_x
_atom_site_fract_y
_atom_site_fract_z
Si Si1 0.794742 0.233942 0.463014
Si Si2 0.925134 0.883047 0.166268
Si Si3 0.372455 0.530983 0.106073
Si Si4 0.376264 0.035270 0.276775
O O1 0.852166 0.275624 0.592009
O O2 0.725358 0.471680 0.452482
O O3 0.703629 0.032904 0.550643
O O4 0.865655 0.100437 0.295450
O O5 0.000000 0.750195 0.250000
O O6 0.000000 0.000000 0.000000
O O7 0.364883 0.801935 0.175470
O O8 0.353667 0.303559 0.226722
O O9 0.500000 0.500000 0.000000
O O10 0.500000 0.034487 0.250000
#
# Coordination Sequence:
#
# PCOD9237660 Si02
#       4
#     4   4   4   4
#     4  11  22  43  75 119 157 213 259 337 406 472
#     4   9  20  43  80 117 153 206 277 347 405 470
#     4  12  26  44  72 113 166 217 263 314 392 487
#     4  12  26  44  72 115 163 217 264 319 386 490
#
# _framework density 26.275893
#
# number of rings (size 3 to 8) (size 9 to 14) (size 15 to 20)
#    0.000    1.000    5.000    1.500    0.000    0.000 
#    0.000    0.000    0.000   19.500    0.000    0.000 
#    0.000    0.000    0.000    0.000    0.000    0.000 
#
# Total GULP energy -89417.168792 kJ/mol
# GULP energy per Si atom -5588.573050 kJ/mol
# Density = 2.621609 g / cm^3
# Si number density = 26.275893 Si / 1000 Ang^3
#
#
#
# Elastic Constant Matrix: (Units=GPa)
#
#
# Indices 1 2 3 4 5 6 
#
# 1 195.4537 38.3464 70.1816 0.0000 53.6312 0.0000
# 2 38.3464 125.9555 65.9487 0.0000 43.3114 0.0000
# 3 70.1816 65.9487 186.3587 0.0000 3.0265 0.0000
# 4 0.0000 0.0000 0.0000 48.9411 0.0000 24.8995
# 5 53.6312 43.3114 3.0265 0.0000 73.5019 0.0000
# 6 0.0000 0.0000 0.0000 24.8995 0.0000 49.1566
#
#
#
# Elastic Compliance Matrix: (Units=1/GPa)
#
#
# Indices 1 2 3 4 5 6 
#
# 1 0.007815 0.001664 -0.003426 0.000000 -0.006541 0.000000
# 2 0.001664 0.013121 -0.005128 0.000000 -0.008735 0.000000
# 3 -0.003426 -0.005128 0.008387 0.000000 0.005176 0.000000
# 4 0.000000 0.000000 0.000000 0.027526 0.000000 -0.013943
# 5 -0.006541 -0.008735 0.005176 0.000000 0.023312 0.000000
# 6 0.000000 0.000000 0.000000 -0.013943 0.000000 0.027406
#
#
# Mechanical properties :
#
#
# Convention : Reuss Voigt Hill
#
# Bulk Modulus (GPa) = 64.33724 95.19125 79.76425
# Shear Modulus (GPa) = 39.51699 56.53932 48.02815
#
# Velocity S-wave (km/s) = 3.88226 4.64374 4.27996
# Velocity P-wave (km/s) = 6.68089 8.06589 7.40584
#
# Compressibility (1/GPa) = 0.01554310
#
# Stress axis : x y z
#
# Youngs Moduli (GPa) = 127.96161 76.21204 119.23621
#
# Poissons Ratio (x) = -0.12680 0.40845
# Poissons Ratio (y) = -0.21290 0.61145
# Poissons Ratio (z) = 0.43834 0.39082
#
# Static dielectric constant tensor:
#      x y z
#    x 2.277730 0.000000 0.063380 
#    y 0.000000 1.824110 0.000000 
#    z 0.063380 0.000000 2.162420 
# 
# From -- ./inp_files/17590.got.cif
#   From: 2010.05.17/outbox.cif.g08.bks.cpg/sg13_9_cif.got.tgz:17590.got - 2010.06.03 16:44:36.
