data_PCOD9237513
_publ_section_title
;
Structure prediction by ZEFSAII (Michael W. Deem and Ramdas Pophale) SiO2 
 PCOD9237513
Probable space group: P 2/C
;
_chemical_formula_sum "Si O2"
_cell_formula_units_Z 28
_cell_length_a 14.771804
_cell_length_b 11.861000
_cell_length_c 8.958131
_cell_angle_alpha 90.000000
_cell_angle_beta 112.795754
_cell_angle_gamma 90.000000
_cell_volume 1446.945705
_symmetry_space_group_name_H-M "P 2/C"
_symmetry_group_IT_number 13
_symmetry_cell_setting 'monoclinic'
loop_
_space_group_symop_operation_xyz
x,y,z
-x,y,1/2-z
-x,-y,-z
x,-y,1/2+z
loop_
_atom_site_type_symbol
_atom_site_label
_atom_site_fract_x
_atom_site_fract_y
_atom_site_fract_z
Si Si1 0.087990 0.140164 0.494953
Si Si2 0.401655 0.358076 0.121799
Si Si3 0.782239 0.259642 0.345008
Si Si4 0.069873 0.432706 0.931340
Si Si5 0.797604 0.353051 0.022986
Si Si6 0.599225 0.394756 0.733129
Si Si7 0.129788 0.050569 0.214307
O O1 0.119469 0.268124 0.488823
O O2 0.141730 0.071865 0.396309
O O3 0.974206 0.110355 0.396330
O O4 0.121685 0.079656 0.667131
O O5 0.500000 0.302231 0.250000
O O6 0.306392 0.287878 0.102857
O O7 0.394020 0.475310 0.208952
O O8 0.408564 0.383591 0.950116
O O9 0.878469 0.322901 0.469408
O O10 0.769969 0.314975 0.172467
O O11 0.793955 0.126985 0.325931
O O12 0.155857 0.522019 0.943233
O O13 0.000000 0.402673 0.750000
O O14 0.000000 0.500000 0.000000
O O15 0.700984 0.344193 0.859448
O O16 0.500000 0.349864 0.750000
#
# Coordination Sequence:
#
# PCOD9237513 Si02
#       7
#     4   4   4   4   4   4   4
#     4   9  19  36  57  78 111 149 191 232 276 322
#     4  11  22  37  57  81 112 146 187 232 278 335
#     4  11  22  38  56  82 114 150 188 229 283 330
#     4  12  24  36  51  78 117 153 187 220 274 335
#     4  11  22  37  58  80 115 152 185 231 283 333
#     4  11  22  37  57  82 111 146 188 229 280 336
#     4   9  19  37  55  80 110 149 191 234 272 327
#
# _framework density 19.351106000000001
#
# number of rings (size 3 to 8) (size 9 to 14) (size 15 to 20)
#    0.000    1.429    2.857    4.286    4.000    1.143 
#    5.143    0.000    0.000    0.857    0.000    6.000 
#    0.000    0.000    0.000    0.000    0.000    0.000 
#
# Total GULP energy -156327.946881 kJ/mol
# GULP energy per Si atom -5583.140960 kJ/mol
# Density = 1.930706 g / cm^3
# Si number density = 19.351106 Si / 1000 Ang^3
#
#
#
# Elastic Constant Matrix: (Units=GPa)
#
#
# Indices 1 2 3 4 5 6 
#
# 1 86.9216 -4.6263 28.1922 0.0000 -6.4224 0.0000
# 2 -4.6263 29.7023 -0.2456 0.0000 -8.3081 0.0000
# 3 28.1922 -0.2456 107.6984 0.0000 6.6114 0.0000
# 4 0.0000 0.0000 0.0000 15.8151 0.0000 -3.2186
# 5 -6.4224 -8.3081 6.6114 0.0000 28.7255 0.0000
# 6 0.0000 0.0000 0.0000 -3.2186 0.0000 15.3617
#
#
#
# Elastic Compliance Matrix: (Units=1/GPa)
#
#
# Indices 1 2 3 4 5 6 
#
# 1 0.013258 0.003378 -0.003758 0.000000 0.004806 0.000000
# 2 0.003378 0.037527 -0.001533 0.000000 0.011962 0.000000
# 3 -0.003758 -0.001533 0.010492 0.000000 -0.003699 0.000000
# 4 0.000000 0.000000 0.000000 0.066047 0.000000 0.013838
# 5 0.004806 0.011962 -0.003699 0.000000 0.040198 0.000000
# 6 0.000000 0.000000 0.000000 0.013838 0.000000 0.067997
#
#
# Mechanical properties :
#
#
# Convention : Reuss Voigt Hill
#
# Bulk Modulus (GPa) = 17.40573 30.10699 23.75636
# Shear Modulus (GPa) = 19.34271 25.38058 22.36165
#
# Velocity S-wave (km/s) = 3.16502 3.62551 3.40306
# Velocity P-wave (km/s) = 4.72977 5.75481 5.26728
#
# Compressibility (1/GPa) = 0.05745234
#
# Stress axis : x y z
#
# Youngs Moduli (GPa) = 75.42377 26.64758 95.30647
#
# Poissons Ratio (x) = -0.09003 0.35816
# Poissons Ratio (y) = -0.25481 0.14611
# Poissons Ratio (z) = 0.28344 0.04085
#
# Static dielectric constant tensor:
#      x y z
#    x 1.723250 0.000000 -0.010530 
#    y 0.000000 1.667020 0.000000 
#    z -0.010530 0.000000 1.741370 
# 
# From -- ./inp_files/18737.got.cif
#   From: 2010.05.17/outbox.cif.g08.bks.cpg/sg13_10_cif.got.tgz:18737.got - 2010.06.03 16:44:36.
