data_PCOD9237730
_publ_section_title
;
Structure prediction by ZEFSAII (Michael W. Deem and Ramdas Pophale) SiO2 
 PCOD9237730
Probable space group: P 2/C
;
_chemical_formula_sum "Si O2"
_cell_formula_units_Z 30
_cell_length_a 13.092200
_cell_length_b 8.928580
_cell_length_c 18.139951
_cell_angle_alpha 90.000000
_cell_angle_beta 139.305719
_cell_angle_gamma 90.000000
_cell_volume 1382.591456
_symmetry_space_group_name_H-M "P 2/C"
_symmetry_group_IT_number 13
_symmetry_cell_setting 'monoclinic'
loop_
_space_group_symop_operation_xyz
x,y,z
-x,y,1/2-z
-x,-y,-z
x,-y,1/2+z
loop_
_atom_site_type_symbol
_atom_site_label
_atom_site_fract_x
_atom_site_fract_y
_atom_site_fract_z
Si Si1 0.963193 0.359418 0.311341
Si Si2 0.945923 0.950395 0.591978
Si Si3 0.291283 0.655124 0.432559
Si Si4 0.646775 0.428473 0.776691
Si Si5 0.000000 0.170202 0.750000
Si Si6 0.621737 0.378222 0.117950
Si Si7 0.143369 0.147205 0.611972
Si Si8 0.881893 0.389466 0.508949
O O1 0.065476 0.213782 0.380623
O O2 0.786857 0.300269 0.221674
O O3 0.000000 0.417528 0.250000
O O4 0.002895 0.487158 0.391592
O O5 0.846829 0.930282 0.462793
O O6 0.111844 0.013198 0.651410
O O7 0.922258 0.066232 0.645191
O O8 0.148855 0.727721 0.307811
O O9 0.333949 0.489347 0.425489
O O10 0.467040 0.721350 0.523364
O O11 0.227489 0.654247 0.481187
O O12 0.500000 0.412924 0.750000
O O13 0.599319 0.514273 0.676529
O O14 0.719415 0.265340 0.800358
O O15 0.775030 0.528459 0.890545
O O16 0.985550 0.252809 0.533851
#
# Coordination Sequence:
#
# PCOD9237730 Si02
#       8
#     4   4   4   4   2   4   4   4
#     4  12  22  39  67  99 125 167 217 271 325 394
#     4  11  24  39  65  90 128 172 225 258 315 391
#     4  11  23  40  66  99 127 171 215 273 332 389
#     4  12  23  38  62  98 134 164 210 277 336 378
#     4  12  22  44  66  92 134 184 220 258 328 408
#     4  11  23  39  62  99 135 160 214 280 332 384
#     4  11  23  42  64  93 125 174 220 266 315 391
#     4  12  21  40  70  97 124 166 224 267 333 384
#
# _framework density 21.698383
#
# number of rings (size 3 to 8) (size 9 to 14) (size 15 to 20)
#    0.000    0.533    7.333    2.800    0.000    0.000 
#    0.000    2.000    0.000    0.000    0.000    0.000 
#    0.000    0.000    0.000    0.000    0.000    0.000 
#
# Total GULP energy -167335.743681 kJ/mol
# GULP energy per Si atom -5577.858123 kJ/mol
# Density = 2.164900 g / cm^3
# Si number density = 21.698383 Si / 1000 Ang^3
#
#
#
# Elastic Constant Matrix: (Units=GPa)
#
#
# Indices 1 2 3 4 5 6 
#
# 1 90.1623 11.2836 19.6385 0.0000 4.6449 0.0000
# 2 11.2836 77.1589 26.8254 0.0000 -8.5115 0.0000
# 3 19.6385 26.8254 74.8535 0.0000 5.5103 0.0000
# 4 0.0000 0.0000 0.0000 20.3162 0.0000 -8.4993
# 5 4.6449 -8.5115 5.5103 0.0000 43.4982 0.0000
# 6 0.0000 0.0000 0.0000 -8.4993 0.0000 27.0611
#
#
#
# Elastic Compliance Matrix: (Units=1/GPa)
#
#
# Indices 1 2 3 4 5 6 
#
# 1 0.011851 -0.000916 -0.002700 0.000000 -0.001103 0.000000
# 2 -0.000916 0.015457 -0.005581 0.000000 0.003829 0.000000
# 3 -0.002700 -0.005581 0.016279 0.000000 -0.002866 0.000000
# 4 0.000000 0.000000 0.000000 0.056667 0.000000 0.017798
# 5 -0.001103 0.003829 -0.002866 0.000000 0.024220 0.000000
# 6 0.000000 0.000000 0.000000 0.017798 0.000000 0.042543
#
#
# Mechanical properties :
#
#
# Convention : Reuss Voigt Hill
#
# Bulk Modulus (GPa) = 39.69356 39.74110 39.71733
# Shear Modulus (GPa) = 25.79880 30.47025 28.13453
#
# Velocity S-wave (km/s) = 3.45189 3.75142 3.60477
# Velocity P-wave (km/s) = 5.84982 6.09255 5.97242
#
# Compressibility (1/GPa) = 0.02519300
#
# Stress axis : x y z
#
# Youngs Moduli (GPa) = 84.38403 64.69592 61.42994
#
# Poissons Ratio (x) = 0.05927 0.16584
# Poissons Ratio (y) = 0.07730 0.34283
# Poissons Ratio (z) = 0.22781 0.36106
#
# Static dielectric constant tensor:
#      x y z
#    x 1.838050 0.000000 0.003400 
#    y 0.000000 1.796180 0.000000 
#    z 0.003400 0.000000 1.871630 
# 
# From -- ./inp_files/79682.got.cif
#   From: 2010.05.17/outbox.cif.g08.bks.cpg/sg13_40_cif.got.tgz:79682.got - 2010.06.03 16:44:36.
