data_PCOD9237766
_publ_section_title
;
Structure prediction by ZEFSAII (Michael W. Deem and Ramdas Pophale) SiO2 
 PCOD9237766
Probable space group: P 2/C
;
_chemical_formula_sum "Si O2"
_cell_formula_units_Z 22
_cell_length_a 10.510950
_cell_length_b 18.274644
_cell_length_c 5.695277
_cell_angle_alpha 90.000000
_cell_angle_beta 116.390846
_cell_angle_gamma 90.000000
_cell_volume 979.960251
_symmetry_space_group_name_H-M "P 2/C"
_symmetry_group_IT_number 13
_symmetry_cell_setting 'monoclinic'
loop_
_space_group_symop_operation_xyz
x,y,z
-x,y,1/2-z
-x,-y,-z
x,-y,1/2+z
loop_
_atom_site_type_symbol
_atom_site_label
_atom_site_fract_x
_atom_site_fract_y
_atom_site_fract_z
Si Si1 0.828172 0.533782 0.601345
Si Si2 0.189611 0.032561 0.538998
Si Si3 0.850777 0.174365 0.753491
Si Si4 0.371258 0.192370 0.284310
Si Si5 0.169827 0.705800 0.929117
Si Si6 0.500000 0.923391 0.250000
O O1 0.777607 0.496249 0.315042
O O2 0.799914 0.620252 0.557711
O O3 0.000000 0.524079 0.750000
O O4 0.149412 0.118118 0.532132
O O5 0.361388 0.029950 0.694777
O O6 0.140361 0.003695 0.244901
O O7 0.732104 0.148879 0.475288
O O8 0.000000 0.175589 0.750000
O O9 0.807142 0.254796 0.802873
O O10 0.500000 0.229793 0.250000
O O11 0.270640 0.249585 0.335556
O O12 0.446381 0.132870 0.508191
O O13 0.000000 0.716400 0.750000
#
# Coordination Sequence:
#
# PCOD9237766 Si02
#       6
#     4   4   4   4   4   2
#     4   9  20  37  63 101 143 184 229 278 337 412
#     4  12  27  45  69  96 136 184 232 296 359 422
#     4  12  26  43  70 101 140 180 237 290 355 428
#     4  12  23  43  71 101 136 180 236 294 347 411
#     4  11  23  40  71 103 141 185 230 289 350 410
#     4  12  24  44  68  98 130 180 236 300 350 418
#
# _framework density 22.44989
#
# number of rings (size 3 to 8) (size 9 to 14) (size 15 to 20)
#    0.000    0.727    5.455    1.636    2.545    1.455 
#    0.000    0.000    0.000    1.091    0.000    0.000 
#    0.000    0.000    0.000    0.000    0.000    0.000 
#
# Total GULP energy -123067.324324 kJ/mol
# GULP energy per Si atom -5593.969287 kJ/mol
# Density = 2.239879 g / cm^3
# Si number density = 22.449890 Si / 1000 Ang^3
#
#
#
# Elastic Constant Matrix: (Units=GPa)
#
#
# Indices 1 2 3 4 5 6 
#
# 1 142.3198 38.3381 43.1365 0.0000 -20.3117 0.0000
# 2 38.3381 115.8010 65.8431 0.0000 -18.8782 0.0000
# 3 43.1365 65.8431 159.6901 0.0000 -8.8290 0.0000
# 4 0.0000 0.0000 0.0000 27.6941 0.0000 -2.6605
# 5 -20.3117 -18.8782 -8.8290 0.0000 33.8820 0.0000
# 6 0.0000 0.0000 0.0000 -2.6605 0.0000 23.0841
#
#
#
# Elastic Compliance Matrix: (Units=1/GPa)
#
#
# Indices 1 2 3 4 5 6 
#
# 1 0.008391 -0.001271 -0.001526 0.000000 0.003925 0.000000
# 2 -0.001271 0.012432 -0.004507 0.000000 0.004991 0.000000
# 3 -0.001526 -0.004507 0.008465 0.000000 -0.001220 0.000000
# 4 0.000000 0.000000 0.000000 0.036513 0.000000 0.004208
# 5 0.003925 0.004991 -0.001220 0.000000 0.034330 0.000000
# 6 0.000000 0.000000 0.000000 0.004208 0.000000 0.043805
#
#
# Mechanical properties :
#
#
# Convention : Reuss Voigt Hill
#
# Bulk Modulus (GPa) = 68.11053 79.16070 73.63562
# Shear Modulus (GPa) = 30.59271 34.96491 32.77881
#
# Velocity S-wave (km/s) = 3.69550 3.95075 3.82526
# Velocity P-wave (km/s) = 6.97235 7.49326 7.23749
#
# Compressibility (1/GPa) = 0.01468202
#
# Stress axis : x y z
#
# Youngs Moduli (GPa) = 119.17039 80.43503 118.13203
#
# Poissons Ratio (x) = 0.10221 0.18024
# Poissons Ratio (y) = 0.15143 0.53241
# Poissons Ratio (z) = 0.18183 0.36251
#
# Static dielectric constant tensor:
#      x y z
#    x 1.863680 0.000000 -0.030330 
#    y 0.000000 1.799200 0.000000 
#    z -0.030330 0.000000 1.901140 
# 
# From -- ./inp_files/3689.got.cif
#   From: 2010.05.17/outbox.cif.g08.bks.cpg/sg13_2_cif.got.tgz:3689.got - 2010.06.03 16:44:36.
