data_PCOD9237168
_publ_section_title
;
Structure prediction by ZEFSAII (Michael W. Deem and Ramdas Pophale) SiO2 
 PCOD9237168
Probable space group: P 2/C
;
_chemical_formula_sum "Si O2"
_cell_formula_units_Z 16
_cell_length_a 10.929319
_cell_length_b 4.710642
_cell_length_c 15.826591
_cell_angle_alpha 90.000000
_cell_angle_beta 45.227452
_cell_angle_gamma 90.000000
_cell_volume 578.445989
_symmetry_space_group_name_H-M "P 2/C"
_symmetry_group_IT_number 13
_symmetry_cell_setting 'monoclinic'
loop_
_space_group_symop_operation_xyz
x,y,z
-x,y,1/2-z
-x,-y,-z
x,-y,1/2+z
loop_
_atom_site_type_symbol
_atom_site_label
_atom_site_fract_x
_atom_site_fract_y
_atom_site_fract_z
Si Si1 0.450859 0.916207 0.394274
Si Si2 0.827285 0.214866 0.870590
Si Si3 0.689558 0.579996 0.784898
Si Si4 0.844531 0.793167 0.550724
O O1 0.325658 0.998574 0.532500
O O2 0.624225 0.098459 0.320721
O O3 0.329399 0.017786 0.377189
O O4 0.512169 0.595730 0.358944
O O5 0.772829 0.446813 0.827960
O O6 0.867734 0.334166 0.945118
O O7 0.000000 0.073580 0.750000
O O8 0.806360 0.574388 0.644320
O O9 0.000000 0.000000 0.500000
#
# Coordination Sequence:
#
# PCOD9237168 Si02
#       4
#     4   4   4   4
#     4  10  27  50  83 121 164 221 280 351 420 498
#     4  10  26  52  81 125 171 227 272 355 429 507
#     4  12  25  55  83 120 168 220 290 349 418 512
#     4  10  27  52  82 127 173 226 282 355 427 509
#
# _framework density 27.660316999999999
#
# number of rings (size 3 to 8) (size 9 to 14) (size 15 to 20)
#    1.500    0.000    0.000    2.250    3.500    7.000 
#    4.500    0.000    0.000    0.000    0.000    0.000 
#    0.000    0.000    0.000    0.000    0.000    0.000 
#
# Total GULP energy -89670.897331 kJ/mol
# GULP energy per Si atom -5604.431083 kJ/mol
# Density = 2.759736 g / cm^3
# Si number density = 27.660317 Si / 1000 Ang^3
#
#
#
# Elastic Constant Matrix: (Units=GPa)
#
#
# Indices 1 2 3 4 5 6 
#
# 1 211.3512 38.8442 80.7194 0.0000 39.7844 0.0000
# 2 38.8442 74.2255 30.6362 0.0000 22.5748 0.0000
# 3 80.7194 30.6362 213.6024 0.0000 45.1457 0.0000
# 4 0.0000 0.0000 0.0000 53.7811 0.0000 0.9390
# 5 39.7844 22.5748 45.1457 0.0000 60.0950 0.0000
# 6 0.0000 0.0000 0.0000 0.9390 0.0000 38.1889
#
#
#
# Elastic Compliance Matrix: (Units=1/GPa)
#
#
# Indices 1 2 3 4 5 6 
#
# 1 0.006082 -0.001883 -0.001577 0.000000 -0.002134 0.000000
# 2 -0.001883 0.016038 -0.000688 0.000000 -0.004261 0.000000
# 3 -0.001577 -0.000688 0.006064 0.000000 -0.003253 0.000000
# 4 0.000000 0.000000 0.000000 0.018602 0.000000 -0.000457
# 5 -0.002134 -0.004261 -0.003253 0.000000 0.022098 0.000000
# 6 0.000000 0.000000 0.000000 -0.000457 0.000000 0.026197
#
#
# Mechanical properties :
#
#
# Convention : Reuss Voigt Hill
#
# Bulk Modulus (GPa) = 50.28346 88.84207 69.56276
# Shear Modulus (GPa) = 45.45283 53.67827 49.56555
#
# Velocity S-wave (km/s) = 4.05810 4.41003 4.23772
# Velocity P-wave (km/s) = 6.33845 7.62364 7.01056
#
# Compressibility (1/GPa) = 0.01988726
#
# Stress axis : x y z
#
# Youngs Moduli (GPa) = 164.43251 62.35298 164.91424
#
# Poissons Ratio (x) = 0.11739 0.26009
# Poissons Ratio (y) = 0.30956 0.11349
# Poissons Ratio (z) = 0.25933 0.04291
#
# Static dielectric constant tensor:
#      x y z
#    x 2.168490 0.000000 0.055770 
#    y 0.000000 2.068800 0.000000 
#    z 0.055770 0.000000 2.165790 
# 
# From -- ./inp_files/64997.got.cif
#   From: 2010.05.17/outbox.cif.g08.bks.cpg/sg13_33_cif.got.tgz:64997.got - 2010.06.03 16:44:36.
