data_PCOD9237566
_publ_section_title
;
Structure prediction by ZEFSAII (Michael W. Deem and Ramdas Pophale) SiO2 
 PCOD9237566
Probable space group: P 2/C
;
_chemical_formula_sum "Si O2"
_cell_formula_units_Z 20
_cell_length_a 11.545244
_cell_length_b 9.445613
_cell_length_c 8.387338
_cell_angle_alpha 90.000000
_cell_angle_beta 95.354621
_cell_angle_gamma 90.000000
_cell_volume 910.663818
_symmetry_space_group_name_H-M "P 2/C"
_symmetry_group_IT_number 13
_symmetry_cell_setting 'monoclinic'
loop_
_space_group_symop_operation_xyz
x,y,z
-x,y,1/2-z
-x,-y,-z
x,-y,1/2+z
loop_
_atom_site_type_symbol
_atom_site_label
_atom_site_fract_x
_atom_site_fract_y
_atom_site_fract_z
Si Si1 0.302273 0.934404 0.786067
Si Si2 0.087409 0.076705 0.893418
Si Si3 0.634528 0.545148 0.265650
Si Si4 0.727483 0.700422 0.959477
Si Si5 0.605722 0.829990 0.388771
O O1 0.174970 0.948899 0.848467
O O2 0.333552 0.825367 0.649878
O O3 0.300715 0.085896 0.701331
O O4 0.392379 0.901870 0.939175
O O5 0.000000 0.133499 0.750000
O O6 0.840412 0.789828 0.027531
O O7 0.000000 0.000000 0.000000
O O8 0.500000 0.490962 0.250000
O O9 0.725809 0.425831 0.328971
O O10 0.634529 0.665497 0.403349
O O11 0.665620 0.628907 0.105785
O O12 0.500000 0.840877 0.250000
#
# Coordination Sequence:
#
# PCOD9237566 Si02
#       5
#     4   4   4   4   4
#     4  12  22  43  72 106 142 190 246 303 354 423
#     4  12  24  46  77 103 137 185 247 312 375 400
#     4  11  25  46  70 108 155 196 227 283 370 443
#     4  12  25  46  76 106 146 193 245 300 353 453
#     4  11  22  39  66 107 150 186 236 286 356 437
#
# _framework density 21.962001000000001
#
# number of rings (size 3 to 8) (size 9 to 14) (size 15 to 20)
#    0.000    0.400    6.000    2.400    0.000    4.000 
#    0.000    1.000    0.000    0.000    0.000    0.000 
#    0.000    0.000    0.000    0.000    0.000    0.000 
#
# Total GULP energy -111350.766462 kJ/mol
# GULP energy per Si atom -5567.538323 kJ/mol
# Density = 2.191201 g / cm^3
# Si number density = 21.962001 Si / 1000 Ang^3
#
#
#
# Elastic Constant Matrix: (Units=GPa)
#
#
# Indices 1 2 3 4 5 6 
#
# 1 95.1627 39.2262 60.5283 0.0000 -0.8919 0.0000
# 2 39.2262 99.7588 46.6268 0.0000 12.5299 0.0000
# 3 60.5283 46.6268 133.3292 0.0000 32.2130 0.0000
# 4 0.0000 0.0000 0.0000 48.3119 0.0000 13.3553
# 5 -0.8919 12.5299 32.2130 0.0000 39.5612 0.0000
# 6 0.0000 0.0000 0.0000 13.3553 0.0000 30.2189
#
#
#
# Elastic Compliance Matrix: (Units=1/GPa)
#
#
# Indices 1 2 3 4 5 6 
#
# 1 0.017881 -0.004004 -0.008865 0.000000 0.008890 0.000000
# 2 -0.004004 0.012887 -0.002093 0.000000 -0.002468 0.000000
# 3 -0.008865 -0.002093 0.015119 0.000000 -0.011848 0.000000
# 4 0.000000 0.000000 0.000000 0.023580 0.000000 -0.010421
# 5 0.008890 -0.002468 -0.011848 0.000000 0.035906 0.000000
# 6 0.000000 0.000000 0.000000 -0.010421 0.000000 0.037697
#
#
# Mechanical properties :
#
#
# Convention : Reuss Voigt Hill
#
# Bulk Modulus (GPa) = 62.64419 69.00146 65.82282
# Shear Modulus (GPa) = 28.04044 35.74304 31.89174
#
# Velocity S-wave (km/s) = 3.57707 4.03860 3.81482
# Velocity P-wave (km/s) = 6.75621 7.29615 7.03137
#
# Compressibility (1/GPa) = 0.01596317
#
# Stress axis : x y z
#
# Youngs Moduli (GPa) = 55.92657 77.59973 66.14196
#
# Poissons Ratio (x) = 0.31071 0.58634
# Poissons Ratio (y) = 0.22393 0.13841
# Poissons Ratio (z) = 0.49578 0.16239
#
# Static dielectric constant tensor:
#      x y z
#    x 1.868150 0.000000 0.010880 
#    y 0.000000 1.896090 0.000000 
#    z 0.010880 0.000000 1.836300 
# 
# From -- ./inp_files/14984.got.cif
#   From: 2010.05.17/outbox.cif.g08.bks.cpg/sg13_8_cif.got.tgz:14984.got - 2010.06.03 16:44:36.
