data_PCOD9237599
_publ_section_title
;
Structure prediction by ZEFSAII (Michael W. Deem and Ramdas Pophale) SiO2 
 PCOD9237599
Probable space group: P 2/C
;
_chemical_formula_sum "Si O2"
_cell_formula_units_Z 28
_cell_length_a 28.271230
_cell_length_b 7.932319
_cell_length_c 9.658014
_cell_angle_alpha 90.000000
_cell_angle_beta 142.267018
_cell_angle_gamma 90.000000
_cell_volume 1325.475302
_symmetry_space_group_name_H-M "P 2/C"
_symmetry_group_IT_number 13
_symmetry_cell_setting 'monoclinic'
loop_
_space_group_symop_operation_xyz
x,y,z
-x,y,1/2-z
-x,-y,-z
x,-y,1/2+z
loop_
_atom_site_type_symbol
_atom_site_label
_atom_site_fract_x
_atom_site_fract_y
_atom_site_fract_z
Si Si1 0.945742 0.526499 0.745622
Si Si2 0.178584 0.691004 0.407379
Si Si3 0.410240 0.617990 0.520007
Si Si4 0.760398 0.070450 0.230287
Si Si5 0.083393 0.880273 0.964983
Si Si6 0.339882 0.050938 0.763631
Si Si7 0.661128 0.329768 0.341301
O O1 0.865827 0.453413 0.615084
O O2 0.927973 0.715227 0.655912
O O3 0.000000 0.449245 0.750000
O O4 0.000000 0.500000 0.000000
O O5 0.244622 0.658003 0.445737
O O6 0.228194 0.773462 0.643662
O O7 0.112646 0.808283 0.182020
O O8 0.401129 0.798873 0.419952
O O9 0.371269 0.471292 0.338381
O O10 0.370874 0.633075 0.580006
O O11 0.500000 0.580028 0.750000
O O12 0.844822 0.991009 0.414561
O O13 0.701134 0.958819 0.181835
O O14 0.724527 0.103642 0.998306
O O15 0.000000 0.968628 0.750000
O O16 0.362252 0.860476 0.766271
#
# Coordination Sequence:
#
# PCOD9237599 Si02
#       7
#     4   4   4   4   4   4   4
#     4  11  23  40  61  93 133 175 229 291 356 408
#     4  11  24  42  66  96 131 185 234 289 347 416
#     4  12  28  48  77 113 146 185 233 298 367 435
#     4  11  23  44  67  98 132 186 236 288 348 428
#     4  11  22  41  63  92 138 171 229 298 342 397
#     4  11  24  48  73 103 146 185 242 287 357 433
#     4  11  27  46  74 108 144 188 245 287 359 436
#
# _framework density 21.124497000000002
#
# number of rings (size 3 to 8) (size 9 to 14) (size 15 to 20)
#    0.000    0.857    7.143    0.429    8.000    3.429 
#    0.000    0.000    0.000    0.000    0.000    0.000 
#    0.000    0.000    0.000    0.000    0.000    0.000 
#
# Total GULP energy -156118.144831 kJ/mol
# GULP energy per Si atom -5575.648030 kJ/mol
# Density = 2.107642 g / cm^3
# Si number density = 21.124497 Si / 1000 Ang^3
#
#
#
# Elastic Constant Matrix: (Units=GPa)
#
#
# Indices 1 2 3 4 5 6 
#
# 1 107.5317 28.5166 25.7152 0.0000 -12.7772 0.0000
# 2 28.5166 58.5907 32.8515 0.0000 -7.5948 0.0000
# 3 25.7152 32.8515 95.7179 0.0000 -1.4077 0.0000
# 4 0.0000 0.0000 0.0000 35.3083 0.0000 -1.2369
# 5 -12.7772 -7.5948 -1.4077 0.0000 33.1614 0.0000
# 6 0.0000 0.0000 0.0000 -1.2369 0.0000 21.5981
#
#
#
# Elastic Compliance Matrix: (Units=1/GPa)
#
#
# Indices 1 2 3 4 5 6 
#
# 1 0.011154 -0.004149 -0.001525 0.000000 0.003283 0.000000
# 2 -0.004149 0.023382 -0.006859 0.000000 0.003465 0.000000
# 3 -0.001525 -0.006859 0.013188 0.000000 -0.001599 0.000000
# 4 0.000000 0.000000 0.000000 0.028379 0.000000 0.001625
# 5 0.003283 0.003465 -0.001599 0.000000 0.032146 0.000000
# 6 0.000000 0.000000 0.000000 0.001625 0.000000 0.046393
#
#
# Mechanical properties :
#
#
# Convention : Reuss Voigt Hill
#
# Bulk Modulus (GPa) = 44.13286 48.44520 46.28903
# Shear Modulus (GPa) = 26.70073 29.66403 28.18238
#
# Velocity S-wave (km/s) = 3.55909 3.75140 3.65651
# Velocity P-wave (km/s) = 6.15034 6.46119 6.30768
#
# Compressibility (1/GPa) = 0.02265885
#
# Stress axis : x y z
#
# Youngs Moduli (GPa) = 89.65049 42.76807 75.82834
#
# Poissons Ratio (x) = 0.17743 0.11561
# Poissons Ratio (y) = 0.37192 0.52014
# Poissons Ratio (z) = 0.13668 0.29337
#
# Static dielectric constant tensor:
#      x y z
#    x 1.895620 0.000000 0.061920 
#    y 0.000000 1.829380 0.000000 
#    z 0.061920 0.000000 1.752480 
# 
# From -- ./inp_files/24620.got.cif
#   From: 2010.05.17/outbox.cif.g08.bks.cpg/sg13_13_cif.got.tgz:24620.got - 2010.06.03 16:44:36.
