data_PCOD9237233
_publ_section_title
;
Structure prediction by ZEFSAII (Michael W. Deem and Ramdas Pophale) SiO2 
 PCOD9237233
Probable space group: P 2/C
;
_chemical_formula_sum "Si O2"
_cell_formula_units_Z 32
_cell_length_a 11.503975
_cell_length_b 10.491928
_cell_length_c 12.176355
_cell_angle_alpha 90.000000
_cell_angle_beta 104.638692
_cell_angle_gamma 90.000000
_cell_volume 1421.964943
_symmetry_space_group_name_H-M "P 2/C"
_symmetry_group_IT_number 13
_symmetry_cell_setting 'monoclinic'
loop_
_space_group_symop_operation_xyz
x,y,z
-x,y,1/2-z
-x,-y,-z
x,-y,1/2+z
loop_
_atom_site_type_symbol
_atom_site_label
_atom_site_fract_x
_atom_site_fract_y
_atom_site_fract_z
Si Si1 0.874327 0.497849 0.675717
Si Si2 0.264254 0.705463 0.734566
Si Si3 0.638149 0.881902 0.122508
Si Si4 0.599687 0.830434 0.550633
Si Si5 0.074642 0.928293 0.668889
Si Si6 0.956133 0.294330 0.014663
Si Si7 0.763614 0.154959 0.876062
Si Si8 0.221540 0.709447 0.482934
O O1 0.811875 0.581162 0.754949
O O2 0.915482 0.598825 0.590811
O O3 0.773909 0.402889 0.604318
O O4 0.000000 0.440950 0.750000
O O5 0.366901 0.728643 0.848553
O O6 0.172916 0.824400 0.731041
O O7 0.296675 0.705610 0.613751
O O8 0.670324 0.845536 0.253835
O O9 0.750876 0.840830 0.073286
O O10 0.603791 0.030237 0.108302
O O11 0.527085 0.810125 0.039253
O O12 0.696348 0.838931 0.475833
O O13 0.000000 0.989596 0.750000
O O14 0.979014 0.840792 0.581750
O O15 0.152451 0.031301 0.622922
O O16 0.853787 0.274075 0.900136
O O17 0.085172 0.311994 0.991153
#
# Coordination Sequence:
#
# PCOD9237233 Si02
#       8
#     4   4   4   4   4   4   4   4
#     4  12  22  42  68  98 138 184 219 268 342 416
#     4  11  21  44  70  91 135 179 225 271 341 412
#     4  11  27  42  67  99 131 170 233 286 333 398
#     4  11  23  48  69  90 129 184 225 281 344 395
#     4  11  19  35  58 100 141 174 215 263 344 424
#     4  11  22  38  63  96 137 179 215 265 345 414
#     4  12  24  37  66  97 139 174 217 286 334 408
#     4  11  27  41  63 107 135 173 229 274 331 409
#
# _framework density 22.504071
#
# number of rings (size 3 to 8) (size 9 to 14) (size 15 to 20)
#    0.000    0.750    6.250    2.625    3.500    0.500 
#    0.000    0.625    0.000    0.000    0.000    0.000 
#    0.000    0.000    0.000    0.000    0.000    0.000 
#
# Total GULP energy -178796.549237 kJ/mol
# GULP energy per Si atom -5587.392164 kJ/mol
# Density = 2.245285 g / cm^3
# Si number density = 22.504071 Si / 1000 Ang^3
#
#
#
# Elastic Constant Matrix: (Units=GPa)
#
#
# Indices 1 2 3 4 5 6 
#
# 1 32.8364 5.3687 9.6576 0.0000 11.3784 0.0000
# 2 5.3687 32.4679 23.7591 0.0000 5.7011 0.0000
# 3 9.6576 23.7591 115.7739 0.0000 30.4656 0.0000
# 4 0.0000 0.0000 0.0000 35.2173 0.0000 3.4832
# 5 11.3784 5.7011 30.4656 0.0000 38.3417 0.0000
# 6 0.0000 0.0000 0.0000 3.4832 0.0000 20.1530
#
#
#
# Elastic Compliance Matrix: (Units=1/GPa)
#
#
# Indices 1 2 3 4 5 6 
#
# 1 0.034484 -0.004435 0.000699 0.000000 -0.010130 0.000000
# 2 -0.004435 0.036826 -0.007704 0.000000 0.001962 0.000000
# 3 0.000699 -0.007704 0.012534 0.000000 -0.009021 0.000000
# 4 0.000000 0.000000 0.000000 0.028889 0.000000 -0.004993
# 5 -0.010130 0.001962 -0.009021 0.000000 0.035964 0.000000
# 6 0.000000 0.000000 0.000000 -0.004993 0.000000 0.050483
#
#
# Mechanical properties :
#
#
# Convention : Reuss Voigt Hill
#
# Bulk Modulus (GPa) = 16.40295 28.73877 22.57086
# Shear Modulus (GPa) = 20.62875 28.22857 24.42866
#
# Velocity S-wave (km/s) = 3.03094 3.54556 3.29830
# Velocity P-wave (km/s) = 4.42193 5.43687 4.95545
#
# Compressibility (1/GPa) = 0.06096466
#
# Stress axis : x y z
#
# Youngs Moduli (GPa) = 28.99930 27.15490 79.78242
#
# Poissons Ratio (x) = 0.12043 -0.05578
# Poissons Ratio (y) = 0.12861 0.61461
# Poissons Ratio (z) = -0.02027 0.20919
#
# Static dielectric constant tensor:
#      x y z
#    x 1.857030 0.000000 0.020400 
#    y 0.000000 1.840790 0.000000 
#    z 0.020400 0.000000 1.928810 
# 
# From -- ./inp_files/34183.got.cif
#   From: 2010.05.17/outbox.cif.g08.bks.cpg/sg13_18_cif.got.tgz:34183.got - 2010.06.03 16:44:36.
