data_PCOD9237430
_publ_section_title
;
Structure prediction by ZEFSAII (Michael W. Deem and Ramdas Pophale) SiO2 
 PCOD9237430
Probable space group: P 2/C
;
_chemical_formula_sum "Si O2"
_cell_formula_units_Z 20
_cell_length_a 14.989809
_cell_length_b 7.867827
_cell_length_c 21.146388
_cell_angle_alpha 90.000000
_cell_angle_beta 161.924603
_cell_angle_gamma 90.000000
_cell_volume 773.792344
_symmetry_space_group_name_H-M "P 2/C"
_symmetry_group_IT_number 13
_symmetry_cell_setting 'monoclinic'
loop_
_space_group_symop_operation_xyz
x,y,z
-x,y,1/2-z
-x,-y,-z
x,-y,1/2+z
loop_
_atom_site_type_symbol
_atom_site_label
_atom_site_fract_x
_atom_site_fract_y
_atom_site_fract_z
Si Si1 0.407867 0.822965 0.619031
Si Si2 0.329240 0.543574 0.239407
Si Si3 0.381400 0.124147 0.366887
Si Si4 0.895664 0.278891 0.110778
Si Si5 0.175057 0.642992 0.276805
O O1 0.500000 0.882118 0.750000
O O2 0.534294 0.633983 0.692283
O O3 0.540431 0.931375 0.650990
O O4 0.067808 0.789022 0.386816
O O5 0.561385 0.683783 0.371876
O O6 0.297315 0.608356 0.289948
O O7 0.000000 0.500000 0.000000
O O8 0.574621 0.292347 0.509195
O O9 0.056095 0.174111 0.163962
O O10 0.500000 0.000000 0.500000
O O11 0.000000 0.207908 0.250000
O O12 0.037424 0.467048 0.205894
#
# Coordination Sequence:
#
# PCOD9237430 Si02
#       5
#     4   4   4   4   4
#     4  11  23  41  70 103 143 185 240 306 383 441
#     4  11  21  39  71 110 146 178 234 317 390 432
#     4  12  26  45  69 104 145 199 250 298 359 454
#     4  11  22  38  70 106 143 182 245 313 362 432
#     4  11  21  42  71 103 143 180 241 312 373 436
#
# _framework density 25.846724999999999
#
# number of rings (size 3 to 8) (size 9 to 14) (size 15 to 20)
#    0.000    0.800    6.000    3.600    0.000    1.600 
#    0.000    1.000    0.000    1.200    0.000    0.000 
#    0.000    0.000    0.000    0.000    0.000    0.000 
#
# Total GULP energy -111859.407498 kJ/mol
# GULP energy per Si atom -5592.970375 kJ/mol
# Density = 2.578790 g / cm^3
# Si number density = 25.846725 Si / 1000 Ang^3
#
#
#
# Elastic Constant Matrix: (Units=GPa)
#
#
# Indices 1 2 3 4 5 6 
#
# 1 204.9383 30.4282 57.1793 0.0000 -9.0862 0.0000
# 2 30.4282 80.9896 23.6483 0.0000 11.8650 0.0000
# 3 57.1793 23.6483 165.6212 0.0000 30.6221 0.0000
# 4 0.0000 0.0000 0.0000 11.6267 0.0000 -12.3389
# 5 -9.0862 11.8650 30.6221 0.0000 41.2710 0.0000
# 6 0.0000 0.0000 0.0000 -12.3389 0.0000 11.5796
#
#
#
# Elastic Compliance Matrix: (Units=1/GPa)
#
#
# Indices 1 2 3 4 5 6 
#
# 1 0.006054 -0.002102 -0.002490 0.000000 0.003784 0.000000
# 2 -0.002102 0.013881 -0.000502 0.000000 -0.004081 0.000000
# 3 -0.002490 -0.000502 0.008164 0.000000 -0.006461 0.000000
# 4 0.000000 0.000000 0.000000 -0.657363 0.000000 -0.700465
# 5 0.003784 -0.004081 -0.006461 0.000000 0.031031 0.000000
# 6 0.000000 0.000000 0.000000 -0.700465 0.000000 -0.660034
#
#
# Mechanical properties :
#
#
# Convention : Reuss Voigt Hill
#
# Bulk Modulus (GPa) = 55.82782 74.89561 65.36171
# Shear Modulus (GPa) = -4.02541 35.58168 15.77814
#
# Velocity S-wave (km/s) = -1.24932 3.71434 2.47341
# Velocity P-wave (km/s) = 4.42328 6.88729 5.78793
#
# Compressibility (1/GPa) = 0.01791222
#
# Stress axis : x y z
#
# Youngs Moduli (GPa) = 165.17908 72.03882 122.49382
#
# Poissons Ratio (x) = 0.15142 0.30497
# Poissons Ratio (y) = 0.34720 0.06147
# Poissons Ratio (z) = 0.41124 0.03615
#
# Static dielectric constant tensor:
#      x y z
#    x 2.084090 0.000000 -0.011410 
#    y 0.000000 2.121540 0.000000 
#    z -0.011410 0.000000 2.136790 
# 
# From -- ./inp_files/75524.got.cif
#   From: 2010.05.17/outbox.cif.g08.bks.cpg/sg13_38_cif.got.tgz:75524.got - 2010.06.03 16:44:36.
