data_PCOD9237642
_publ_section_title
;
Structure prediction by ZEFSAII (Michael W. Deem and Ramdas Pophale) SiO2 
 PCOD9237642
Probable space group: P 2/C
;
_chemical_formula_sum "Si O2"
_cell_formula_units_Z 32
_cell_length_a 12.403735
_cell_length_b 13.393612
_cell_length_c 9.535679
_cell_angle_alpha 90.000000
_cell_angle_beta 100.773717
_cell_angle_gamma 90.000000
_cell_volume 1556.246112
_symmetry_space_group_name_H-M "P 2/C"
_symmetry_group_IT_number 13
_symmetry_cell_setting 'monoclinic'
loop_
_space_group_symop_operation_xyz
x,y,z
-x,y,1/2-z
-x,-y,-z
x,-y,1/2+z
loop_
_atom_site_type_symbol
_atom_site_label
_atom_site_fract_x
_atom_site_fract_y
_atom_site_fract_z
Si Si1 0.871197 0.362099 0.739826
Si Si2 0.922563 0.967187 0.356134
Si Si3 0.906732 0.668978 0.807983
Si Si4 0.115081 0.450228 0.447812
Si Si5 0.393795 0.148715 0.446456
Si Si6 0.628137 0.911972 0.041354
Si Si7 0.223412 0.151815 0.160081
Si Si8 0.266850 0.815206 0.180673
O O1 0.856514 0.441769 0.609735
O O2 0.783617 0.273690 0.737151
O O3 0.000000 0.330225 0.750000
O O4 0.856991 0.417029 0.888960
O O5 0.838444 0.882003 0.383713
O O6 0.000000 0.930928 0.250000
O O7 0.852820 0.064820 0.294675
O O8 0.000000 0.000000 0.500000
O O9 0.836977 0.621475 0.664548
O O10 0.839157 0.744752 0.881063
O O11 0.000000 0.733335 0.750000
O O12 0.985079 0.583618 0.895827
O O13 0.525110 0.155210 0.467153
O O14 0.324975 0.167138 0.289747
O O15 0.336040 0.209131 0.558422
O O16 0.385660 0.030141 0.478999
O O17 0.653451 0.883661 0.206548
O O18 0.733543 0.886894 0.976088
#
# Coordination Sequence:
#
# PCOD9237642 Si02
#       8
#     4   4   4   4   4   4   4   4
#     4  12  23  38  63  87 132 158 214 251 311 376
#     4  12  24  36  52  85 135 169 202 234 294 379
#     4   8  20  34  59  82 126 152 204 238 304 366
#     4   9  22  39  57  89 120 165 199 260 294 364
#     4  11  22  43  60  85 122 163 217 271 307 351
#     4  11  23  40  63  85 120 163 219 271 301 360
#     4  12  21  37  61  88 117 172 210 247 312 366
#     4  12  25  39  60  94 123 175 209 251 319 373
#
# _framework density 20.562301000000001
#
# number of rings (size 3 to 8) (size 9 to 14) (size 15 to 20)
#    0.750    0.250    3.750    4.125    3.500    2.000 
#    0.000    0.000    0.000    0.000    0.000   15.750 
#    0.000    0.000    0.000    0.000    0.000    0.000 
#
# Total GULP energy -178371.510342 kJ/mol
# GULP energy per Si atom -5574.109698 kJ/mol
# Density = 2.051550 g / cm^3
# Si number density = 20.562301 Si / 1000 Ang^3
#
#
#
# Elastic Constant Matrix: (Units=GPa)
#
#
# Indices 1 2 3 4 5 6 
#
# 1 55.6419 19.3008 -4.7075 0.0000 0.6178 0.0000
# 2 19.3008 69.6692 -2.9838 0.0000 -13.9865 0.0000
# 3 -4.7075 -2.9838 66.7222 0.0000 -4.7684 0.0000
# 4 0.0000 0.0000 0.0000 28.4625 0.0000 -6.7918
# 5 0.6178 -13.9865 -4.7684 0.0000 29.3305 0.0000
# 6 0.0000 0.0000 0.0000 -6.7918 0.0000 16.8302
#
#
#
# Elastic Compliance Matrix: (Units=1/GPa)
#
#
# Indices 1 2 3 4 5 6 
#
# 1 0.020243 -0.006220 0.000918 0.000000 -0.003243 0.000000
# 2 -0.006220 0.017891 0.000992 0.000000 0.008824 0.000000
# 3 0.000918 0.000992 0.015307 0.000000 0.002942 0.000000
# 4 0.000000 0.000000 0.000000 0.038878 0.000000 0.015689
# 5 -0.003243 0.008824 0.002942 0.000000 0.038848 0.000000
# 6 0.000000 0.000000 0.000000 0.015689 0.000000 0.065748
#
#
# Mechanical properties :
#
#
# Convention : Reuss Voigt Hill
#
# Bulk Modulus (GPa) = 22.31081 23.91691 23.11386
# Shear Modulus (GPa) = 22.67829 26.95288 24.81558
#
# Velocity S-wave (km/s) = 3.32461 3.62441 3.47774
# Velocity P-wave (km/s) = 5.06076 5.40110 5.23369
#
# Compressibility (1/GPa) = 0.04482131
#
# Stress axis : x y z
#
# Youngs Moduli (GPa) = 49.39905 55.89553 65.32989
#
# Poissons Ratio (x) = 0.34766 -0.05999
# Poissons Ratio (y) = 0.30726 -0.06479
# Poissons Ratio (z) = -0.04536 -0.05544
#
# Static dielectric constant tensor:
#      x y z
#    x 1.771970 0.000000 -0.007400 
#    y 0.000000 1.992320 0.000000 
#    z -0.007400 0.000000 1.797290 
# 
# From -- ./inp_files/16756.got.cif
#   From: 2010.05.17/outbox.cif.g08.bks.cpg/sg13_9_cif.got.tgz:16756.got - 2010.06.03 16:44:36.
