data_PCOD9237783
_publ_section_title
;
Structure prediction by ZEFSAII (Michael W. Deem and Ramdas Pophale) SiO2 
 PCOD9237783
Probable space group: P 2/C
;
_chemical_formula_sum "Si O2"
_cell_formula_units_Z 16
_cell_length_a 7.743595
_cell_length_b 19.054603
_cell_length_c 7.894189
_cell_angle_alpha 90.000000
_cell_angle_beta 143.856738
_cell_angle_gamma 90.000000
_cell_volume 687.004281
_symmetry_space_group_name_H-M "P 2/C"
_symmetry_group_IT_number 13
_symmetry_cell_setting 'monoclinic'
loop_
_space_group_symop_operation_xyz
x,y,z
-x,y,1/2-z
-x,-y,-z
x,-y,1/2+z
loop_
_atom_site_type_symbol
_atom_site_label
_atom_site_fract_x
_atom_site_fract_y
_atom_site_fract_z
Si Si1 0.682790 0.061814 0.059015
Si Si2 0.822479 0.694241 0.441604
Si Si3 0.717952 0.549926 0.268881
Si Si4 0.816606 0.181005 0.441117
O O1 0.746090 0.121333 0.247924
O O2 0.000000 0.035576 0.250000
O O3 0.500000 0.087444 0.750000
O O4 0.500000 0.000000 0.000000
O O5 0.500000 0.715929 0.250000
O O6 0.813445 0.629094 0.302157
O O7 0.992371 0.758948 0.495534
O O8 0.000000 0.669692 0.750000
O O9 0.500000 0.567451 0.250000
O O10 0.000000 0.500000 0.500000
O O11 0.500000 0.500000 0.000000
O O12 0.500000 0.208835 0.250000
O O13 0.000000 0.155115 0.750000
#
# Coordination Sequence:
#
# PCOD9237783 Si02
#       4
#     4   4   4   4
#     4  12  27  50  77 107 146 193 239 296 359 430
#     4  11  24  46  70 100 140 189 237 291 359 430
#     4  11  23  41  66  97 135 179 229 285 349 419
#     4  12  27  47  73 110 146 187 242 302 359 427
#
# _framework density 23.289518000000001
#
# number of rings (size 3 to 8) (size 9 to 14) (size 15 to 20)
#    0.000    0.500    0.000    9.000    0.000    7.000 
#    0.000    0.000    0.000    0.000    0.000    0.000 
#    0.000    0.000    0.000    0.000    0.000    0.000 
#
# Total GULP energy -89472.787089 kJ/mol
# GULP energy per Si atom -5592.049193 kJ/mol
# Density = 2.323651 g / cm^3
# Si number density = 23.289518 Si / 1000 Ang^3
#
#
#
# Elastic Constant Matrix: (Units=GPa)
#
#
# Indices 1 2 3 4 5 6 
#
# 1 127.5235 85.9763 64.6015 0.0000 41.2052 0.0000
# 2 85.9763 214.5364 77.4953 0.0000 9.9166 0.0000
# 3 64.6015 77.4953 207.8772 0.0000 16.9247 0.0000
# 4 0.0000 0.0000 0.0000 43.2925 0.0000 13.5646
# 5 41.2052 9.9166 16.9247 0.0000 70.6855 0.0000
# 6 0.0000 0.0000 0.0000 13.5646 0.0000 20.5807
#
#
#
# Elastic Compliance Matrix: (Units=1/GPa)
#
#
# Indices 1 2 3 4 5 6 
#
# 1 0.014414 -0.004665 -0.002151 0.000000 -0.007233 0.000000
# 2 -0.004665 0.006902 -0.001291 0.000000 0.002060 0.000000
# 3 -0.002151 -0.001291 0.005960 0.000000 0.000008 0.000000
# 4 0.000000 0.000000 0.000000 0.029110 0.000000 -0.019186
# 5 -0.007233 0.002060 0.000008 0.000000 0.018072 0.000000
# 6 0.000000 0.000000 0.000000 -0.019186 0.000000 0.061235
#
#
# Mechanical properties :
#
#
# Convention : Reuss Voigt Hill
#
# Bulk Modulus (GPa) = 90.41080 111.78703 101.09892
# Shear Modulus (GPa) = 32.13492 48.36933 40.25212
#
# Velocity S-wave (km/s) = 3.71860 4.56221 4.16184
# Velocity P-wave (km/s) = 7.57245 8.70947 8.16078
#
# Compressibility (1/GPa) = 0.01106063
#
# Stress axis : x y z
#
# Youngs Moduli (GPa) = 69.37886 144.89015 167.79333
#
# Poissons Ratio (x) = 0.67589 0.36099
# Poissons Ratio (y) = 0.32364 0.21662
# Poissons Ratio (z) = 0.14926 0.18705
#
# Static dielectric constant tensor:
#      x y z
#    x 1.873500 0.000000 -0.057860 
#    y 0.000000 1.535080 0.000000 
#    z -0.057860 0.000000 1.874620 
# 
# From -- ./inp_files/13222.got.cif
#   From: 2010.05.17/outbox.cif.g08.bks.cpg/sg13_7_cif.got.tgz:13222.got - 2010.06.03 16:44:36.
