data_PCOD9237798
_publ_section_title
;
Structure prediction by ZEFSAII (Michael W. Deem and Ramdas Pophale) SiO2 
 PCOD9237798
Probable space group: P 2/C
;
_chemical_formula_sum "Si O2"
_cell_formula_units_Z 14
_cell_length_a 8.962730
_cell_length_b 7.021224
_cell_length_c 8.003358
_cell_angle_alpha 90.000000
_cell_angle_beta 85.429433
_cell_angle_gamma 90.000000
_cell_volume 502.044375
_symmetry_space_group_name_H-M "P 2/C"
_symmetry_group_IT_number 13
_symmetry_cell_setting 'monoclinic'
loop_
_space_group_symop_operation_xyz
x,y,z
-x,y,1/2-z
-x,-y,-z
x,-y,1/2+z
loop_
_atom_site_type_symbol
_atom_site_label
_atom_site_fract_x
_atom_site_fract_y
_atom_site_fract_z
Si Si1 0.568649 0.799220 0.922233
Si Si2 0.171294 0.758212 0.189746
Si Si3 0.164190 0.318441 0.293476
Si Si4 0.500000 0.221431 0.750000
O O1 0.500000 0.760112 0.750000
O O2 0.739093 0.777678 0.861921
O O3 0.516416 0.668803 0.077795
O O4 0.500000 0.000000 0.000000
O O5 0.181881 0.545976 0.268428
O O6 0.324167 0.856856 0.250367
O O7 0.000000 0.824531 0.250000
O O8 0.186432 0.742544 0.985332
O O9 0.000000 0.272149 0.250000
#
# Coordination Sequence:
#
# PCOD9237798 Si02
#       4
#     4   4   4   2
#     4  12  25  45  67  96 134 183 236 281 329 399
#     4  11  23  41  69 108 143 174 220 281 345 418
#     4  11  23  43  68 102 140 179 222 281 345 406
#     4  12  24  42  72 102 140 180 226 278 346 406
#
# _framework density 27.885983
#
# number of rings (size 3 to 8) (size 9 to 14) (size 15 to 20)
#    0.000    0.571    4.286    6.857    2.000    2.286 
#    0.000    2.857    0.000    0.000    0.000    0.000 
#    0.000    0.000    0.000    0.000    0.000    0.000 
#
# Total GULP energy -78097.196744 kJ/mol
# GULP energy per Si atom -5578.371196 kJ/mol
# Density = 2.782251 g / cm^3
# Si number density = 27.885983 Si / 1000 Ang^3
#
#
#
# Elastic Constant Matrix: (Units=GPa)
#
#
# Indices 1 2 3 4 5 6 
#
# 1 265.5453 24.0270 85.6090 0.0000 -26.3001 0.0000
# 2 24.0270 94.3384 9.5019 0.0000 -6.2503 0.0000
# 3 85.6090 9.5019 275.6888 0.0000 -19.4839 0.0000
# 4 0.0000 0.0000 0.0000 35.0437 0.0000 12.3299
# 5 -26.3001 -6.2503 -19.4839 0.0000 73.1515 0.0000
# 6 0.0000 0.0000 0.0000 12.3299 0.0000 -47.6591
#
#
#
# Elastic Compliance Matrix: (Units=1/GPa)
#
#
# Indices 1 2 3 4 5 6 
#
# 1 0.004363 -0.000909 -0.001242 0.000000 0.001160 0.000000
# 2 -0.000909 0.010876 -0.000051 0.000000 0.000589 0.000000
# 3 -0.001242 -0.000051 0.004059 0.000000 0.000630 0.000000
# 4 0.000000 0.000000 0.000000 0.026155 0.000000 0.006767
# 5 0.001160 0.000589 0.000630 0.000000 0.014306 0.000000
# 6 0.000000 0.000000 0.000000 0.006767 0.000000 -0.019232
#
#
# Mechanical properties :
#
#
# Convention : Reuss Voigt Hill
#
# Bulk Modulus (GPa) = 67.13784 97.09425 82.11604
# Shear Modulus (GPa) = 100.20894 46.53620 73.37257
#
# Velocity S-wave (km/s) = 6.00110 4.08953 5.13505
# Velocity P-wave (km/s) = 8.49387 7.56260 8.04172
#
# Compressibility (1/GPa) = 0.01489473
#
# Stress axis : x y z
#
# Youngs Moduli (GPa) = 229.18378 91.94661 246.35819
#
# Poissons Ratio (x) = 0.08361 0.30587
# Poissons Ratio (y) = 0.20841 0.01253
# Poissons Ratio (z) = 0.28455 0.00468
#
# Static dielectric constant tensor:
#      x y z
#    x 1.760910 0.000000 0.520920 
#    y 0.000000 2.420760 0.000000 
#    z 0.520920 0.000000 2.052930 
# 
# From -- ./inp_files/10669.got.cif
#   From: 2010.05.17/outbox.cif.g08.bks.cpg/sg13_6_cif.got.tgz:10669.got - 2010.06.03 16:44:36.
