data_PCOD9237990
_publ_section_title
;
Structure prediction by ZEFSAII (Michael W. Deem and Ramdas Pophale) SiO2 
 PCOD9237990
Probable space group: P 2/C
;
_chemical_formula_sum "Si O2"
_cell_formula_units_Z 24
_cell_length_a 16.603520
_cell_length_b 7.137915
_cell_length_c 23.032538
_cell_angle_alpha 90.000000
_cell_angle_beta 20.141809
_cell_angle_gamma 90.000000
_cell_volume 939.954753
_symmetry_space_group_name_H-M "P 2/C"
_symmetry_group_IT_number 13
_symmetry_cell_setting 'monoclinic'
loop_
_space_group_symop_operation_xyz
x,y,z
-x,y,1/2-z
-x,-y,-z
x,-y,1/2+z
loop_
_atom_site_type_symbol
_atom_site_label
_atom_site_fract_x
_atom_site_fract_y
_atom_site_fract_z
Si Si1 0.379998 0.244787 0.691384
Si Si2 0.643732 0.454379 0.079720
Si Si3 0.000000 0.536730 0.750000
Si Si4 0.500000 0.130846 0.250000
Si Si5 0.019323 0.024475 0.404562
Si Si6 0.038139 0.541757 0.906229
Si Si7 0.818000 0.094933 0.328406
O O1 0.503552 0.352999 0.661377
O O2 0.161967 0.109543 0.851368
O O3 0.572384 0.125570 0.526460
O O4 0.262219 0.417637 0.736569
O O5 0.819752 0.482504 0.014365
O O6 0.205572 0.426318 0.580503
O O7 0.503015 0.269616 0.192111
O O8 0.907896 0.686637 0.764203
O O9 0.255969 0.019481 0.414989
O O10 0.070230 0.239340 0.380346
O O11 0.143408 0.991060 0.257646
O O12 0.000000 0.500000 0.000000
O O13 0.000000 0.006029 0.250000
#
# Coordination Sequence:
#
# PCOD9237990 Si02
#       7
#     4   4   2   2   4   4   4
#     4  11  25  48  83 114 158 209 270 336 402 479
#     4  11  23  54  76 118 165 209 272 338 410 479
#     4   8  18  44  82 108 156 220 256 334 406 460
#     4  12  28  48  84 114 168 222 264 334 414 482
#     4  12  26  50  77 122 159 213 275 334 409 492
#     4  12  27  51  78 113 165 205 268 335 402 492
#     4   9  20  47  78 116 162 207 264 338 405 469
#
# _framework density 25.533142999999999
#
# number of rings (size 3 to 8) (size 9 to 14) (size 15 to 20)
#    0.500    0.667    3.333    1.500    0.000    4.667 
#   13.500    0.000    0.000    0.000    0.000    0.000 
#    0.000    0.000    0.000    0.000    0.000    0.000 
#
# Total GULP energy -134283.880945 kJ/mol
# GULP energy per Si atom -5595.161706 kJ/mol
# Density = 2.547503 g / cm^3
# Si number density = 25.533143 Si / 1000 Ang^3
#
#
#
# Elastic Constant Matrix: (Units=GPa)
#
#
# Indices 1 2 3 4 5 6 
#
# 1 128.6064 27.2757 41.0622 0.0000 -24.2665 0.0000
# 2 27.2757 100.0392 43.3662 0.0000 -13.3366 0.0000
# 3 41.0622 43.3662 141.6298 0.0000 -24.6926 0.0000
# 4 0.0000 0.0000 0.0000 -10.2786 0.0000 24.5148
# 5 -24.2665 -13.3366 -24.6926 0.0000 52.2636 0.0000
# 6 0.0000 0.0000 0.0000 24.5148 0.0000 26.4212
#
#
#
# Elastic Compliance Matrix: (Units=1/GPa)
#
#
# Indices 1 2 3 4 5 6 
#
# 1 0.009196 -0.001351 -0.001709 0.000000 0.003118 0.000000
# 2 -0.001351 0.011818 -0.003063 0.000000 0.000941 0.000000
# 3 -0.001709 -0.003063 0.008957 0.000000 0.002657 0.000000
# 4 0.000000 0.000000 0.000000 -0.030280 0.000000 0.028096
# 5 0.003118 0.000941 0.002657 0.000000 0.022077 0.000000
# 6 0.000000 0.000000 0.000000 0.028096 0.000000 0.011780
#
#
# Mechanical properties :
#
#
# Convention : Reuss Voigt Hill
#
# Bulk Modulus (GPa) = 56.41532 65.96485 61.19009
# Shear Modulus (GPa) = 96.71023 30.91931 63.81477
#
# Velocity S-wave (km/s) = 6.16105 3.48364 5.00472
# Velocity P-wave (km/s) = 8.52962 6.48630 7.57715
#
# Compressibility (1/GPa) = 0.01772568
#
# Stress axis : x y z
#
# Youngs Moduli (GPa) = 108.74185 84.62000 111.64273
#
# Poissons Ratio (x) = 0.11431 0.19080
# Poissons Ratio (y) = 0.14689 0.34193
# Poissons Ratio (z) = 0.18584 0.25917
#
# Static dielectric constant tensor:
#      x y z
#    x 2.034260 0.000000 0.020620 
#    y 0.000000 1.993820 0.000000 
#    z 0.020620 0.000000 2.061490 
# 
# From -- ./inp_files/87887.got.cif
#   From: 2010.05.17/outbox.cif.g08.bks.cpg/sg13_44_cif.got.tgz:87887.got - 2010.06.03 16:44:36.
