data_PCOD9237894
_publ_section_title
;
Structure prediction by ZEFSAII (Michael W. Deem and Ramdas Pophale) SiO2 
 PCOD9237894
Probable space group: P 2/C
;
_chemical_formula_sum "Si O2"
_cell_formula_units_Z 26
_cell_length_a 12.894454
_cell_length_b 5.704685
_cell_length_c 21.395202
_cell_angle_alpha 90.000000
_cell_angle_beta 125.124480
_cell_angle_gamma 90.000000
_cell_volume 1287.221640
_symmetry_space_group_name_H-M "P 2/C"
_symmetry_group_IT_number 13
_symmetry_cell_setting 'monoclinic'
loop_
_space_group_symop_operation_xyz
x,y,z
-x,y,1/2-z
-x,-y,-z
x,-y,1/2+z
loop_
_atom_site_type_symbol
_atom_site_label
_atom_site_fract_x
_atom_site_fract_y
_atom_site_fract_z
Si Si1 0.065827 0.314206 0.479025
Si Si2 0.351422 0.018715 0.928293
Si Si3 0.500000 0.327105 0.750000
Si Si4 0.727619 0.477175 0.039864
Si Si5 0.611856 0.375443 0.377880
Si Si6 0.188384 0.955106 0.609860
Si Si7 0.622686 0.032004 0.207092
O O1 0.136418 0.437722 0.446111
O O2 0.000000 0.500000 0.500000
O O3 0.951379 0.140038 0.421507
O O4 0.163634 0.182975 0.558962
O O5 0.295593 0.766336 0.931303
O O6 0.334714 0.022403 0.847815
O O7 0.293750 0.266308 0.935061
O O8 0.500000 0.000000 0.000000
O O9 0.385694 0.479546 0.685186
O O10 0.465015 0.173632 0.796767
O O11 0.629272 0.486993 0.947799
O O12 0.728839 0.200522 0.409701
O O13 0.474879 0.249987 0.329815
O O14 0.269816 0.959512 0.701964
#
# Coordination Sequence:
#
# PCOD9237894 Si02
#       7
#     4   4   2   4   4   4   4
#     4  11  25  43  76  98 132 189 240 300 345 414
#     4  12  27  45  70 103 145 192 228 280 358 441
#     4  12  22  36  66 106 138 174 222 296 368 410
#     4  12  26  46  69 102 143 185 242 282 345 434
#     4  12  22  39  71 103 143 175 226 301 365 419
#     4  11  23  44  67 107 140 177 240 300 362 409
#     4  12  25  41  67 106 142 183 226 297 360 424
#
# _framework density 20.198540999999999
#
# number of rings (size 3 to 8) (size 9 to 14) (size 15 to 20)
#    0.000    0.308    6.154    3.231    4.308    0.000 
#    0.000    0.769    0.000    0.000    0.000    0.000 
#    0.000    0.000    0.000    0.000    0.000    0.000 
#
# Total GULP energy -144984.648141 kJ/mol
# GULP energy per Si atom -5576.332621 kJ/mol
# Density = 2.015257 g / cm^3
# Si number density = 20.198541 Si / 1000 Ang^3
#
#
#
# Elastic Constant Matrix: (Units=GPa)
#
#
# Indices 1 2 3 4 5 6 
#
# 1 112.4182 58.1285 36.1798 0.0000 -15.9341 0.0000
# 2 58.1285 116.6868 32.6601 0.0000 -19.0447 0.0000
# 3 36.1798 32.6601 100.7834 0.0000 -13.8674 0.0000
# 4 0.0000 0.0000 0.0000 52.9651 0.0000 -9.8010
# 5 -15.9341 -19.0447 -13.8674 0.0000 43.4750 0.0000
# 6 0.0000 0.0000 0.0000 -9.8010 0.0000 66.0808
#
#
#
# Elastic Compliance Matrix: (Units=1/GPa)
#
#
# Indices 1 2 3 4 5 6 
#
# 1 0.012722 -0.005362 -0.002626 0.000000 0.001476 0.000000
# 2 -0.005362 0.012160 -0.001624 0.000000 0.002843 0.000000
# 3 -0.002626 -0.001624 0.011674 0.000000 0.002049 0.000000
# 4 0.000000 0.000000 0.000000 0.019413 0.000000 0.002879
# 5 0.001476 0.002843 0.002049 0.000000 0.025442 0.000000
# 6 0.000000 0.000000 0.000000 0.002879 0.000000 0.015560
#
#
# Mechanical properties :
#
#
# Convention : Reuss Voigt Hill
#
# Bulk Modulus (GPa) = 57.70241 64.86946 61.28593
# Shear Modulus (GPa) = 40.99281 46.03217 43.51249
#
# Velocity S-wave (km/s) = 4.50988 4.77905 4.64641
# Velocity P-wave (km/s) = 7.46648 7.91442 7.69371
#
# Compressibility (1/GPa) = 0.01733030
#
# Stress axis : x y z
#
# Youngs Moduli (GPa) = 78.60260 82.23938 85.66369
#
# Poissons Ratio (x) = 0.44093 0.22499
# Poissons Ratio (y) = 0.42143 0.13916
# Poissons Ratio (z) = 0.20645 0.13360
#
# Static dielectric constant tensor:
#      x y z
#    x 1.732780 0.000000 0.024500 
#    y 0.000000 1.836390 0.000000 
#    z 0.024500 0.000000 1.698200 
# 
# From -- ./inp_files/77177.got.cif
#   From: 2010.05.17/outbox.cif.g08.bks.cpg/sg13_39_cif.got.tgz:77177.got - 2010.06.03 16:44:36.
