data_PCOD9237153
_publ_section_title
;
Structure prediction by ZEFSAII (Michael W. Deem and Ramdas Pophale) SiO2 
 PCOD9237153
Probable space group: P 2/C
;
_chemical_formula_sum "Si O2"
_cell_formula_units_Z 20
_cell_length_a 14.940817
_cell_length_b 6.458679
_cell_length_c 9.986282
_cell_angle_alpha 90.000000
_cell_angle_beta 84.098031
_cell_angle_gamma 90.000000
_cell_volume 958.547586
_symmetry_space_group_name_H-M "P 2/C"
_symmetry_group_IT_number 13
_symmetry_cell_setting 'monoclinic'
loop_
_space_group_symop_operation_xyz
x,y,z
-x,y,1/2-z
-x,-y,-z
x,-y,1/2+z
loop_
_atom_site_type_symbol
_atom_site_label
_atom_site_fract_x
_atom_site_fract_y
_atom_site_fract_z
Si Si1 0.439093 0.786858 0.009285
Si Si2 0.500000 0.497168 0.250000
Si Si3 0.903098 0.555931 0.950822
Si Si4 0.000000 0.873691 0.750000
Si Si5 0.771956 0.821106 0.414106
Si Si6 0.152304 0.897357 0.367827
O O1 0.455414 0.660440 0.867053
O O2 0.458361 0.654521 0.143492
O O3 0.331818 0.811721 0.032668
O O4 0.500000 0.000000 0.000000
O O5 0.837209 0.380558 0.905096
O O6 0.929530 0.724122 0.834581
O O7 0.850755 0.665028 0.079496
O O8 0.000000 0.500000 0.000000
O O9 0.054178 0.023361 0.839814
O O10 0.782005 0.917288 0.266335
O O11 0.817437 0.964463 0.515823
#
# Coordination Sequence:
#
# PCOD9237153 Si02
#       6
#     4   2   4   2   4   4
#     4  11  27  49  79 110 151 191 243 315 384 449
#     4  10  26  50  78 112 142 192 244 302 386 464
#     4  12  24  44  68  99 145 190 240 295 358 428
#     4  12  22  46  66 104 150 196 244 300 368 426
#     4  12  29  44  75 106 144 191 246 300 368 443
#     4  12  26  45  68 106 143 192 244 299 356 441
#
# _framework density 20.864901
#
# number of rings (size 3 to 8) (size 9 to 14) (size 15 to 20)
#    0.000    0.400    4.000    3.600    8.400    1.600 
#    0.000    0.000    0.000    0.000    0.000    0.000 
#    0.000    0.000    0.000    0.000    0.000    0.000 
#
# Total GULP energy -111504.131682 kJ/mol
# GULP energy per Si atom -5575.206584 kJ/mol
# Density = 2.081741 g / cm^3
# Si number density = 20.864901 Si / 1000 Ang^3
#
#
#
# Elastic Constant Matrix: (Units=GPa)
#
#
# Indices 1 2 3 4 5 6 
#
# 1 90.9556 23.0902 17.4312 0.0000 -15.9741 0.0000
# 2 23.0902 66.4790 22.3297 0.0000 -8.1598 0.0000
# 3 17.4312 22.3297 138.4408 0.0000 -18.9527 0.0000
# 4 0.0000 0.0000 0.0000 31.0491 0.0000 -20.7982
# 5 -15.9741 -8.1598 -18.9527 0.0000 22.7788 0.0000
# 6 0.0000 0.0000 0.0000 -20.7982 0.0000 -7.1256
#
#
#
# Elastic Compliance Matrix: (Units=1/GPa)
#
#
# Indices 1 2 3 4 5 6 
#
# 1 0.013332 -0.003646 0.000012 0.000000 0.008053 0.000000
# 2 -0.003646 0.017234 -0.002060 0.000000 0.001903 0.000000
# 3 0.000012 -0.002060 0.008412 0.000000 0.006270 0.000000
# 4 0.000000 0.000000 0.000000 0.010899 0.000000 -0.031811
# 5 0.008053 0.001903 0.006270 0.000000 0.055446 0.000000
# 6 0.000000 0.000000 0.000000 -0.031811 0.000000 -0.047489
#
#
# Mechanical properties :
#
#
# Convention : Reuss Voigt Hill
#
# Bulk Modulus (GPa) = 36.24522 46.84195 41.54359
# Shear Modulus (GPa) = 63.75969 24.87542 44.31755
#
# Velocity S-wave (km/s) = 5.53396 3.45659 4.61371
# Velocity P-wave (km/s) = 7.63165 6.19916 6.95239
#
# Compressibility (1/GPa) = 0.02758984
#
# Stress axis : x y z
#
# Youngs Moduli (GPa) = 75.00728 58.02377 118.87152
#
# Poissons Ratio (x) = 0.21156 -0.00142
# Poissons Ratio (y) = 0.27349 0.24490
# Poissons Ratio (z) = -0.00090 0.11954
#
# Static dielectric constant tensor:
#      x y z
#    x 1.275480 0.000000 0.153890 
#    y 0.000000 1.791390 0.000000 
#    z 0.153890 0.000000 1.742770 
# 
# From -- ./inp_files/20533.got.cif
#   From: 2010.05.17/outbox.cif.g08.bks.cpg/sg13_11_cif.got.tgz:20533.got - 2010.06.03 16:44:36.
