data_PCOD9237381
_publ_section_title
;
Structure prediction by ZEFSAII (Michael W. Deem and Ramdas Pophale) SiO2 
 PCOD9237381
Probable space group: P 2/C
;
_chemical_formula_sum "Si O2"
_cell_formula_units_Z 20
_cell_length_a 10.102445
_cell_length_b 7.922738
_cell_length_c 22.400617
_cell_angle_alpha 90.000000
_cell_angle_beta 27.688199
_cell_angle_gamma 90.000000
_cell_volume 833.099269
_symmetry_space_group_name_H-M "P 2/C"
_symmetry_group_IT_number 13
_symmetry_cell_setting 'monoclinic'
loop_
_space_group_symop_operation_xyz
x,y,z
-x,y,1/2-z
-x,-y,-z
x,-y,1/2+z
loop_
_atom_site_type_symbol
_atom_site_label
_atom_site_fract_x
_atom_site_fract_y
_atom_site_fract_z
Si Si1 0.019886 0.310796 0.969484
Si Si2 0.887813 0.144031 0.684203
Si Si3 0.592486 0.806591 0.827298
Si Si4 0.435470 0.200975 0.521853
Si Si5 0.836986 0.194559 0.463158
O O1 0.172727 0.271329 0.845378
O O2 0.695089 0.244979 0.091381
O O3 0.000000 0.500000 0.000000
O O4 0.177845 0.223207 0.961139
O O5 0.098295 0.227055 0.648236
O O6 0.657898 0.010695 0.800588
O O7 0.100456 0.004151 0.570079
O O8 0.865986 0.732841 0.683115
O O9 0.577062 0.745786 0.902210
O O10 0.588184 0.267443 0.520416
O O11 0.500000 0.000000 0.500000
#
# Coordination Sequence:
#
# PCOD9237381 Si02
#       5
#     4   4   4   4   4
#     4  11  21  37  58  88 128 165 204 248 302 361
#     4   8  19  34  60  84 122 155 200 247 303 365
#     4   9  19  34  59  84 122 161 199 245 306 364
#     4   9  16  31  57  94 110 148 201 256 298 355
#     4   9  18  33  61  85 122 154 200 249 305 361
#
# _framework density 24.006744999999999
#
# number of rings (size 3 to 8) (size 9 to 14) (size 15 to 20)
#    1.200    1.600    0.000    1.800    0.000    0.000 
#    0.000    4.000   35.200    0.000    5.200    0.000 
#    0.000    0.000    0.000    0.000    0.000    0.000 
#
# Total GULP energy -111440.557464 kJ/mol
# GULP energy per Si atom -5572.027873 kJ/mol
# Density = 2.395210 g / cm^3
# Si number density = 24.006745 Si / 1000 Ang^3
#
#
#
# Elastic Constant Matrix: (Units=GPa)
#
#
# Indices 1 2 3 4 5 6 
#
# 1 210.8967 23.5215 48.8285 0.0000 2.1345 0.0000
# 2 23.5215 34.7504 13.8335 0.0000 -4.1398 0.0000
# 3 48.8285 13.8335 99.7176 0.0000 -4.6712 0.0000
# 4 0.0000 0.0000 0.0000 10.0961 0.0000 3.8546
# 5 2.1345 -4.1398 -4.6712 0.0000 40.5127 0.0000
# 6 0.0000 0.0000 0.0000 3.8546 0.0000 -40.8308
#
#
#
# Elastic Compliance Matrix: (Units=1/GPa)
#
#
# Indices 1 2 3 4 5 6 
#
# 1 0.005634 -0.002967 -0.002388 0.000000 -0.000875 0.000000
# 2 -0.002967 0.032305 -0.002882 0.000000 0.003125 0.000000
# 3 -0.002388 -0.002882 0.011653 0.000000 0.001175 0.000000
# 4 0.000000 0.000000 0.000000 0.095602 0.000000 0.009025
# 5 -0.000875 0.003125 0.001175 0.000000 0.025185 0.000000
# 6 0.000000 0.000000 0.000000 0.009025 0.000000 -0.023639
#
#
# Mechanical properties :
#
#
# Convention : Reuss Voigt Hill
#
# Bulk Modulus (GPa) = 30.19664 57.52574 43.86119
# Shear Modulus (GPa) = 28.69376 19.23434 23.96405
#
# Velocity S-wave (km/s) = 3.46097 2.83363 3.16289
# Velocity P-wave (km/s) = 5.34573 5.89239 5.62570
#
# Compressibility (1/GPa) = 0.03311626
#
# Stress axis : x y z
#
# Youngs Moduli (GPa) = 177.47993 30.95517 85.81700
#
# Poissons Ratio (x) = 0.09185 0.20496
# Poissons Ratio (y) = 0.52664 0.24734
# Poissons Ratio (z) = 0.42389 0.08922
#
# Static dielectric constant tensor:
#      x y z
#    x 2.036250 0.000000 -0.039600 
#    y 0.000000 2.034710 0.000000 
#    z -0.039600 0.000000 2.071150 
# 
# From -- ./inp_files/75508.got.cif
#   From: 2010.05.17/outbox.cif.g08.bks.cpg/sg13_38_cif.got.tgz:75508.got - 2010.06.03 16:44:36.
