data_PCOD9237526
_publ_section_title
;
Structure prediction by ZEFSAII (Michael W. Deem and Ramdas Pophale) SiO2 
 PCOD9237526
Probable space group: P 2/C
;
_chemical_formula_sum "Si O2"
_cell_formula_units_Z 28
_cell_length_a 20.838706
_cell_length_b 8.454488
_cell_length_c 14.269195
_cell_angle_alpha 90.000000
_cell_angle_beta 147.708338
_cell_angle_gamma 90.000000
_cell_volume 1343.028614
_symmetry_space_group_name_H-M "P 2/C"
_symmetry_group_IT_number 13
_symmetry_cell_setting 'monoclinic'
loop_
_space_group_symop_operation_xyz
x,y,z
-x,y,1/2-z
-x,-y,-z
x,-y,1/2+z
loop_
_atom_site_type_symbol
_atom_site_label
_atom_site_fract_x
_atom_site_fract_y
_atom_site_fract_z
Si Si1 0.828923 0.901875 0.777108
Si Si2 0.357130 0.467222 0.062934
Si Si3 0.540896 0.181787 0.546380
Si Si4 0.044919 0.894681 0.903040
Si Si5 0.309060 0.612353 0.807172
Si Si6 0.374529 0.124239 0.053815
Si Si7 0.753150 0.657802 0.411578
O O1 0.776409 0.750852 0.763739
O O2 0.930600 0.856200 0.827275
O O3 0.727206 0.996151 0.592469
O O4 0.876304 0.008977 0.922855
O O5 0.500000 0.494690 0.250000
O O6 0.334634 0.281999 0.060873
O O7 0.278499 0.590195 0.025694
O O8 0.329154 0.504114 0.921732
O O9 0.432364 0.302982 0.428291
O O10 0.591234 0.194384 0.504647
O O11 0.645306 0.224477 0.748089
O O12 0.500000 0.000000 0.500000
O O13 0.000000 0.976902 0.750000
O O14 0.124789 0.749775 0.961983
O O15 0.257752 0.498941 0.664920
O O16 0.500000 0.058888 0.250000
#
# Coordination Sequence:
#
# PCOD9237526 Si02
#       7
#     4   4   4   4   4   4   4
#     4  11  25  45  70 100 135 187 232 286 347 403
#     4  11  22  37  65  99 139 182 220 277 353 417
#     4  12  22  40  66  99 143 177 216 278 349 410
#     4  11  25  48  69  91 137 186 239 290 330 410
#     4  12  22  40  68 100 138 178 222 288 345 411
#     4  11  23  42  66 104 143 180 225 284 354 426
#     4  12  24  43  66  96 139 176 232 285 342 405
#
# _framework density 20.848400000000002
#
# number of rings (size 3 to 8) (size 9 to 14) (size 15 to 20)
#    0.000    0.571    5.714    3.000    0.000    5.714 
#    0.000    3.571    0.000    0.000    0.000    0.000 
#    0.000    0.000    0.000    0.000    0.000    0.000 
#
# Total GULP energy -156407.813740 kJ/mol
# GULP energy per Si atom -5585.993348 kJ/mol
# Density = 2.080095 g / cm^3
# Si number density = 20.848400 Si / 1000 Ang^3
#
#
#
# Elastic Constant Matrix: (Units=GPa)
#
#
# Indices 1 2 3 4 5 6 
#
# 1 81.0150 39.3013 6.3630 0.0000 14.7234 0.0000
# 2 39.3013 116.5115 46.8986 0.0000 25.9901 0.0000
# 3 6.3630 46.8986 74.3128 0.0000 14.9014 0.0000
# 4 0.0000 0.0000 0.0000 -183.0584 0.0000 74.9641
# 5 14.7234 25.9901 14.9014 0.0000 29.5758 0.0000
# 6 0.0000 0.0000 0.0000 74.9641 0.0000 9.6620
#
#
#
# Elastic Compliance Matrix: (Units=1/GPa)
#
#
# Indices 1 2 3 4 5 6 
#
# 1 0.015571 -0.005470 0.003014 0.000000 -0.004463 0.000000
# 2 -0.005470 0.014982 -0.007667 0.000000 -0.006579 0.000000
# 3 0.003014 -0.007667 0.018896 0.000000 -0.004283 0.000000
# 4 0.000000 0.000000 0.000000 -0.001308 0.000000 0.010146
# 5 -0.004463 -0.006579 -0.004283 0.000000 0.043973 0.000000
# 6 0.000000 0.000000 0.000000 0.010146 0.000000 0.024777
#
#
# Mechanical properties :
#
#
# Convention : Reuss Voigt Hill
#
# Bulk Modulus (GPa) = 34.24363 50.77390 42.50876
# Shear Modulus (GPa) = 34.04304 -16.81235 8.61534
#
# Velocity S-wave (km/s) = 4.04528 -2.84282 2.03503
# Velocity P-wave (km/s) = 6.18707 3.69205 5.09466
#
# Compressibility (1/GPa) = 0.02920252
#
# Stress axis : x y z
#
# Youngs Moduli (GPa) = 64.22040 66.74721 52.92039
#
# Poissons Ratio (x) = 0.36510 -0.15949
# Poissons Ratio (y) = 0.35128 0.40576
# Poissons Ratio (z) = -0.19355 0.51177
#
# Static dielectric constant tensor:
#      x y z
#    x 1.768970 0.000000 -0.031470 
#    y 0.000000 1.777190 0.000000 
#    z -0.031470 0.000000 1.793690 
# 
# From -- ./inp_files/49958.got.cif
#   From: 2010.05.17/outbox.cif.g08.bks.cpg/sg13_25_cif.got.tgz:49958.got - 2010.06.03 16:44:36.
