data_PCOD9237760
_publ_section_title
;
Structure prediction by ZEFSAII (Michael W. Deem and Ramdas Pophale) SiO2 
 PCOD9237760
Probable space group: P 2/C
;
_chemical_formula_sum "Si O2"
_cell_formula_units_Z 20
_cell_length_a 8.059599
_cell_length_b 11.230280
_cell_length_c 11.899624
_cell_angle_alpha 90.000000
_cell_angle_beta 56.351365
_cell_angle_gamma 90.000000
_cell_volume 896.594439
_symmetry_space_group_name_H-M "P 2/C"
_symmetry_group_IT_number 13
_symmetry_cell_setting 'monoclinic'
loop_
_space_group_symop_operation_xyz
x,y,z
-x,y,1/2-z
-x,-y,-z
x,-y,1/2+z
loop_
_atom_site_type_symbol
_atom_site_label
_atom_site_fract_x
_atom_site_fract_y
_atom_site_fract_z
Si Si1 0.093933 0.130167 0.968202
Si Si2 0.705935 0.729795 0.685853
Si Si3 0.641987 0.725862 0.967997
Si Si4 0.766644 0.526368 0.093376
Si Si5 0.217938 0.716711 0.220727
O O1 0.903122 0.213569 0.062172
O O2 0.251773 0.164675 0.006123
O O3 0.192966 0.171217 0.814158
O O4 0.000000 0.000000 0.000000
O O5 0.500000 0.802159 0.750000
O O6 0.676479 0.604093 0.634618
O O7 0.726214 0.714966 0.811681
O O8 0.700848 0.606903 0.014249
O O9 0.402263 0.737219 0.067882
O O10 0.727841 0.605191 0.219110
O O11 0.000000 0.500000 0.000000
O O12 0.000000 0.695563 0.250000
#
# Coordination Sequence:
#
# PCOD9237760 Si02
#       5
#     4   4   4   4   4
#     4  11  25  46  68  94 129 177 230 280 336 393
#     4  12  25  42  69 102 135 177 228 273 335 403
#     4  11  25  45  69  97 141 180 217 281 335 397
#     4  11  23  40  67  99 137 177 221 269 334 400
#     4  11  24  43  67  98 136 177 221 271 337 402
#
# _framework density 22.306629000000001
#
# number of rings (size 3 to 8) (size 9 to 14) (size 15 to 20)
#    0.000    0.800    4.000    5.400    2.800    4.800 
#    0.000    3.000    0.000    0.000    0.000    0.000 
#    0.000    0.000    0.000    0.000    0.000    0.000 
#
# Total GULP energy -111887.752674 kJ/mol
# GULP energy per Si atom -5594.387634 kJ/mol
# Density = 2.225586 g / cm^3
# Si number density = 22.306629 Si / 1000 Ang^3
#
#
#
# Elastic Constant Matrix: (Units=GPa)
#
#
# Indices 1 2 3 4 5 6 
#
# 1 94.8566 16.1226 2.9053 0.0000 -9.6635 0.0000
# 2 16.1226 118.7974 29.8845 0.0000 5.9168 0.0000
# 3 2.9053 29.8845 73.9081 0.0000 -11.3135 0.0000
# 4 0.0000 0.0000 0.0000 6.6731 0.0000 -7.4760
# 5 -9.6635 5.9168 -11.3135 0.0000 57.8287 0.0000
# 6 0.0000 0.0000 0.0000 -7.4760 0.0000 10.6465
#
#
#
# Elastic Compliance Matrix: (Units=1/GPa)
#
#
# Indices 1 2 3 4 5 6 
#
# 1 0.011041 -0.001757 0.000605 0.000000 0.002143 0.000000
# 2 -0.001757 0.009826 -0.004230 0.000000 -0.002126 0.000000
# 3 0.000605 -0.004230 0.015771 0.000000 0.003619 0.000000
# 4 0.000000 0.000000 0.000000 0.702509 0.000000 0.493304
# 5 0.002143 -0.002126 0.003619 0.000000 0.018576 0.000000
# 6 0.000000 0.000000 0.000000 0.493304 0.000000 0.440327
#
#
# Mechanical properties :
#
#
# Convention : Reuss Voigt Hill
#
# Bulk Modulus (GPa) = 38.65017 42.82076 40.73547
# Shear Modulus (GPa) = 4.10698 30.93964 17.52331
#
# Velocity S-wave (km/s) = 1.35836 3.72831 2.80583
# Velocity P-wave (km/s) = 4.45248 6.14588 5.36639
#
# Compressibility (1/GPa) = 0.02587311
#
# Stress axis : x y z
#
# Youngs Moduli (GPa) = 90.57396 101.77007 63.40841
#
# Poissons Ratio (x) = 0.17883 -0.03833
# Poissons Ratio (y) = 0.15916 0.26819
# Poissons Ratio (z) = -0.05476 0.43044
#
# Static dielectric constant tensor:
#      x y z
#    x 1.865070 0.000000 -0.011960 
#    y 0.000000 1.816660 0.000000 
#    z -0.011960 0.000000 1.826050 
# 
# From -- ./inp_files/29281.got.cif
#   From: 2010.05.17/outbox.cif.g08.bks.cpg/sg13_15_cif.got.tgz:29281.got - 2010.06.03 16:44:36.
