data_PCOD9237958
_publ_section_title
;
Structure prediction by ZEFSAII (Michael W. Deem and Ramdas Pophale) SiO2 
 PCOD9237958
Probable space group: P 2/C
;
_chemical_formula_sum "Si O2"
_cell_formula_units_Z 16
_cell_length_a 22.284416
_cell_length_b 5.927112
_cell_length_c 9.494853
_cell_angle_alpha 90.000000
_cell_angle_beta 149.568392
_cell_angle_gamma 90.000000
_cell_volume 635.214255
_symmetry_space_group_name_H-M "P 2/C"
_symmetry_group_IT_number 13
_symmetry_cell_setting 'monoclinic'
loop_
_space_group_symop_operation_xyz
x,y,z
-x,y,1/2-z
-x,-y,-z
x,-y,1/2+z
loop_
_atom_site_type_symbol
_atom_site_label
_atom_site_fract_x
_atom_site_fract_y
_atom_site_fract_z
Si Si1 0.600406 0.690411 0.701928
Si Si2 0.184670 0.595583 0.775858
Si Si3 0.338486 0.971718 0.935112
Si Si4 0.891576 0.759991 0.607238
O O1 0.500000 0.500000 0.500000
O O2 0.591309 0.842306 0.544799
O O3 0.729771 0.574632 0.964772
O O4 0.599419 0.844695 0.839112
O O5 0.129957 0.456639 0.536686
O O6 0.273997 0.785374 0.900565
O O7 0.090445 0.696479 0.694285
O O8 0.229802 0.101931 0.641277
O O9 0.000000 0.884864 0.750000
#
# Coordination Sequence:
#
# PCOD9237958 Si02
#       4
#     4   4   4   4
#     4  11  26  50  76 106 146 196 248 308 373 434
#     4  11  23  46  70 107 151 187 250 304 349 448
#     4  11  24  49  74 107 150 189 251 304 364 450
#     4  11  24  43  74 109 147 196 242 303 364 431
#
# _framework density 25.188351000000001
#
# number of rings (size 3 to 8) (size 9 to 14) (size 15 to 20)
#    0.000    1.000    5.000    0.750    0.000    4.000 
#    4.500    1.250    0.000    0.000    0.000    0.000 
#    0.000    0.000    0.000    0.000    0.000    0.000 
#
# Total GULP energy -89719.832312 kJ/mol
# GULP energy per Si atom -5607.489519 kJ/mol
# Density = 2.513102 g / cm^3
# Si number density = 25.188351 Si / 1000 Ang^3
#
#
#
# Elastic Constant Matrix: (Units=GPa)
#
#
# Indices 1 2 3 4 5 6 
#
# 1 151.2995 38.9300 28.6912 0.0000 -5.6652 0.0000
# 2 38.9300 101.2890 37.8460 0.0000 -6.2469 0.0000
# 3 28.6912 37.8460 75.5266 0.0000 -5.9689 0.0000
# 4 0.0000 0.0000 0.0000 33.7836 0.0000 -2.2397
# 5 -5.6652 -6.2469 -5.9689 0.0000 32.5586 0.0000
# 6 0.0000 0.0000 0.0000 -2.2397 0.0000 46.1084
#
#
#
# Elastic Compliance Matrix: (Units=1/GPa)
#
#
# Indices 1 2 3 4 5 6 
#
# 1 0.007525 -0.002222 -0.001700 0.000000 0.000571 0.000000
# 2 -0.002222 0.012852 -0.005512 0.000000 0.001069 0.000000
# 3 -0.001700 -0.005512 0.016784 0.000000 0.001724 0.000000
# 4 0.000000 0.000000 0.000000 0.029696 0.000000 0.001442
# 5 0.000571 0.001069 0.001724 0.000000 0.031334 0.000000
# 6 0.000000 0.000000 0.000000 0.001442 0.000000 0.021758
#
#
# Mechanical properties :
#
#
# Convention : Reuss Voigt Hill
#
# Bulk Modulus (GPa) = 54.66192 59.89438 57.27815
# Shear Modulus (GPa) = 34.50320 37.33332 35.91826
#
# Velocity S-wave (km/s) = 3.70511 3.85407 3.78032
# Velocity P-wave (km/s) = 6.32868 6.60571 6.46867
#
# Compressibility (1/GPa) = 0.01829427
#
# Stress axis : x y z
#
# Youngs Moduli (GPa) = 132.89312 77.80938 59.57958
#
# Poissons Ratio (x) = 0.17287 0.10129
# Poissons Ratio (y) = 0.29524 0.32838
# Poissons Ratio (z) = 0.22594 0.42885
#
# Static dielectric constant tensor:
#      x y z
#    x 1.989230 0.000000 0.042400 
#    y 0.000000 1.989130 0.000000 
#    z 0.042400 0.000000 2.101280 
# 
# From -- ./inp_files/20268.got.cif
#   From: 2010.05.17/outbox.cif.g08.bks.cpg/sg13_11_cif.got.tgz:20268.got - 2010.06.03 16:44:36.
