data_PCOD9237866
_publ_section_title
;
Structure prediction by ZEFSAII (Michael W. Deem and Ramdas Pophale) SiO2 
 PCOD9237866
Probable space group: P 2/C
;
_chemical_formula_sum "Si O2"
_cell_formula_units_Z 16
_cell_length_a 8.041966
_cell_length_b 18.820923
_cell_length_c 9.373203
_cell_angle_alpha 90.000000
_cell_angle_beta 147.480211
_cell_angle_gamma 90.000000
_cell_volume 762.681229
_symmetry_space_group_name_H-M "P 2/C"
_symmetry_group_IT_number 13
_symmetry_cell_setting 'monoclinic'
loop_
_space_group_symop_operation_xyz
x,y,z
-x,y,1/2-z
-x,-y,-z
x,-y,1/2+z
loop_
_atom_site_type_symbol
_atom_site_label
_atom_site_fract_x
_atom_site_fract_y
_atom_site_fract_z
Si Si1 0.561453 0.072819 0.627888
Si Si2 0.205967 0.853053 0.638036
Si Si3 0.865133 0.565065 0.494017
Si Si4 0.141312 0.690921 0.509941
O O1 0.500000 0.063288 0.750000
O O2 0.325990 0.127697 0.382497
O O3 0.500000 0.000000 0.500000
O O4 0.912479 0.101378 0.874653
O O5 0.500000 0.868398 0.750000
O O6 0.130371 0.770116 0.566418
O O7 0.500000 0.559079 0.250000
O O8 0.000000 0.500000 0.500000
O O9 0.962797 0.635986 0.480481
O O10 0.000000 0.564979 0.750000
O O11 0.500000 0.669763 0.750000
O O12 0.000000 0.692863 0.250000
#
# Coordination Sequence:
#
# PCOD9237866 Si02
#       4
#     4   4   4   4
#     4  12  26  44  66  95 130 170 217 272 326 387
#     4  11  24  44  68  95 129 171 215 266 327 392
#     4  12  25  43  68  99 135 176 220 270 320 382
#     4  11  23  43  68  97 132 173 215 266 326 389
#
# _framework density 20.978619999999999
#
# number of rings (size 3 to 8) (size 9 to 14) (size 15 to 20)
#    0.000    0.500    0.000    9.750    0.000    5.000 
#    0.000    0.000    0.000    0.000    0.000    0.000 
#    0.000    0.000    0.000    0.000    0.000    0.000 
#
# Total GULP energy -89648.946751 kJ/mol
# GULP energy per Si atom -5603.059172 kJ/mol
# Density = 2.093087 g / cm^3
# Si number density = 20.978620 Si / 1000 Ang^3
#
#
#
# Elastic Constant Matrix: (Units=GPa)
#
#
# Indices 1 2 3 4 5 6 
#
# 1 162.2421 123.4269 102.3236 0.0000 -2.0058 0.0000
# 2 123.4269 158.9778 98.4900 0.0000 0.2904 0.0000
# 3 102.3236 98.4900 225.1274 0.0000 -9.5547 0.0000
# 4 0.0000 0.0000 0.0000 -338.8139 0.0000 273.1191
# 5 -2.0058 0.2904 -9.5547 0.0000 69.4065 0.0000
# 6 0.0000 0.0000 0.0000 273.1191 0.0000 -160.1867
#
#
#
# Elastic Compliance Matrix: (Units=1/GPa)
#
#
# Indices 1 2 3 4 5 6 
#
# 1 0.016042 -0.010895 -0.002518 0.000000 0.000163 0.000000
# 2 -0.010895 0.016050 -0.002098 0.000000 -0.000671 0.000000
# 3 -0.002518 -0.002098 0.006540 0.000000 0.000836 0.000000
# 4 0.000000 0.000000 0.000000 0.007883 0.000000 0.013441
# 5 0.000163 -0.000671 0.000836 0.000000 0.014531 0.000000
# 6 0.000000 0.000000 0.000000 0.013441 0.000000 0.016673
#
#
# Mechanical properties :
#
#
# Convention : Reuss Voigt Hill
#
# Bulk Modulus (GPa) = 131.41629 132.75871 132.08750
# Shear Modulus (GPa) = 44.93228 -71.11169 -13.08971
#
# Velocity S-wave (km/s) = 4.63299 -5.82845 -2.50062
# Velocity P-wave (km/s) = 9.56025 4.25744 7.40014
#
# Compressibility (1/GPa) = 0.00760941
#
# Stress axis : x y z
#
# Youngs Moduli (GPa) = 62.33476 62.30502 152.90963
#
# Poissons Ratio (x) = 0.67883 0.38504
# Poissons Ratio (y) = 0.67915 0.32082
# Poissons Ratio (z) = 0.15696 0.13072
#
# Static dielectric constant tensor:
#      x y z
#    x 1.720960 0.000000 0.003780 
#    y 0.000000 1.746680 0.000000 
#    z 0.003780 0.000000 1.673990 
# 
# From -- ./inp_files/12958.got.cif
#   From: 2010.05.17/outbox.cif.g08.bks.cpg/sg13_7_cif.got.tgz:12958.got - 2010.06.03 16:44:36.
