data_PCOD9237679
_publ_section_title
;
Structure prediction by ZEFSAII (Michael W. Deem and Ramdas Pophale) SiO2 
 PCOD9237679
Probable space group: P 2/C
;
_chemical_formula_sum "Si O2"
_cell_formula_units_Z 22
_cell_length_a 12.063968
_cell_length_b 5.730618
_cell_length_c 28.752398
_cell_angle_alpha 90.000000
_cell_angle_beta 152.465686
_cell_angle_gamma 90.000000
_cell_volume 918.904930
_symmetry_space_group_name_H-M "P 2/C"
_symmetry_group_IT_number 13
_symmetry_cell_setting 'monoclinic'
loop_
_space_group_symop_operation_xyz
x,y,z
-x,y,1/2-z
-x,-y,-z
x,-y,1/2+z
loop_
_atom_site_type_symbol
_atom_site_label
_atom_site_fract_x
_atom_site_fract_y
_atom_site_fract_z
Si Si1 0.410244 0.461910 0.670886
Si Si2 0.000000 0.845671 0.250000
Si Si3 0.000536 0.794327 0.962424
Si Si4 0.837348 0.864879 0.583240
Si Si5 0.785251 0.452343 0.232055
Si Si6 0.568879 0.785717 0.566711
O O1 0.500000 0.324357 0.750000
O O2 0.206740 0.363888 0.561559
O O3 0.636657 0.488780 0.722200
O O4 0.265558 0.684765 0.637145
O O5 0.940004 0.668477 0.270249
O O6 0.766627 0.006676 0.152264
O O7 0.087873 0.832256 0.942265
O O8 0.000000 0.000000 0.000000
O O9 0.641944 0.716991 0.541279
O O10 0.068031 0.779799 0.698456
O O11 0.696026 0.110012 0.529624
O O12 0.616485 0.391957 0.125710
#
# Coordination Sequence:
#
# PCOD9237679 Si02
#       6
#     4   2   4   4   4   4
#     4  11  25  45  70  98 140 178 232 283 339 408
#     4  12  22  40  66  94 136 176 224 270 354 400
#     4  11  25  47  69 103 133 182 234 282 339 408
#     4  11  22  45  69  94 139 178 221 287 341 404
#     4  12  23  45  67  99 139 176 223 288 335 420
#     4  11  24  43  64 105 136 174 231 281 343 418
#
# _framework density 23.941541999999998
#
# number of rings (size 3 to 8) (size 9 to 14) (size 15 to 20)
#    0.000    0.727    5.455    2.182    0.000    2.909 
#    9.818    0.000    0.000    0.000    0.000    0.000 
#    0.000    0.000    0.000    0.000    0.000    0.000 
#
# Total GULP energy -122637.653273 kJ/mol
# GULP energy per Si atom -5574.438785 kJ/mol
# Density = 2.388705 g / cm^3
# Si number density = 23.941542 Si / 1000 Ang^3
#
#
#
# Elastic Constant Matrix: (Units=GPa)
#
#
# Indices 1 2 3 4 5 6 
#
# 1 255.4124 35.9651 46.7484 0.0000 -11.7499 0.0000
# 2 35.9651 31.4735 21.7155 0.0000 -1.3875 0.0000
# 3 46.7484 21.7155 118.6030 0.0000 -13.6634 0.0000
# 4 0.0000 0.0000 0.0000 38.8791 0.0000 0.4887
# 5 -11.7499 -1.3875 -13.6634 0.0000 47.9024 0.0000
# 6 0.0000 0.0000 0.0000 0.4887 0.0000 17.4075
#
#
#
# Elastic Compliance Matrix: (Units=1/GPa)
#
#
# Indices 1 2 3 4 5 6 
#
# 1 0.004797 -0.004812 -0.000920 0.000000 0.000775 0.000000
# 2 -0.004812 0.041230 -0.005843 0.000000 -0.001653 0.000000
# 3 -0.000920 -0.005843 0.010152 0.000000 0.002501 0.000000
# 4 0.000000 0.000000 0.000000 0.025730 0.000000 -0.000722
# 5 0.000775 -0.001653 0.002501 0.000000 0.021731 0.000000
# 6 0.000000 0.000000 0.000000 -0.000722 0.000000 0.057467
#
#
# Mechanical properties :
#
#
# Convention : Reuss Voigt Hill
#
# Bulk Modulus (GPa) = 30.27681 68.26076 49.26878
# Shear Modulus (GPa) = 25.60592 40.90846 33.25719
#
# Velocity S-wave (km/s) = 3.27390 4.13810 3.73111
# Velocity P-wave (km/s) = 5.19276 7.16974 6.25979
#
# Compressibility (1/GPa) = 0.03302858
#
# Stress axis : x y z
#
# Youngs Moduli (GPa) = 208.46477 24.25411 98.50168
#
# Poissons Ratio (x) = 0.11672 0.09066
# Poissons Ratio (y) = 1.00320 0.57550
# Poissons Ratio (z) = 0.19187 0.14171
#
# Static dielectric constant tensor:
#      x y z
#    x 1.879210 0.000000 -0.031000 
#    y 0.000000 2.167310 0.000000 
#    z -0.031000 0.000000 1.962320 
# 
# From -- ./inp_files/96470.got.cif
#   From: 2010.05.17/outbox.cif.g08.bks.cpg/sg13_49_cif.got.tgz:96470.got - 2010.06.03 16:44:36.
