data_PCOD9237191
_publ_section_title
;
Structure prediction by ZEFSAII (Michael W. Deem and Ramdas Pophale) SiO2 
 PCOD9237191
Probable space group: P 2/C
;
_chemical_formula_sum "Si O2"
_cell_formula_units_Z 24
_cell_length_a 10.090308
_cell_length_b 9.065237
_cell_length_c 11.711040
_cell_angle_alpha 90.000000
_cell_angle_beta 73.756923
_cell_angle_gamma 90.000000
_cell_volume 1028.461711
_symmetry_space_group_name_H-M "P 2/C"
_symmetry_group_IT_number 13
_symmetry_cell_setting 'monoclinic'
loop_
_space_group_symop_operation_xyz
x,y,z
-x,y,1/2-z
-x,-y,-z
x,-y,1/2+z
loop_
_atom_site_type_symbol
_atom_site_label
_atom_site_fract_x
_atom_site_fract_y
_atom_site_fract_z
Si Si1 0.251098 0.104265 0.797925
Si Si2 0.229048 0.756998 0.786414
Si Si3 0.500000 0.560610 0.750000
Si Si4 0.827724 0.602091 0.489034
Si Si5 0.000000 0.721722 0.250000
Si Si6 0.433524 0.299176 0.593709
Si Si7 0.742435 0.724291 0.976359
O O1 0.379287 0.181322 0.700468
O O2 0.120912 0.172497 0.763850
O O3 0.256039 0.929453 0.793179
O O4 0.233321 0.154937 0.932841
O O5 0.366314 0.662953 0.781532
O O6 0.189774 0.734312 0.664072
O O7 0.130092 0.691013 0.907807
O O8 0.470216 0.449194 0.652525
O O9 0.691782 0.673984 0.462456
O O10 0.786216 0.432879 0.518895
O O11 0.944921 0.621315 0.365914
O O12 0.576431 0.261060 0.497690
#
# Coordination Sequence:
#
# PCOD9237191 Si02
#       7
#     4   4   2   4   2   4   4
#     4  11  27  47  69 105 147 194 235 297 358 426
#     4  12  27  41  72 111 144 189 237 284 374 431
#     4  12  20  42  70 112 144 188 224 296 354 444
#     4  11  24  48  72 103 139 196 243 294 347 423
#     4  10  28  52  76  90 146 194 250 302 350 408
#     4  11  21  44  73 103 156 184 225 299 362 419
#     4  12  24  44  73 110 143 185 235 300 361 431
#
# _framework density 23.335819999999998
#
# number of rings (size 3 to 8) (size 9 to 14) (size 15 to 20)
#    0.000    0.667    5.000    1.500    9.333    2.000 
#    0.000    0.000    0.000    0.000    0.000    0.000 
#    0.000    0.000    0.000    0.000    0.000    0.000 
#
# Total GULP energy -134366.615259 kJ/mol
# GULP energy per Si atom -5598.608969 kJ/mol
# Density = 2.328271 g / cm^3
# Si number density = 23.335820 Si / 1000 Ang^3
#
#
#
# Elastic Constant Matrix: (Units=GPa)
#
#
# Indices 1 2 3 4 5 6 
#
# 1 43.9319 20.5520 36.0380 0.0000 6.0224 0.0000
# 2 20.5520 146.6115 45.3880 0.0000 2.7799 0.0000
# 3 36.0380 45.3880 155.5514 0.0000 6.6697 0.0000
# 4 0.0000 0.0000 0.0000 16.7857 0.0000 4.5130
# 5 6.0224 2.7799 6.6697 0.0000 38.5402 0.0000
# 6 0.0000 0.0000 0.0000 4.5130 0.0000 11.2975
#
#
#
# Elastic Compliance Matrix: (Units=1/GPa)
#
#
# Indices 1 2 3 4 5 6 
#
# 1 0.029139 -0.002172 -0.005973 0.000000 -0.003363 0.000000
# 2 -0.002172 0.007661 -0.001736 0.000000 0.000087 0.000000
# 3 -0.005973 -0.001736 0.008336 0.000000 -0.000384 0.000000
# 4 0.000000 0.000000 0.000000 0.066743 0.000000 -0.026662
# 5 -0.003363 0.000087 -0.000384 0.000000 0.026533 0.000000
# 6 0.000000 0.000000 0.000000 -0.026662 0.000000 0.099166
#
#
# Mechanical properties :
#
#
# Convention : Reuss Voigt Hill
#
# Bulk Modulus (GPa) = 39.41016 61.11676 50.26346
# Shear Modulus (GPa) = 18.81133 29.59912 24.20523
#
# Velocity S-wave (km/s) = 2.84230 3.56532 3.22414
# Velocity P-wave (km/s) = 5.26274 6.57234 5.95366
#
# Compressibility (1/GPa) = 0.02537417
#
# Stress axis : x y z
#
# Youngs Moduli (GPa) = 34.31788 130.53199 119.96792
#
# Poissons Ratio (x) = 0.28350 0.71657
# Poissons Ratio (y) = 0.07453 0.20826
# Poissons Ratio (z) = 0.20498 0.22660
#
# Static dielectric constant tensor:
#      x y z
#    x 1.899630 0.000000 -0.041770 
#    y 0.000000 1.798510 0.000000 
#    z -0.041770 0.000000 1.971340 
# 
# From -- ./inp_files/32545.got.cif
#   From: 2010.05.17/outbox.cif.g08.bks.cpg/sg13_17_cif.got.tgz:32545.got - 2010.06.03 16:44:36.
