data_PCOD9237698
_publ_section_title
;
Structure prediction by ZEFSAII (Michael W. Deem and Ramdas Pophale) SiO2 
 PCOD9237698
Probable space group: P 2/C
;
_chemical_formula_sum "Si O2"
_cell_formula_units_Z 20
_cell_length_a 8.395237
_cell_length_b 5.728212
_cell_length_c 20.290676
_cell_angle_alpha 90.000000
_cell_angle_beta 64.453371
_cell_angle_gamma 90.000000
_cell_volume 880.375704
_symmetry_space_group_name_H-M "P 2/C"
_symmetry_group_IT_number 13
_symmetry_cell_setting 'monoclinic'
loop_
_space_group_symop_operation_xyz
x,y,z
-x,y,1/2-z
-x,-y,-z
x,-y,1/2+z
loop_
_atom_site_type_symbol
_atom_site_label
_atom_site_fract_x
_atom_site_fract_y
_atom_site_fract_z
Si Si1 0.642915 0.263643 0.166492
Si Si2 0.360791 0.958025 0.967955
Si Si3 0.970321 0.771810 0.832747
Si Si4 0.830042 0.637847 0.058085
Si Si5 0.886617 0.265994 0.897890
O O1 0.500000 0.271783 0.250000
O O2 0.588719 0.086560 0.117130
O O3 0.839881 0.229771 0.162519
O O4 0.668394 0.498511 0.118808
O O5 0.229558 0.176989 0.985050
O O6 0.252286 0.743208 0.017602
O O7 0.500000 0.000000 0.000000
O O8 0.000000 0.763935 0.750000
O O9 0.879048 0.520767 0.866095
O O10 0.868087 0.018394 0.863300
O O11 0.920098 0.759250 0.104969
O O12 0.000000 0.500000 0.000000
#
# Coordination Sequence:
#
# PCOD9237698 Si02
#       5
#     4   4   4   4   4
#     4  11  26  45  66 106 153 191 238 317 391 438
#     4  12  26  43  73 109 146 191 252 319 374 453
#     4  11  25  45  74 104 146 194 253 306 367 452
#     4  11  22  47  75  99 143 198 255 301 374 459
#     4  11  23  45  74 104 138 198 251 299 363 455
#
# _framework density 22.717573000000002
#
# number of rings (size 3 to 8) (size 9 to 14) (size 15 to 20)
#    0.000    0.800    4.000    3.600    2.800    3.200 
#    0.000    0.000    0.000    0.000    0.000    0.000 
#    0.000    0.000    0.000    0.000    0.000    0.000 
#
# Total GULP energy -111461.024302 kJ/mol
# GULP energy per Si atom -5573.051215 kJ/mol
# Density = 2.266587 g / cm^3
# Si number density = 22.717573 Si / 1000 Ang^3
#
#
#
# Elastic Constant Matrix: (Units=GPa)
#
#
# Indices 1 2 3 4 5 6 
#
# 1 48.4941 14.3129 15.1513 0.0000 14.5420 0.0000
# 2 14.3129 137.8907 81.8957 0.0000 3.2406 0.0000
# 3 15.1513 81.8957 186.1270 0.0000 3.1402 0.0000
# 4 0.0000 0.0000 0.0000 41.0785 0.0000 3.2661
# 5 14.5420 3.2406 3.1402 0.0000 39.8882 0.0000
# 6 0.0000 0.0000 0.0000 3.2661 0.0000 17.0875
#
#
#
# Elastic Compliance Matrix: (Units=1/GPa)
#
#
# Indices 1 2 3 4 5 6 
#
# 1 0.024005 -0.001646 -0.001086 0.000000 -0.008532 0.000000
# 2 -0.001646 0.009939 -0.004241 0.000000 0.000127 0.000000
# 3 -0.001086 -0.004241 0.007324 0.000000 0.000164 0.000000
# 4 0.000000 0.000000 0.000000 0.024719 0.000000 -0.004725
# 5 -0.008532 0.000127 0.000164 0.000000 0.028157 0.000000
# 6 0.000000 0.000000 0.000000 -0.004725 0.000000 0.059425
#
#
# Mechanical properties :
#
#
# Convention : Reuss Voigt Hill
#
# Bulk Modulus (GPa) = 36.60118 66.13686 51.36902
# Shear Modulus (GPa) = 28.30869 37.02095 32.66482
#
# Velocity S-wave (km/s) = 3.53386 4.04123 3.79603
# Velocity P-wave (km/s) = 5.72689 7.13801 6.47103
#
# Compressibility (1/GPa) = 0.02732152
#
# Stress axis : x y z
#
# Youngs Moduli (GPa) = 41.65848 100.61371 136.52901
#
# Poissons Ratio (x) = 0.16564 0.14823
# Poissons Ratio (y) = 0.06858 0.57906
# Poissons Ratio (z) = 0.04523 0.42673
#
# Static dielectric constant tensor:
#      x y z
#    x 2.179120 0.000000 -0.004120 
#    y 0.000000 2.210890 0.000000 
#    z -0.004120 0.000000 1.845850 
# 
# From -- ./inp_files/74408.got.cif
#   From: 2010.05.17/outbox.cif.g08.bks.cpg/sg13_38_cif.got.tgz:74408.got - 2010.06.03 16:44:36.
