data_PCOD9237772
_publ_section_title
;
Structure prediction by ZEFSAII (Michael W. Deem and Ramdas Pophale) SiO2 
 PCOD9237772
Probable space group: P 2/C
;
_chemical_formula_sum "Si O2"
_cell_formula_units_Z 28
_cell_length_a 17.912661
_cell_length_b 11.859496
_cell_length_c 20.906670
_cell_angle_alpha 90.000000
_cell_angle_beta 19.646856
_cell_angle_gamma 90.000000
_cell_volume 1493.265927
_symmetry_space_group_name_H-M "P 2/C"
_symmetry_group_IT_number 13
_symmetry_cell_setting 'monoclinic'
loop_
_space_group_symop_operation_xyz
x,y,z
-x,y,1/2-z
-x,-y,-z
x,-y,1/2+z
loop_
_atom_site_type_symbol
_atom_site_label
_atom_site_fract_x
_atom_site_fract_y
_atom_site_fract_z
Si Si1 0.888343 0.724182 0.446550
Si Si2 0.659142 0.710582 0.501708
Si Si3 0.038827 0.337460 0.962199
Si Si4 0.638666 0.030814 0.003850
Si Si5 0.353984 0.536779 0.678161
Si Si6 0.811937 0.086599 0.627904
Si Si7 0.882733 0.983129 0.441676
O O1 0.712152 0.693577 0.533773
O O2 0.843999 0.855597 0.497443
O O3 0.117452 0.714024 0.221513
O O4 0.921417 0.660168 0.486479
O O5 0.566990 0.837284 0.564518
O O6 0.512724 0.609080 0.595193
O O7 0.241156 0.425179 0.797956
O O8 0.125733 0.211927 0.902270
O O9 0.857917 0.379755 0.159678
O O10 0.429802 0.954790 0.154318
O O11 0.739966 0.005437 0.992406
O O12 0.853868 0.013170 0.785596
O O13 0.500000 0.500000 0.500000
O O14 0.813216 0.072089 0.550424
O O15 0.000000 0.000000 0.500000
#
# Coordination Sequence:
#
# PCOD9237772 Si02
#       7
#     4   4   4   4   4   4   4
#     4   9  17  36  60  92 116 142 204 249 286 350
#     4   9  18  35  65  88 113 155 197 249 295 342
#     4  11  24  38  58  90 120 152 198 246 296 368
#     4   9  20  37  61  88 118 158 202 244 296 359
#     4  11  23  41  60  81 119 159 196 250 307 345
#     4  12  22  34  58  93 125 154 192 243 313 366
#     4   9  19  37  58  87 123 158 193 245 297 356
#
# _framework density 18.750845999999999
#
# number of rings (size 3 to 8) (size 9 to 14) (size 15 to 20)
#    0.000    2.000    2.857    3.000    0.000    2.286 
#    0.000    0.000   12.571    1.714    0.000    0.000 
#    0.000    0.000    0.000    0.000    0.000    0.000 
#
# Total GULP energy -156215.474682 kJ/mol
# GULP energy per Si atom -5579.124096 kJ/mol
# Density = 1.870817 g / cm^3
# Si number density = 18.750846 Si / 1000 Ang^3
#
#
#
# Elastic Constant Matrix: (Units=GPa)
#
#
# Indices 1 2 3 4 5 6 
#
# 1 57.0633 43.6219 28.4440 0.0000 2.4159 0.0000
# 2 43.6219 125.7830 50.6801 0.0000 -21.4237 0.0000
# 3 28.4440 50.6801 112.0430 0.0000 -4.7404 0.0000
# 4 0.0000 0.0000 0.0000 25.6009 0.0000 -9.7065
# 5 2.4159 -21.4237 -4.7404 0.0000 25.7094 0.0000
# 6 0.0000 0.0000 0.0000 -9.7065 0.0000 26.8411
#
#
#
# Elastic Compliance Matrix: (Units=1/GPa)
#
#
# Indices 1 2 3 4 5 6 
#
# 1 0.027304 -0.010358 -0.002742 0.000000 -0.011703 0.000000
# 2 -0.010358 0.015256 -0.003721 0.000000 0.013000 0.000000
# 3 -0.002742 -0.003721 0.011272 0.000000 -0.000765 0.000000
# 4 0.000000 0.000000 0.000000 0.045268 0.000000 0.016370
# 5 -0.011703 0.013000 -0.000765 0.000000 0.050688 0.000000
# 6 0.000000 0.000000 0.000000 0.016370 0.000000 0.043176
#
#
# Mechanical properties :
#
#
# Convention : Reuss Voigt Hill
#
# Bulk Modulus (GPa) = 49.52691 60.04236 54.78464
# Shear Modulus (GPa) = 21.42837 27.10649 24.26743
#
# Velocity S-wave (km/s) = 3.38419 3.80625 3.60141
# Velocity P-wave (km/s) = 6.46072 7.16989 6.82452
#
# Compressibility (1/GPa) = 0.02019104
#
# Stress axis : x y z
#
# Youngs Moduli (GPa) = 36.62402 65.54898 88.71566
#
# Poissons Ratio (x) = 0.67894 0.24323
# Poissons Ratio (y) = 0.37934 0.33012
# Poissons Ratio (z) = 0.10041 0.24391
#
# Static dielectric constant tensor:
#      x y z
#    x 1.677540 0.000000 0.007940 
#    y 0.000000 1.611380 0.000000 
#    z 0.007940 0.000000 1.710930 
# 
# From -- ./inp_files/81042.got.cif
#   From: 2010.05.17/outbox.cif.g08.bks.cpg/sg13_41_cif.got.tgz:81042.got - 2010.06.03 16:44:36.
