data_PCOD9237185
_publ_section_title
;
Structure prediction by ZEFSAII (Michael W. Deem and Ramdas Pophale) SiO2 
 PCOD9237185
Probable space group: P 2/C
;
_chemical_formula_sum "Si O2"
_cell_formula_units_Z 14
_cell_length_a 7.016635
_cell_length_b 8.145400
_cell_length_c 9.550883
_cell_angle_alpha 90.000000
_cell_angle_beta 67.431561
_cell_angle_gamma 90.000000
_cell_volume 504.063131
_symmetry_space_group_name_H-M "P 2/C"
_symmetry_group_IT_number 13
_symmetry_cell_setting 'monoclinic'
loop_
_space_group_symop_operation_xyz
x,y,z
-x,y,1/2-z
-x,-y,-z
x,-y,1/2+z
loop_
_atom_site_type_symbol
_atom_site_label
_atom_site_fract_x
_atom_site_fract_y
_atom_site_fract_z
Si Si1 0.500000 0.533365 0.750000
Si Si2 0.234834 0.786428 0.703384
Si Si3 0.181072 0.110411 0.533850
Si Si4 0.723928 0.770848 0.210754
O O1 0.400463 0.642882 0.656031
O O2 0.315924 0.407394 0.844524
O O3 0.000000 0.726495 0.750000
O O4 0.251659 0.940604 0.591828
O O5 0.253844 0.846775 0.859211
O O6 0.250507 0.242401 0.630065
O O7 0.068736 0.863341 0.395342
O O8 0.500000 0.853285 0.250000
#
# Coordination Sequence:
#
# PCOD9237185 Si02
#       4
#     2   4   4   4
#     4  10  28  46  70 116 146 182 248 296 372 420
#     4  12  27  46  75 112 139 194 244 308 343 444
#     4  11  25  48  78 101 150 191 245 289 376 416
#     4   9  23  47  70 106 148 192 222 306 361 439
#
# _framework density 27.7743
#
# number of rings (size 3 to 8) (size 9 to 14) (size 15 to 20)
#    0.857    0.571    2.857    0.857    6.000    5.714 
#    0.000    1.429    0.000    0.000    0.000    0.000 
#    0.000    0.000    0.000    0.000    0.000    0.000 
#
# Total GULP energy -78239.105708 kJ/mol
# GULP energy per Si atom -5588.507551 kJ/mol
# Density = 2.771108 g / cm^3
# Si number density = 27.774300 Si / 1000 Ang^3
#
#
#
# Elastic Constant Matrix: (Units=GPa)
#
#
# Indices 1 2 3 4 5 6 
#
# 1 170.5060 92.7868 24.6409 0.0000 15.7477 0.0000
# 2 92.7868 159.6897 32.6405 0.0000 5.2591 0.0000
# 3 24.6409 32.6405 141.5470 0.0000 36.1783 0.0000
# 4 0.0000 0.0000 0.0000 1.9721 0.0000 13.0744
# 5 15.7477 5.2591 36.1783 0.0000 62.4102 0.0000
# 6 0.0000 0.0000 0.0000 13.0744 0.0000 82.3192
#
#
#
# Elastic Compliance Matrix: (Units=1/GPa)
#
#
# Indices 1 2 3 4 5 6 
#
# 1 0.008773 -0.005060 0.000113 0.000000 -0.001853 0.000000
# 2 -0.005060 0.009498 -0.001680 0.000000 0.001450 0.000000
# 3 0.000113 -0.001680 0.008691 0.000000 -0.004925 0.000000
# 4 0.000000 0.000000 0.000000 -9.575615 0.000000 1.520851
# 5 -0.001853 0.001450 -0.004925 0.000000 0.019223 0.000000
# 6 0.000000 0.000000 0.000000 1.520851 0.000000 -0.229402
#
#
# Mechanical properties :
#
#
# Convention : Reuss Voigt Hill
#
# Bulk Modulus (GPa) = 72.94503 85.76435 79.35469
# Shear Modulus (GPa) = -0.51329 50.78527 25.13599
#
# Velocity S-wave (km/s) = -0.43036 4.28073 3.01160
# Velocity P-wave (km/s) = 5.10623 7.44171 6.38171
#
# Compressibility (1/GPa) = 0.01370895
#
# Stress axis : x y z
#
# Youngs Moduli (GPa) = 113.98538 105.28927 115.05671
#
# Poissons Ratio (x) = 0.53272 -0.01301
# Poissons Ratio (y) = 0.57672 0.19330
# Poissons Ratio (z) = -0.01289 0.17689
#
# Static dielectric constant tensor:
#      x y z
#    x 2.210850 0.000000 -0.024120 
#    y 0.000000 2.346890 0.000000 
#    z -0.024120 0.000000 2.164890 
# 
# From -- ./inp_files/10644.got.cif
#   From: 2010.05.17/outbox.cif.g08.bks.cpg/sg13_6_cif.got.tgz:10644.got - 2010.06.03 16:44:36.
