data_PCOD9237447
_publ_section_title
;
Structure prediction by ZEFSAII (Michael W. Deem and Ramdas Pophale) SiO2 
 PCOD9237447
Probable space group: P 2/C
;
_chemical_formula_sum "Si O2"
_cell_formula_units_Z 30
_cell_length_a 10.452156
_cell_length_b 8.398880
_cell_length_c 28.385313
_cell_angle_alpha 90.000000
_cell_angle_beta 32.474509
_cell_angle_gamma 90.000000
_cell_volume 1337.931965
_symmetry_space_group_name_H-M "P 2/C"
_symmetry_group_IT_number 13
_symmetry_cell_setting 'monoclinic'
loop_
_space_group_symop_operation_xyz
x,y,z
-x,y,1/2-z
-x,-y,-z
x,-y,1/2+z
loop_
_atom_site_type_symbol
_atom_site_label
_atom_site_fract_x
_atom_site_fract_y
_atom_site_fract_z
Si Si1 0.590512 0.273495 0.145029
Si Si2 0.803928 0.509031 0.018419
Si Si3 0.142964 0.931854 0.751252
Si Si4 0.439011 0.154227 0.903523
Si Si5 0.251013 0.964501 0.052520
Si Si6 0.500000 0.539723 0.250000
Si Si7 0.272845 0.970772 0.355772
Si Si8 0.027198 0.303523 0.879212
O O1 0.663418 0.346335 0.072738
O O2 0.348179 0.179884 0.209480
O O3 0.572116 0.421290 0.185866
O O4 0.773793 0.150825 0.112612
O O5 0.634964 0.661227 0.067139
O O6 0.000000 0.500000 0.000000
O O7 0.940267 0.467887 0.928552
O O8 0.000000 0.869957 0.750000
O O9 0.287575 0.090249 0.687798
O O10 0.960203 0.956597 0.850811
O O11 0.335058 0.115850 0.884585
O O12 0.310805 0.047189 0.983190
O O13 0.188902 0.775560 0.081517
O O14 0.500000 0.000000 0.000000
O O15 0.697166 0.650659 0.214191
O O16 0.500000 0.982523 0.250000
O O17 0.073564 0.859247 0.395125
#
# Coordination Sequence:
#
# PCOD9237447 Si02
#       8
#     4   4   4   4   4   2   4   4
#     4  11  25  41  66 102 147 183 235 291 365 439
#     4  12  25  42  67 106 152 183 221 300 382 439
#     4  11  25  50  77  99 136 195 254 304 345 425
#     4  11  25  48  70 105 149 183 246 300 363 439
#     4  12  28  49  77 104 137 199 262 299 346 429
#     4  12  24  40  64 112 152 178 220 292 388 444
#     4  11  21  40  70 107 139 195 236 288 364 428
#     4  12  25  41  70 102 150 184 239 297 365 438
#
# _framework density 22.422664000000001
#
# number of rings (size 3 to 8) (size 9 to 14) (size 15 to 20)
#    0.000    0.533    5.333    3.200    5.600    1.067 
#    0.000    2.667    0.000    0.000    0.000    0.000 
#    0.000    0.000    0.000    0.000    0.000    0.000 
#
# Total GULP energy -167037.658070 kJ/mol
# GULP energy per Si atom -5567.921936 kJ/mol
# Density = 2.237163 g / cm^3
# Si number density = 22.422664 Si / 1000 Ang^3
#
#
#
# Elastic Constant Matrix: (Units=GPa)
#
#
# Indices 1 2 3 4 5 6 
#
# 1 37.1582 6.3072 13.0879 0.0000 -3.8765 0.0000
# 2 6.3072 118.5176 33.9584 0.0000 -18.5381 0.0000
# 3 13.0879 33.9584 120.3996 0.0000 -5.6040 0.0000
# 4 0.0000 0.0000 0.0000 36.4830 0.0000 1.6464
# 5 -3.8765 -18.5381 -5.6040 0.0000 42.2403 0.0000
# 6 0.0000 0.0000 0.0000 1.6464 0.0000 25.5983
#
#
#
# Elastic Compliance Matrix: (Units=1/GPa)
#
#
# Indices 1 2 3 4 5 6 
#
# 1 0.028197 -0.000358 -0.002869 0.000000 0.002050 0.000000
# 2 -0.000358 0.009800 -0.002542 0.000000 0.003931 0.000000
# 3 -0.002869 -0.002542 0.009328 0.000000 -0.000141 0.000000
# 4 0.000000 0.000000 0.000000 0.027490 0.000000 -0.001768
# 5 0.002050 0.003931 -0.000141 0.000000 0.025569 0.000000
# 6 0.000000 0.000000 0.000000 -0.001768 0.000000 0.039179
#
#
# Mechanical properties :
#
#
# Convention : Reuss Voigt Hill
#
# Bulk Modulus (GPa) = 27.94303 42.53138 35.23721
# Shear Modulus (GPa) = 30.66945 35.71246 33.19095
#
# Velocity S-wave (km/s) = 3.70237 3.99519 3.85156
# Velocity P-wave (km/s) = 5.54669 6.34754 5.96058
#
# Compressibility (1/GPa) = 0.03578709
#
# Stress axis : x y z
#
# Youngs Moduli (GPa) = 35.46476 102.04253 107.20478
#
# Poissons Ratio (x) = 0.03653 0.30754
# Poissons Ratio (y) = 0.01269 0.27253
# Poissons Ratio (z) = 0.10174 0.25941
#
# Static dielectric constant tensor:
#      x y z
#    x 2.230360 0.000000 -0.048270 
#    y 0.000000 1.908180 0.000000 
#    z -0.048270 0.000000 2.122130 
# 
# From -- ./inp_files/96605.got.cif
#   From: 2010.05.17/outbox.cif.g08.bks.cpg/sg13_49_cif.got.tgz:96605.got - 2010.06.03 16:44:36.
