data_PCOD9237789
_publ_section_title
;
Structure prediction by ZEFSAII (Michael W. Deem and Ramdas Pophale) SiO2 
 PCOD9237789
Probable space group: P 2/C
;
_chemical_formula_sum "Si O2"
_cell_formula_units_Z 20
_cell_length_a 8.834984
_cell_length_b 11.488549
_cell_length_c 9.873700
_cell_angle_alpha 90.000000
_cell_angle_beta 100.373052
_cell_angle_gamma 90.000000
_cell_volume 985.812314
_symmetry_space_group_name_H-M "P 2/C"
_symmetry_group_IT_number 13
_symmetry_cell_setting 'monoclinic'
loop_
_space_group_symop_operation_xyz
x,y,z
-x,y,1/2-z
-x,-y,-z
x,-y,1/2+z
loop_
_atom_site_type_symbol
_atom_site_label
_atom_site_fract_x
_atom_site_fract_y
_atom_site_fract_z
Si Si1 0.683707 0.907602 0.782737
Si Si2 0.842414 0.343495 0.304458
Si Si3 0.877912 0.686388 0.116378
Si Si4 0.853249 0.040609 0.565295
Si Si5 0.610057 0.533573 0.142896
O O1 0.500000 0.909819 0.750000
O O2 0.744303 0.775078 0.794103
O O3 0.788308 0.970723 0.684136
O O4 0.720994 0.964186 0.932604
O O5 0.892028 0.368735 0.468255
O O6 0.735701 0.437194 0.210357
O O7 0.000000 0.325065 0.250000
O O8 0.887015 0.825591 0.108419
O O9 0.707613 0.648447 0.130340
O O10 0.000000 0.646074 0.250000
O O11 0.000000 0.000000 0.500000
O O12 0.500000 0.552201 0.250000
O O13 0.500000 0.500000 0.000000
#
# Coordination Sequence:
#
# PCOD9237789 Si02
#       5
#     4   4   4   4   4
#     4  11  23  41  67  98 134 174 224 283 343 404
#     4  11  25  44  69  94 133 183 224 275 343 413
#     4  11  25  43  68  99 134 176 230 275 338 411
#     4  11  23  44  68  99 136 179 225 280 341 414
#     4  12  26  46  68  98 137 177 225 285 342 405
#
# _framework density 20.287839000000002
#
# number of rings (size 3 to 8) (size 9 to 14) (size 15 to 20)
#    0.000    0.800    2.000    6.000    5.600    2.400 
#    0.000    0.000    0.000    0.000    0.000    0.000 
#    0.000    0.000    0.000    0.000    0.000    0.000 
#
# Total GULP energy -111651.179911 kJ/mol
# GULP energy per Si atom -5582.558996 kJ/mol
# Density = 2.024166 g / cm^3
# Si number density = 20.287839 Si / 1000 Ang^3
#
#
#
# Elastic Constant Matrix: (Units=GPa)
#
#
# Indices 1 2 3 4 5 6 
#
# 1 110.0146 5.7948 47.6845 0.0000 21.1402 0.0000
# 2 5.7948 69.8666 17.6912 0.0000 8.4840 0.0000
# 3 47.6845 17.6912 164.7540 0.0000 19.7917 0.0000
# 4 0.0000 0.0000 0.0000 24.2423 0.0000 -7.8517
# 5 21.1402 8.4840 19.7917 0.0000 38.8388 0.0000
# 6 0.0000 0.0000 0.0000 -7.8517 0.0000 29.0569
#
#
#
# Elastic Compliance Matrix: (Units=1/GPa)
#
#
# Indices 1 2 3 4 5 6 
#
# 1 0.011156 0.000336 -0.002691 0.000000 -0.004774 0.000000
# 2 0.000336 0.014967 -0.001374 0.000000 -0.002752 0.000000
# 3 -0.002691 -0.001374 0.007226 0.000000 -0.001917 0.000000
# 4 0.000000 0.000000 0.000000 0.045207 0.000000 0.012216
# 5 -0.004774 -0.002752 -0.001917 0.000000 0.029924 0.000000
# 6 0.000000 0.000000 0.000000 0.012216 0.000000 0.037716
#
#
# Mechanical properties :
#
#
# Convention : Reuss Voigt Hill
#
# Bulk Modulus (GPa) = 38.62323 54.10845 46.36584
# Shear Modulus (GPa) = 30.80987 36.65858 33.73422
#
# Velocity S-wave (km/s) = 3.90120 4.25540 4.08214
# Velocity P-wave (km/s) = 6.27466 7.13252 6.71730
#
# Compressibility (1/GPa) = 0.02589115
#
# Stress axis : x y z
#
# Youngs Moduli (GPa) = 89.63825 66.81281 138.37982
#
# Poissons Ratio (x) = -0.02245 0.37244
# Poissons Ratio (y) = -0.03011 0.19010
# Poissons Ratio (z) = 0.24125 0.09179
#
# Static dielectric constant tensor:
#      x y z
#    x 1.683220 0.000000 0.007480 
#    y 0.000000 1.847330 0.000000 
#    z 0.007480 0.000000 1.789380 
# 
# From -- ./inp_files/11784.got.cif
#   From: 2010.05.17/outbox.cif.g08.bks.cpg/sg13_6_cif.got.tgz:11784.got - 2010.06.03 16:44:36.
