data_PCOD9237546
_publ_section_title
;
Structure prediction by ZEFSAII (Michael W. Deem and Ramdas Pophale) SiO2 
 PCOD9237546
Probable space group: P 2/C
;
_chemical_formula_sum "Si O2"
_cell_formula_units_Z 32
_cell_length_a 11.728127
_cell_length_b 13.359521
_cell_length_c 9.158760
_cell_angle_alpha 90.000000
_cell_angle_beta 83.748415
_cell_angle_gamma 90.000000
_cell_volume 1426.480728
_symmetry_space_group_name_H-M "P 2/C"
_symmetry_group_IT_number 13
_symmetry_cell_setting 'monoclinic'
loop_
_space_group_symop_operation_xyz
x,y,z
-x,y,1/2-z
-x,-y,-z
x,-y,1/2+z
loop_
_atom_site_type_symbol
_atom_site_label
_atom_site_fract_x
_atom_site_fract_y
_atom_site_fract_z
Si Si1 0.295067 0.914458 0.442442
Si Si2 0.994646 0.293161 0.926883
Si Si3 0.606261 0.633208 0.336618
Si Si4 0.048310 0.909556 0.581303
Si Si5 0.387274 0.594722 0.674719
Si Si6 0.738318 0.295659 0.084119
Si Si7 0.630985 0.894590 0.759962
Si Si8 0.246701 0.684987 0.430630
O O1 0.182174 0.932416 0.557385
O O2 0.380960 0.907132 0.563712
O O3 0.268906 0.802566 0.386801
O O4 0.328069 0.001538 0.324784
O O5 0.000000 0.300723 0.750000
O O6 0.112845 0.340992 0.976883
O O7 0.866000 0.312155 0.003097
O O8 0.016221 0.182481 0.984157
O O9 0.500000 0.668029 0.250000
O O10 0.587168 0.517700 0.380090
O O11 0.644778 0.700327 0.466520
O O12 0.715320 0.627325 0.216953
O O13 0.000000 0.897176 0.750000
O O14 0.000000 0.000000 0.500000
O O15 0.500000 0.628700 0.750000
O O16 0.288925 0.610631 0.808391
O O17 0.336270 0.656337 0.545641
O O18 0.713522 0.194778 0.184063
O O19 0.500000 0.867103 0.750000
#
# Coordination Sequence:
#
# PCOD9237546 Si02
#       8
#     4   4   4   4   4   4   4   4
#     4  11  25  42  64  97 137 180 223 280 339 406
#     4  11  24  43  63  99 140 181 236 283 336 421
#     4  11  25  43  74 105 133 179 233 287 349 416
#     4  11  22  38  66  95 128 176 234 288 340 399
#     4  11  24  47  72 105 138 174 234 292 345 418
#     4  12  24  44  73  98 141 187 225 288 353 397
#     4  12  27  45  65  99 139 182 230 278 338 414
#     4  11  24  44  69 101 145 181 229 285 348 408
#
# _framework density 22.432829999999999
#
# number of rings (size 3 to 8) (size 9 to 14) (size 15 to 20)
#    0.000    0.750    2.500    4.875    5.250    3.500 
#    0.000    3.750    0.000    0.000    0.000    0.000 
#    0.000    0.000    0.000    0.000    0.000    0.000 
#
# Total GULP energy -178304.339478 kJ/mol
# GULP energy per Si atom -5572.010609 kJ/mol
# Density = 2.238177 g / cm^3
# Si number density = 22.432830 Si / 1000 Ang^3
#
#
#
# Elastic Constant Matrix: (Units=GPa)
#
#
# Indices 1 2 3 4 5 6 
#
# 1 87.2479 13.7799 15.6025 0.0000 -14.2146 0.0000
# 2 13.7799 51.2937 24.5477 0.0000 3.7690 0.0000
# 3 15.6025 24.5477 77.6055 0.0000 -4.9047 0.0000
# 4 0.0000 0.0000 0.0000 27.3717 0.0000 10.7356
# 5 -14.2146 3.7690 -4.9047 0.0000 48.0526 0.0000
# 6 0.0000 0.0000 0.0000 10.7356 0.0000 24.4895
#
#
#
# Elastic Compliance Matrix: (Units=1/GPa)
#
#
# Indices 1 2 3 4 5 6 
#
# 1 0.012826 -0.003083 -0.001357 0.000000 0.003897 0.000000
# 2 -0.003083 0.024031 -0.007205 0.000000 -0.003532 0.000000
# 3 -0.001357 -0.007205 0.015548 0.000000 0.001751 0.000000
# 4 0.000000 0.000000 0.000000 0.044120 0.000000 -0.019341
# 5 0.003897 -0.003532 0.001751 0.000000 0.022419 0.000000
# 6 0.000000 0.000000 0.000000 -0.019341 0.000000 0.049312
#
#
# Mechanical properties :
#
#
# Convention : Reuss Voigt Hill
#
# Bulk Modulus (GPa) = 34.34519 36.00080 35.17300
# Shear Modulus (GPa) = 24.84446 30.79722 27.82084
#
# Velocity S-wave (km/s) = 3.33153 3.70924 3.52545
# Velocity P-wave (km/s) = 5.49020 5.86751 5.68199
#
# Compressibility (1/GPa) = 0.02911616
#
# Stress axis : x y z
#
# Youngs Moduli (GPa) = 77.96574 41.61236 64.31592
#
# Poissons Ratio (x) = 0.12827 0.08730
# Poissons Ratio (y) = 0.24033 0.46339
# Poissons Ratio (z) = 0.10582 0.29981
#
# Static dielectric constant tensor:
#      x y z
#    x 1.789330 0.000000 0.013890 
#    y 0.000000 1.813570 0.000000 
#    z 0.013890 0.000000 1.879070 
# 
# From -- ./inp_files/16791.got.cif
#   From: 2010.05.17/outbox.cif.g08.bks.cpg/sg13_9_cif.got.tgz:16791.got - 2010.06.03 16:44:36.
