data_PCOD9237154
_publ_section_title
;
Structure prediction by ZEFSAII (Michael W. Deem and Ramdas Pophale) SiO2 
 PCOD9237154
Probable space group: P 2/C
;
_chemical_formula_sum "Si O2"
_cell_formula_units_Z 24
_cell_length_a 21.881818
_cell_length_b 4.855311
_cell_length_c 22.786215
_cell_angle_alpha 90.000000
_cell_angle_beta 159.792686
_cell_angle_gamma 90.000000
_cell_volume 836.214335
_symmetry_space_group_name_H-M "P 2/C"
_symmetry_group_IT_number 13
_symmetry_cell_setting 'monoclinic'
loop_
_space_group_symop_operation_xyz
x,y,z
-x,y,1/2-z
-x,-y,-z
x,-y,1/2+z
loop_
_atom_site_type_symbol
_atom_site_label
_atom_site_fract_x
_atom_site_fract_y
_atom_site_fract_z
Si Si1 0.823359 0.914046 0.673836
Si Si2 0.150841 0.299852 0.691147
Si Si3 0.644496 0.170822 0.167841
Si Si4 0.862468 0.534494 0.498741
Si Si5 0.504374 0.456513 0.866251
Si Si6 0.315109 0.169132 0.064865
O O1 0.826361 0.161109 0.723537
O O2 0.007584 0.724720 0.660465
O O3 0.643285 0.743124 0.521039
O O4 0.803204 0.009557 0.588702
O O5 0.197730 0.054392 0.688985
O O6 0.954698 0.422478 0.522662
O O7 0.280563 0.553897 0.795635
O O8 0.559045 0.290827 0.149941
O O9 0.500000 0.000000 0.000000
O O10 0.679698 0.683184 0.318100
O O11 0.798517 0.291245 0.484450
O O12 0.606982 0.578451 0.903211
O O13 0.500000 0.024663 0.250000
#
# Coordination Sequence:
#
# PCOD9237154 Si02
#       6
#     4   4   4   4   4   4
#     4  12  26  52  82 118 166 219 276 342 428 491
#     4  12  28  48  84 123 164 219 278 334 424 488
#     4  12  27  50  83 125 168 220 283 345 410 508
#     4  11  27  55  80 124 168 217 281 348 414 509
#     4  11  29  50  84 117 167 223 277 345 420 492
#     4  10  26  50  78 119 160 218 279 341 417 497
#
# _framework density 28.700776999999999
#
# number of rings (size 3 to 8) (size 9 to 14) (size 15 to 20)
#    0.000    0.667    1.667    3.500    4.667   11.333 
#    0.000    1.667    0.000    0.000    0.000    0.000 
#    0.000    0.000    0.000    0.000    0.000    0.000 
#
# Total GULP energy -134846.022888 kJ/mol
# GULP energy per Si atom -5618.584287 kJ/mol
# Density = 2.863545 g / cm^3
# Si number density = 28.700777 Si / 1000 Ang^3
#
#
#
# Elastic Constant Matrix: (Units=GPa)
#
#
# Indices 1 2 3 4 5 6 
#
# 1 161.4763 62.3342 33.6947 0.0000 24.9585 0.0000
# 2 62.3342 186.0789 81.5349 0.0000 14.3003 0.0000
# 3 33.6947 81.5349 230.2887 0.0000 3.0693 0.0000
# 4 0.0000 0.0000 0.0000 52.3552 0.0000 11.9531
# 5 24.9585 14.3003 3.0693 0.0000 59.7673 0.0000
# 6 0.0000 0.0000 0.0000 11.9531 0.0000 64.5399
#
#
#
# Elastic Compliance Matrix: (Units=1/GPa)
#
#
# Indices 1 2 3 4 5 6 
#
# 1 0.007498 -0.002186 -0.000289 0.000000 -0.002593 0.000000
# 2 -0.002186 0.007119 -0.002192 0.000000 -0.000678 0.000000
# 3 -0.000289 -0.002192 0.005155 0.000000 0.000380 0.000000
# 4 0.000000 0.000000 0.000000 0.019944 0.000000 -0.003694
# 5 -0.002593 -0.000678 0.000380 0.000000 0.017957 0.000000
# 6 0.000000 0.000000 0.000000 -0.003694 0.000000 0.016178
#
#
# Mechanical properties :
#
#
# Convention : Reuss Voigt Hill
#
# Bulk Modulus (GPa) = 95.78672 103.66349 99.72510
# Shear Modulus (GPa) = 57.69480 62.01781 59.85631
#
# Velocity S-wave (km/s) = 4.48841 4.65353 4.57171
# Velocity P-wave (km/s) = 7.76581 8.06665 7.91766
#
# Compressibility (1/GPa) = 0.01043986
#
# Stress axis : x y z
#
# Youngs Moduli (GPa) = 133.37420 140.47511 193.96939
#
# Poissons Ratio (x) = 0.30707 0.05596
# Poissons Ratio (y) = 0.29155 0.42509
# Poissons Ratio (z) = 0.03848 0.30786
#
# Static dielectric constant tensor:
#      x y z
#    x 2.219560 0.000000 -0.043950 
#    y 0.000000 2.182100 0.000000 
#    z -0.043950 0.000000 2.350060 
# 
# From -- ./inp_files/93744.got.cif
#   From: 2010.05.17/outbox.cif.g08.bks.cpg/sg13_47_cif.got.tgz:93744.got - 2010.06.03 16:44:36.
