data_PCOD9237213
_publ_section_title
;
Structure prediction by ZEFSAII (Michael W. Deem and Ramdas Pophale) SiO2 
 PCOD9237213
Probable space group: P 2/C
;
_chemical_formula_sum "Si O2"
_cell_formula_units_Z 26
_cell_length_a 12.169127
_cell_length_b 24.663218
_cell_length_c 5.325907
_cell_angle_alpha 90.000000
_cell_angle_beta 64.045516
_cell_angle_gamma 90.000000
_cell_volume 1437.245745
_symmetry_space_group_name_H-M "P 2/C"
_symmetry_group_IT_number 13
_symmetry_cell_setting 'monoclinic'
loop_
_space_group_symop_operation_xyz
x,y,z
-x,y,1/2-z
-x,-y,-z
x,-y,1/2+z
loop_
_atom_site_type_symbol
_atom_site_label
_atom_site_fract_x
_atom_site_fract_y
_atom_site_fract_z
Si Si1 0.143673 0.845019 0.606327
Si Si2 0.770942 0.786524 0.479058
Si Si3 0.851587 0.660050 0.398413
Si Si4 0.281322 0.622925 0.468678
Si Si5 0.500000 0.222628 0.250000
Si Si6 0.149421 0.031951 0.100579
Si Si7 0.500000 0.292728 0.750000
Si Si8 0.500000 0.463952 0.750000
O O1 0.175346 0.811448 0.822047
O O2 0.195510 0.906111 0.554491
O O3 0.000000 0.852314 0.750000
O O4 0.175346 0.811448 0.327261
O O5 0.796206 0.721589 0.453794
O O6 0.630031 0.805159 0.619968
O O7 0.800322 0.629823 0.200417
O O8 0.000000 0.662749 0.250000
O O9 0.800322 0.629823 0.698940
O O10 0.377896 0.672073 0.372102
O O11 0.375246 0.572089 0.374754
O O12 0.500001 0.258293 0.499735
O O13 0.000000 0.032496 0.250000
O O14 0.186983 1.000000 0.313017
O O15 0.500000 0.500000 0.500000
#
# Coordination Sequence:
#
# PCOD9237213 Si02
#       8
#     4   4   4   4   2   4   2   2
#     4  11  22  36  54  83 120 152 186 241 302 357
#     4  12  23  37  55  83 119 159 197 236 287 348
#     4  12  23  38  59  89 128 167 200 227 280 365
#     4  11  22  39  64  90 121 154 198 244 293 342
#     4  12  22  37  56  77 114 151 197 242 274 324
#     4   9  17  31  52  77 105 141 188 239 295 354
#     4  11  18  38  58  81 108 147 194 242 279 310
#     4  11  24  43  72 100 120 150 199 270 309 330
#
# _framework density 18.090156
#
# number of rings (size 3 to 8) (size 9 to 14) (size 15 to 20)
#    0.000    0.923    3.077    5.538    0.000    4.923 
#    0.000    0.000    0.000    9.231    0.000   10.769 
#    0.000    0.000    0.000    0.000    0.000    0.000 
#
# Total GULP energy -145084.683130 kJ/mol
# GULP energy per Si atom -5580.180120 kJ/mol
# Density = 1.804898 g / cm^3
# Si number density = 18.090156 Si / 1000 Ang^3
#
#
#
# Elastic Constant Matrix: (Units=GPa)
#
#
# Indices 1 2 3 4 5 6 
#
# 1 110.2278 33.1948 56.2618 0.0000 12.5853 0.0000
# 2 33.1948 104.0302 59.4516 0.0000 22.7391 0.0000
# 3 56.2618 59.4516 160.5683 0.0000 31.0098 0.0000
# 4 0.0000 0.0000 0.0000 23.2812 0.0000 5.7783
# 5 12.5853 22.7391 31.0098 0.0000 50.2052 0.0000
# 6 0.0000 0.0000 0.0000 5.7783 0.0000 16.6091
#
#
#
# Elastic Compliance Matrix: (Units=1/GPa)
#
#
# Indices 1 2 3 4 5 6 
#
# 1 0.011280 -0.001700 -0.003322 0.000000 -0.000006 0.000000
# 2 -0.001700 0.012890 -0.003556 0.000000 -0.003216 0.000000
# 3 -0.003322 -0.003556 0.009352 0.000000 -0.003333 0.000000
# 4 0.000000 0.000000 0.000000 0.047013 0.000000 -0.016356
# 5 -0.000006 -0.003216 -0.003333 0.000000 0.023435 0.000000
# 6 0.000000 0.000000 0.000000 -0.016356 0.000000 0.065898
#
#
# Mechanical properties :
#
#
# Convention : Reuss Voigt Hill
#
# Bulk Modulus (GPa) = 61.09801 74.73807 67.91804
# Shear Modulus (GPa) = 25.97677 33.08029 29.52853
#
# Velocity S-wave (km/s) = 3.79352 4.28089 4.04455
# Velocity P-wave (km/s) = 7.28253 8.11410 7.70953
#
# Compressibility (1/GPa) = 0.01636714
#
# Stress axis : x y z
#
# Youngs Moduli (GPa) = 88.65049 77.57921 106.92576
#
# Poissons Ratio (x) = 0.13185 0.35521
# Poissons Ratio (y) = 0.15067 0.38024
# Poissons Ratio (z) = 0.29450 0.27588
#
# Static dielectric constant tensor:
#      x y z
#    x 1.632620 0.000000 -0.025110 
#    y 0.000000 1.616160 0.000000 
#    z -0.025110 0.000000 1.603630 
# 
# From -- ./inp_files/4071.got.cif
#   From: 2010.05.17/outbox.cif.g08.bks.cpg/sg13_3_cif.got.tgz:4071.got - 2010.06.03 16:44:36.
