data_PCOD9237628
_publ_section_title
;
Structure prediction by ZEFSAII (Michael W. Deem and Ramdas Pophale) SiO2 
 PCOD9237628
Probable space group: P 2/C
;
_chemical_formula_sum "Si O2"
_cell_formula_units_Z 26
_cell_length_a 10.779540
_cell_length_b 6.761781
_cell_length_c 18.802670
_cell_angle_alpha 90.000000
_cell_angle_beta 116.024926
_cell_angle_gamma 90.000000
_cell_volume 1231.540899
_symmetry_space_group_name_H-M "P 2/C"
_symmetry_group_IT_number 13
_symmetry_cell_setting 'monoclinic'
loop_
_space_group_symop_operation_xyz
x,y,z
-x,y,1/2-z
-x,-y,-z
x,-y,1/2+z
loop_
_atom_site_type_symbol
_atom_site_label
_atom_site_fract_x
_atom_site_fract_y
_atom_site_fract_z
Si Si1 0.541736 0.217819 0.992233
Si Si2 0.374019 0.052310 0.634040
Si Si3 0.704344 0.522808 0.114375
Si Si4 0.500000 0.262207 0.250000
Si Si5 0.291738 0.391624 0.720008
Si Si6 0.092313 0.813610 0.541810
Si Si7 0.019203 0.524849 0.395477
O O1 0.604275 0.194387 0.928536
O O2 0.399323 0.339970 0.956830
O O3 0.648127 0.309526 0.075285
O O4 0.500000 0.000000 0.000000
O O5 0.350331 0.201491 0.693916
O O6 0.492977 0.891112 0.682057
O O7 0.241136 0.911243 0.590747
O O8 0.683990 0.591971 0.189817
O O9 0.864481 0.531295 0.135058
O O10 0.629818 0.410691 0.287384
O O11 0.128746 0.389371 0.663762
O O12 0.084627 0.652233 0.476574
O O13 0.021494 0.695207 0.588908
O O14 0.000000 0.000000 0.500000
#
# Coordination Sequence:
#
# PCOD9237628 Si02
#       7
#     4   4   4   2   4   4   4
#     4  11  24  44  68  99 133 179 228 285 341 408
#     4  12  24  43  72 101 137 182 239 288 343 423
#     4  11  25  43  67  97 138 177 223 278 350 411
#     4  12  24  42  66  98 136 180 230 292 344 406
#     4  12  25  44  67 100 138 180 223 286 350 415
#     4  11  22  42  69 100 130 172 233 281 333 411
#     4  11  24  42  69  99 134 179 222 282 347 408
#
# _framework density 21.111763
#
# number of rings (size 3 to 8) (size 9 to 14) (size 15 to 20)
#    0.000    0.615    3.077    5.538    2.154    2.462 
#    0.000    0.000    0.000    0.000    0.000    0.000 
#    0.000    0.000    0.000    0.000    0.000    0.000 
#
# Total GULP energy -145159.435644 kJ/mol
# GULP energy per Si atom -5583.055217 kJ/mol
# Density = 2.106371 g / cm^3
# Si number density = 21.111763 Si / 1000 Ang^3
#
#
#
# Elastic Constant Matrix: (Units=GPa)
#
#
# Indices 1 2 3 4 5 6 
#
# 1 107.6681 36.6822 41.9028 0.0000 10.6646 0.0000
# 2 36.6822 101.6370 32.5466 0.0000 13.7756 0.0000
# 3 41.9028 32.5466 79.9824 0.0000 5.0346 0.0000
# 4 0.0000 0.0000 0.0000 47.3959 0.0000 7.4949
# 5 10.6646 13.7756 5.0346 0.0000 37.0539 0.0000
# 6 0.0000 0.0000 0.0000 7.4949 0.0000 34.1413
#
#
#
# Elastic Compliance Matrix: (Units=1/GPa)
#
#
# Indices 1 2 3 4 5 6 
#
# 1 0.012419 -0.002504 -0.005367 0.000000 -0.001914 0.000000
# 2 -0.002504 0.012318 -0.003488 0.000000 -0.003385 0.000000
# 3 -0.005367 -0.003488 0.016698 0.000000 0.000573 0.000000
# 4 0.000000 0.000000 0.000000 0.021858 0.000000 -0.004798
# 5 -0.001914 -0.003385 0.000573 0.000000 0.028719 0.000000
# 6 0.000000 0.000000 0.000000 -0.004798 0.000000 0.030343
#
#
# Mechanical properties :
#
#
# Convention : Reuss Voigt Hill
#
# Bulk Modulus (GPa) = 53.42512 56.83896 55.13204
# Shear Modulus (GPa) = 33.04420 35.59527 34.31973
#
# Velocity S-wave (km/s) = 3.96056 4.11060 4.03627
# Velocity P-wave (km/s) = 6.80261 7.03638 6.92048
#
# Compressibility (1/GPa) = 0.01871779
#
# Stress axis : x y z
#
# Youngs Moduli (GPa) = 80.51961 81.17971 59.88879
#
# Poissons Ratio (x) = 0.20329 0.32142
# Poissons Ratio (y) = 0.20164 0.20887
# Poissons Ratio (z) = 0.43215 0.28312
#
# Static dielectric constant tensor:
#      x y z
#    x 1.637550 0.000000 0.077330 
#    y 0.000000 1.737290 0.000000 
#    z 0.077330 0.000000 1.759140 
# 
# From -- ./inp_files/77341.got.cif
#   From: 2010.05.17/outbox.cif.g08.bks.cpg/sg13_39_cif.got.tgz:77341.got - 2010.06.03 16:44:36.
