data_PCOD9237414
_publ_section_title
;
Structure prediction by ZEFSAII (Michael W. Deem and Ramdas Pophale) SiO2 
 PCOD9237414
Probable space group: P 2/C
;
_chemical_formula_sum "Si O2"
_cell_formula_units_Z 16
_cell_length_a 12.698500
_cell_length_b 7.667130
_cell_length_c 9.632212
_cell_angle_alpha 90.000000
_cell_angle_beta 138.323022
_cell_angle_gamma 90.000000
_cell_volume 623.573144
_symmetry_space_group_name_H-M "P 2/C"
_symmetry_group_IT_number 13
_symmetry_cell_setting 'monoclinic'
loop_
_space_group_symop_operation_xyz
x,y,z
-x,y,1/2-z
-x,-y,-z
x,-y,1/2+z
loop_
_atom_site_type_symbol
_atom_site_label
_atom_site_fract_x
_atom_site_fract_y
_atom_site_fract_z
Si Si1 0.644774 0.130829 0.125848
Si Si2 0.170442 0.950529 0.441285
Si Si3 0.876687 0.318254 0.955203
Si Si4 0.226430 0.448440 0.361043
O O1 0.756137 0.029682 0.125040
O O2 0.630364 0.322760 0.043506
O O3 0.714000 0.157524 0.347804
O O4 0.500000 0.000000 0.000000
O O5 0.139246 0.122657 0.506260
O O6 0.000000 0.865487 0.250000
O O7 0.784308 0.365328 0.723595
O O8 0.800759 0.437156 0.002282
O O9 0.064296 0.359297 0.138409
#
# Coordination Sequence:
#
# PCOD9237414 Si02
#       4
#     4   4   4   4
#     4  11  23  39  59  88 128 164 203 255 317 371
#     4  11  21  39  60  90 120 163 210 257 306 366
#     4   9  17  34  57  86 118 149 203 250 301 357
#     4   9  18  34  56  88 116 156 196 252 306 360
#
# _framework density 25.658579
#
# number of rings (size 3 to 8) (size 9 to 14) (size 15 to 20)
#    0.000    2.000    5.000    1.500    0.000    2.000 
#    4.500    1.250    0.000    3.000    0.000    0.000 
#    0.000    0.000    0.000    0.000    0.000    0.000 
#
# Total GULP energy -89511.731123 kJ/mol
# GULP energy per Si atom -5594.483195 kJ/mol
# Density = 2.560018 g / cm^3
# Si number density = 25.658579 Si / 1000 Ang^3
#
#
#
# Elastic Constant Matrix: (Units=GPa)
#
#
# Indices 1 2 3 4 5 6 
#
# 1 84.4603 15.2819 24.6026 0.0000 0.4124 0.0000
# 2 15.2819 77.4277 0.3755 0.0000 7.8133 0.0000
# 3 24.6026 0.3755 79.6397 0.0000 -18.1580 0.0000
# 4 0.0000 0.0000 0.0000 31.1544 0.0000 -9.5512
# 5 0.4124 7.8133 -18.1580 0.0000 35.6338 0.0000
# 6 0.0000 0.0000 0.0000 -9.5512 0.0000 32.0381
#
#
#
# Elastic Compliance Matrix: (Units=1/GPa)
#
#
# Indices 1 2 3 4 5 6 
#
# 1 0.013654 -0.002471 -0.004660 0.000000 -0.001991 0.000000
# 2 -0.002471 0.013702 0.000023 0.000000 -0.002964 0.000000
# 3 -0.004660 0.000023 0.015849 0.000000 0.008125 0.000000
# 4 0.000000 0.000000 0.000000 0.035327 0.000000 0.010532
# 5 -0.001991 -0.002964 0.008125 0.000000 0.032876 0.000000
# 6 0.000000 0.000000 0.000000 0.010532 0.000000 0.034353
#
#
# Mechanical properties :
#
#
# Convention : Reuss Voigt Hill
#
# Bulk Modulus (GPa) = 34.49771 35.78308 35.14040
# Shear Modulus (GPa) = 29.47398 33.18311 31.32854
#
# Velocity S-wave (km/s) = 3.39292 3.60009 3.49804
# Velocity P-wave (km/s) = 5.36874 5.59079 5.48089
#
# Compressibility (1/GPa) = 0.02898743
#
# Stress axis : x y z
#
# Youngs Moduli (GPa) = 73.23682 72.98177 63.09673
#
# Poissons Ratio (x) = 0.18037 0.29406
# Poissons Ratio (y) = 0.18100 -0.00146
# Poissons Ratio (z) = 0.34132 -0.00168
#
# Static dielectric constant tensor:
#      x y z
#    x 1.993960 0.000000 0.023050 
#    y 0.000000 2.121980 0.000000 
#    z 0.023050 0.000000 2.039120 
# 
# From -- ./inp_files/10841.got.cif
#   From: 2010.05.17/outbox.cif.g08.bks.cpg/sg13_6_cif.got.tgz:10841.got - 2010.06.03 16:44:36.
