data_PCOD9237924
_publ_section_title
;
Structure prediction by ZEFSAII (Michael W. Deem and Ramdas Pophale) SiO2 
 PCOD9237924
Probable space group: P 2/C
;
_chemical_formula_sum "Si O2"
_cell_formula_units_Z 20
_cell_length_a 6.563164
_cell_length_b 11.589076
_cell_length_c 12.912379
_cell_angle_alpha 90.000000
_cell_angle_beta 64.563472
_cell_angle_gamma 90.000000
_cell_volume 886.922620
_symmetry_space_group_name_H-M "P 2/C"
_symmetry_group_IT_number 13
_symmetry_cell_setting 'monoclinic'
loop_
_space_group_symop_operation_xyz
x,y,z
-x,y,1/2-z
-x,-y,-z
x,-y,1/2+z
loop_
_atom_site_type_symbol
_atom_site_label
_atom_site_fract_x
_atom_site_fract_y
_atom_site_fract_z
Si Si1 0.000000 0.527143 0.250000
Si Si2 0.000000 0.081651 0.250000
Si Si3 0.635965 0.611259 0.943227
Si Si4 0.732480 0.043775 0.635200
Si Si5 0.491051 0.170102 0.128436
Si Si6 0.248694 0.688902 0.359609
O O1 0.802321 0.436809 0.320013
O O2 0.916174 0.614148 0.177546
O O3 0.774158 0.146799 0.333824
O O4 0.919318 0.010250 0.168689
O O5 0.470952 0.715150 0.944868
O O6 0.500000 0.500000 0.000000
O O7 0.757621 0.640704 0.023457
O O8 0.500000 0.053931 0.750000
O O9 0.801207 0.175692 0.606253
O O10 0.651733 0.941572 0.573447
O O11 0.500000 0.193354 0.250000
O O12 0.500000 0.681612 0.250000
#
# Coordination Sequence:
#
# PCOD9237924 Si02
#       6
#     2   2   4   4   4   4
#     4  12  26  46  70  98 138 182 228 274 330 414
#     4   8  14  36  60  98 126 168 212 268 328 392
#     4  12  26  44  69  97 135 181 223 277 332 394
#     4   8  17  35  66  94 129 170 215 274 335 385
#     4   9  20  38  65  94 132 175 217 271 331 396
#     4  11  23  45  68 100 135 175 225 279 332 395
#
# _framework density 22.549880000000002
#
# number of rings (size 3 to 8) (size 9 to 14) (size 15 to 20)
#    0.000    2.400    2.000    1.800    2.800    0.800 
#    7.200    1.000    0.000    0.000    0.000    0.000 
#    0.000    0.000    0.000    0.000    0.000    0.000 
#
# Total GULP energy -111445.575185 kJ/mol
# GULP energy per Si atom -5572.278759 kJ/mol
# Density = 2.249856 g / cm^3
# Si number density = 22.549880 Si / 1000 Ang^3
#
#
#
# Elastic Constant Matrix: (Units=GPa)
#
#
# Indices 1 2 3 4 5 6 
#
# 1 76.7588 35.9914 1.2467 0.0000 27.8068 0.0000
# 2 35.9914 174.0546 24.9421 0.0000 31.3773 0.0000
# 3 1.2467 24.9421 31.2728 0.0000 16.2706 0.0000
# 4 0.0000 0.0000 0.0000 54.8663 0.0000 11.9533
# 5 27.8068 31.3773 16.2706 0.0000 43.2405 0.0000
# 6 0.0000 0.0000 0.0000 11.9533 0.0000 30.0810
#
#
#
# Elastic Compliance Matrix: (Units=1/GPa)
#
#
# Indices 1 2 3 4 5 6 
#
# 1 0.019028 -0.002718 0.008392 0.000000 -0.013422 0.000000
# 2 -0.002718 0.007312 -0.004815 0.000000 -0.001747 0.000000
# 3 0.008392 -0.004815 0.045351 0.000000 -0.018968 0.000000
# 4 0.000000 0.000000 0.000000 0.019954 0.000000 -0.007929
# 5 -0.013422 -0.001747 -0.018968 0.000000 0.040163 0.000000
# 6 0.000000 0.000000 0.000000 -0.007929 0.000000 0.036394
#
#
# Mechanical properties :
#
#
# Convention : Reuss Voigt Hill
#
# Bulk Modulus (GPa) = 13.62202 45.16076 29.39139
# Shear Modulus (GPa) = 26.18461 40.29797 33.24129
#
# Velocity S-wave (km/s) = 3.41132 4.23195 3.84360
# Velocity P-wave (km/s) = 4.64436 6.62946 5.72362
#
# Compressibility (1/GPa) = 0.07341053
#
# Stress axis : x y z
#
# Youngs Moduli (GPa) = 52.55372 136.75920 22.05040
#
# Poissons Ratio (x) = 0.37166 -0.18505
# Poissons Ratio (y) = 0.14282 0.10617
# Poissons Ratio (z) = -0.44104 0.65847
#
# Static dielectric constant tensor:
#      x y z
#    x 1.642660 0.000000 0.075250 
#    y 0.000000 7.702580 0.000000 
#    z 0.075250 0.000000 1.799250 
# 
# From -- ./inp_files/43626.got.cif
#   From: 2010.05.17/outbox.cif.g08.bks.cpg/sg13_22_cif.got.tgz:43626.got - 2010.06.03 16:44:36.
