data_PCOD9237635
_publ_section_title
;
Structure prediction by ZEFSAII (Michael W. Deem and Ramdas Pophale) SiO2 
 PCOD9237635
Probable space group: P 2/C
;
_chemical_formula_sum "Si O2"
_cell_formula_units_Z 14
_cell_length_a 14.784090
_cell_length_b 6.744904
_cell_length_c 14.357232
_cell_angle_alpha 90.000000
_cell_angle_beta 28.104504
_cell_angle_gamma 90.000000
_cell_volume 674.430004
_symmetry_space_group_name_H-M "P 2/C"
_symmetry_group_IT_number 13
_symmetry_cell_setting 'monoclinic'
loop_
_space_group_symop_operation_xyz
x,y,z
-x,y,1/2-z
-x,-y,-z
x,-y,1/2+z
loop_
_atom_site_type_symbol
_atom_site_label
_atom_site_fract_x
_atom_site_fract_y
_atom_site_fract_z
Si Si1 0.272892 0.632869 0.975751
Si Si2 0.000000 0.988795 0.250000
Si Si3 0.945218 0.303932 0.455399
Si Si4 0.718134 0.440386 0.814414
O O1 0.500000 0.631968 0.750000
O O2 0.162914 0.467842 0.013106
O O3 0.249497 0.594497 0.106578
O O4 0.172210 0.845989 0.060013
O O5 0.979160 0.132369 0.180356
O O6 0.788255 0.269526 0.679752
O O7 0.133782 0.380881 0.338562
O O8 0.500000 0.500000 0.000000
#
# Coordination Sequence:
#
# PCOD9237635 Si02
#       4
#     4   2   4   4
#     4  12  24  44  68  98 133 176 220 268 328 396
#     4  12  24  44  66  98 136 172 218 270 330 388
#     4  11  24  44  69  92 135 177 214 270 332 386
#     4  11  22  42  72  96 127 176 222 267 327 389
#
# _framework density 20.758268999999999
#
# number of rings (size 3 to 8) (size 9 to 14) (size 15 to 20)
#    0.000    0.571    8.571    0.000    0.000    4.571 
#    0.000    2.857    0.000    0.000    0.000    0.000 
#    0.000    0.000    0.000    0.000    0.000    0.000 
#
# Total GULP energy -78009.238209 kJ/mol
# GULP energy per Si atom -5572.088443 kJ/mol
# Density = 2.071102 g / cm^3
# Si number density = 20.758269 Si / 1000 Ang^3
#
#
#
# Elastic Constant Matrix: (Units=GPa)
#
#
# Indices 1 2 3 4 5 6 
#
# 1 91.1851 10.3995 15.9951 0.0000 5.3217 0.0000
# 2 10.3995 51.1713 12.3750 0.0000 -14.6041 0.0000
# 3 15.9951 12.3750 129.1801 0.0000 -9.1994 0.0000
# 4 0.0000 0.0000 0.0000 17.4539 0.0000 0.1309
# 5 5.3217 -14.6041 -9.1994 0.0000 57.4596 0.0000
# 6 0.0000 0.0000 0.0000 0.1309 0.0000 15.7317
#
#
#
# Elastic Compliance Matrix: (Units=1/GPa)
#
#
# Indices 1 2 3 4 5 6 
#
# 1 0.011609 -0.002594 -0.001328 0.000000 -0.001947 0.000000
# 2 -0.002594 0.022006 -0.001387 0.000000 0.005611 0.000000
# 3 -0.001328 -0.001387 0.008115 0.000000 0.001070 0.000000
# 4 0.000000 0.000000 0.000000 0.057297 0.000000 -0.000477
# 5 -0.001947 0.005611 0.001070 0.000000 0.019181 0.000000
# 6 0.000000 0.000000 0.000000 -0.000477 0.000000 0.063570
#
#
# Mechanical properties :
#
#
# Convention : Reuss Voigt Hill
#
# Bulk Modulus (GPa) = 32.14170 38.78618 35.46394
# Shear Modulus (GPa) = 24.65888 33.64684 29.15286
#
# Velocity S-wave (km/s) = 3.45034 4.03039 3.75159
# Velocity P-wave (km/s) = 5.60273 6.35484 5.99060
#
# Compressibility (1/GPa) = 0.03111223
#
# Stress axis : x y z
#
# Youngs Moduli (GPa) = 86.13969 45.44150 123.23494
#
# Poissons Ratio (x) = 0.11787 0.16361
# Poissons Ratio (y) = 0.22344 0.17097
# Poissons Ratio (z) = 0.11436 0.06304
#
# Static dielectric constant tensor:
#      x y z
#    x 1.856440 0.000000 0.066490 
#    y 0.000000 1.835590 0.000000 
#    z 0.066490 0.000000 1.797180 
# 
# From -- ./inp_files/51761.got.cif
#   From: 2010.05.17/outbox.cif.g08.bks.cpg/sg13_26_cif.got.tgz:51761.got - 2010.06.03 16:44:36.
