data_PCOD9237150
_publ_section_title
;
Structure prediction by ZEFSAII (Michael W. Deem and Ramdas Pophale) SiO2 
 PCOD9237150
Probable space group: P 2/C
;
_chemical_formula_sum "Si O2"
_cell_formula_units_Z 24
_cell_length_a 22.974740
_cell_length_b 6.781777
_cell_length_c 13.317997
_cell_angle_alpha 90.000000
_cell_angle_beta 151.046799
_cell_angle_gamma 90.000000
_cell_volume 1004.531789
_symmetry_space_group_name_H-M "P 2/C"
_symmetry_group_IT_number 13
_symmetry_cell_setting 'monoclinic'
loop_
_space_group_symop_operation_xyz
x,y,z
-x,y,1/2-z
-x,-y,-z
x,-y,1/2+z
loop_
_atom_site_type_symbol
_atom_site_label
_atom_site_fract_x
_atom_site_fract_y
_atom_site_fract_z
Si Si1 0.097573 0.284147 0.765915
Si Si2 0.852028 0.815285 0.803838
Si Si3 0.000000 0.622992 0.750000
Si Si4 0.500000 0.768184 0.250000
Si Si5 0.349543 0.927988 0.399319
Si Si6 0.190885 0.084413 0.494242
Si Si7 0.698754 0.456936 0.559780
O O1 0.041898 0.482668 0.724625
O O2 0.993483 0.192357 0.539543
O O3 0.222375 0.336842 0.900939
O O4 0.131013 0.130868 0.903493
O O5 0.822976 0.847780 0.642163
O O6 0.795488 0.606433 0.754890
O O7 0.774949 0.981475 0.743537
O O8 0.887986 0.764103 0.560275
O O9 0.603428 0.614715 0.373132
O O10 0.552106 0.916923 0.412757
O O11 0.322906 0.922389 0.240649
O O12 0.363068 0.707518 0.463448
#
# Coordination Sequence:
#
# PCOD9237150 Si02
#       7
#     4   4   2   2   4   4   4
#     4  12  24  42  67 105 151 191 223 280 354 427
#     4  11  23  42  67 105 148 185 225 275 356 436
#     4  12  24  38  62 104 154 184 232 274 338 446
#     4  10  26  50  74  96 130 190 250 298 352 398
#     4  11  24  46  72  98 140 182 237 298 346 415
#     4  12  25  40  67 107 143 182 228 280 350 423
#     4  11  23  45  74  96 135 191 234 291 350 408
#
# _framework density 23.891726999999999
#
# number of rings (size 3 to 8) (size 9 to 14) (size 15 to 20)
#    0.000    0.667    3.333    5.000    2.333    1.333 
#    0.000    4.167    0.000    0.000    0.000    0.000 
#    0.000    0.000    0.000    0.000    0.000    0.000 
#
# Total GULP energy -134207.109881 kJ/mol
# GULP energy per Si atom -5591.962912 kJ/mol
# Density = 2.383735 g / cm^3
# Si number density = 23.891727 Si / 1000 Ang^3
#
#
#
# Elastic Constant Matrix: (Units=GPa)
#
#
# Indices 1 2 3 4 5 6 
#
# 1 48.8347 22.1243 35.0151 0.0000 0.2152 0.0000
# 2 22.1243 172.6123 66.2656 0.0000 -8.6882 0.0000
# 3 35.0151 66.2656 175.8521 0.0000 -10.1237 0.0000
# 4 0.0000 0.0000 0.0000 45.6495 0.0000 10.4218
# 5 0.2152 -8.6882 -10.1237 0.0000 32.2471 0.0000
# 6 0.0000 0.0000 0.0000 10.4218 0.0000 35.5470
#
#
#
# Elastic Compliance Matrix: (Units=1/GPa)
#
#
# Indices 1 2 3 4 5 6 
#
# 1 0.024319 -0.001535 -0.004376 0.000000 -0.001950 0.000000
# 2 -0.001535 0.006905 -0.002229 0.000000 0.001171 0.000000
# 3 -0.004376 -0.002229 0.007500 0.000000 0.001783 0.000000
# 4 0.000000 0.000000 0.000000 0.023477 0.000000 -0.006883
# 5 -0.001950 0.001171 0.001783 0.000000 0.031899 0.000000
# 6 0.000000 0.000000 0.000000 -0.006883 0.000000 0.030150
#
#
# Mechanical properties :
#
#
# Convention : Reuss Voigt Hill
#
# Bulk Modulus (GPa) = 44.55516 71.56768 58.06142
# Shear Modulus (GPa) = 33.78106 40.94831 37.36469
#
# Velocity S-wave (km/s) = 3.76430 4.14443 3.95893
# Velocity P-wave (km/s) = 6.13046 7.27474 6.72697
#
# Compressibility (1/GPa) = 0.02244409
#
# Stress axis : x y z
#
# Youngs Moduli (GPa) = 41.11998 144.82985 133.32497
#
# Poissons Ratio (x) = 0.22235 0.58344
# Poissons Ratio (y) = 0.06313 0.29715
# Poissons Ratio (z) = 0.17994 0.32279
#
# Static dielectric constant tensor:
#      x y z
#    x 1.968490 0.000000 0.005770 
#    y 0.000000 1.912010 0.000000 
#    z 0.005770 0.000000 1.947670 
# 
# From -- ./inp_files/59239.got.cif
#   From: 2010.05.17/outbox.cif.g08.bks.cpg/sg13_30_cif.got.tgz:59239.got - 2010.06.03 16:44:36.
