data_PCOD9237345
_publ_section_title
;
Structure prediction by ZEFSAII (Michael W. Deem and Ramdas Pophale) SiO2 
 PCOD9237345
Probable space group: P 2/C
;
_chemical_formula_sum "Si O2"
_cell_formula_units_Z 24
_cell_length_a 19.941355
_cell_length_b 7.065954
_cell_length_c 7.743249
_cell_angle_alpha 90.000000
_cell_angle_beta 56.024837
_cell_angle_gamma 90.000000
_cell_volume 904.794254
_symmetry_space_group_name_H-M "P 2/C"
_symmetry_group_IT_number 13
_symmetry_cell_setting 'monoclinic'
loop_
_space_group_symop_operation_xyz
x,y,z
-x,y,1/2-z
-x,-y,-z
x,-y,1/2+z
loop_
_atom_site_type_symbol
_atom_site_label
_atom_site_fract_x
_atom_site_fract_y
_atom_site_fract_z
Si Si1 0.741101 0.792919 0.094218
Si Si2 0.081646 0.702568 0.163723
Si Si3 0.406175 0.689171 0.732617
Si Si4 0.916443 0.100339 0.468446
Si Si5 0.247557 0.593933 0.786484
Si Si6 0.428840 0.247123 0.604572
O O1 0.731552 0.626859 0.250257
O O2 0.648806 0.872148 0.216778
O O3 0.826186 0.891367 0.013759
O O4 0.755371 0.690491 0.892764
O O5 0.088522 0.791087 0.343803
O O6 0.000000 0.586825 0.250000
O O7 0.073506 0.873503 0.036671
O O8 0.161840 0.595402 0.002441
O O9 0.315882 0.706004 0.792286
O O10 0.420109 0.459615 0.697924
O O11 0.474884 0.790290 0.515365
O O12 0.418635 0.744392 0.912125
O O13 0.000000 0.157401 0.250000
#
# Coordination Sequence:
#
# PCOD9237345 Si02
#       6
#     4   4   4   4   4   4
#     4  11  21  34  53  80 110 141 177 219 265 309
#     4  11  22  39  59  80 105 137 176 215 260 315
#     4   9  16  27  45  71 103 138 174 213 258 308
#     4  11  22  39  59  80 105 137 176 215 260 315
#     4  11  21  34  53  80 110 141 177 219 265 309
#     4   9  16  27  45  71 103 138 174 213 258 308
#
# _framework density 26.525369999999999
#
# number of rings (size 3 to 8) (size 9 to 14) (size 15 to 20)
#    0.000    1.667    0.000   10.000    0.000    2.667 
#    0.000    3.333    0.000    1.000    0.000    0.000 
#    0.000    0.000    0.000    0.000    0.000    0.000 
#
# Total GULP energy -134168.997195 kJ/mol
# GULP energy per Si atom -5590.374883 kJ/mol
# Density = 2.646500 g / cm^3
# Si number density = 26.525370 Si / 1000 Ang^3
#
#
#
# Elastic Constant Matrix: (Units=GPa)
#
#
# Indices 1 2 3 4 5 6 
#
# 1 156.7481 -2.7699 60.5068 0.0000 -50.3222 0.0000
# 2 -2.7699 46.5782 -0.8929 0.0000 -12.7775 0.0000
# 3 60.5068 -0.8929 149.4592 0.0000 -51.3170 0.0000
# 4 0.0000 0.0000 0.0000 15.4966 0.0000 -12.3125
# 5 -50.3222 -12.7775 -51.3170 0.0000 78.3207 0.0000
# 6 0.0000 0.0000 0.0000 -12.3125 0.0000 24.1357
#
#
#
# Elastic Compliance Matrix: (Units=1/GPa)
#
#
# Indices 1 2 3 4 5 6 
#
# 1 0.008613 0.001728 -0.001909 0.000000 0.004565 0.000000
# 2 0.001728 0.023202 0.001445 0.000000 0.005842 0.000000
# 3 -0.001909 0.001445 0.009202 0.000000 0.005039 0.000000
# 4 0.000000 0.000000 0.000000 0.108512 0.000000 0.055356
# 5 0.004565 0.005842 0.005039 0.000000 0.019955 0.000000
# 6 0.000000 0.000000 0.000000 0.055356 0.000000 0.069671
#
#
# Mechanical properties :
#
#
# Convention : Reuss Voigt Hill
#
# Bulk Modulus (GPa) = 22.96476 51.83039 37.39757
# Shear Modulus (GPa) = 19.90896 43.32005 31.61450
#
# Velocity S-wave (km/s) = 2.74261 4.04562 3.45608
# Velocity P-wave (km/s) = 4.32501 6.43467 5.48228
#
# Compressibility (1/GPa) = 0.04354499
#
# Stress axis : x y z
#
# Youngs Moduli (GPa) = 116.10929 43.09892 108.66822
#
# Poissons Ratio (x) = -0.07447 0.20746
# Poissons Ratio (y) = -0.20061 -0.15704
# Poissons Ratio (z) = 0.22166 -0.06228
#
# Static dielectric constant tensor:
#      x y z
#    x 2.173340 0.000000 -0.101540 
#    y 0.000000 2.122350 0.000000 
#    z -0.101540 0.000000 2.115590 
# 
# From -- ./inp_files/18612.got.cif
#   From: 2010.05.17/outbox.cif.g08.bks.cpg/sg13_10_cif.got.tgz:18612.got - 2010.06.03 16:44:36.
