data_PCOD9238844
_publ_section_title
;
Structure prediction by ZEFSAII (Michael W. Deem and Ramdas Pophale) SiO2 
 PCOD9238844
Probable space group: P 2/C
;
_chemical_formula_sum "Si O2"
_cell_formula_units_Z 22
_cell_length_a 31.279930
_cell_length_b 4.076286
_cell_length_c 12.632568
_cell_angle_alpha 90.000000
_cell_angle_beta 154.042225
_cell_angle_gamma 90.000000
_cell_volume 705.029341
_symmetry_space_group_name_H-M "P 2/C"
_symmetry_group_IT_number 13
_symmetry_cell_setting 'monoclinic'
loop_
_space_group_symop_operation_xyz
x,y,z
-x,y,1/2-z
-x,-y,-z
x,-y,1/2+z
loop_
_atom_site_type_symbol
_atom_site_label
_atom_site_fract_x
_atom_site_fract_y
_atom_site_fract_z
Si Si1 0.409563 0.710838 0.754074
Si Si2 0.319227 0.309942 0.258458
Si Si3 0.047169 0.789590 0.251249
Si Si4 0.500000 0.267427 0.250000
Si Si5 0.858110 0.237896 0.221695
Si Si6 0.767142 0.731350 0.727664
O O1 0.363721 0.877247 0.756246
O O2 0.454772 0.900810 0.754182
O O3 0.319071 0.498796 0.507344
O O4 0.500000 0.500000 0.000000
O O5 0.410259 0.517246 0.505730
O O6 0.279778 0.107457 0.271474
O O7 0.227950 0.528295 0.013436
O O8 0.134856 0.582794 0.500491
O O9 0.000000 0.962269 0.250000
O O10 0.097297 0.009690 0.271189
O O11 0.955703 0.609059 0.992432
O O12 0.808900 0.080037 0.218204
#
# Coordination Sequence:
#
# PCOD9238844 Si02
#       6
#     4   4   4   2   4   4
#     4   8  14  26  46  71  95 124 154 190 239 287
#     4   9  16  28  49  74  97 124 160 205 246 285
#     4   9  18  34  51  68  96 135 167 197 245 299
#     4   8  14  26  44  70 100 122 150 192 244 292
#     4   9  18  33  49  68  97 132 165 200 247 296
#     4   9  17  30  49  74  99 124 162 205 241 287
#
# _framework density 31.204378999999999
#
# number of rings (size 3 to 8) (size 9 to 14) (size 15 to 20)
#    0.000    3.273    0.000    0.000    0.000    0.727 
#    0.000   19.091    0.000    6.545    0.000   70.000 
#    0.000    0.000    0.000    0.000    0.000    0.000 
#
# Total GULP energy -122859.832158 kJ/mol
# GULP energy per Si atom -5584.537825 kJ/mol
# Density = 3.113336 g / cm^3
# Si number density = 31.204379 Si / 1000 Ang^3
#
#
#
# Elastic Constant Matrix: (Units=GPa)
#
#
# Indices 1 2 3 4 5 6 
#
# 1 467.2490 65.3170 -6.4624 0.0000 -12.8972 0.0000
# 2 65.3170 64.2206 90.6252 0.0000 2.9104 0.0000
# 3 -6.4624 90.6252 409.4332 0.0000 18.5720 0.0000
# 4 0.0000 0.0000 0.0000 69.4535 0.0000 20.5058
# 5 -12.8972 2.9104 18.5720 0.0000 40.7310 0.0000
# 6 0.0000 0.0000 0.0000 20.5058 0.0000 28.9433
#
#
#
# Elastic Compliance Matrix: (Units=1/GPa)
#
#
# Indices 1 2 3 4 5 6 
#
# 1 0.002752 -0.004140 0.000926 0.000000 0.000745 0.000000
# 2 -0.004140 0.028889 -0.006440 0.000000 -0.000439 0.000000
# 3 0.000926 -0.006440 0.003930 0.000000 -0.001038 0.000000
# 4 0.000000 0.000000 0.000000 0.018206 0.000000 -0.012899
# 5 0.000745 -0.000439 -0.001038 0.000000 0.025292 0.000000
# 6 0.000000 0.000000 0.000000 -0.012899 0.000000 0.043689
#
#
# Mechanical properties :
#
#
# Convention : Reuss Voigt Hill
#
# Bulk Modulus (GPa) = 61.48620 137.76251 99.62436
# Shear Modulus (GPa) = 33.90133 80.58710 57.24421
#
# Velocity S-wave (km/s) = 3.29968 5.08740 4.28774
# Velocity P-wave (km/s) = 5.85357 8.87430 7.51723
#
# Compressibility (1/GPa) = 0.01626381
#
# Stress axis : x y z
#
# Youngs Moduli (GPa) = 363.34084 34.61512 254.48323
#
# Poissons Ratio (x) = 0.14329 -0.23563
# Poissons Ratio (y) = 1.50409 1.63883
# Poissons Ratio (z) = -0.33642 0.22292
#
# Static dielectric constant tensor:
#      x y z
#    x 2.382570 0.000000 0.008350 
#    y 0.000000 2.405100 0.000000 
#    z 0.008350 0.000000 2.349400 
# 
# From -- ./inp_files/42581.got.cif
#   From: 2010.05.17/outbox.cif.g08.bks.cpg/sg13_22_cif.got.tgz:42581.got - 2010.06.03 16:44:36.
