data_PCOD9238909
_publ_section_title
;
Structure prediction by ZEFSAII (Michael W. Deem and Ramdas Pophale) SiO2 
 PCOD9238909
Probable space group: P 2/C
;
_chemical_formula_sum "Si O2"
_cell_formula_units_Z 32
_cell_length_a 15.000000
_cell_length_b 12.000000
_cell_length_c 18.000000
_cell_angle_alpha 90.000000
_cell_angle_beta 30.000000
_cell_angle_gamma 90.000000
_cell_volume 1620.000000
_symmetry_space_group_name_H-M "P 2/C"
_symmetry_group_IT_number 13
_symmetry_cell_setting 'monoclinic'
loop_
_space_group_symop_operation_xyz
x,y,z
-x,y,1/2-z
-x,-y,-z
x,-y,1/2+z
loop_
_atom_site_type_symbol
_atom_site_label
_atom_site_fract_x
_atom_site_fract_y
_atom_site_fract_z
Si Si1 0.906853 0.895714 0.396943
Si Si2 0.211392 0.280763 0.096468
Si Si3 0.121867 0.543613 0.288040
Si Si4 0.752910 0.478589 0.969112
Si Si5 0.571940 0.739795 0.619452
Si Si6 0.714011 0.882259 0.096055
Si Si7 0.080033 0.232716 0.913666
Si Si8 0.251003 0.703075 0.739823
O O1 0.756883 0.806739 0.478002
O O2 0.024672 0.839343 0.379317
O O3 0.000000 0.927001 0.250000
O O4 0.815542 0.002528 0.502627
O O5 0.306659 0.395561 0.003607
O O6 0.254045 0.251414 0.151970
O O7 0.000000 0.308105 0.250000
O O8 0.243971 0.195273 0.006280
O O9 0.201155 0.566014 0.147937
O O10 0.212718 0.430518 0.255120
O O11 0.916499 0.520585 0.410414
O O12 0.134893 0.647356 0.336217
O O13 0.615224 0.390216 0.098356
O O14 0.500000 0.783897 0.750000
O O15 0.429411 0.740238 0.655185
O O16 0.500000 0.898348 0.250000
O O17 0.783230 0.827063 0.125215
O O18 0.909298 0.254550 0.091013
#
# Coordination Sequence:
#
# PCOD9238909 Si02
#       8
#     4   4   4   4   4   4   4   4
#     4  12  27  50  76  97 134 187 239 290 356 422
#     4  11  21  44  69  98 142 196 227 276 347 423
#     4  10  19  37  64 103 141 187 226 271 338 427
#     4  10  19  37  67  98 146 187 224 274 341 411
#     4  12  24  41  66 108 142 179 234 300 342 402
#     4  12  29  48  71 103 140 175 238 304 351 412
#     4  12  23  43  75 100 140 185 235 279 360 419
#     4  11  23  39  71 106 144 187 228 287 345 418
#
# _framework density 19.753086
#
# number of rings (size 3 to 8) (size 9 to 14) (size 15 to 20)
#    0.000    0.750    6.250    2.250    0.000    6.500 
#    0.000    1.250    0.000    0.000    0.000    0.000 
#    0.000    0.000    0.000    0.000    0.000    0.000 
#
# Total GULP energy -178491.251220 kJ/mol
# GULP energy per Si atom -5577.851601 kJ/mol
# Density = 1.970813 g / cm^3
# Si number density = 19.753086 Si / 1000 Ang^3
#
#
#
# Elastic Constant Matrix: (Units=GPa)
#
#
# Indices 1 2 3 4 5 6 
#
# 1 197.7655 45.8965 30.8717 0.0000 6.1846 0.0000
# 2 45.8965 83.6921 19.9571 0.0000 11.6754 0.0000
# 3 30.8717 19.9571 52.1072 0.0000 7.0808 0.0000
# 4 0.0000 0.0000 0.0000 39.4479 0.0000 9.4938
# 5 6.1846 11.6754 7.0808 0.0000 34.1137 0.0000
# 6 0.0000 0.0000 0.0000 9.4938 0.0000 35.8379
#
#
#
# Elastic Compliance Matrix: (Units=1/GPa)
#
#
# Indices 1 2 3 4 5 6 
#
# 1 0.006095 -0.002776 -0.002600 0.000000 0.000385 0.000000
# 2 -0.002776 0.014847 -0.003519 0.000000 -0.003848 0.000000
# 3 -0.002600 -0.003519 0.022486 0.000000 -0.002992 0.000000
# 4 0.000000 0.000000 0.000000 0.027076 0.000000 -0.007173
# 5 0.000385 -0.003848 -0.002992 0.000000 0.031182 0.000000
# 6 0.000000 0.000000 0.000000 -0.007173 0.000000 0.029804
#
#
# Mechanical properties :
#
#
# Convention : Reuss Voigt Hill
#
# Bulk Modulus (GPa) = 39.00500 58.55728 48.78114
# Shear Modulus (GPa) = 31.68092 37.66920 34.67506
#
# Velocity S-wave (km/s) = 4.00915 4.37166 4.19432
# Velocity P-wave (km/s) = 6.42030 7.42906 6.94302
#
# Compressibility (1/GPa) = 0.02563774
#
# Stress axis : x y z
#
# Youngs Moduli (GPa) = 164.08131 67.35491 44.47250
#
# Poissons Ratio (x) = 0.18697 0.11562
# Poissons Ratio (y) = 0.45548 0.15649
# Poissons Ratio (z) = 0.42660 0.23701
#
# Static dielectric constant tensor:
#      x y z
#    x 1.678320 0.000000 -0.019660 
#    y 0.000000 1.717900 0.000000 
#    z -0.019660 0.000000 1.730990 
# 
# From -- ./inp_files/68637.got.cif
#   From: 2010.05.17/outbox.ucp.g08.bks.cvg/sg13_35_cif.got.tgz:68637.got - 2010.06.11 12:23:55.
