data_PCOD9238303
_publ_section_title
;
Structure prediction by ZEFSAII (Michael W. Deem and Ramdas Pophale) SiO2 
 PCOD9238303
Probable space group: P 2/C
;
_chemical_formula_sum "Si O2"
_cell_formula_units_Z 18
_cell_length_a 17.141058
_cell_length_b 7.772178
_cell_length_c 17.412201
_cell_angle_alpha 90.000000
_cell_angle_beta 19.897878
_cell_angle_gamma 90.000000
_cell_volume 789.501681
_symmetry_space_group_name_H-M "P 2/C"
_symmetry_group_IT_number 13
_symmetry_cell_setting 'monoclinic'
loop_
_space_group_symop_operation_xyz
x,y,z
-x,y,1/2-z
-x,-y,-z
x,-y,1/2+z
loop_
_atom_site_type_symbol
_atom_site_label
_atom_site_fract_x
_atom_site_fract_y
_atom_site_fract_z
Si Si1 0.199121 0.747333 0.628098
Si Si2 0.500000 0.998749 0.250000
Si Si3 0.100793 0.219422 0.946156
Si Si4 0.759590 0.857849 0.638671
Si Si5 0.461310 0.486517 0.125655
O O1 0.379468 0.881581 0.425864
O O2 0.333110 0.570341 0.517723
O O3 0.000000 0.729485 0.750000
O O4 0.093291 0.802413 0.808184
O O5 0.290550 0.100171 0.403705
O O6 0.242283 0.387322 0.839797
O O7 0.246992 0.043800 0.813963
O O8 0.985438 0.226660 0.968830
O O9 0.572544 0.712888 0.827263
O O10 0.500000 0.500000 0.000000
#
# Coordination Sequence:
#
# PCOD9238303 Si02
#       5
#     4   2   4   4   4
#     4  12  24  48  75 101 153 195 235 312 373 427
#     4  12  26  48  72 106 146 194 248 298 376 432
#     4  11  25  48  75 103 152 188 240 308 368 439
#     4  11  25  46  75 107 142 191 244 294 370 446
#     4  12  26  47  76 109 144 191 249 302 367 444
#
# _framework density 22.799192000000001
#
# number of rings (size 3 to 8) (size 9 to 14) (size 15 to 20)
#    0.000    0.444    6.667    0.667    0.000    8.000 
#    0.000    0.000    4.889    0.000    0.000    0.000 
#    0.000    0.000    0.000    0.000    0.000    0.000 
#
# Total GULP energy -100491.755754 kJ/mol
# GULP energy per Si atom -5582.875320 kJ/mol
# Density = 2.274730 g / cm^3
# Si number density = 22.799192 Si / 1000 Ang^3
#
#
#
# Elastic Constant Matrix: (Units=GPa)
#
#
# Indices 1 2 3 4 5 6 
#
# 1 118.2807 24.5856 30.3130 0.0000 -40.1589 0.0000
# 2 24.5856 105.4778 34.6808 0.0000 8.8966 0.0000
# 3 30.3130 34.6808 81.3713 0.0000 4.5472 0.0000
# 4 0.0000 0.0000 0.0000 11.6107 0.0000 -4.0203
# 5 -40.1589 8.8966 4.5472 0.0000 49.4806 0.0000
# 6 0.0000 0.0000 0.0000 -4.0203 0.0000 46.1627
#
#
#
# Elastic Compliance Matrix: (Units=1/GPa)
#
#
# Indices 1 2 3 4 5 6 
#
# 1 0.014715 -0.002884 -0.004974 0.000000 0.012918 0.000000
# 2 -0.002884 0.011712 -0.003688 0.000000 -0.004107 0.000000
# 3 -0.004974 -0.003688 0.015985 0.000000 -0.004843 0.000000
# 4 0.000000 0.000000 0.000000 0.088805 0.000000 0.007734
# 5 0.012918 -0.004107 -0.004843 0.000000 0.031878 0.000000
# 6 0.000000 0.000000 0.000000 0.007734 0.000000 0.022336
#
#
# Mechanical properties :
#
#
# Convention : Reuss Voigt Hill
#
# Bulk Modulus (GPa) = 51.76167 53.80984 52.78575
# Shear Modulus (GPa) = 23.25984 35.82084 29.54034
#
# Velocity S-wave (km/s) = 3.19753 3.96807 3.60345
# Velocity P-wave (km/s) = 6.03198 6.68184 6.36521
#
# Compressibility (1/GPa) = 0.01931932
#
# Stress axis : x y z
#
# Youngs Moduli (GPa) = 67.95883 85.38371 62.55924
#
# Poissons Ratio (x) = 0.24623 0.31120
# Poissons Ratio (y) = 0.19598 0.23071
# Poissons Ratio (z) = 0.33806 0.31488
#
# Static dielectric constant tensor:
#      x y z
#    x 1.868530 0.000000 -0.029020 
#    y 0.000000 1.813010 0.000000 
#    z -0.029020 0.000000 1.916630 
# 
# From -- ./inp_files/69389.got.cif
#   From: 2010.05.17/outbox.cif.g08.bks.cpg/sg13_35_cif.got.tgz:69389.got - 2010.06.03 16:44:36.
