data_PCOD9238189
_publ_section_title
;
Structure prediction by ZEFSAII (Michael W. Deem and Ramdas Pophale) SiO2 
 PCOD9238189
Probable space group: P 2/C
;
_chemical_formula_sum "Si O2"
_cell_formula_units_Z 18
_cell_length_a 7.731879
_cell_length_b 9.630799
_cell_length_c 12.966715
_cell_angle_alpha 90.000000
_cell_angle_beta 59.994313
_cell_angle_gamma 90.000000
_cell_volume 836.147844
_symmetry_space_group_name_H-M "P 2/C"
_symmetry_group_IT_number 13
_symmetry_cell_setting 'monoclinic'
loop_
_space_group_symop_operation_xyz
x,y,z
-x,y,1/2-z
-x,-y,-z
x,-y,1/2+z
loop_
_atom_site_type_symbol
_atom_site_label
_atom_site_fract_x
_atom_site_fract_y
_atom_site_fract_z
Si Si1 0.713142 0.017766 0.375941
Si Si2 0.929209 0.108470 0.110105
Si Si3 0.500000 0.396507 0.750000
Si Si4 0.219862 0.296704 0.657688
Si Si5 0.193267 0.596212 0.949197
O O1 0.755018 0.054344 0.241781
O O2 0.862508 0.123917 0.388785
O O3 0.500000 0.000000 0.500000
O O4 0.803484 0.864636 0.361475
O O5 0.856918 0.253615 0.084367
O O6 0.000000 0.000000 0.000000
O O7 0.377466 0.308889 0.702645
O O8 0.349483 0.501956 0.845986
O O9 0.278483 0.376123 0.537536
O O10 0.000000 0.351950 0.750000
O O11 0.000000 0.500000 0.000000
#
# Coordination Sequence:
#
# PCOD9238189 Si02
#       5
#     4   4   2   4   4
#     4  11  26  43  77 110 149 197 255 316 383 457
#     4  11  24  47  73 106 149 194 248 314 380 443
#     4  12  30  46  78 108 158 208 248 308 396 460
#     4  12  24  51  73 111 153 199 255 315 382 451
#     4  12  27  47  77 109 153 199 254 318 377 469
#
# _framework density 21.527293
#
# number of rings (size 3 to 8) (size 9 to 14) (size 15 to 20)
#    0.000    0.444    6.667    0.667    6.222    4.444 
#    0.000    0.000    0.000    0.000    0.000    0.000 
#    0.000    0.000    0.000    0.000    0.000    0.000 
#
# Total GULP energy -100394.366473 kJ/mol
# GULP energy per Si atom -5577.464804 kJ/mol
# Density = 2.147830 g / cm^3
# Si number density = 21.527293 Si / 1000 Ang^3
#
#
#
# Elastic Constant Matrix: (Units=GPa)
#
#
# Indices 1 2 3 4 5 6 
#
# 1 115.1668 -0.5834 37.4998 0.0000 4.3765 0.0000
# 2 -0.5834 33.5416 0.2674 0.0000 10.6104 0.0000
# 3 37.4998 0.2674 133.0565 0.0000 -17.3884 0.0000
# 4 0.0000 0.0000 0.0000 -96.9383 0.0000 164.2369
# 5 4.3765 10.6104 -17.3884 0.0000 49.9137 0.0000
# 6 0.0000 0.0000 0.0000 164.2369 0.0000 -175.2263
#
#
#
# Elastic Compliance Matrix: (Units=1/GPa)
#
#
# Indices 1 2 3 4 5 6 
#
# 1 0.009751 0.000855 -0.003023 0.000000 -0.002090 0.000000
# 2 0.000855 0.032165 -0.001267 0.000000 -0.007354 0.000000
# 3 -0.003023 -0.001267 0.008843 0.000000 0.003615 0.000000
# 4 0.000000 0.000000 0.000000 0.017544 0.000000 0.016444
# 5 -0.002090 -0.007354 0.003615 0.000000 0.023040 0.000000
# 6 0.000000 0.000000 0.000000 0.016444 0.000000 0.009706
#
#
# Mechanical properties :
#
#
# Convention : Reuss Voigt Hill
#
# Bulk Modulus (GPa) = 22.78475 39.57029 31.17752
# Shear Modulus (GPa) = 40.80025 -28.14476 6.32774
#
# Velocity S-wave (km/s) = 4.35820 -3.61972 1.71633
# Velocity P-wave (km/s) = 5.99436 0.97546 4.29441
#
# Compressibility (1/GPa) = 0.04388900
#
# Stress axis : x y z
#
# Youngs Moduli (GPa) = 102.55204 31.08980 113.08981
#
# Poissons Ratio (x) = -0.02658 0.34187
# Poissons Ratio (y) = -0.08766 0.14323
# Poissons Ratio (z) = 0.31002 0.03938
#
# Static dielectric constant tensor:
#      x y z
#    x 1.782450 0.000000 0.034980 
#    y 0.000000 1.686420 0.000000 
#    z 0.034980 0.000000 1.843740 
# 
# From -- ./inp_files/29244.got.cif
#   From: 2010.05.17/outbox.cif.g08.bks.cpg/sg13_15_cif.got.tgz:29244.got - 2010.06.03 16:44:36.
