data_PCOD9238051
_publ_section_title
;
Structure prediction by ZEFSAII (Michael W. Deem and Ramdas Pophale) SiO2 
 PCOD9238051
Probable space group: P 2/C
;
_chemical_formula_sum "Si O2"
_cell_formula_units_Z 16
_cell_length_a 8.123316
_cell_length_b 10.421043
_cell_length_c 15.915774
_cell_angle_alpha 90.000000
_cell_angle_beta 150.827970
_cell_angle_gamma 90.000000
_cell_volume 656.731193
_symmetry_space_group_name_H-M "P 2/C"
_symmetry_group_IT_number 13
_symmetry_cell_setting 'monoclinic'
loop_
_space_group_symop_operation_xyz
x,y,z
-x,y,1/2-z
-x,-y,-z
x,-y,1/2+z
loop_
_atom_site_type_symbol
_atom_site_label
_atom_site_fract_x
_atom_site_fract_y
_atom_site_fract_z
Si Si1 0.270422 0.663273 0.230091
Si Si2 0.895949 0.072674 0.539645
Si Si3 0.884977 0.573014 0.602206
Si Si4 0.856026 0.826062 0.775845
O O1 0.500000 0.646671 0.250000
O O2 0.506792 0.623201 0.414692
O O3 0.142828 0.810136 0.173419
O O4 0.964048 0.562147 0.093440
O O5 0.521783 0.128682 0.376410
O O6 0.000000 0.000000 0.500000
O O7 0.916985 0.950749 0.608447
O O8 0.000000 0.551312 0.750000
O O9 0.093594 0.691706 0.653551
O O10 0.000000 0.787067 0.750000
#
# Coordination Sequence:
#
# PCOD9238051 Si02
#       4
#     4   4   4   4
#     4  12  25  44  71 104 142 190 238 293 356 424
#     4  12  25  44  70 103 141 184 236 296 355 420
#     4  11  25  45  69 105 146 189 237 292 353 426
#     4  11  24  43  66  98 137 183 233 289 351 420
#
# _framework density 24.363087
#
# number of rings (size 3 to 8) (size 9 to 14) (size 15 to 20)
#    0.000    0.500    0.000    9.000    0.000    7.000 
#    0.000    0.000    0.000    0.000    0.000    0.000 
#    0.000    0.000    0.000    0.000    0.000    0.000 
#
# Total GULP energy -89329.725037 kJ/mol
# GULP energy per Si atom -5583.107815 kJ/mol
# Density = 2.430764 g / cm^3
# Si number density = 24.363087 Si / 1000 Ang^3
#
#
#
# Elastic Constant Matrix: (Units=GPa)
#
#
# Indices 1 2 3 4 5 6 
#
# 1 51.4188 27.6361 8.7114 0.0000 8.4888 0.0000
# 2 27.6361 184.9195 23.1814 0.0000 2.3841 0.0000
# 3 8.7114 23.1814 90.3422 0.0000 8.6047 0.0000
# 4 0.0000 0.0000 0.0000 54.9372 0.0000 13.0529
# 5 8.4888 2.3841 8.6047 0.0000 31.8688 0.0000
# 6 0.0000 0.0000 0.0000 13.0529 0.0000 66.3935
#
#
#
# Elastic Compliance Matrix: (Units=1/GPa)
#
#
# Indices 1 2 3 4 5 6 
#
# 1 0.022175 -0.003142 -0.000813 0.000000 -0.005452 0.000000
# 2 -0.003142 0.006033 -0.001316 0.000000 0.000741 0.000000
# 3 -0.000813 -0.001316 0.011757 0.000000 -0.002860 0.000000
# 4 0.000000 0.000000 0.000000 0.019095 0.000000 -0.003754
# 5 -0.005452 0.000741 -0.002860 0.000000 0.033548 0.000000
# 6 0.000000 0.000000 0.000000 -0.003754 0.000000 0.015800
#
#
# Mechanical properties :
#
#
# Convention : Reuss Voigt Hill
#
# Bulk Modulus (GPa) = 33.98551 49.52647 41.75599
# Shear Modulus (GPa) = 38.83352 48.45000 43.64176
#
# Velocity S-wave (km/s) = 3.99676 4.46428 4.23697
# Velocity P-wave (km/s) = 5.93958 6.85169 6.41188
#
# Compressibility (1/GPa) = 0.02942431
#
# Stress axis : x y z
#
# Youngs Moduli (GPa) = 45.09679 165.76422 85.05338
#
# Poissons Ratio (x) = 0.52080 0.06913
# Poissons Ratio (y) = 0.14168 0.11189
# Poissons Ratio (z) = 0.03665 0.21807
#
# Static dielectric constant tensor:
#      x y z
#    x 1.353160 0.000000 0.160150 
#    y 0.000000 2.342470 0.000000 
#    z 0.160150 0.000000 1.940680 
# 
# From -- ./inp_files/10718.got.cif
#   From: 2010.05.17/outbox.cif.g08.bks.cpg/sg13_6_cif.got.tgz:10718.got - 2010.06.03 16:44:36.
