data_PCOD9238004
_publ_section_title
;
Structure prediction by ZEFSAII (Michael W. Deem and Ramdas Pophale) SiO2 
 PCOD9238004
Probable space group: P 2/C
;
_chemical_formula_sum "Si O2"
_cell_formula_units_Z 18
_cell_length_a 12.423505
_cell_length_b 4.994369
_cell_length_c 11.204149
_cell_angle_alpha 90.000000
_cell_angle_beta 106.014159
_cell_angle_gamma 90.000000
_cell_volume 668.212336
_symmetry_space_group_name_H-M "P 2/C"
_symmetry_group_IT_number 13
_symmetry_cell_setting 'monoclinic'
loop_
_space_group_symop_operation_xyz
x,y,z
-x,y,1/2-z
-x,-y,-z
x,-y,1/2+z
loop_
_atom_site_type_symbol
_atom_site_label
_atom_site_fract_x
_atom_site_fract_y
_atom_site_fract_z
Si Si1 0.500000 0.000000 0.000000
Si Si2 0.820545 0.503124 0.895996
Si Si3 0.708801 0.859695 0.053773
Si Si4 0.590889 0.513014 0.682922
Si Si5 0.105059 0.001055 0.201698
O O1 0.628316 0.043546 0.951975
O O2 0.555890 0.210474 0.114893
O O3 0.712211 0.515626 0.778019
O O4 0.869108 0.207066 0.897333
O O5 0.906794 0.709590 0.861189
O O6 0.778339 0.632366 0.006254
O O7 0.598016 0.722147 0.085019
O O8 0.791097 0.989277 0.173984
O O9 0.500000 0.438778 0.750000
O O10 0.000000 0.924562 0.250000
#
# Coordination Sequence:
#
# PCOD9238004 Si02
#       5
#     2   4   4   4   4
#     4  12  22  40  64  98 136 180 212 280 324 414
#     4  11  25  43  71 100 134 176 223 281 332 397
#     4  11  26  41  67  99 137 174 229 269 339 399
#     4  11  24  40  64  99 138 179 218 273 332 404
#     4  11  26  47  69  98 133 176 229 281 336 394
#
# _framework density 26.937546000000001
#
# number of rings (size 3 to 8) (size 9 to 14) (size 15 to 20)
#    0.000    0.889    4.444    1.333    3.111    4.444 
#    0.000    0.000    0.000    0.000    0.000    0.000 
#    0.000    0.000    0.000    0.000    0.000    0.000 
#
# Total GULP energy -100583.357132 kJ/mol
# GULP energy per Si atom -5587.964285 kJ/mol
# Density = 2.687623 g / cm^3
# Si number density = 26.937546 Si / 1000 Ang^3
#
#
#
# Elastic Constant Matrix: (Units=GPa)
#
#
# Indices 1 2 3 4 5 6 
#
# 1 137.4612 -3.8908 12.0647 0.0000 -6.6227 0.0000
# 2 -3.8908 101.7619 21.0089 0.0000 -12.8952 0.0000
# 3 12.0647 21.0089 45.3520 0.0000 2.4331 0.0000
# 4 0.0000 0.0000 0.0000 32.0004 0.0000 -13.2695
# 5 -6.6227 -12.8952 2.4331 0.0000 56.8819 0.0000
# 6 0.0000 0.0000 0.0000 -13.2695 0.0000 34.8002
#
#
#
# Elastic Compliance Matrix: (Units=1/GPa)
#
#
# Indices 1 2 3 4 5 6 
#
# 1 0.007582 0.000965 -0.002529 0.000000 0.001210 0.000000
# 2 0.000965 0.011414 -0.005702 0.000000 0.002944 0.000000
# 3 -0.002529 -0.005702 0.025508 0.000000 -0.002678 0.000000
# 4 0.000000 0.000000 0.000000 0.037119 0.000000 0.014154
# 5 0.001210 0.002944 -0.002678 0.000000 0.018503 0.000000
# 6 0.000000 0.000000 0.000000 0.014154 0.000000 0.034132
#
#
# Mechanical properties :
#
#
# Convention : Reuss Voigt Hill
#
# Bulk Modulus (GPa) = 33.36434 38.10452 35.73443
# Shear Modulus (GPa) = 31.48992 41.76265 36.62629
#
# Velocity S-wave (km/s) = 3.42277 3.94172 3.69138
# Velocity P-wave (km/s) = 5.29464 5.90698 5.60917
#
# Compressibility (1/GPa) = 0.02997212
#
# Stress axis : x y z
#
# Youngs Moduli (GPa) = 131.88476 87.61132 39.20379
#
# Poissons Ratio (x) = -0.08458 0.09915
# Poissons Ratio (y) = -0.12732 0.22355
# Poissons Ratio (z) = 0.33356 0.49958
#
# Static dielectric constant tensor:
#      x y z
#    x 2.280160 0.000000 -0.105430 
#    y 0.000000 2.320390 0.000000 
#    z -0.105430 0.000000 2.207040 
# 
# From -- ./inp_files/31306.got.cif
#   From: 2010.05.17/outbox.cif.g08.bks.cpg/sg13_16_cif.got.tgz:31306.got - 2010.06.03 16:44:36.
