data_PCOD9238262
_publ_section_title
;
Structure prediction by ZEFSAII (Michael W. Deem and Ramdas Pophale) SiO2 
 PCOD9238262
Probable space group: P 2/C
;
_chemical_formula_sum "Si O2"
_cell_formula_units_Z 22
_cell_length_a 23.051164
_cell_length_b 5.056483
_cell_length_c 9.619578
_cell_angle_alpha 90.000000
_cell_angle_beta 135.454933
_cell_angle_gamma 90.000000
_cell_volume 786.514215
_symmetry_space_group_name_H-M "P 2/C"
_symmetry_group_IT_number 13
_symmetry_cell_setting 'monoclinic'
loop_
_space_group_symop_operation_xyz
x,y,z
-x,y,1/2-z
-x,-y,-z
x,-y,1/2+z
loop_
_atom_site_type_symbol
_atom_site_label
_atom_site_fract_x
_atom_site_fract_y
_atom_site_fract_z
Si Si1 0.546006 0.832907 0.702170
Si Si2 0.145284 0.962160 0.152852
Si Si3 0.679628 0.822794 0.524171
Si Si4 0.691283 0.498678 0.295819
Si Si5 0.871095 0.473876 0.212875
Si Si6 0.000000 0.249743 0.750000
O O1 0.500000 0.671422 0.750000
O O2 0.616152 0.661930 0.741206
O O3 0.500000 0.000000 0.500000
O O4 0.405814 0.031403 0.612175
O O5 0.241363 0.016017 0.285632
O O6 0.132403 0.163346 0.261996
O O7 0.133267 0.652356 0.155768
O O8 0.072848 0.068326 0.933275
O O9 0.686407 0.773232 0.370329
O O10 0.681214 0.555499 0.616454
O O11 0.786865 0.429142 0.493977
O O12 0.953578 0.566065 0.280307
#
# Coordination Sequence:
#
# PCOD9238262 Si02
#       6
#     4   4   4   4   4   2
#     4  12  26  45  73 105 142 184 239 311 374 449
#     4  11  25  45  70 104 146 194 244 307 362 444
#     4  11  25  47  71 104 144 192 247 298 380 441
#     4  11  25  47  71 104 143 197 236 308 369 455
#     4  11  25  45  70 104 146 194 246 301 370 434
#     4  12  24  44  70 108 144 194 248 304 362 434
#
# _framework density 27.971523000000001
#
# number of rings (size 3 to 8) (size 9 to 14) (size 15 to 20)
#    0.000    0.727    5.455    1.091    2.545    4.364 
#    3.273    0.000    0.000    0.000    0.000    0.000 
#    0.000    0.000    0.000    0.000    0.000    0.000 
#
# Total GULP energy -123073.815616 kJ/mol
# GULP energy per Si atom -5594.264346 kJ/mol
# Density = 2.790786 g / cm^3
# Si number density = 27.971523 Si / 1000 Ang^3
#
#
#
# Elastic Constant Matrix: (Units=GPa)
#
#
# Indices 1 2 3 4 5 6 
#
# 1 147.3286 30.3517 44.6803 0.0000 6.5586 0.0000
# 2 30.3517 63.0421 16.0008 0.0000 12.1294 0.0000
# 3 44.6803 16.0008 175.2899 0.0000 28.5072 0.0000
# 4 0.0000 0.0000 0.0000 45.1348 0.0000 3.0420
# 5 6.5586 12.1294 28.5072 0.0000 30.4704 0.0000
# 6 0.0000 0.0000 0.0000 3.0420 0.0000 46.9654
#
#
#
# Elastic Compliance Matrix: (Units=1/GPa)
#
#
# Indices 1 2 3 4 5 6 
#
# 1 0.008078 -0.003691 -0.001979 0.000000 0.001583 0.000000
# 2 -0.003691 0.018908 0.000365 0.000000 -0.007074 0.000000
# 3 -0.001979 0.000365 0.007231 0.000000 -0.006484 0.000000
# 4 0.000000 0.000000 0.000000 0.022253 0.000000 -0.001441
# 5 0.001583 -0.007074 -0.006484 0.000000 0.041360 0.000000
# 6 0.000000 0.000000 0.000000 -0.001441 0.000000 0.021386
#
#
# Mechanical properties :
#
#
# Convention : Reuss Voigt Hill
#
# Bulk Modulus (GPa) = 42.36266 63.08069 52.72168
# Shear Modulus (GPa) = 36.31238 44.15599 40.23418
#
# Velocity S-wave (km/s) = 3.60695 3.97748 3.79674
# Velocity P-wave (km/s) = 5.70303 6.61018 6.17329
#
# Compressibility (1/GPa) = 0.02360570
#
# Stress axis : x y z
#
# Youngs Moduli (GPa) = 123.79570 52.88815 138.30262
#
# Poissons Ratio (x) = 0.19522 0.27376
# Poissons Ratio (y) = 0.45695 -0.05053
# Poissons Ratio (z) = 0.24504 -0.01932
#
# Static dielectric constant tensor:
#      x y z
#    x 2.217430 0.000000 -0.017110 
#    y 0.000000 2.144780 0.000000 
#    z -0.017110 0.000000 2.187070 
# 
# From -- ./inp_files/41343.got.cif
#   From: 2010.05.17/outbox.cif.g08.bks.cpg/sg13_21_cif.got.tgz:41343.got - 2010.06.03 16:44:36.
