data_PCOD9238655
_publ_section_title
;
Structure prediction by ZEFSAII (Michael W. Deem and Ramdas Pophale) SiO2 
 PCOD9238655
Probable space group: P 2/C
;
_chemical_formula_sum "Si O2"
_cell_formula_units_Z 18
_cell_length_a 8.003160
_cell_length_b 5.169798
_cell_length_c 24.805554
_cell_angle_alpha 90.000000
_cell_angle_beta 132.670892
_cell_angle_gamma 90.000000
_cell_volume 754.613150
_symmetry_space_group_name_H-M "P 2/C"
_symmetry_group_IT_number 13
_symmetry_cell_setting 'monoclinic'
loop_
_space_group_symop_operation_xyz
x,y,z
-x,y,1/2-z
-x,-y,-z
x,-y,1/2+z
loop_
_atom_site_type_symbol
_atom_site_label
_atom_site_fract_x
_atom_site_fract_y
_atom_site_fract_z
Si Si1 0.675677 0.095751 0.744768
Si Si2 0.925483 0.069060 0.105292
Si Si3 0.397287 0.174176 0.379047
Si Si4 0.000000 0.535281 0.250000
Si Si5 0.143278 0.577501 0.479230
O O1 0.500000 0.202508 0.750000
O O2 0.552852 0.977012 0.665466
O O3 0.836801 0.891429 0.811166
O O4 0.860152 0.291975 0.761361
O O5 0.717169 0.997870 0.099945
O O6 0.855216 0.327794 0.058773
O O7 0.960019 0.826814 0.073389
O O8 0.609481 0.330101 0.447381
O O9 0.189624 0.363149 0.319721
O O10 0.000000 0.500000 0.500000
#
# Coordination Sequence:
#
# PCOD9238655 Si02
#       5
#     4   4   4   2   4
#     4  12  27  46  78 111 156 203 262 322 386 465
#     4  12  25  50  73 115 150 209 255 318 391 460
#     4  12  26  49  75 110 155 206 259 322 387 470
#     4  12  24  48  74 110 156 196 264 310 398 444
#     4  12  29  47  77 113 157 202 262 318 391 462
#
# _framework density 23.853280999999999
#
# number of rings (size 3 to 8) (size 9 to 14) (size 15 to 20)
#    0.000    0.000    4.444    4.667    6.222    0.889 
#    0.000    0.000    0.000    0.000    0.000    0.000 
#    0.000    0.000    0.000    0.000    0.000    0.000 
#
# Total GULP energy -100905.336302 kJ/mol
# GULP energy per Si atom -5605.852017 kJ/mol
# Density = 2.379899 g / cm^3
# Si number density = 23.853281 Si / 1000 Ang^3
#
#
#
# Elastic Constant Matrix: (Units=GPa)
#
#
# Indices 1 2 3 4 5 6 
#
# 1 135.0963 4.0565 5.6669 0.0000 -19.9201 0.0000
# 2 4.0565 79.5758 11.3295 0.0000 -16.0913 0.0000
# 3 5.6669 11.3295 89.4055 0.0000 -7.8961 0.0000
# 4 0.0000 0.0000 0.0000 29.3245 0.0000 -24.7279
# 5 -19.9201 -16.0913 -7.8961 0.0000 40.0586 0.0000
# 6 0.0000 0.0000 0.0000 -24.7279 0.0000 12.2894
#
#
#
# Elastic Compliance Matrix: (Units=1/GPa)
#
#
# Indices 1 2 3 4 5 6 
#
# 1 0.008005 0.000454 -0.000201 0.000000 0.004124 0.000000
# 2 0.000454 0.013847 -0.001295 0.000000 0.005533 0.000000
# 3 -0.000201 -0.001295 0.011507 0.000000 0.001648 0.000000
# 4 0.000000 0.000000 0.000000 -0.048944 0.000000 -0.098482
# 5 0.004124 0.005533 0.001648 0.000000 0.029561 0.000000
# 6 0.000000 0.000000 0.000000 -0.098482 0.000000 -0.116788
#
#
# Mechanical properties :
#
#
# Convention : Reuss Voigt Hill
#
# Bulk Modulus (GPa) = 31.97289 38.46482 35.21886
# Shear Modulus (GPa) = -55.36876 35.20281 -10.08298
#
# Velocity S-wave (km/s) = -4.82313 3.84579 -2.05822
# Velocity P-wave (km/s) = 4.19330 5.99005 3.02465
#
# Compressibility (1/GPa) = 0.03127649
#
# Stress axis : x y z
#
# Youngs Moduli (GPa) = 124.92298 72.21974 86.90084
#
# Poissons Ratio (x) = -0.03281 0.01745
# Poissons Ratio (y) = -0.05676 0.11252
# Poissons Ratio (z) = 0.02508 0.09351
#
# Static dielectric constant tensor:
#      x y z
#    x 1.930280 0.000000 -0.072670 
#    y 0.000000 1.922670 0.000000 
#    z -0.072670 0.000000 1.960680 
# 
# From -- ./inp_files/84235.got.cif
#   From: 2010.05.17/outbox.cif.g08.bks.cpg/sg13_43_cif.got.tgz:84235.got - 2010.06.03 16:44:36.
