data_PCOD9238714
_publ_section_title
;
Structure prediction by ZEFSAII (Michael W. Deem and Ramdas Pophale) SiO2 
 PCOD9238714
Probable space group: P 2/C
;
_chemical_formula_sum "Si O2"
_cell_formula_units_Z 14
_cell_length_a 10.146744
_cell_length_b 8.340958
_cell_length_c 9.716934
_cell_angle_alpha 90.000000
_cell_angle_beta 131.262714
_cell_angle_gamma 90.000000
_cell_volume 618.176759
_symmetry_space_group_name_H-M "P 2/C"
_symmetry_group_IT_number 13
_symmetry_cell_setting 'monoclinic'
loop_
_space_group_symop_operation_xyz
x,y,z
-x,y,1/2-z
-x,-y,-z
x,-y,1/2+z
loop_
_atom_site_type_symbol
_atom_site_label
_atom_site_fract_x
_atom_site_fract_y
_atom_site_fract_z
Si Si1 0.172099 0.591428 0.071696
Si Si2 0.627714 0.623595 0.016289
Si Si3 0.500000 0.101471 0.250000
Si Si4 0.119165 0.942060 0.957829
O O1 0.246445 0.657993 0.268435
O O2 0.283596 0.466348 0.054074
O O3 0.136142 0.750221 0.959687
O O4 0.000000 0.500000 0.000000
O O5 0.500000 0.500000 0.000000
O O6 0.521070 0.778531 0.893811
O O7 0.682400 0.005598 0.383147
O O8 0.000000 0.002799 0.750000
O O9 0.000000 0.000000 0.000000
#
# Coordination Sequence:
#
# PCOD9238714 Si02
#       4
#     4   4   2   4
#     4  12  26  48  78 108 150 199 257 314 372 455
#     4  12  25  47  75 109 145 195 255 304 377 454
#     4  12  28  48  80 110 158 194 252 320 384 450
#     4  12  29  50  76 113 155 198 251 315 385 451
#
# _framework density 22.647243
#
# number of rings (size 3 to 8) (size 9 to 14) (size 15 to 20)
#    0.000    0.000    2.857    6.000    8.000    2.286 
#    0.000    0.000    0.000    0.000    0.000    0.000 
#    0.000    0.000    0.000    0.000    0.000    0.000 
#
# Total GULP energy -78218.044478 kJ/mol
# GULP energy per Si atom -5587.003177 kJ/mol
# Density = 2.259570 g / cm^3
# Si number density = 22.647243 Si / 1000 Ang^3
#
#
#
# Elastic Constant Matrix: (Units=GPa)
#
#
# Indices 1 2 3 4 5 6 
#
# 1 163.5312 58.6067 58.3530 0.0000 19.2381 0.0000
# 2 58.6067 99.4463 32.9502 0.0000 21.9288 0.0000
# 3 58.3530 32.9502 212.7729 0.0000 7.7635 0.0000
# 4 0.0000 0.0000 0.0000 37.8043 0.0000 5.7756
# 5 19.2381 21.9288 7.7635 0.0000 47.7621 0.0000
# 6 0.0000 0.0000 0.0000 5.7756 0.0000 38.5704
#
#
#
# Elastic Compliance Matrix: (Units=1/GPa)
#
#
# Indices 1 2 3 4 5 6 
#
# 1 0.008293 -0.004093 -0.001597 0.000000 -0.001201 0.000000
# 2 -0.004093 0.013744 -0.000841 0.000000 -0.004525 0.000000
# 3 -0.001597 -0.000841 0.005262 0.000000 0.000174 0.000000
# 4 0.000000 0.000000 0.000000 0.027071 0.000000 -0.004054
# 5 -0.001201 -0.004525 0.000174 0.000000 0.023470 0.000000
# 6 0.000000 0.000000 0.000000 -0.004054 0.000000 0.026534
#
#
# Mechanical properties :
#
#
# Convention : Reuss Voigt Hill
#
# Bulk Modulus (GPa) = 70.23708 86.17447 78.20578
# Shear Modulus (GPa) = 40.92262 46.55007 43.73634
#
# Velocity S-wave (km/s) = 4.25544 4.53862 4.39931
# Velocity P-wave (km/s) = 7.43142 8.09930 7.77254
#
# Compressibility (1/GPa) = 0.01423749
#
# Stress axis : x y z
#
# Youngs Moduli (GPa) = 120.58173 72.75679 190.05692
#
# Poissons Ratio (x) = 0.29783 0.30345
# Poissons Ratio (y) = 0.49359 0.15979
# Poissons Ratio (z) = 0.19253 0.06117
#
# Static dielectric constant tensor:
#      x y z
#    x 1.746630 0.000000 0.085290 
#    y 0.000000 1.994890 0.000000 
#    z 0.085290 0.000000 1.053440 
# 
# From -- ./inp_files/10804.got.cif
#   From: 2010.05.17/outbox.cif.g08.bks.cpg/sg13_6_cif.got.tgz:10804.got - 2010.06.03 16:44:36.
