data_PCOD9238273
_publ_section_title
;
Structure prediction by ZEFSAII (Michael W. Deem and Ramdas Pophale) SiO2 
 PCOD9238273
Probable space group: P 2/C
;
_chemical_formula_sum "Si O2"
_cell_formula_units_Z 28
_cell_length_a 11.681905
_cell_length_b 9.172329
_cell_length_c 13.334219
_cell_angle_alpha 90.000000
_cell_angle_beta 75.602169
_cell_angle_gamma 90.000000
_cell_volume 1383.891409
_symmetry_space_group_name_H-M "P 2/C"
_symmetry_group_IT_number 13
_symmetry_cell_setting 'monoclinic'
loop_
_space_group_symop_operation_xyz
x,y,z
-x,y,1/2-z
-x,-y,-z
x,-y,1/2+z
loop_
_atom_site_type_symbol
_atom_site_label
_atom_site_fract_x
_atom_site_fract_y
_atom_site_fract_z
Si Si1 0.675353 0.933530 0.916228
Si Si2 0.500000 0.412964 0.750000
Si Si3 0.673497 0.602122 0.583284
Si Si4 0.105735 0.413154 0.028968
Si Si5 0.124968 0.081754 0.974332
Si Si6 0.217572 0.857555 0.809766
Si Si7 0.467023 0.235176 0.556223
Si Si8 0.000000 0.294810 0.250000
O O1 0.692360 0.872300 0.801420
O O2 0.611199 0.088654 0.927005
O O3 0.802333 0.951237 0.940338
O O4 0.597712 0.820881 0.998201
O O5 0.604467 0.514239 0.684412
O O6 0.463624 0.313331 0.663805
O O7 0.773170 0.499865 0.512868
O O8 0.736415 0.741616 0.619597
O O9 0.582958 0.658513 0.518750
O O10 0.072877 0.387206 0.152501
O O11 0.112156 0.254777 0.975699
O O12 0.000000 0.500000 0.000000
O O13 0.198904 0.012062 0.867562
O O14 0.000000 0.000000 0.000000
O O15 0.093553 0.800643 0.792019
#
# Coordination Sequence:
#
# PCOD9238273 Si02
#       8
#     4   2   4   4   4   4   4   2
#     4  11  25  45  74 102 141 188 240 302 347 429
#     4  12  28  42  72 106 140 190 232 296 364 432
#     4  12  26  47  71 104 149 184 236 298 367 430
#     4  12  26  45  71 106 146 186 232 300 355 429
#     4  12  23  45  72 103 139 180 241 292 347 423
#     4  12  24  45  75  99 140 191 232 291 362 419
#     4  11  27  47  68 108 142 184 246 294 359 431
#     4  12  24  46  70 102 140 192 236 282 366 422
#
# _framework density 20.232799
#
# number of rings (size 3 to 8) (size 9 to 14) (size 15 to 20)
#    0.000    0.286    5.714    2.143    6.000    0.000 
#    0.000    0.000    0.000    0.000    0.000    0.000 
#    0.000    0.000    0.000    0.000    0.000    0.000 
#
# Total GULP energy -156712.743195 kJ/mol
# GULP energy per Si atom -5596.883686 kJ/mol
# Density = 2.018675 g / cm^3
# Si number density = 20.232799 Si / 1000 Ang^3
#
#
#
# Elastic Constant Matrix: (Units=GPa)
#
#
# Indices 1 2 3 4 5 6 
#
# 1 91.4746 52.1622 33.7803 0.0000 7.8282 0.0000
# 2 52.1622 125.0200 68.7926 0.0000 -1.0038 0.0000
# 3 33.7803 68.7926 146.2189 0.0000 1.2522 0.0000
# 4 0.0000 0.0000 0.0000 51.3257 0.0000 -2.6546
# 5 7.8282 -1.0038 1.2522 0.0000 38.4862 0.0000
# 6 0.0000 0.0000 0.0000 -2.6546 0.0000 28.8927
#
#
#
# Elastic Compliance Matrix: (Units=1/GPa)
#
#
# Indices 1 2 3 4 5 6 
#
# 1 0.014762 -0.005833 -0.000640 0.000000 -0.003134 0.000000
# 2 -0.005833 0.013105 -0.004833 0.000000 0.001685 0.000000
# 3 -0.000640 -0.004833 0.009263 0.000000 -0.000297 0.000000
# 4 0.000000 0.000000 0.000000 0.019576 0.000000 0.001799
# 5 -0.003134 0.001685 -0.000297 0.000000 0.026674 0.000000
# 6 0.000000 0.000000 0.000000 0.001799 0.000000 0.034776
#
#
# Mechanical properties :
#
#
# Convention : Reuss Voigt Hill
#
# Bulk Modulus (GPa) = 68.86613 74.68706 71.77659
# Shear Modulus (GPa) = 34.33910 37.60615 35.97263
#
# Velocity S-wave (km/s) = 4.12418 4.31591 4.22113
# Velocity P-wave (km/s) = 7.53586 7.86321 7.70128
#
# Compressibility (1/GPa) = 0.01452093
#
# Stress axis : x y z
#
# Youngs Moduli (GPa) = 67.74010 76.30752 107.95698
#
# Poissons Ratio (x) = 0.44507 0.06904
# Poissons Ratio (y) = 0.39510 0.52170
# Poissons Ratio (z) = 0.04332 0.36876
#
# Static dielectric constant tensor:
#      x y z
#    x 1.704830 0.000000 -0.014240 
#    y 0.000000 1.703330 0.000000 
#    z -0.014240 0.000000 1.718250 
# 
# From -- ./inp_files/50273.got.cif
#   From: 2010.05.17/outbox.cif.g08.bks.cpg/sg13_26_cif.got.tgz:50273.got - 2010.06.03 16:44:36.
