data_PCOD9238510
_publ_section_title
;
Structure prediction by ZEFSAII (Michael W. Deem and Ramdas Pophale) SiO2 
 PCOD9238510
Probable space group: P 2/C
;
_chemical_formula_sum "Si O2"
_cell_formula_units_Z 20
_cell_length_a 17.131721
_cell_length_b 5.046616
_cell_length_c 25.791583
_cell_angle_alpha 90.000000
_cell_angle_beta 21.030545
_cell_angle_gamma 90.000000
_cell_volume 800.223097
_symmetry_space_group_name_H-M "P 2/C"
_symmetry_group_IT_number 13
_symmetry_cell_setting 'monoclinic'
loop_
_space_group_symop_operation_xyz
x,y,z
-x,y,1/2-z
-x,-y,-z
x,-y,1/2+z
loop_
_atom_site_type_symbol
_atom_site_label
_atom_site_fract_x
_atom_site_fract_y
_atom_site_fract_z
Si Si1 0.851197 0.177593 0.906259
Si Si2 0.481030 0.250984 0.474592
Si Si3 0.040759 0.692581 0.841963
Si Si4 0.184760 0.690878 0.407919
Si Si5 0.428684 0.824443 0.737535
O O1 0.984096 0.409530 0.852215
O O2 0.981251 0.907838 0.834994
O O3 0.746859 0.245196 0.915182
O O4 0.627354 0.138189 0.076617
O O5 0.500000 0.500000 0.500000
O O6 0.703928 0.272960 0.302418
O O7 0.500000 0.000000 0.500000
O O8 0.890612 0.729763 0.985855
O O9 0.381950 0.487020 0.273714
O O10 0.000000 0.500000 0.500000
O O11 0.234295 0.966513 0.347989
O O12 0.500000 0.922539 0.750000
#
# Coordination Sequence:
#
# PCOD9238510 Si02
#       5
#     4   4   4   4   4
#     4  12  26  45  76 103 142 188 229 291 353 424
#     4  12  29  50  71 102 137 179 243 306 354 410
#     4  12  25  46  72 105 139 185 240 282 356 429
#     4  12  24  40  67 103 145 187 229 282 340 427
#     4  12  22  42  67 101 145 178 226 276 345 421
#
# _framework density 24.993033
#
# number of rings (size 3 to 8) (size 9 to 14) (size 15 to 20)
#    0.000    0.000    4.000    6.000    0.000    8.000 
#    0.000    0.000    0.000    0.000    0.000    0.000 
#    0.000    0.000    0.000    0.000    0.000    0.000 
#
# Total GULP energy -111940.778946 kJ/mol
# GULP energy per Si atom -5597.038947 kJ/mol
# Density = 2.493615 g / cm^3
# Si number density = 24.993033 Si / 1000 Ang^3
#
#
#
# Elastic Constant Matrix: (Units=GPa)
#
#
# Indices 1 2 3 4 5 6 
#
# 1 75.2998 8.2426 -13.4676 0.0000 -12.9006 0.0000
# 2 8.2426 159.7407 8.2951 0.0000 4.6814 0.0000
# 3 -13.4676 8.2951 90.5407 0.0000 -1.9959 0.0000
# 4 0.0000 0.0000 0.0000 41.1552 0.0000 -4.1573
# 5 -12.9006 4.6814 -1.9959 0.0000 52.6808 0.0000
# 6 0.0000 0.0000 0.0000 -4.1573 0.0000 38.2968
#
#
#
# Elastic Compliance Matrix: (Units=1/GPa)
#
#
# Indices 1 2 3 4 5 6 
#
# 1 0.014437 -0.000974 0.002318 0.000000 0.003710 0.000000
# 2 -0.000974 0.006374 -0.000747 0.000000 -0.000833 0.000000
# 3 0.002318 -0.000747 0.011482 0.000000 0.001069 0.000000
# 4 0.000000 0.000000 0.000000 0.024568 0.000000 0.002667
# 5 0.003710 -0.000833 0.001069 0.000000 0.020005 0.000000
# 6 0.000000 0.000000 0.000000 0.002667 0.000000 0.026401
#
#
# Mechanical properties :
#
#
# Convention : Reuss Voigt Hill
#
# Bulk Modulus (GPa) = 29.86248 36.85794 33.36021
# Shear Modulus (GPa) = 44.15616 47.92730 46.04173
#
# Velocity S-wave (km/s) = 4.20782 4.38382 4.29672
# Velocity P-wave (km/s) = 5.96506 6.35635 6.16381
#
# Compressibility (1/GPa) = 0.03348684
#
# Stress axis : x y z
#
# Youngs Moduli (GPa) = 69.26597 156.89654 87.09547
#
# Poissons Ratio (x) = 0.15283 -0.20193
# Poissons Ratio (y) = 0.06747 0.06508
# Poissons Ratio (z) = -0.16059 0.11723
#
# Static dielectric constant tensor:
#      x y z
#    x 2.077510 0.000000 -0.052150 
#    y 0.000000 1.896120 0.000000 
#    z -0.052150 0.000000 2.114310 
# 
# From -- ./inp_files/93118.got.cif
#   From: 2010.05.17/outbox.cif.g08.bks.cpg/sg13_47_cif.got.tgz:93118.got - 2010.06.03 16:44:36.
