data_PCOD9238272
_publ_section_title
;
Structure prediction by ZEFSAII (Michael W. Deem and Ramdas Pophale) SiO2 
 PCOD9238272
Probable space group: P 2/C
;
_chemical_formula_sum "Si O2"
_cell_formula_units_Z 20
_cell_length_a 6.728490
_cell_length_b 7.008271
_cell_length_c 22.328757
_cell_angle_alpha 90.000000
_cell_angle_beta 80.613205
_cell_angle_gamma 90.000000
_cell_volume 1038.815595
_symmetry_space_group_name_H-M "P 2/C"
_symmetry_group_IT_number 13
_symmetry_cell_setting 'monoclinic'
loop_
_space_group_symop_operation_xyz
x,y,z
-x,y,1/2-z
-x,-y,-z
x,-y,1/2+z
loop_
_atom_site_type_symbol
_atom_site_label
_atom_site_fract_x
_atom_site_fract_y
_atom_site_fract_z
Si Si1 0.951613 0.795216 0.029469
Si Si2 0.715033 0.491793 0.456852
Si Si3 0.285404 0.797751 0.336376
Si Si4 0.625260 0.469078 0.322203
Si Si5 0.000000 0.308673 0.750000
Si Si6 0.500000 0.879726 0.750000
O O1 0.795311 0.811884 0.092281
O O2 0.152700 0.684948 0.042224
O O3 0.849563 0.667685 0.982860
O O4 0.000000 0.000000 0.000000
O O5 0.500000 0.500000 0.500000
O O6 0.670707 0.446665 0.390026
O O7 0.427607 0.607490 0.324973
O O8 0.091312 0.795638 0.302719
O O9 0.403225 0.977247 0.303363
O O10 0.613524 0.270310 0.287454
O O11 0.813072 0.574979 0.284022
#
# Coordination Sequence:
#
# PCOD9238272 Si02
#       6
#     4   4   4   4   2   2
#     4  11  27  44  70 106 136 177 232 279 337 407
#     4  11  25  45  72  98 138 186 221 280 342 395
#     4  12  25  46  66 103 145 169 226 293 333 396
#     4  12  25  46  69 102 140 178 227 284 334 413
#     4  12  22  46  70  92 140 180 212 282 350 378
#     4  12  26  42  72 104 132 182 230 272 346 410
#
# _framework density 19.252694999999999
#
# number of rings (size 3 to 8) (size 9 to 14) (size 15 to 20)
#    0.000    0.400    8.000    0.000    2.800    6.400 
#    0.000    0.000    0.000    0.000    0.000    0.000 
#    0.000    0.000    0.000    0.000    0.000    0.000 
#
# Total GULP energy -111590.539971 kJ/mol
# GULP energy per Si atom -5579.526999 kJ/mol
# Density = 1.920888 g / cm^3
# Si number density = 19.252695 Si / 1000 Ang^3
#
#
#
# Elastic Constant Matrix: (Units=GPa)
#
#
# Indices 1 2 3 4 5 6 
#
# 1 332.0342 423.8288 378.7447 0.0000 106.1687 0.0000
# 2 423.8288 723.6782 580.2782 0.0000 156.5065 0.0000
# 3 378.7447 580.2782 632.1827 0.0000 147.8112 0.0000
# 4 0.0000 0.0000 0.0000 23.7871 0.0000 7.5622
# 5 106.1687 156.5065 147.8112 0.0000 91.9858 0.0000
# 6 0.0000 0.0000 0.0000 7.5622 0.0000 15.8352
#
#
#
# Elastic Compliance Matrix: (Units=1/GPa)
#
#
# Indices 1 2 3 4 5 6 
#
# 1 0.013665 -0.005198 -0.002877 0.000000 -0.002306 0.000000
# 2 -0.005198 0.007427 -0.003446 0.000000 -0.001100 0.000000
# 3 -0.002877 -0.003446 0.006922 0.000000 -0.001939 0.000000
# 4 0.000000 0.000000 0.000000 0.049564 0.000000 -0.023670
# 5 -0.002306 -0.001100 -0.001939 0.000000 0.018520 0.000000
# 6 0.000000 0.000000 0.000000 -0.023670 0.000000 0.074454
#
#
# Mechanical properties :
#
#
# Convention : Reuss Voigt Hill
#
# Bulk Modulus (GPa) = 201.08799 494.84427 347.96613
# Shear Modulus (GPa) = 25.60795 46.65785 36.13290
#
# Velocity S-wave (km/s) = 3.65101 4.92819 4.33687
# Velocity P-wave (km/s) = 11.06556 17.02841 14.35990
#
# Compressibility (1/GPa) = 0.00497295
#
# Stress axis : x y z
#
# Youngs Moduli (GPa) = 73.17738 134.64358 144.47008
#
# Poissons Ratio (x) = 0.69985 0.41562
# Poissons Ratio (y) = 0.38036 0.49785
# Poissons Ratio (z) = 0.21052 0.46399
#
# Static dielectric constant tensor:
#      x y z
#    x 1.676930 0.000000 0.027240 
#    y 0.000000 1.615900 0.000000 
#    z 0.027240 0.000000 1.712060 
# 
# From -- ./inp_files/82991.got.cif
#   From: 2010.05.17/outbox.cif.g08.bks.cpg/sg13_42_cif.got.tgz:82991.got - 2010.06.03 16:44:36.
