data_PCOD9238668
_publ_section_title
;
Structure prediction by ZEFSAII (Michael W. Deem and Ramdas Pophale) SiO2 
 PCOD9238668
Probable space group: P 2/C
;
_chemical_formula_sum "Si O2"
_cell_formula_units_Z 20
_cell_length_a 11.014954
_cell_length_b 6.336953
_cell_length_c 19.495768
_cell_angle_alpha 90.000000
_cell_angle_beta 41.546538
_cell_angle_gamma 90.000000
_cell_volume 902.540047
_symmetry_space_group_name_H-M "P 2/C"
_symmetry_group_IT_number 13
_symmetry_cell_setting 'monoclinic'
loop_
_space_group_symop_operation_xyz
x,y,z
-x,y,1/2-z
-x,-y,-z
x,-y,1/2+z
loop_
_atom_site_type_symbol
_atom_site_label
_atom_site_fract_x
_atom_site_fract_y
_atom_site_fract_z
Si Si1 0.000000 0.097373 0.250000
Si Si2 0.804024 0.884276 0.568432
Si Si3 0.689460 0.562347 0.884563
Si Si4 0.749069 0.534506 0.709332
Si Si5 0.500000 0.818894 0.250000
Si Si6 0.075191 0.266970 0.626069
O O1 0.823367 0.239282 0.343698
O O2 0.026343 0.943467 0.304163
O O3 0.774202 0.704273 0.638931
O O4 0.809542 0.793772 0.489536
O O5 0.632225 0.039280 0.648037
O O6 0.000000 0.000000 0.500000
O O7 0.651566 0.602883 0.820446
O O8 0.811509 0.363044 0.858404
O O9 0.500000 0.500000 0.000000
O O10 0.637427 0.333962 0.731109
O O11 0.942563 0.449383 0.654605
#
# Coordination Sequence:
#
# PCOD9238668 Si02
#       6
#     2   4   4   4   2   4
#     4  12  24  50  76 110 152 194 258 306 378 456
#     4  12  28  47  78 108 151 204 252 306 386 452
#     4  12  29  45  79 108 154 198 246 315 380 450
#     4  12  26  51  72 110 154 193 256 319 369 452
#     4  12  30  44  76 114 150 196 262 312 374 458
#     4  12  26  49  76 108 148 203 251 316 377 442
#
# _framework density 22.159680999999999
#
# number of rings (size 3 to 8) (size 9 to 14) (size 15 to 20)
#    0.000    0.000    6.000    2.400    8.400    0.800 
#    0.000    0.000    0.000    0.000    0.000    0.000 
#    0.000    0.000    0.000    0.000    0.000    0.000 
#
# Total GULP energy -111707.772015 kJ/mol
# GULP energy per Si atom -5585.388601 kJ/mol
# Density = 2.210924 g / cm^3
# Si number density = 22.159681 Si / 1000 Ang^3
#
#
#
# Elastic Constant Matrix: (Units=GPa)
#
#
# Indices 1 2 3 4 5 6 
#
# 1 42.7069 31.6870 52.3029 0.0000 21.3378 0.0000
# 2 31.6870 113.3958 76.7917 0.0000 12.3511 0.0000
# 3 52.3029 76.7917 154.4744 0.0000 3.2145 0.0000
# 4 0.0000 0.0000 0.0000 24.1042 0.0000 0.5381
# 5 21.3378 12.3511 3.2145 0.0000 46.7833 0.0000
# 6 0.0000 0.0000 0.0000 0.5381 0.0000 23.9459
#
#
#
# Elastic Compliance Matrix: (Units=1/GPa)
#
#
# Indices 1 2 3 4 5 6 
#
# 1 0.061705 -0.000870 -0.019908 0.000000 -0.026546 0.000000
# 2 -0.000870 0.013759 -0.006487 0.000000 -0.002790 0.000000
# 3 -0.019908 -0.006487 0.016237 0.000000 0.009677 0.000000
# 4 0.000000 0.000000 0.000000 0.041507 0.000000 -0.000933
# 5 -0.026546 -0.002790 0.009677 0.000000 0.033554 0.000000
# 6 0.000000 0.000000 0.000000 -0.000933 0.000000 0.041782
#
#
# Mechanical properties :
#
#
# Convention : Reuss Voigt Hill
#
# Bulk Modulus (GPa) = 26.90205 70.23783 48.56994
# Shear Modulus (GPa) = 18.15121 28.95305 23.55213
#
# Velocity S-wave (km/s) = 2.86511 3.61856 3.26365
# Velocity P-wave (km/s) = 4.80745 7.01596 6.01396
#
# Compressibility (1/GPa) = 0.03717189
#
# Stress axis : x y z
#
# Youngs Moduli (GPa) = 16.20623 72.68150 61.58600
#
# Poissons Ratio (x) = 0.06322 1.22603
# Poissons Ratio (y) = 0.01410 0.39951
# Poissons Ratio (z) = 0.32263 0.47149
#
# Static dielectric constant tensor:
#      x y z
#    x 1.647240 0.000000 0.136100 
#    y 0.000000 1.883710 0.000000 
#    z 0.136100 0.000000 1.848780 
# 
# From -- ./inp_files/77118.got.cif
#   From: 2010.05.17/outbox.cif.g08.bks.cpg/sg13_39_cif.got.tgz:77118.got - 2010.06.03 16:44:36.
