data_PCOD9238559
_publ_section_title
;
Structure prediction by ZEFSAII (Michael W. Deem and Ramdas Pophale) SiO2 
 PCOD9238559
Probable space group: P 2/C
;
_chemical_formula_sum "Si O2"
_cell_formula_units_Z 18
_cell_length_a 18.155484
_cell_length_b 9.066224
_cell_length_c 13.294283
_cell_angle_alpha 90.000000
_cell_angle_beta 21.124316
_cell_angle_gamma 90.000000
_cell_volume 788.633462
_symmetry_space_group_name_H-M "P 2/C"
_symmetry_group_IT_number 13
_symmetry_cell_setting 'monoclinic'
loop_
_space_group_symop_operation_xyz
x,y,z
-x,y,1/2-z
-x,-y,-z
x,-y,1/2+z
loop_
_atom_site_type_symbol
_atom_site_label
_atom_site_fract_x
_atom_site_fract_y
_atom_site_fract_z
Si Si1 0.269305 0.759636 0.033772
Si Si2 0.950970 0.644570 0.998405
Si Si3 0.666337 0.481929 0.700170
Si Si4 0.000000 0.022918 0.750000
Si Si5 0.309425 0.189139 0.937083
O O1 0.500000 0.815270 0.750000
O O2 0.289967 0.619619 0.929557
O O3 0.208793 0.722105 0.224861
O O4 0.090748 0.867057 0.219306
O O5 0.863480 0.576049 0.008258
O O6 0.000000 0.500000 0.000000
O O7 0.132948 0.755657 0.738443
O O8 0.599461 0.339435 0.723406
O O9 0.500000 0.500000 0.000000
O O10 0.805211 0.910749 0.001089
O O11 0.500000 0.116577 0.750000
#
# Coordination Sequence:
#
# PCOD9238559 Si02
#       5
#     4   4   4   2   4
#     4  12  26  48  74 113 150 192 250 302 376 443
#     4  12  23  43  76 112 147 187 244 312 369 428
#     4  12  23  46  78 113 144 186 247 319 365 425
#     4  12  28  48  74 104 156 202 242 298 368 460
#     4  12  26  50  72 107 150 195 250 303 371 434
#
# _framework density 22.824290999999999
#
# number of rings (size 3 to 8) (size 9 to 14) (size 15 to 20)
#    0.000    0.000    6.667    4.000    0.000    0.889 
#    0.000    5.556    0.000    0.000    0.000    0.000 
#    0.000    0.000    0.000    0.000    0.000    0.000 
#
# Total GULP energy -100390.017174 kJ/mol
# GULP energy per Si atom -5577.223176 kJ/mol
# Density = 2.277234 g / cm^3
# Si number density = 22.824291 Si / 1000 Ang^3
#
#
#
# Elastic Constant Matrix: (Units=GPa)
#
#
# Indices 1 2 3 4 5 6 
#
# 1 146.8189 52.5556 58.8955 0.0000 -23.9273 0.0000
# 2 52.5556 133.8152 41.1254 0.0000 0.3409 0.0000
# 3 58.8955 41.1254 163.8801 0.0000 14.1632 0.0000
# 4 0.0000 0.0000 0.0000 -1.2160 0.0000 -13.3558
# 5 -23.9273 0.3409 14.1632 0.0000 64.0066 0.0000
# 6 0.0000 0.0000 0.0000 -13.3558 0.0000 -19.7593
#
#
#
# Elastic Compliance Matrix: (Units=1/GPa)
#
#
# Indices 1 2 3 4 5 6 
#
# 1 0.009846 -0.002897 -0.003192 0.000000 0.004402 0.000000
# 2 -0.002897 0.008961 -0.001131 0.000000 -0.000880 0.000000
# 3 -0.003192 -0.001131 0.007785 0.000000 -0.002910 0.000000
# 4 0.000000 0.000000 0.000000 0.128017 0.000000 -0.086529
# 5 0.004402 -0.000880 -0.002910 0.000000 0.017918 0.000000
# 6 0.000000 0.000000 0.000000 -0.086529 0.000000 0.007878
#
#
# Mechanical properties :
#
#
# Convention : Reuss Voigt Hill
#
# Bulk Modulus (GPa) = 82.30239 83.29633 82.79936
# Shear Modulus (GPa) = 25.13888 28.06878 26.60383
#
# Velocity S-wave (km/s) = 3.32235 3.51062 3.41778
# Velocity P-wave (km/s) = 7.13125 7.28055 7.20629
#
# Compressibility (1/GPa) = 0.01215032
#
# Stress axis : x y z
#
# Youngs Moduli (GPa) = 101.56282 111.59658 128.45985
#
# Poissons Ratio (x) = 0.32333 0.41003
# Poissons Ratio (y) = 0.29426 0.14534
# Poissons Ratio (z) = 0.32418 0.12626
#
# Static dielectric constant tensor:
#      x y z
#    x 1.437020 0.000000 -0.310650 
#    y 0.000000 2.011880 0.000000 
#    z -0.310650 0.000000 1.705750 
# 
# From -- ./inp_files/57004.got.cif
#   From: 2010.05.17/outbox.cif.g08.bks.cpg/sg13_29_cif.got.tgz:57004.got - 2010.06.03 16:44:36.
