data_PCOD9238162
_publ_section_title
;
Structure prediction by ZEFSAII (Michael W. Deem and Ramdas Pophale) SiO2 
 PCOD9238162
Probable space group: P 2/C
;
_chemical_formula_sum "Si O2"
_cell_formula_units_Z 20
_cell_length_a 8.689765
_cell_length_b 6.469583
_cell_length_c 15.337487
_cell_angle_alpha 90.000000
_cell_angle_beta 92.112327
_cell_angle_gamma 90.000000
_cell_volume 861.674656
_symmetry_space_group_name_H-M "P 2/C"
_symmetry_group_IT_number 13
_symmetry_cell_setting 'monoclinic'
loop_
_space_group_symop_operation_xyz
x,y,z
-x,y,1/2-z
-x,-y,-z
x,-y,1/2+z
loop_
_atom_site_type_symbol
_atom_site_label
_atom_site_fract_x
_atom_site_fract_y
_atom_site_fract_z
Si Si1 0.997071 0.591271 0.400020
Si Si2 0.500000 0.310565 0.750000
Si Si3 0.539511 0.811877 0.939423
Si Si4 0.000000 0.739911 0.750000
Si Si5 0.343254 0.472340 0.909146
Si Si6 0.224798 0.046498 0.680534
O O1 0.960926 0.407709 0.330949
O O2 0.177812 0.617792 0.382062
O O3 0.000000 0.500000 0.500000
O O4 0.891067 0.794404 0.375707
O O5 0.471056 0.426939 0.838893
O O6 0.346806 0.184045 0.732933
O O7 0.370425 0.717968 0.913230
O O8 0.664784 0.898517 0.875052
O O9 0.619600 0.634192 0.998466
O O10 0.500000 0.000000 0.000000
O O11 0.860766 0.902040 0.751806
#
# Coordination Sequence:
#
# PCOD9238162 Si02
#       6
#     4   2   4   2   4   4
#     4  12  28  50  78 111 157 206 254 326 394 469
#     4  12  26  44  74 108 154 188 254 320 374 460
#     4  11  24  46  73 108 146 193 258 311 377 467
#     4  12  28  48  76 110 160 200 260 322 388 472
#     4  11  26  44  73 106 148 193 247 314 383 446
#     4  12  28  47  74 114 150 205 261 316 392 460
#
# _framework density 23.210614
#
# number of rings (size 3 to 8) (size 9 to 14) (size 15 to 20)
#    0.000    0.400    2.000    5.400   11.200    6.400 
#    0.000    0.000    0.000    0.000    0.000    0.000 
#    0.000    0.000    0.000    0.000    0.000    0.000 
#
# Total GULP energy -111463.498735 kJ/mol
# GULP energy per Si atom -5573.174937 kJ/mol
# Density = 2.315779 g / cm^3
# Si number density = 23.210614 Si / 1000 Ang^3
#
#
#
# Elastic Constant Matrix: (Units=GPa)
#
#
# Indices 1 2 3 4 5 6 
#
# 1 83.5224 19.7573 6.0583 0.0000 -0.3493 0.0000
# 2 19.7573 91.8594 39.4939 0.0000 3.0015 0.0000
# 3 6.0583 39.4939 106.4264 0.0000 -13.4145 0.0000
# 4 0.0000 0.0000 0.0000 -59.9479 0.0000 -42.2338
# 5 -0.3493 3.0015 -13.4145 0.0000 45.0337 0.0000
# 6 0.0000 0.0000 0.0000 -42.2338 0.0000 41.4724
#
#
#
# Elastic Compliance Matrix: (Units=1/GPa)
#
#
# Indices 1 2 3 4 5 6 
#
# 1 0.012633 -0.002908 0.000412 0.000000 0.000415 0.000000
# 2 -0.002908 0.013873 -0.005301 0.000000 -0.002526 0.000000
# 3 0.000412 -0.005301 0.011829 0.000000 0.003880 0.000000
# 4 0.000000 0.000000 0.000000 -0.009713 0.000000 -0.009891
# 5 0.000415 -0.002526 0.003880 0.000000 0.023533 0.000000
# 6 0.000000 0.000000 0.000000 -0.009891 0.000000 0.014040
#
#
# Mechanical properties :
#
#
# Convention : Reuss Voigt Hill
#
# Bulk Modulus (GPa) = 43.97282 45.82524 44.89903
# Shear Modulus (GPa) = 55.94791 19.74486 37.84638
#
# Velocity S-wave (km/s) = 4.91495 2.91981 4.04240
# Velocity P-wave (km/s) = 7.15509 5.58150 6.41671
#
# Compressibility (1/GPa) = 0.02274132
#
# Stress axis : x y z
#
# Youngs Moduli (GPa) = 79.16076 72.08061 84.53799
#
# Poissons Ratio (x) = 0.20960 -0.03485
# Poissons Ratio (y) = 0.23018 0.44815
# Poissons Ratio (z) = -0.03263 0.38211
#
# Static dielectric constant tensor:
#      x y z
#    x 2.136230 0.000000 0.666110 
#    y 0.000000 1.872590 0.000000 
#    z 0.666110 0.000000 3.368910 
# 
# From -- ./inp_files/62356.got.cif
#   From: 2010.05.17/outbox.cif.g08.bks.cpg/sg13_32_cif.got.tgz:62356.got - 2010.06.03 16:44:36.
