data_PCOD9238165
_publ_section_title
;
Structure prediction by ZEFSAII (Michael W. Deem and Ramdas Pophale) SiO2 
 PCOD9238165
Probable space group: P 2/C
;
_chemical_formula_sum "Si O2"
_cell_formula_units_Z 12
_cell_length_a 8.404865
_cell_length_b 9.325877
_cell_length_c 12.727161
_cell_angle_alpha 90.000000
_cell_angle_beta 33.039764
_cell_angle_gamma 90.000000
_cell_volume 543.906814
_symmetry_space_group_name_H-M "P 2/C"
_symmetry_group_IT_number 13
_symmetry_cell_setting 'monoclinic'
loop_
_space_group_symop_operation_xyz
x,y,z
-x,y,1/2-z
-x,-y,-z
x,-y,1/2+z
loop_
_atom_site_type_symbol
_atom_site_label
_atom_site_fract_x
_atom_site_fract_y
_atom_site_fract_z
Si Si1 0.159011 0.151646 0.410731
Si Si2 0.256435 0.352379 0.179760
Si Si3 0.679043 0.647999 0.257604
O O1 0.500000 0.141467 0.250000
O O2 0.145694 0.214142 0.300773
O O3 0.980866 0.266150 0.580310
O O4 0.000000 0.000000 0.500000
O O5 0.310025 0.475351 0.236530
O O6 0.000000 0.415270 0.250000
O O7 0.515078 0.314878 0.957010
O O8 0.500000 0.682552 0.250000
#
# Coordination Sequence:
#
# PCOD9238165 Si02
#       3
#     4   4   4
#     4  12  28  48  70 100 143 187 232 287 348 417
#     4  11  25  43  77 107 136 182 235 288 347 411
#     4  11  24  46  74 106 141 179 233 288 347 410
#
# _framework density 22.062604
#
# number of rings (size 3 to 8) (size 9 to 14) (size 15 to 20)
#    0.000    0.667    3.333    3.000    9.333    1.333 
#    0.000    0.000    0.000    0.000    0.000    0.000 
#    0.000    0.000    0.000    0.000    0.000    0.000 
#
# Total GULP energy -67073.802640 kJ/mol
# GULP energy per Si atom -5589.483553 kJ/mol
# Density = 2.201239 g / cm^3
# Si number density = 22.062604 Si / 1000 Ang^3
#
#
#
# Elastic Constant Matrix: (Units=GPa)
#
#
# Indices 1 2 3 4 5 6 
#
# 1 73.7928 29.2232 41.5118 0.0000 -20.6958 0.0000
# 2 29.2232 119.6394 108.3718 0.0000 9.4142 0.0000
# 3 41.5118 108.3718 207.8214 0.0000 -15.9152 0.0000
# 4 0.0000 0.0000 0.0000 32.0125 0.0000 -13.4765
# 5 -20.6958 9.4142 -15.9152 0.0000 35.7616 0.0000
# 6 0.0000 0.0000 0.0000 -13.4765 0.0000 22.6347
#
#
#
# Elastic Compliance Matrix: (Units=1/GPa)
#
#
# Indices 1 2 3 4 5 6 
#
# 1 0.019401 -0.005944 0.000211 0.000000 0.012886 0.000000
# 2 -0.005944 0.020325 -0.010440 0.000000 -0.013437 0.000000
# 3 0.000211 -0.010440 0.010802 0.000000 0.007678 0.000000
# 4 0.000000 0.000000 0.000000 0.041686 0.000000 0.024820
# 5 0.012886 -0.013437 0.007678 0.000000 0.042375 0.000000
# 6 0.000000 0.000000 0.000000 0.024820 0.000000 0.058957
#
#
# Mechanical properties :
#
#
# Convention : Reuss Voigt Hill
#
# Bulk Modulus (GPa) = 55.00300 84.38524 69.69412
# Shear Modulus (GPa) = 21.55611 32.89152 27.22382
#
# Velocity S-wave (km/s) = 3.12916 3.86531 3.51655
# Velocity P-wave (km/s) = 6.16766 7.63230 6.93873
#
# Compressibility (1/GPa) = 0.01818083
#
# Stress axis : x y z
#
# Youngs Moduli (GPa) = 51.54452 49.20083 92.57629
#
# Poissons Ratio (x) = 0.29246 -0.01957
# Poissons Ratio (y) = 0.30640 0.96653
# Poissons Ratio (z) = -0.01089 0.51368
#
# Static dielectric constant tensor:
#      x y z
#    x 1.898380 0.000000 -0.046780 
#    y 0.000000 1.766160 0.000000 
#    z -0.046780 0.000000 1.837480 
# 
# From -- ./inp_files/10506.got.cif
#   From: 2010.05.17/outbox.cif.g08.bks.cpg/sg13_6_cif.got.tgz:10506.got - 2010.06.03 16:44:36.
