data_PCOD9238389
_publ_section_title
;
Structure prediction by ZEFSAII (Michael W. Deem and Ramdas Pophale) SiO2 
 PCOD9238389
Probable space group: P 2/C
;
_chemical_formula_sum "Si O2"
_cell_formula_units_Z 18
_cell_length_a 25.411872
_cell_length_b 5.063552
_cell_length_c 27.190704
_cell_angle_alpha 90.000000
_cell_angle_beta 169.275020
_cell_angle_gamma 90.000000
_cell_volume 651.099094
_symmetry_space_group_name_H-M "P 2/C"
_symmetry_group_IT_number 13
_symmetry_cell_setting 'monoclinic'
loop_
_space_group_symop_operation_xyz
x,y,z
-x,y,1/2-z
-x,-y,-z
x,-y,1/2+z
loop_
_atom_site_type_symbol
_atom_site_label
_atom_site_fract_x
_atom_site_fract_y
_atom_site_fract_z
Si Si1 0.906497 0.254115 0.861454
Si Si2 0.893052 0.117267 0.551373
Si Si3 0.000000 0.675549 0.250000
Si Si4 0.548900 0.400303 0.612706
Si Si5 0.523254 0.366084 0.701069
O O1 0.951515 0.053503 0.857424
O O2 0.718902 0.181726 0.736938
O O3 0.709146 0.477571 0.654530
O O4 0.203963 0.378884 0.151793
O O5 0.048801 0.151087 0.746089
O O6 0.759603 0.405265 0.419536
O O7 0.651013 0.905140 0.336415
O O8 0.266965 0.483166 0.496506
O O9 0.446875 0.326148 0.573368
#
# Coordination Sequence:
#
# PCOD9238389 Si02
#       5
#     4   4   2   4   4
#     4   9  18  39  70 107 147 190 243 309 382 460
#     4  11  26  46  72 106 145 195 253 315 385 458
#     4  12  26  50  74 104 148 206 258 332 378 470
#     4   9  18  39  70 107 147 190 243 309 382 460
#     4  11  26  46  72 106 145 195 253 315 385 458
#
# _framework density 27.645565000000001
#
# number of rings (size 3 to 8) (size 9 to 14) (size 15 to 20)
#    0.000    1.778    2.222    0.667    0.000    8.000 
#    0.000    0.000    0.000   13.333    0.000    0.000 
#    0.000    1.778    0.000    0.000    0.000    0.444 
#
# Total GULP energy -100955.373063 kJ/mol
# GULP energy per Si atom -5608.631837 kJ/mol
# Density = 2.758264 g / cm^3
# Si number density = 27.645565 Si / 1000 Ang^3
#
#
#
# Elastic Constant Matrix: (Units=GPa)
#
#
# Indices 1 2 3 4 5 6 
#
# 1 164.9185 52.5497 13.9355 0.0000 -4.5465 0.0000
# 2 52.5497 82.2085 52.5672 0.0000 -15.0810 0.0000
# 3 13.9355 52.5672 114.6877 0.0000 0.3624 0.0000
# 4 0.0000 0.0000 0.0000 31.8681 0.0000 2.6839
# 5 -4.5465 -15.0810 0.3624 0.0000 52.9394 0.0000
# 6 0.0000 0.0000 0.0000 2.6839 0.0000 23.8285
#
#
#
# Elastic Compliance Matrix: (Units=1/GPa)
#
#
# Indices 1 2 3 4 5 6 
#
# 1 0.007974 -0.006656 0.002086 0.000000 -0.001226 0.000000
# 2 -0.006656 0.024169 -0.010290 0.000000 0.006384 0.000000
# 3 0.002086 -0.010290 0.013191 0.000000 -0.002842 0.000000
# 4 0.000000 0.000000 0.000000 0.031680 0.000000 -0.003568
# 5 -0.001226 0.006384 -0.002842 0.000000 0.020622 0.000000
# 6 0.000000 0.000000 0.000000 -0.003568 0.000000 0.042368
#
#
# Mechanical properties :
#
#
# Convention : Reuss Voigt Hill
#
# Bulk Modulus (GPa) = 64.03919 66.65771 65.34845
# Shear Modulus (GPa) = 28.58278 37.91134 33.24706
#
# Velocity S-wave (km/s) = 3.21892 3.70717 3.47164
# Velocity P-wave (km/s) = 6.08522 6.51829 6.30547
#
# Compressibility (1/GPa) = 0.01561544
#
# Stress axis : x y z
#
# Youngs Moduli (GPa) = 125.40087 41.37446 75.80862
#
# Poissons Ratio (x) = 0.27539 -0.15811
# Poissons Ratio (y) = 0.83466 0.78004
# Poissons Ratio (z) = -0.26154 0.42572
#
# Static dielectric constant tensor:
#      x y z
#    x 2.284640 0.000000 -0.024890 
#    y 0.000000 2.058100 0.000000 
#    z -0.024890 0.000000 2.131690 
# 
# From -- ./inp_files/97943.got.cif
#   From: 2010.05.17/outbox.cif.g08.bks.cpg/sg13_49_cif.got.tgz:97943.got - 2010.06.03 16:44:36.
