data_PCOD9238957
_publ_section_title
;
Structure prediction by ZEFSAII (Michael W. Deem and Ramdas Pophale) SiO2 
 PCOD9238957
Probable space group: P 2/C
;
_chemical_formula_sum "Si O2"
_cell_formula_units_Z 30
_cell_length_a 12.000000
_cell_length_b 15.000000
_cell_length_c 9.000000
_cell_angle_alpha 90.000000
_cell_angle_beta 110.000000
_cell_angle_gamma 90.000000
_cell_volume 1522.302046
_symmetry_space_group_name_H-M "P 2/C"
_symmetry_group_IT_number 13
_symmetry_cell_setting 'monoclinic'
loop_
_space_group_symop_operation_xyz
x,y,z
-x,y,1/2-z
-x,-y,-z
x,-y,1/2+z
loop_
_atom_site_type_symbol
_atom_site_label
_atom_site_fract_x
_atom_site_fract_y
_atom_site_fract_z
Si Si1 0.862202 0.574809 0.646944
Si Si2 0.824776 0.387594 0.465313
Si Si3 0.285297 0.093628 0.100094
Si Si4 0.920039 0.281977 0.933220
Si Si5 0.389418 0.934469 0.974570
Si Si6 0.699815 0.742321 0.112874
Si Si7 0.978871 0.095646 0.415321
Si Si8 0.500000 0.791025 0.250000
O O1 0.828666 0.483143 0.549702
O O2 0.804122 0.596028 0.779970
O O3 0.857453 0.658037 0.531883
O O4 0.000000 0.563206 0.750000
O O5 0.719837 0.331653 0.494501
O O6 0.953942 0.335083 0.539317
O O7 0.355015 0.092704 0.289918
O O8 0.154428 0.116915 0.095929
O O9 0.317396 0.165857 0.987860
O O10 0.296057 0.997275 0.022501
O O11 0.825101 0.268082 0.758358
O O12 0.947835 0.181926 0.999511
O O13 0.426160 0.854429 0.101720
O O14 0.500000 0.000000 0.000000
O O15 0.593971 0.738607 0.186895
O O16 0.000000 0.086161 0.250000
O O17 0.000000 0.000000 0.500000
#
# Coordination Sequence:
#
# PCOD9238957 Si02
#       8
#     4   4   4   4   4   4   4   2
#     4  10  20  38  71 102 135 177 217 273 336 408
#     4  11  21  41  68 104 135 171 220 275 344 409
#     4  12  25  42  66  90 130 176 221 287 335 388
#     4  11  24  42  64  99 142 175 224 272 333 407
#     4  12  23  45  68  91 118 175 247 291 323 383
#     4  12  26  41  65  96 134 174 223 284 338 401
#     4  12  28  40  58  94 140 188 212 259 336 412
#     4  12  28  44  68  92 126 178 234 292 336 388
#
# _framework density 19.706996
#
# number of rings (size 3 to 8) (size 9 to 14) (size 15 to 20)
#    0.000    0.533    4.000    5.600    7.467    0.000 
#    0.000    0.000    0.000    3.200    0.000    0.000 
#    0.000    0.000    0.000    0.000    0.000    0.000 
#
# Total GULP energy -167533.612015 kJ/mol
# GULP energy per Si atom -5584.453734 kJ/mol
# Density = 1.966214 g / cm^3
# Si number density = 19.706996 Si / 1000 Ang^3
#
#
#
# Elastic Constant Matrix: (Units=GPa)
#
#
# Indices 1 2 3 4 5 6 
#
# 1 91.2219 30.6045 38.8581 0.0000 -42.7826 0.0000
# 2 30.6045 134.3523 56.2326 0.0000 -15.1323 0.0000
# 3 38.8581 56.2326 135.0065 0.0000 -29.8303 0.0000
# 4 0.0000 0.0000 0.0000 35.6300 0.0000 -12.0966
# 5 -42.7826 -15.1323 -29.8303 0.0000 40.6126 0.0000
# 6 0.0000 0.0000 0.0000 -12.0966 0.0000 31.8815
#
#
#
# Elastic Compliance Matrix: (Units=1/GPa)
#
#
# Indices 1 2 3 4 5 6 
#
# 1 0.022508 -0.002378 -0.000531 0.000000 0.022435 0.000000
# 2 -0.002378 0.009283 -0.003547 0.000000 -0.001652 0.000000
# 3 -0.000531 -0.003547 0.010292 0.000000 0.005679 0.000000
# 4 0.000000 0.000000 0.000000 0.032216 0.000000 0.012224
# 5 0.022435 -0.001652 0.005679 0.000000 0.051812 0.000000
# 6 0.000000 0.000000 0.000000 0.012224 0.000000 0.036004
#
#
# Mechanical properties :
#
#
# Convention : Reuss Voigt Hill
#
# Bulk Modulus (GPa) = 34.28028 67.99678 51.13853
# Shear Modulus (GPa) = 27.06338 37.28388 32.17363
#
# Velocity S-wave (km/s) = 3.70981 4.35433 4.04493
# Velocity P-wave (km/s) = 5.98189 7.73686 6.91527
#
# Compressibility (1/GPa) = 0.02917129
#
# Stress axis : x y z
#
# Youngs Moduli (GPa) = 44.42876 107.71835 97.16260
#
# Poissons Ratio (x) = 0.25617 0.05157
# Poissons Ratio (y) = 0.10566 0.34465
# Poissons Ratio (z) = 0.02358 0.38210
#
# Static dielectric constant tensor:
#      x y z
#    x 1.714110 0.000000 -0.005960 
#    y 0.000000 1.719760 0.000000 
#    z -0.005960 0.000000 1.749840 
# 
# From -- ./inp_files/16802.got.cif
#   From: 2010.05.17/outbox.ucp.g08.bks.cvg/sg13_9_cif.got.tgz:16802.got - 2010.06.11 12:23:55.
