data_PCOD9238099
_publ_section_title
;
Structure prediction by ZEFSAII (Michael W. Deem and Ramdas Pophale) SiO2 
 PCOD9238099
Probable space group: P 2/C
;
_chemical_formula_sum "Si O2"
_cell_formula_units_Z 24
_cell_length_a 10.708454
_cell_length_b 8.165088
_cell_length_c 11.653294
_cell_angle_alpha 90.000000
_cell_angle_beta 80.384089
_cell_angle_gamma 90.000000
_cell_volume 1004.595208
_symmetry_space_group_name_H-M "P 2/C"
_symmetry_group_IT_number 13
_symmetry_cell_setting 'monoclinic'
loop_
_space_group_symop_operation_xyz
x,y,z
-x,y,1/2-z
-x,-y,-z
x,-y,1/2+z
loop_
_atom_site_type_symbol
_atom_site_label
_atom_site_fract_x
_atom_site_fract_y
_atom_site_fract_z
Si Si1 0.552770 0.172699 0.612364
Si Si2 0.070902 0.212545 0.091779
Si Si3 0.792951 0.706659 0.152863
Si Si4 0.199446 0.657215 0.780615
Si Si5 0.117039 0.150596 0.661286
Si Si6 0.339124 0.813699 0.960702
O O1 0.500000 0.150023 0.750000
O O2 0.661902 0.305864 0.606269
O O3 0.450195 0.229063 0.533981
O O4 0.626423 0.005564 0.564430
O O5 0.185500 0.278244 0.153602
O O6 0.935983 0.285245 0.146856
O O7 0.068072 0.020257 0.119526
O O8 0.100483 0.258427 0.957460
O O9 0.803481 0.537910 0.218345
O O10 0.788877 0.857481 0.243318
O O11 0.312604 0.728381 0.841938
O O12 0.206856 0.218455 0.548527
O O13 0.000000 0.232174 0.750000
#
# Coordination Sequence:
#
# PCOD9238099 Si02
#       6
#     4   4   4   4   4   4
#     4  11  24  44  72 101 134 189 246 292 341 414
#     4  11  25  45  67 104 142 184 232 284 356 420
#     4  12  26  43  71 101 141 185 231 292 357 418
#     4  11  26  44  67 103 148 179 228 290 363 427
#     4  12  24  41  74 103 138 182 237 290 344 419
#     4  11  25  44  71 100 140 186 240 298 344 412
#
# _framework density 23.890222000000001
#
# number of rings (size 3 to 8) (size 9 to 14) (size 15 to 20)
#    0.000    0.667    5.000    2.500    4.667    2.000 
#    0.000    0.833    0.000    0.000    0.000    0.000 
#    0.000    0.000    0.000    0.000    0.000    0.000 
#
# Total GULP energy -133980.095708 kJ/mol
# GULP energy per Si atom -5582.503988 kJ/mol
# Density = 2.383585 g / cm^3
# Si number density = 23.890222 Si / 1000 Ang^3
#
#
#
# Elastic Constant Matrix: (Units=GPa)
#
#
# Indices 1 2 3 4 5 6 
#
# 1 80.0633 11.0371 3.4806 0.0000 19.9514 0.0000
# 2 11.0371 57.6368 -2.9102 0.0000 16.3648 0.0000
# 3 3.4806 -2.9102 123.0462 0.0000 17.4045 0.0000
# 4 0.0000 0.0000 0.0000 28.3949 0.0000 -5.0986
# 5 19.9514 16.3648 17.4045 0.0000 38.9207 0.0000
# 6 0.0000 0.0000 0.0000 -5.0986 0.0000 29.0539
#
#
#
# Elastic Compliance Matrix: (Units=1/GPa)
#
#
# Indices 1 2 3 4 5 6 
#
# 1 0.014392 -0.000625 0.000624 0.000000 -0.007394 0.000000
# 2 -0.000625 0.020088 0.001753 0.000000 -0.008910 0.000000
# 3 0.000624 0.001753 0.008861 0.000000 -0.005019 0.000000
# 4 0.000000 0.000000 0.000000 0.036363 0.000000 0.006381
# 5 -0.007394 -0.008910 -0.005019 0.000000 0.035474 0.000000
# 6 0.000000 0.000000 0.000000 0.006381 0.000000 0.035539
#
#
# Mechanical properties :
#
#
# Convention : Reuss Voigt Hill
#
# Bulk Modulus (GPa) = 21.34741 31.55123 26.44932
# Shear Modulus (GPa) = 30.70729 35.88313 33.29521
#
# Velocity S-wave (km/s) = 3.58907 3.87977 3.73725
# Velocity P-wave (km/s) = 5.11177 5.77110 5.45141
#
# Compressibility (1/GPa) = 0.04684410
#
# Stress axis : x y z
#
# Youngs Moduli (GPa) = 69.48490 49.78092 112.85650
#
# Poissons Ratio (x) = 0.03112 -0.07041
# Poissons Ratio (y) = 0.04344 -0.19784
# Poissons Ratio (z) = -0.04335 -0.08727
#
# Static dielectric constant tensor:
#      x y z
#    x 2.031640 0.000000 0.049970 
#    y 0.000000 1.880350 0.000000 
#    z 0.049970 0.000000 1.942520 
# 
# From -- ./inp_files/32584.got.cif
#   From: 2010.05.17/outbox.cif.g08.bks.cpg/sg13_17_cif.got.tgz:32584.got - 2010.06.03 16:44:36.
