data_PCOD9238989
_publ_section_title
;
Structure prediction by ZEFSAII (Michael W. Deem and Ramdas Pophale) SiO2 
 PCOD9238989
Probable space group: P 2/C
;
_chemical_formula_sum "Si O2"
_cell_formula_units_Z 24
_cell_length_a 9.000000
_cell_length_b 12.000000
_cell_length_c 12.000000
_cell_angle_alpha 90.000000
_cell_angle_beta 90.000000
_cell_angle_gamma 90.000000
_cell_volume 1296.000000
_symmetry_space_group_name_H-M "P 2/C"
_symmetry_group_IT_number 13
_symmetry_cell_setting 'monoclinic'
loop_
_space_group_symop_operation_xyz
x,y,z
-x,y,1/2-z
-x,-y,-z
x,-y,1/2+z
loop_
_atom_site_type_symbol
_atom_site_label
_atom_site_fract_x
_atom_site_fract_y
_atom_site_fract_z
Si Si1 0.109937 0.784376 0.070864
Si Si2 0.136076 0.926445 0.840250
Si Si3 0.790488 0.179773 0.678427
Si Si4 0.636268 0.342109 0.514413
Si Si5 0.674746 0.269962 0.266655
Si Si6 0.296670 0.402469 0.450113
O O1 0.202592 0.811448 0.185700
O O2 0.944406 0.777522 0.121323
O O3 0.107989 0.873533 0.965604
O O4 0.175968 0.670738 0.017676
O O5 0.239155 0.837012 0.778144
O O6 0.000000 0.941244 0.750000
O O7 0.211322 0.047944 0.850480
O O8 0.668745 0.255816 0.614965
O O9 0.700284 0.296580 0.396434
O O10 0.459735 0.361904 0.493592
O O11 0.706156 0.464388 0.536473
O O12 0.500000 0.250847 0.250000
O O13 0.715232 0.369342 0.180555
#
# Coordination Sequence:
#
# PCOD9238989 Si02
#       6
#     4   4   4   4   4   4
#     4  10  22  39  57  89 121 150 199 239 289 343
#     4  11  21  39  62  83 117 161 194 235 291 349
#     4  11  23  36  58  90 118 154 192 243 288 343
#     4  10  21  38  64  86 116 155 196 238 297 346
#     4   9  20  39  58  85 116 150 199 241 289 350
#     4   9  21  40  61  87 115 154 195 244 289 349
#
# _framework density 18.518519000000001
#
# number of rings (size 3 to 8) (size 9 to 14) (size 15 to 20)
#    0.000    2.000    1.667    1.500    4.667    1.333 
#    3.000    2.500    0.000    0.000    0.000    0.000 
#    0.000    0.000    0.000    0.000    0.000    0.000 
#
# Total GULP energy -133809.151626 kJ/mol
# GULP energy per Si atom -5575.381318 kJ/mol
# Density = 1.847637 g / cm^3
# Si number density = 18.518519 Si / 1000 Ang^3
#
#
#
# Elastic Constant Matrix: (Units=GPa)
#
#
# Indices 1 2 3 4 5 6 
#
# 1 18.3738 27.1973 15.8276 0.0000 -3.4021 0.0000
# 2 27.1973 127.3562 44.9944 0.0000 6.2748 0.0000
# 3 15.8276 44.9944 140.8350 0.0000 12.9098 0.0000
# 4 0.0000 0.0000 0.0000 28.6784 0.0000 5.1011
# 5 -3.4021 6.2748 12.9098 0.0000 33.0303 0.0000
# 6 0.0000 0.0000 0.0000 5.1011 0.0000 28.3783
#
#
#
# Elastic Compliance Matrix: (Units=1/GPa)
#
#
# Indices 1 2 3 4 5 6 
#
# 1 0.087862 -0.017495 -0.005620 0.000000 0.014570 0.000000
# 2 -0.017495 0.012346 -0.001657 0.000000 -0.003500 0.000000
# 3 -0.005620 -0.001657 0.008594 0.000000 -0.003623 0.000000
# 4 0.000000 0.000000 0.000000 0.036021 0.000000 -0.006475
# 5 0.014570 -0.003500 -0.003623 0.000000 0.033857 0.000000
# 6 0.000000 0.000000 0.000000 -0.006475 0.000000 0.036402
#
#
# Mechanical properties :
#
#
# Convention : Reuss Voigt Hill
#
# Bulk Modulus (GPa) = 16.87606 51.40039 34.13823
# Shear Modulus (GPa) = 17.58210 31.25379 24.41794
#
# Velocity S-wave (km/s) = 3.08463 4.11262 3.63515
# Velocity P-wave (km/s) = 4.67113 7.09704 6.00781
#
# Compressibility (1/GPa) = 0.05925552
#
# Stress axis : x y z
#
# Youngs Moduli (GPa) = 11.38149 80.99675 116.36364
#
# Poissons Ratio (x) = 1.41707 0.65401
# Poissons Ratio (y) = 0.19912 0.19286
# Poissons Ratio (z) = 0.06397 0.13424
#
# Static dielectric constant tensor:
#      x y z
#    x 1.666230 0.000000 0.011460 
#    y 0.000000 1.626950 0.000000 
#    z 0.011460 0.000000 1.644830 
# 
# From -- ./inp_files/29469.got.cif
#   From: 2010.05.17/outbox.ucp.g08.bks.cvg/sg13_15_cif.got.tgz:29469.got - 2010.06.11 12:23:55.
