data_PCOD9238403
_publ_section_title
;
Structure prediction by ZEFSAII (Michael W. Deem and Ramdas Pophale) SiO2 
 PCOD9238403
Probable space group: P 2/C
;
_chemical_formula_sum "Si O2"
_cell_formula_units_Z 16
_cell_length_a 7.974657
_cell_length_b 4.975848
_cell_length_c 13.155022
_cell_angle_alpha 90.000000
_cell_angle_beta 104.916811
_cell_angle_gamma 90.000000
_cell_volume 504.409134
_symmetry_space_group_name_H-M "P 2/C"
_symmetry_group_IT_number 13
_symmetry_cell_setting 'monoclinic'
loop_
_space_group_symop_operation_xyz
x,y,z
-x,y,1/2-z
-x,-y,-z
x,-y,1/2+z
loop_
_atom_site_type_symbol
_atom_site_label
_atom_site_fract_x
_atom_site_fract_y
_atom_site_fract_z
Si Si1 0.863105 0.292820 0.065889
Si Si2 0.500000 0.871494 0.750000
Si Si3 0.500000 0.000000 0.000000
Si Si4 0.761354 0.309712 0.380565
Si Si5 0.316640 0.658125 0.320245
O O1 0.846087 0.535624 0.145328
O O2 0.054885 0.168249 0.104604
O O3 0.825244 0.438484 0.953755
O O4 0.714163 0.080007 0.060066
O O5 0.660183 0.089359 0.749832
O O6 0.417098 0.833012 0.611520
O O7 0.465018 0.289465 0.924525
O O8 0.660744 0.406223 0.259730
#
# Coordination Sequence:
#
# PCOD9238403 Si02
#       5
#     4   2   2   4   4
#     4  11  26  47  74 107 149 198 255 317 383 459
#     4  12  24  44  74 104 146 200 252 310 382 454
#     4  12  24  44  76 106 142 196 252 308 376 450
#     4  11  26  48  71 107 153 199 252 316 387 461
#     4  12  25  44  73 110 147 194 249 317 375 449
#
# _framework density 31.720282000000001
#
# number of rings (size 3 to 8) (size 9 to 14) (size 15 to 20)
#    0.000    0.500    0.000    8.250    0.000    4.000 
#    0.000    6.250    0.000    1.500    0.000    0.000 
#    0.000    0.000    0.000    0.000    0.000    0.000 
#
# Total GULP energy -89232.048760 kJ/mol
# GULP energy per Si atom -5577.003048 kJ/mol
# Density = 3.164809 g / cm^3
# Si number density = 31.720282 Si / 1000 Ang^3
#
#
#
# Elastic Constant Matrix: (Units=GPa)
#
#
# Indices 1 2 3 4 5 6 
#
# 1 258.5602 81.4268 118.9797 0.0000 74.2329 0.0000
# 2 81.4268 216.9801 71.2063 0.0000 24.5480 0.0000
# 3 118.9797 71.2063 250.2081 0.0000 27.8068 0.0000
# 4 0.0000 0.0000 0.0000 60.7737 0.0000 -9.4312
# 5 74.2329 24.5480 27.8068 0.0000 91.9079 0.0000
# 6 0.0000 0.0000 0.0000 -9.4312 0.0000 43.6471
#
#
#
# Elastic Compliance Matrix: (Units=1/GPa)
#
#
# Indices 1 2 3 4 5 6 
#
# 1 0.006522 -0.001217 -0.002282 0.000000 -0.004252 0.000000
# 2 -0.001217 0.005393 -0.000936 0.000000 -0.000174 0.000000
# 3 -0.002282 -0.000936 0.005294 0.000000 0.000492 0.000000
# 4 0.000000 0.000000 0.000000 0.017025 0.000000 0.003679
# 5 -0.004252 -0.000174 0.000492 0.000000 0.014212 0.000000
# 6 0.000000 0.000000 0.000000 0.003679 0.000000 0.023706
#
#
# Mechanical properties :
#
#
# Convention : Reuss Voigt Hill
#
# Bulk Modulus (GPa) = 119.96316 140.99709 130.48013
# Shear Modulus (GPa) = 59.66366 69.54144 64.60255
#
# Velocity S-wave (km/s) = 4.34168 4.68732 4.51780
# Velocity P-wave (km/s) = 7.93944 8.59309 8.27272
#
# Compressibility (1/GPa) = 0.00833589
#
# Stress axis : x y z
#
# Youngs Moduli (GPa) = 153.32743 185.44077 188.90019
#
# Poissons Ratio (x) = 0.22577 0.43113
# Poissons Ratio (y) = 0.18667 0.17689
# Poissons Ratio (z) = 0.34994 0.17365
#
# Static dielectric constant tensor:
#      x y z
#    x 2.599530 0.000000 -0.395830 
#    y 0.000000 2.522990 0.000000 
#    z -0.395830 0.000000 3.068550 
# 
# From -- ./inp_files/62185.got.cif
#   From: 2010.05.17/outbox.cif.g08.bks.cpg/sg13_32_cif.got.tgz:62185.got - 2010.06.03 16:44:36.
