data_PCOD9238211
_publ_section_title
;
Structure prediction by ZEFSAII (Michael W. Deem and Ramdas Pophale) SiO2 
 PCOD9238211
Probable space group: P 2/C
;
_chemical_formula_sum "Si O2"
_cell_formula_units_Z 20
_cell_length_a 18.093020
_cell_length_b 5.361546
_cell_length_c 14.191826
_cell_angle_alpha 90.000000
_cell_angle_beta 144.303600
_cell_angle_gamma 90.000000
_cell_volume 803.291059
_symmetry_space_group_name_H-M "P 2/C"
_symmetry_group_IT_number 13
_symmetry_cell_setting 'monoclinic'
loop_
_space_group_symop_operation_xyz
x,y,z
-x,y,1/2-z
-x,-y,-z
x,-y,1/2+z
loop_
_atom_site_type_symbol
_atom_site_label
_atom_site_fract_x
_atom_site_fract_y
_atom_site_fract_z
Si Si1 0.678392 0.829600 0.120693
Si Si2 0.408751 0.816793 0.818606
Si Si3 0.000000 0.649123 0.750000
Si Si4 0.060749 0.249446 0.520079
Si Si5 0.729553 0.412700 0.489994
Si Si6 0.500000 0.794745 0.250000
O O1 0.650142 0.084692 0.146138
O O2 0.793090 0.724445 0.299707
O O3 0.716801 0.813116 0.051480
O O4 0.542986 0.693843 0.981913
O O5 0.454761 0.035588 0.792010
O O6 0.307802 0.669586 0.653266
O O7 0.040625 0.783680 0.887740
O O8 0.126914 0.499718 0.855063
O O9 0.000000 0.500000 0.500000
O O10 0.000000 0.000000 0.500000
O O11 0.621229 0.619546 0.399552
#
# Coordination Sequence:
#
# PCOD9238211 Si02
#       6
#     4   4   2   4   4   2
#     4  11  24  48  76 114 156 205 272 337 409 494
#     4  11  25  45  75 118 153 209 267 345 409 491
#     4  12  30  54  82 116 166 216 264 356 412 494
#     4  12  30  53  82 120 163 221 276 335 417 501
#     4  12  25  50  76 114 160 208 275 334 419 492
#     4  12  22  44  76 106 158 204 266 330 418 482
#
# _framework density 24.897576000000001
#
# number of rings (size 3 to 8) (size 9 to 14) (size 15 to 20)
#    0.000    0.400    6.000    1.200    5.600    3.200 
#    3.600    0.000    0.000    0.000    0.000    0.000 
#    0.000    0.000    0.000    0.000    0.000    0.000 
#
# Total GULP energy -111877.598703 kJ/mol
# GULP energy per Si atom -5593.879935 kJ/mol
# Density = 2.484091 g / cm^3
# Si number density = 24.897576 Si / 1000 Ang^3
#
#
#
# Elastic Constant Matrix: (Units=GPa)
#
#
# Indices 1 2 3 4 5 6 
#
# 1 113.0744 51.9780 57.4792 0.0000 -8.9215 0.0000
# 2 51.9780 83.9009 22.7005 0.0000 -9.2003 0.0000
# 3 57.4792 22.7005 222.8936 0.0000 -0.4294 0.0000
# 4 0.0000 0.0000 0.0000 -143.9432 0.0000 27.7068
# 5 -8.9215 -9.2003 -0.4294 0.0000 58.0036 0.0000
# 6 0.0000 0.0000 0.0000 27.7068 0.0000 52.7661
#
#
#
# Elastic Compliance Matrix: (Units=1/GPa)
#
#
# Indices 1 2 3 4 5 6 
#
# 1 0.013900 -0.007758 -0.002793 0.000000 0.000887 0.000000
# 2 -0.007758 0.016808 0.000292 0.000000 0.001475 0.000000
# 3 -0.002793 0.000292 0.005176 0.000000 -0.000345 0.000000
# 4 0.000000 0.000000 0.000000 -0.006309 0.000000 0.003313
# 5 0.000887 0.001475 -0.000345 0.000000 0.017608 0.000000
# 6 0.000000 0.000000 0.000000 0.003313 0.000000 0.017212
#
#
# Mechanical properties :
#
#
# Convention : Reuss Voigt Hill
#
# Bulk Modulus (GPa) = 65.08030 76.02047 70.55038
# Shear Modulus (GPa) = 55.53451 12.54605 34.04028
#
# Velocity S-wave (km/s) = 4.72796 2.24722 3.70160
# Velocity P-wave (km/s) = 7.48337 6.11007 6.83131
#
# Compressibility (1/GPa) = 0.01536563
#
# Stress axis : x y z
#
# Youngs Moduli (GPa) = 71.94500 59.49561 193.19178
#
# Poissons Ratio (x) = 0.46158 0.53949
# Poissons Ratio (y) = 0.55816 -0.05636
# Poissons Ratio (z) = 0.20091 -0.01736
#
# Static dielectric constant tensor:
#      x y z
#    x 1.974890 0.000000 0.016280 
#    y 0.000000 2.018430 0.000000 
#    z 0.016280 0.000000 1.940610 
# 
# From -- ./inp_files/56724.got.cif
#   From: 2010.05.17/outbox.cif.g08.bks.cpg/sg13_29_cif.got.tgz:56724.got - 2010.06.03 16:44:36.
