data_PCOD9238113
_publ_section_title
;
Structure prediction by ZEFSAII (Michael W. Deem and Ramdas Pophale) SiO2 
 PCOD9238113
Probable space group: P 2/C
;
_chemical_formula_sum "Si O2"
_cell_formula_units_Z 22
_cell_length_a 14.020755
_cell_length_b 11.789747
_cell_length_c 17.258069
_cell_angle_alpha 90.000000
_cell_angle_beta 19.259087
_cell_angle_gamma 90.000000
_cell_volume 940.961595
_symmetry_space_group_name_H-M "P 2/C"
_symmetry_group_IT_number 13
_symmetry_cell_setting 'monoclinic'
loop_
_space_group_symop_operation_xyz
x,y,z
-x,y,1/2-z
-x,-y,-z
x,-y,1/2+z
loop_
_atom_site_type_symbol
_atom_site_label
_atom_site_fract_x
_atom_site_fract_y
_atom_site_fract_z
Si Si1 0.000000 0.115115 0.250000
Si Si2 0.578162 0.466764 0.274051
Si Si3 0.818651 0.820631 0.043485
Si Si4 0.697237 0.245609 0.944088
Si Si5 0.192205 0.347399 0.806576
Si Si6 0.444687 0.958988 0.706293
O O1 0.022313 0.185183 0.312337
O O2 0.717538 0.036918 0.473415
O O3 0.500000 0.514553 0.250000
O O4 0.387860 0.359376 0.444638
O O5 0.571791 0.561710 0.345337
O O6 0.901115 0.418293 0.016439
O O7 0.500000 0.802435 0.250000
O O8 0.861391 0.733998 0.079342
O O9 0.808030 0.949180 0.086068
O O10 0.733484 0.277516 0.826833
O O11 0.000000 0.205247 0.750000
O O12 0.456900 0.147964 0.140699
O O13 0.500000 0.909635 0.750000
#
# Coordination Sequence:
#
# PCOD9238113 Si02
#       6
#     2   4   4   4   4   4
#     4   8  16  36  62  92 130 170 208 248 320 372
#     4  11  24  45  66  92 128 169 216 273 328 381
#     4   9  20  39  65  95 134 171 209 264 315 379
#     4  12  23  40  68  94 128 173 217 266 323 383
#     4  11  25  42  66  99 128 165 221 270 321 389
#     4   9  19  35  65  94 129 172 212 256 315 381
#
# _framework density 23.380337000000001
#
# number of rings (size 3 to 8) (size 9 to 14) (size 15 to 20)
#    0.000    2.182    2.727    1.636    0.000    3.636 
#    0.000    5.455    2.000    0.000    0.000    0.000 
#    0.000    0.000    0.000    0.000    0.000    0.000 
#
# Total GULP energy -123003.809817 kJ/mol
# GULP energy per Si atom -5591.082264 kJ/mol
# Density = 2.332712 g / cm^3
# Si number density = 23.380337 Si / 1000 Ang^3
#
#
#
# Elastic Constant Matrix: (Units=GPa)
#
#
# Indices 1 2 3 4 5 6 
#
# 1 121.9671 38.5764 19.0830 0.0000 17.0672 0.0000
# 2 38.5764 92.2146 5.0233 0.0000 11.2235 0.0000
# 3 19.0830 5.0233 48.5731 0.0000 18.9668 0.0000
# 4 0.0000 0.0000 0.0000 -4.9605 0.0000 -232.5281
# 5 17.0672 11.2235 18.9668 0.0000 38.7093 0.0000
# 6 0.0000 0.0000 0.0000 -232.5281 0.0000-4479.8030
#
#
#
# Elastic Compliance Matrix: (Units=1/GPa)
#
#
# Indices 1 2 3 4 5 6 
#
# 1 0.010131 -0.003845 -0.002812 0.000000 -0.001975 0.000000
# 2 -0.003845 0.012701 0.001203 0.000000 -0.002577 0.000000
# 3 -0.002812 0.001203 0.026240 0.000000 -0.011966 0.000000
# 4 0.000000 0.000000 0.000000 0.140665 0.000000 -0.007301
# 5 -0.001975 -0.002577 -0.011966 0.000000 0.033315 0.000000
# 6 0.000000 0.000000 0.000000 -0.007301 0.000000 0.000156
#
#
# Mechanical properties :
#
#
# Convention : Reuss Voigt Hill
#
# Bulk Modulus (GPa) = 26.20133 43.12446 34.66289
# Shear Modulus (GPa) = 20.25633 -875.87271 -427.80819
#
# Velocity S-wave (km/s) = 2.94663 -19.37608 -13.54160
# Velocity P-wave (km/s) = 4.77575 21.95659 15.15395
#
# Compressibility (1/GPa) = 0.03816600
#
# Stress axis : x y z
#
# Youngs Moduli (GPa) = 98.70523 78.73560 38.10925
#
# Poissons Ratio (x) = 0.30272 0.10715
# Poissons Ratio (y) = 0.37949 -0.04585
# Poissons Ratio (z) = 0.27752 -0.09474
#
# Static dielectric constant tensor:
#      x y z
#    x 1.915290 0.000000 -0.043990 
#    y 0.000000 1.874000 0.000000 
#    z -0.043990 0.000000 1.908680 
# 
# From -- ./inp_files/51104.got.cif
#   From: 2010.05.17/outbox.cif.g08.bks.cpg/sg13_26_cif.got.tgz:51104.got - 2010.06.03 16:44:36.
