data_PCOD9238316
_publ_section_title
;
Structure prediction by ZEFSAII (Michael W. Deem and Ramdas Pophale) SiO2 
 PCOD9238316
Probable space group: P 2/C
;
_chemical_formula_sum "Si O2"
_cell_formula_units_Z 22
_cell_length_a 15.717890
_cell_length_b 5.791662
_cell_length_c 23.099010
_cell_angle_alpha 90.000000
_cell_angle_beta 152.861520
_cell_angle_gamma 90.000000
_cell_volume 959.161028
_symmetry_space_group_name_H-M "P 2/C"
_symmetry_group_IT_number 13
_symmetry_cell_setting 'monoclinic'
loop_
_space_group_symop_operation_xyz
x,y,z
-x,y,1/2-z
-x,-y,-z
x,-y,1/2+z
loop_
_atom_site_type_symbol
_atom_site_label
_atom_site_fract_x
_atom_site_fract_y
_atom_site_fract_z
Si Si1 0.577180 0.302669 0.089086
Si Si2 0.742082 0.225934 0.974695
Si Si3 0.392031 0.487976 0.268228
Si Si4 0.077243 0.751000 0.028577
Si Si5 0.789257 0.992419 0.625115
Si Si6 0.500000 0.117028 0.250000
O O1 0.652026 0.412596 0.193601
O O2 0.729719 0.150036 0.146740
O O3 0.500000 0.500000 0.000000
O O4 0.390301 0.157489 0.991039
O O5 0.609253 0.447534 0.895238
O O6 0.912092 0.257507 0.034282
O O7 0.624937 0.025210 0.871021
O O8 0.788375 0.168919 0.068148
O O9 0.282348 0.715301 0.181144
O O10 0.366783 0.280573 0.207994
O O11 0.000000 0.500000 0.000000
O O12 0.000000 0.000000 0.000000
O O13 0.000000 0.095960 0.750000
#
# Coordination Sequence:
#
# PCOD9238316 Si02
#       6
#     4   4   4   4   4   2
#     4  11  25  47  74 104 145 206 261 316 400 473
#     4  12  24  45  74 102 142 201 251 307 394 469
#     4  12  24  44  74 102 146 199 248 315 385 481
#     4  12  28  44  70 117 154 193 248 322 396 460
#     4  11  27  47  72 108 151 200 264 330 391 470
#     4  12  20  44  76 102 138 192 258 302 386 468
#
# _framework density 22.936713000000001
#
# number of rings (size 3 to 8) (size 9 to 14) (size 15 to 20)
#    0.000    0.364    7.273    1.091    2.545    2.182 
#    0.000    0.000    0.000    0.000    0.000    0.000 
#    0.000    0.000    0.000    0.000    0.000    0.000 
#
# Total GULP energy -122870.326501 kJ/mol
# GULP energy per Si atom -5585.014841 kJ/mol
# Density = 2.288451 g / cm^3
# Si number density = 22.936713 Si / 1000 Ang^3
#
#
#
# Elastic Constant Matrix: (Units=GPa)
#
#
# Indices 1 2 3 4 5 6 
#
# 1 162.8647 47.2917 30.4952 0.0000 -2.3391 0.0000
# 2 47.2917 85.0421 13.2526 0.0000 11.9683 0.0000
# 3 30.4952 13.2526 63.6624 0.0000 11.5873 0.0000
# 4 0.0000 0.0000 0.0000 39.4409 0.0000 8.7910
# 5 -2.3391 11.9683 11.5873 0.0000 43.1247 0.0000
# 6 0.0000 0.0000 0.0000 8.7910 0.0000 49.1691
#
#
#
# Elastic Compliance Matrix: (Units=1/GPa)
#
#
# Indices 1 2 3 4 5 6 
#
# 1 0.008073 -0.004314 -0.003434 0.000000 0.002558 0.000000
# 2 -0.004314 0.014796 -0.000235 0.000000 -0.004277 0.000000
# 3 -0.003434 -0.000235 0.018320 0.000000 -0.005043 0.000000
# 4 0.000000 0.000000 0.000000 0.026407 0.000000 -0.004721
# 5 0.002558 -0.004277 -0.005043 0.000000 0.025870 0.000000
# 6 0.000000 0.000000 0.000000 -0.004721 0.000000 0.021182
#
#
# Mechanical properties :
#
#
# Convention : Reuss Voigt Hill
#
# Bulk Modulus (GPa) = 39.64824 54.84978 47.24901
# Shear Modulus (GPa) = 35.96567 41.04892 38.50729
#
# Velocity S-wave (km/s) = 3.96414 4.23503 4.10182
# Velocity P-wave (km/s) = 6.18676 6.91949 6.56336
#
# Compressibility (1/GPa) = 0.02522180
#
# Stress axis : x y z
#
# Youngs Moduli (GPa) = 123.87732 67.58390 54.58542
#
# Poissons Ratio (x) = 0.29155 0.18747
# Poissons Ratio (y) = 0.53439 0.01284
# Poissons Ratio (z) = 0.42544 0.01590
#
# Static dielectric constant tensor:
#      x y z
#    x 1.903300 0.000000 0.164090 
#    y 0.000000 1.879510 0.000000 
#    z 0.164090 0.000000 2.155010 
# 
# From -- ./inp_files/87014.got.cif
#   From: 2010.05.17/outbox.cif.g08.bks.cpg/sg13_44_cif.got.tgz:87014.got - 2010.06.03 16:44:36.
