data_PCOD9238863
_publ_section_title
;
Structure prediction by ZEFSAII (Michael W. Deem and Ramdas Pophale) SiO2 
 PCOD9238863
Probable space group: P 2/C
;
_chemical_formula_sum "Si O2"
_cell_formula_units_Z 16
_cell_length_a 9.573420
_cell_length_b 7.631709
_cell_length_c 11.497684
_cell_angle_alpha 90.000000
_cell_angle_beta 137.854623
_cell_angle_gamma 90.000000
_cell_volume 563.677745
_symmetry_space_group_name_H-M "P 2/C"
_symmetry_group_IT_number 13
_symmetry_cell_setting 'monoclinic'
loop_
_space_group_symop_operation_xyz
x,y,z
-x,y,1/2-z
-x,-y,-z
x,-y,1/2+z
loop_
_atom_site_type_symbol
_atom_site_label
_atom_site_fract_x
_atom_site_fract_y
_atom_site_fract_z
Si Si1 0.241915 0.088169 0.031665
Si Si2 0.756577 0.016783 0.218553
Si Si3 0.261658 0.426762 0.344710
Si Si4 0.738872 0.499304 0.402151
O O1 0.314222 0.983286 0.192096
O O2 0.268653 0.291324 0.078398
O O3 0.329691 0.063132 0.955390
O O4 0.998232 0.042532 0.871230
O O5 0.746648 0.224352 0.193298
O O6 0.500000 0.500000 0.500000
O O7 0.176925 0.530035 0.177098
O O8 0.175010 0.430568 0.422787
O O9 0.500000 0.563715 0.250000
#
# Coordination Sequence:
#
# PCOD9238863 Si02
#       4
#     4   4   4   4
#     4   9  18  34  54  78 109 142 179 220 265 320
#     4   9  18  34  55  78 108 143 179 219 266 320
#     4   9  18  34  55  80 109 141 180 222 268 319
#     4   9  18  34  54  80 110 141 180 223 267 316
#
# _framework density 28.385013000000001
#
# number of rings (size 3 to 8) (size 9 to 14) (size 15 to 20)
#    0.000    3.000    0.000    0.000    0.000    2.000 
#    0.000   20.000    0.000   27.000    0.000    0.000 
#    0.000    0.000    0.000    0.000    0.000    0.000 
#
# Total GULP energy -89497.496505 kJ/mol
# GULP energy per Si atom -5593.593532 kJ/mol
# Density = 2.832041 g / cm^3
# Si number density = 28.385013 Si / 1000 Ang^3
#
#
#
# Elastic Constant Matrix: (Units=GPa)
#
#
# Indices 1 2 3 4 5 6 
#
# 1 242.1973 15.4536 76.5257 0.0000 -74.1738 0.0000
# 2 15.4536 67.3831 8.9873 0.0000 6.0586 0.0000
# 3 76.5257 8.9873 271.5352 0.0000 -74.9278 0.0000
# 4 0.0000 0.0000 0.0000 40.3411 0.0000 -8.0271
# 5 -74.1738 6.0586 -74.9278 0.0000 81.7293 0.0000
# 6 0.0000 0.0000 0.0000 -8.0271 0.0000 41.8111
#
#
#
# Elastic Compliance Matrix: (Units=1/GPa)
#
#
# Indices 1 2 3 4 5 6 
#
# 1 0.005944 -0.001835 -0.000118 0.000000 0.005422 0.000000
# 2 -0.001835 0.015743 -0.001051 0.000000 -0.003796 0.000000
# 3 -0.000118 -0.001051 0.005010 0.000000 0.004564 0.000000
# 4 0.000000 0.000000 0.000000 0.025773 0.000000 0.004948
# 5 0.005422 -0.003796 0.004564 0.000000 0.021622 0.000000
# 6 0.000000 0.000000 0.000000 0.004948 0.000000 0.024867
#
#
# Mechanical properties :
#
#
# Convention : Reuss Voigt Hill
#
# Bulk Modulus (GPa) = 48.33782 87.00540 67.67161
# Shear Modulus (GPa) = 44.69711 64.78625 54.74168
#
# Velocity S-wave (km/s) = 3.97252 4.78264 4.39628
# Velocity P-wave (km/s) = 6.17313 7.82411 7.04713
#
# Compressibility (1/GPa) = 0.02068774
#
# Stress axis : x y z
#
# Youngs Moduli (GPa) = 168.24303 63.52071 199.58991
#
# Poissons Ratio (x) = 0.11655 0.02360
# Poissons Ratio (y) = 0.30870 0.20987
# Poissons Ratio (z) = 0.01990 0.06679
#
# Static dielectric constant tensor:
#      x y z
#    x 2.438680 0.000000 -0.030420 
#    y 0.000000 2.047260 0.000000 
#    z -0.030420 0.000000 2.239220 
# 
# From -- ./inp_files/27445.got.cif
#   From: 2010.05.17/outbox.cif.g08.bks.cpg/sg13_14_cif.got.tgz:27445.got - 2010.06.03 16:44:36.
