data_PCOD9238586
_publ_section_title
;
Structure prediction by ZEFSAII (Michael W. Deem and Ramdas Pophale) SiO2 
 PCOD9238586
Probable space group: P 2/C
;
_chemical_formula_sum "Si O2"
_cell_formula_units_Z 20
_cell_length_a 12.901895
_cell_length_b 5.575331
_cell_length_c 23.050467
_cell_angle_alpha 90.000000
_cell_angle_beta 29.375843
_cell_angle_gamma 90.000000
_cell_volume 813.345593
_symmetry_space_group_name_H-M "P 2/C"
_symmetry_group_IT_number 13
_symmetry_cell_setting 'monoclinic'
loop_
_space_group_symop_operation_xyz
x,y,z
-x,y,1/2-z
-x,-y,-z
x,-y,1/2+z
loop_
_atom_site_type_symbol
_atom_site_label
_atom_site_fract_x
_atom_site_fract_y
_atom_site_fract_z
Si Si1 0.000000 0.384226 0.750000
Si Si2 0.262029 0.601782 0.519109
Si Si3 0.840216 0.124278 0.724202
Si Si4 0.661441 0.091817 0.049661
Si Si5 0.500000 0.185314 0.250000
Si Si6 0.822239 0.622397 0.678132
O O1 0.869515 0.548159 0.858161
O O2 0.850255 0.210245 0.785637
O O3 0.394231 0.363365 0.441761
O O4 0.079190 0.621946 0.558236
O O5 0.391263 0.848784 0.459358
O O6 0.761822 0.355655 0.727380
O O7 0.086491 0.106578 0.584543
O O8 0.761409 0.859243 0.746818
O O9 0.597189 0.048970 0.147568
O O10 0.300638 0.330432 0.321443
#
# Coordination Sequence:
#
# PCOD9238586 Si02
#       6
#     2   4   4   4   2   4
#     4   8  16  34  68  82 104 138 176 244 284 296
#     4   9  19  37  57  84 106 136 189 228 265 333
#     4   9  19  37  57  84 106 136 189 228 265 333
#     4   9  21  34  54  81 110 143 188 220 264 329
#     4  12  24  38  56  76 120 160 172 226 280 304
#     4   9  21  34  54  81 110 143 188 220 264 329
#
# _framework density 24.589791999999999
#
# number of rings (size 3 to 8) (size 9 to 14) (size 15 to 20)
#    0.000    3.200    0.000    0.000    0.000   24.000 
#    0.000    0.000    0.000   39.600    0.000    0.000 
#    0.000    0.000    0.000    0.000    0.000    0.000 
#
# Total GULP energy -111474.747555 kJ/mol
# GULP energy per Si atom -5573.737378 kJ/mol
# Density = 2.453382 g / cm^3
# Si number density = 24.589792 Si / 1000 Ang^3
#
#
#
# Elastic Constant Matrix: (Units=GPa)
#
#
# Indices 1 2 3 4 5 6 
#
# 1 76.6326 4.8864 -1.7307 0.0000 8.9747 0.0000
# 2 4.8864 215.0427 24.8207 0.0000 7.3129 0.0000
# 3 -1.7307 24.8207 53.4360 0.0000 21.4353 0.0000
# 4 0.0000 0.0000 0.0000 19.8678 0.0000 -10.3899
# 5 8.9747 7.3129 21.4353 0.0000 34.0916 0.0000
# 6 0.0000 0.0000 0.0000 -10.3899 0.0000 49.4767
#
#
#
# Elastic Compliance Matrix: (Units=1/GPa)
#
#
# Indices 1 2 3 4 5 6 
#
# 1 0.013757 -0.000453 0.002768 0.000000 -0.005265 0.000000
# 2 -0.000453 0.004935 -0.002581 0.000000 0.000684 0.000000
# 3 0.002768 -0.002581 0.026843 0.000000 -0.017053 0.000000
# 4 0.000000 0.000000 0.000000 0.056542 0.000000 0.011874
# 5 -0.005265 0.000684 -0.017053 0.000000 0.041294 0.000000
# 6 0.000000 0.000000 0.000000 0.011874 0.000000 0.022705
#
#
# Mechanical properties :
#
#
# Convention : Reuss Voigt Hill
#
# Bulk Modulus (GPa) = 22.22078 44.56269 33.39174
# Shear Modulus (GPa) = 27.53145 41.82955 34.68050
#
# Velocity S-wave (km/s) = 3.34972 4.12891 3.75955
# Velocity P-wave (km/s) = 4.90071 6.39471 5.69690
#
# Compressibility (1/GPa) = 0.04500291
#
# Stress axis : x y z
#
# Youngs Moduli (GPa) = 72.68891 202.62510 37.25335
#
# Poissons Ratio (x) = 0.09180 -0.10312
# Poissons Ratio (y) = 0.03293 0.09616
# Poissons Ratio (z) = -0.20120 0.52303
#
# Static dielectric constant tensor:
#      x y z
#    x 1.992920 0.000000 -0.125320 
#    y 0.000000 2.013420 0.000000 
#    z -0.125320 0.000000 2.107130 
# 
# From -- ./inp_files/59008.got.cif
#   From: 2010.05.17/outbox.cif.g08.bks.cpg/sg13_30_cif.got.tgz:59008.got - 2010.06.03 16:44:36.
