data_PCOD9238818
_publ_section_title
;
Structure prediction by ZEFSAII (Michael W. Deem and Ramdas Pophale) SiO2 
 PCOD9238818
Probable space group: P 2/C
;
_chemical_formula_sum "Si O2"
_cell_formula_units_Z 12
_cell_length_a 16.371589
_cell_length_b 5.303878
_cell_length_c 8.937114
_cell_angle_alpha 90.000000
_cell_angle_beta 146.615702
_cell_angle_gamma 90.000000
_cell_volume 427.015097
_symmetry_space_group_name_H-M "P 2/C"
_symmetry_group_IT_number 13
_symmetry_cell_setting 'monoclinic'
loop_
_space_group_symop_operation_xyz
x,y,z
-x,y,1/2-z
-x,-y,-z
x,-y,1/2+z
loop_
_atom_site_type_symbol
_atom_site_label
_atom_site_fract_x
_atom_site_fract_y
_atom_site_fract_z
Si Si1 0.662157 0.515134 0.545740
Si Si2 0.091579 0.817043 0.751619
Si Si3 0.357076 0.148286 0.221319
O O1 0.500000 0.626445 0.250000
O O2 0.809584 0.632545 0.699269
O O3 0.651316 0.233096 0.465032
O O4 0.660916 0.588498 0.716750
O O5 0.000000 0.697648 0.750000
O O6 0.000000 0.000000 0.500000
O O7 0.211997 0.985687 0.022761
O O8 0.500000 0.000000 0.500000
#
# Coordination Sequence:
#
# PCOD9238818 Si02
#       3
#     4   4   4
#     4  12  28  49  84 117 157 215 278 333 406 483
#     4  12  28  50  77 118 171 213 265 333 410 492
#     4  12  29  52  82 120 162 213 278 341 403 486
#
# _framework density 28.102052
#
# number of rings (size 3 to 8) (size 9 to 14) (size 15 to 20)
#    0.000    0.000    6.667    1.000    9.333    2.667 
#    0.000    0.000    0.000    0.000    0.000    0.000 
#    0.000    0.000    0.000    0.000    0.000    0.000 
#
# Total GULP energy -67213.364696 kJ/mol
# GULP energy per Si atom -5601.113725 kJ/mol
# Density = 2.803809 g / cm^3
# Si number density = 28.102052 Si / 1000 Ang^3
#
#
#
# Elastic Constant Matrix: (Units=GPa)
#
#
# Indices 1 2 3 4 5 6 
#
# 1 178.5304 46.5736 50.8014 0.0000 17.8314 0.0000
# 2 46.5736 84.1382 40.4155 0.0000 0.2635 0.0000
# 3 50.8014 40.4155 178.5354 0.0000 5.2675 0.0000
# 4 0.0000 0.0000 0.0000 65.0395 0.0000 -4.8953
# 5 17.8314 0.2635 5.2675 0.0000 62.3791 0.0000
# 6 0.0000 0.0000 0.0000 -4.8953 0.0000 58.9021
#
#
#
# Elastic Compliance Matrix: (Units=1/GPa)
#
#
# Indices 1 2 3 4 5 6 
#
# 1 0.006986 -0.003291 -0.001187 0.000000 -0.001883 0.000000
# 2 -0.003291 0.014888 -0.002466 0.000000 0.001086 0.000000
# 3 -0.001187 -0.002466 0.006503 0.000000 -0.000199 0.000000
# 4 0.000000 0.000000 0.000000 0.015472 0.000000 0.001286
# 5 -0.001883 0.001086 -0.000199 0.000000 0.016581 0.000000
# 6 0.000000 0.000000 0.000000 0.001286 0.000000 0.017084
#
#
# Mechanical properties :
#
#
# Convention : Reuss Voigt Hill
#
# Bulk Modulus (GPa) = 69.01841 79.64279 74.33060
# Shear Modulus (GPa) = 51.95820 57.49173 54.72497
#
# Velocity S-wave (km/s) = 4.30456 4.52798 4.41768
# Velocity P-wave (km/s) = 7.02274 7.46585 7.24768
#
# Compressibility (1/GPa) = 0.01448889
#
# Stress axis : x y z
#
# Youngs Moduli (GPa) = 143.15179 67.16930 153.77392
#
# Poissons Ratio (x) = 0.22103 0.18257
# Poissons Ratio (y) = 0.47105 0.37919
# Poissons Ratio (z) = 0.16996 0.16563
#
# Static dielectric constant tensor:
#      x y z
#    x 2.152980 0.000000 0.017530 
#    y 0.000000 2.214560 0.000000 
#    z 0.017530 0.000000 2.151390 
# 
# From -- ./inp_files/10397.got.cif
#   From: 2010.05.17/outbox.cif.g08.bks.cpg/sg13_6_cif.got.tgz:10397.got - 2010.06.03 16:44:36.
