data_PCOD9238476
_publ_section_title
;
Structure prediction by ZEFSAII (Michael W. Deem and Ramdas Pophale) SiO2 
 PCOD9238476
Probable space group: P 2/C
;
_chemical_formula_sum "Si O2"
_cell_formula_units_Z 20
_cell_length_a 7.640680
_cell_length_b 12.581836
_cell_length_c 15.194691
_cell_angle_alpha 90.000000
_cell_angle_beta 37.773629
_cell_angle_gamma 90.000000
_cell_volume 894.756179
_symmetry_space_group_name_H-M "P 2/C"
_symmetry_group_IT_number 13
_symmetry_cell_setting 'monoclinic'
loop_
_space_group_symop_operation_xyz
x,y,z
-x,y,1/2-z
-x,-y,-z
x,-y,1/2+z
loop_
_atom_site_type_symbol
_atom_site_label
_atom_site_fract_x
_atom_site_fract_y
_atom_site_fract_z
Si Si1 0.141455 0.223816 0.024579
Si Si2 0.321957 0.605014 0.590632
Si Si3 0.245258 0.057117 0.236102
Si Si4 0.500000 0.904824 0.250000
Si Si5 0.276006 0.769878 0.972913
Si Si6 0.000000 0.129562 0.750000
O O1 0.270582 0.322535 0.025088
O O2 0.007824 0.141851 0.148928
O O3 0.389599 0.167087 0.871983
O O4 0.901658 0.250483 0.045816
O O5 0.500000 0.500000 0.500000
O O6 0.507032 0.675923 0.585561
O O7 0.000000 0.580361 0.750000
O O8 0.248019 0.983666 0.321816
O O9 0.526848 0.127081 0.118842
O O10 0.241103 0.962132 0.166849
O O11 0.073711 0.798143 0.136845
#
# Coordination Sequence:
#
# PCOD9238476 Si02
#       6
#     4   4   4   2   4   2
#     4  12  25  46  71 108 150 195 244 302 364 440
#     4  12  30  53  80 104 139 188 256 327 383 432
#     4  12  21  41  67 106 156 199 241 282 356 445
#     4  12  22  38  70 110 156 196 232 278 350 456
#     4  12  25  46  73 105 153 194 251 301 365 447
#     4  12  24  38  68 112 152 206 242 288 356 446
#
# _framework density 22.352457000000001
#
# number of rings (size 3 to 8) (size 9 to 14) (size 15 to 20)
#    0.000    0.000    6.000    4.800    1.400    0.800 
#    0.000    0.000    0.000    0.000    0.000    0.000 
#    0.000    0.000    0.000    0.000    0.000    0.000 
#
# Total GULP energy -111773.257849 kJ/mol
# GULP energy per Si atom -5588.662892 kJ/mol
# Density = 2.230158 g / cm^3
# Si number density = 22.352457 Si / 1000 Ang^3
#
#
#
# Elastic Constant Matrix: (Units=GPa)
#
#
# Indices 1 2 3 4 5 6 
#
# 1 126.9460 67.2488 28.5117 0.0000 -11.8068 0.0000
# 2 67.2488 132.4512 48.3663 0.0000 -11.3043 0.0000
# 3 28.5117 48.3663 116.0927 0.0000 1.6060 0.0000
# 4 0.0000 0.0000 0.0000 56.7402 0.0000 -19.6806
# 5 -11.8068 -11.3043 1.6060 0.0000 38.1680 0.0000
# 6 0.0000 0.0000 0.0000 -19.6806 0.0000 41.6707
#
#
#
# Elastic Compliance Matrix: (Units=1/GPa)
#
#
# Indices 1 2 3 4 5 6 
#
# 1 0.010921 -0.005186 -0.000547 0.000000 0.001865 0.000000
# 2 -0.005186 0.011675 -0.003618 0.000000 0.002006 0.000000
# 3 -0.000547 -0.003618 0.010279 0.000000 -0.001674 0.000000
# 4 0.000000 0.000000 0.000000 0.021077 0.000000 0.009954
# 5 0.001865 0.002006 -0.001674 0.000000 0.027442 0.000000
# 6 0.000000 0.000000 0.000000 0.009954 0.000000 0.028699
#
#
# Mechanical properties :
#
#
# Convention : Reuss Voigt Hill
#
# Bulk Modulus (GPa) = 70.56097 73.74928 72.15513
# Shear Modulus (GPa) = 37.44768 42.73998 40.09383
#
# Velocity S-wave (km/s) = 4.09752 4.37749 4.23982
# Velocity P-wave (km/s) = 7.34998 7.65607 7.50458
#
# Compressibility (1/GPa) = 0.01417214
#
# Stress axis : x y z
#
# Youngs Moduli (GPa) = 91.56745 85.65057 97.28694
#
# Poissons Ratio (x) = 0.44416 0.05326
# Poissons Ratio (y) = 0.47484 0.35202
# Poissons Ratio (z) = 0.05013 0.30991
#
# Static dielectric constant tensor:
#      x y z
#    x 2.121490 0.000000 -0.069620 
#    y 0.000000 1.763130 0.000000 
#    z -0.069620 0.000000 1.820370 
# 
# From -- ./inp_files/34052.got.cif
#   From: 2010.05.17/outbox.cif.g08.bks.cpg/sg13_18_cif.got.tgz:34052.got - 2010.06.03 16:44:36.
