data_PCOD9238486
_publ_section_title
;
Structure prediction by ZEFSAII (Michael W. Deem and Ramdas Pophale) SiO2 
 PCOD9238486
Probable space group: P 2/C
;
_chemical_formula_sum "Si O2"
_cell_formula_units_Z 14
_cell_length_a 11.564193
_cell_length_b 6.078665
_cell_length_c 15.318850
_cell_angle_alpha 90.000000
_cell_angle_beta 28.828078
_cell_angle_gamma 90.000000
_cell_volume 519.232236
_symmetry_space_group_name_H-M "P 2/C"
_symmetry_group_IT_number 13
_symmetry_cell_setting 'monoclinic'
loop_
_space_group_symop_operation_xyz
x,y,z
-x,y,1/2-z
-x,-y,-z
x,-y,1/2+z
loop_
_atom_site_type_symbol
_atom_site_label
_atom_site_fract_x
_atom_site_fract_y
_atom_site_fract_z
Si Si1 0.689031 0.279257 0.548594
Si Si2 0.258352 0.838362 0.227471
Si Si3 0.000000 0.632243 0.250000
Si Si4 0.241189 0.156411 0.389726
O O1 0.500000 0.328564 0.750000
O O2 0.517292 0.258928 0.577938
O O3 0.874425 0.465847 0.400720
O O4 0.275684 0.930946 0.768348
O O5 0.022402 0.737423 0.433205
O O6 0.190184 0.787547 0.173574
O O7 0.792998 0.049171 0.517870
O O8 0.500000 0.241520 0.250000
#
# Coordination Sequence:
#
# PCOD9238486 Si02
#       4
#     4   4   2   4
#     4   9  21  39  57  83 118 151 187 232 281 336
#     4   9  19  37  58  84 114 147 192 234 278 333
#     4  12  22  34  58  90 118 148 184 230 288 342
#     4   8  17  38  62  82 110 151 192 233 279 331
#
# _framework density 26.962886999999998
#
# number of rings (size 3 to 8) (size 9 to 14) (size 15 to 20)
#    0.000    3.429    0.000    0.857    0.000    6.857 
#    0.000   24.286    0.000    0.000    0.000    0.000 
#    0.000    0.000    0.000    0.000    0.000    0.000 
#
# Total GULP energy -77974.138903 kJ/mol
# GULP energy per Si atom -5569.581350 kJ/mol
# Density = 2.690152 g / cm^3
# Si number density = 26.962887 Si / 1000 Ang^3
#
#
#
# Elastic Constant Matrix: (Units=GPa)
#
#
# Indices 1 2 3 4 5 6 
#
# 1 157.2877 28.8014 -20.2894 0.0000 -18.3695 0.0000
# 2 28.8014 39.9917 5.3519 0.0000 4.9615 0.0000
# 3 -20.2894 5.3519 89.8963 0.0000 -4.0013 0.0000
# 4 0.0000 0.0000 0.0000 38.8305 0.0000 35.5371
# 5 -18.3695 4.9615 -4.0013 0.0000 57.0048 0.0000
# 6 0.0000 0.0000 0.0000 35.5371 0.0000 -11.1347
#
#
#
# Elastic Compliance Matrix: (Units=1/GPa)
#
#
# Indices 1 2 3 4 5 6 
#
# 1 0.008304 -0.006731 0.002428 0.000000 0.003432 0.000000
# 2 -0.006731 0.030968 -0.003591 0.000000 -0.005117 0.000000
# 3 0.002428 -0.003591 0.011972 0.000000 0.001935 0.000000
# 4 0.000000 0.000000 0.000000 0.006568 0.000000 0.020963
# 5 0.003432 -0.005117 0.001935 0.000000 0.019230 0.000000
# 6 0.000000 0.000000 0.000000 0.020963 0.000000 -0.022905
#
#
# Mechanical properties :
#
#
# Convention : Reuss Voigt Hill
#
# Bulk Modulus (GPa) = 28.20401 34.98927 31.59664
# Shear Modulus (GPa) = 61.16637 35.16090 48.16364
#
# Velocity S-wave (km/s) = 4.76809 3.61508 4.23104
# Velocity P-wave (km/s) = 6.38716 5.51634 5.96766
#
# Compressibility (1/GPa) = 0.03545596
#
# Stress axis : x y z
#
# Youngs Moduli (GPa) = 120.41756 32.29100 83.52970
#
# Poissons Ratio (x) = 0.21737 -0.20279
# Poissons Ratio (y) = 0.81059 0.29993
# Poissons Ratio (z) = -0.29235 0.11595
#
# Static dielectric constant tensor:
#      x y z
#    x 2.210430 0.000000 0.009150 
#    y 0.000000 2.187410 0.000000 
#    z 0.009150 0.000000 2.156060 
# 
# From -- ./inp_files/67671.got.cif
#   From: 2010.05.17/outbox.cif.g08.bks.cpg/sg13_34_cif.got.tgz:67671.got - 2010.06.03 16:44:36.
