data_PCOD9238362
_publ_section_title
;
Structure prediction by ZEFSAII (Michael W. Deem and Ramdas Pophale) SiO2 
 PCOD9238362
Probable space group: P 2/C
;
_chemical_formula_sum "Si O2"
_cell_formula_units_Z 24
_cell_length_a 21.376958
_cell_length_b 5.131024
_cell_length_c 14.557220
_cell_angle_alpha 90.000000
_cell_angle_beta 141.903331
_cell_angle_gamma 90.000000
_cell_volume 985.159632
_symmetry_space_group_name_H-M "P 2/C"
_symmetry_group_IT_number 13
_symmetry_cell_setting 'monoclinic'
loop_
_space_group_symop_operation_xyz
x,y,z
-x,y,1/2-z
-x,-y,-z
x,-y,1/2+z
loop_
_atom_site_type_symbol
_atom_site_label
_atom_site_fract_x
_atom_site_fract_y
_atom_site_fract_z
Si Si1 0.500000 0.420431 0.250000
Si Si2 0.199912 0.021280 0.753476
Si Si3 0.000000 0.295726 0.750000
Si Si4 0.085536 0.528158 0.675736
Si Si5 0.331326 0.543397 0.187945
Si Si6 0.420483 0.170597 0.966717
Si Si7 0.195419 0.032396 0.040132
O O1 0.407597 0.575062 0.190251
O O2 0.536382 0.269526 0.385231
O O3 0.147177 0.793837 0.747930
O O4 0.159114 0.984354 0.603249
O O5 0.167477 0.300262 0.753789
O O6 0.320486 0.010351 0.879980
O O7 0.979474 0.481445 0.810286
O O8 0.901003 0.121270 0.626638
O O9 0.000000 0.500000 0.500000
O O10 0.382515 0.614013 0.346640
O O11 0.282189 0.256212 0.132152
O O12 0.243645 0.755512 0.073799
O O13 0.500000 0.000000 0.000000
#
# Coordination Sequence:
#
# PCOD9238362 Si02
#       7
#     2   4   2   4   4   4   4
#     4  12  26  50  82 120 152 216 268 324 408 478
#     4  11  25  51  78 106 156 202 251 312 396 455
#     4  12  30  48  80 116 154 202 264 322 378 464
#     4  12  27  50  76 112 152 201 254 316 382 462
#     4  11  27  51  77 113 161 200 258 322 393 465
#     4  11  27  53  83 116 163 206 262 335 395 472
#     4  11  26  51  76 113 155 203 254 323 380 463
#
# _framework density 24.361536000000001
#
# number of rings (size 3 to 8) (size 9 to 14) (size 15 to 20)
#    0.000    0.667    1.667    5.000    2.333    6.667 
#    6.000    0.000    0.000    0.000    0.000    0.000 
#    0.000    0.000    0.000    0.000    0.000    0.000 
#
# Total GULP energy -134491.445232 kJ/mol
# GULP energy per Si atom -5603.810218 kJ/mol
# Density = 2.430609 g / cm^3
# Si number density = 24.361536 Si / 1000 Ang^3
#
#
#
# Elastic Constant Matrix: (Units=GPa)
#
#
# Indices 1 2 3 4 5 6 
#
# 1 179.9068 29.6941 53.0165 0.0000 -21.7829 0.0000
# 2 29.6941 63.1934 1.7634 0.0000 7.0614 0.0000
# 3 53.0165 1.7634 114.1737 0.0000 -8.0477 0.0000
# 4 0.0000 0.0000 0.0000 19.0549 0.0000 1.7836
# 5 -21.7829 7.0614 -8.0477 0.0000 45.7327 0.0000
# 6 0.0000 0.0000 0.0000 1.7836 0.0000 47.9396
#
#
#
# Elastic Compliance Matrix: (Units=1/GPa)
#
#
# Indices 1 2 3 4 5 6 
#
# 1 0.007586 -0.003883 -0.003205 0.000000 0.003649 0.000000
# 2 -0.003883 0.018110 0.001211 0.000000 -0.004433 0.000000
# 3 -0.003205 0.001211 0.010234 0.000000 0.000087 0.000000
# 4 0.000000 0.000000 0.000000 0.052663 0.000000 -0.001959
# 5 0.003649 -0.004433 0.000087 0.000000 0.024304 0.000000
# 6 0.000000 0.000000 0.000000 -0.001959 0.000000 0.020932
#
#
# Mechanical properties :
#
#
# Convention : Reuss Voigt Hill
#
# Bulk Modulus (GPa) = 41.36317 58.46911 49.91614
# Shear Modulus (GPa) = 32.54301 40.73211 36.63756
#
# Velocity S-wave (km/s) = 3.65887 4.09343 3.88224
# Velocity P-wave (km/s) = 5.90471 6.81133 6.37416
#
# Compressibility (1/GPa) = 0.02417610
#
# Stress axis : x y z
#
# Youngs Moduli (GPa) = 131.82911 55.21696 97.70988
#
# Poissons Ratio (x) = 0.21439 0.31318
# Poissons Ratio (y) = 0.51185 -0.11830
# Poissons Ratio (z) = 0.42254 -0.06685
#
# Static dielectric constant tensor:
#      x y z
#    x 1.881390 0.000000 -0.014720 
#    y 0.000000 1.907420 0.000000 
#    z -0.014720 0.000000 1.989700 
# 
# From -- ./inp_files/56662.got.cif
#   From: 2010.05.17/outbox.cif.g08.bks.cpg/sg13_29_cif.got.tgz:56662.got - 2010.06.03 16:44:36.
