data_PCOD9238528
_publ_section_title
;
Structure prediction by ZEFSAII (Michael W. Deem and Ramdas Pophale) SiO2 
 PCOD9238528
Probable space group: P 2/C
;
_chemical_formula_sum "Si O2"
_cell_formula_units_Z 28
_cell_length_a 10.191821
_cell_length_b 6.862685
_cell_length_c 20.320905
_cell_angle_alpha 90.000000
_cell_angle_beta 73.109789
_cell_angle_gamma 90.000000
_cell_volume 1359.999558
_symmetry_space_group_name_H-M "P 2/C"
_symmetry_group_IT_number 13
_symmetry_cell_setting 'monoclinic'
loop_
_space_group_symop_operation_xyz
x,y,z
-x,y,1/2-z
-x,-y,-z
x,-y,1/2+z
loop_
_atom_site_type_symbol
_atom_site_label
_atom_site_fract_x
_atom_site_fract_y
_atom_site_fract_z
Si Si1 0.500000 0.908979 0.250000
Si Si2 0.949045 0.950710 0.080006
Si Si3 0.693559 0.325756 0.636276
Si Si4 0.845415 0.677460 0.676411
Si Si5 0.449045 0.549291 0.080006
Si Si6 0.806442 0.174242 0.863724
Si Si7 0.654585 0.822539 0.823588
Si Si8 0.000000 0.591022 0.250000
O O1 0.374400 0.771982 0.289213
O O2 0.461297 0.045680 0.194412
O O3 0.817115 0.811488 0.095902
O O4 0.071741 0.847531 0.101873
O O5 0.906166 0.143247 0.127008
O O6 0.000000 0.000000 0.000000
O O7 0.754975 0.536110 0.644344
O O8 0.571741 0.347529 0.601873
O O9 0.749999 0.750000 0.750000
O O10 0.961296 0.545679 0.694413
O O11 0.317115 0.688513 0.095902
O O12 0.406165 0.356754 0.127008
O O13 0.500000 0.500000 0.000000
O O14 0.874401 0.271982 0.789214
O O15 0.745026 0.963889 0.855655
#
# Coordination Sequence:
#
# PCOD9238528 Si02
#       8
#     2   4   4   4   4   4   4   2
#     4  12  22  46  74 112 142 188 244 306 362 426
#     4  12  30  47  74 107 148 197 241 298 369 439
#     4  12  26  48  73 108 146 188 244 304 358 437
#     4  12  24  45  74 105 144 187 243 297 364 425
#     4  12  30  47  74 107 148 197 241 298 369 439
#     4  12  26  48  73 108 146 188 244 304 358 437
#     4  12  24  45  74 105 144 187 243 297 364 425
#     4  12  22  46  74 112 142 188 244 306 362 426
#
# _framework density 20.588241
#
# number of rings (size 3 to 8) (size 9 to 14) (size 15 to 20)
#    0.000    0.000    5.714    4.286    4.000    1.143 
#    0.000    0.000    0.000    0.000    0.000    0.000 
#    0.000    0.000    0.000    0.000    0.000    0.000 
#
# Total GULP energy -156842.394483 kJ/mol
# GULP energy per Si atom -5601.514089 kJ/mol
# Density = 2.054138 g / cm^3
# Si number density = 20.588241 Si / 1000 Ang^3
#
#
#
# Elastic Constant Matrix: (Units=GPa)
#
#
# Indices 1 2 3 4 5 6 
#
# 1 142.5396 90.0655 65.2353 0.0000 -17.5951 0.0000
# 2 90.0655 128.3152 69.5528 0.0000 -1.9820 0.0000
# 3 65.2353 69.5528 146.0691 0.0000 -15.2922 0.0000
# 4 0.0000 0.0000 0.0000 15.8094 0.0000 3.6654
# 5 -17.5951 -1.9820 -15.2922 0.0000 23.3283 0.0000
# 6 0.0000 0.0000 0.0000 3.6654 0.0000 34.7875
#
#
#
# Elastic Compliance Matrix: (Units=1/GPa)
#
#
# Indices 1 2 3 4 5 6 
#
# 1 0.014788 -0.009705 -0.000968 0.000000 0.009694 0.000000
# 2 -0.009705 0.017018 -0.004707 0.000000 -0.008960 0.000000
# 3 -0.000968 -0.004707 0.010094 0.000000 0.005487 0.000000
# 4 0.000000 0.000000 0.000000 0.064838 0.000000 -0.006832
# 5 0.009694 -0.008960 0.005487 0.000000 0.053014 0.000000
# 6 0.000000 0.000000 0.000000 -0.006832 0.000000 0.029466
#
#
# Mechanical properties :
#
#
# Convention : Reuss Voigt Hill
#
# Bulk Modulus (GPa) = 89.77047 96.29235 93.03141
# Shear Modulus (GPa) = 22.35224 27.58973 24.97098
#
# Velocity S-wave (km/s) = 3.29854 3.66467 3.48642
# Velocity P-wave (km/s) = 7.62919 8.04851 7.84166
#
# Compressibility (1/GPa) = 0.01113952
#
# Stress axis : x y z
#
# Youngs Moduli (GPa) = 67.62450 58.75965 99.06561
#
# Poissons Ratio (x) = 0.57026 0.09591
# Poissons Ratio (y) = 0.65629 0.46633
# Poissons Ratio (z) = 0.06547 0.27660
#
# Static dielectric constant tensor:
#      x y z
#    x 1.770170 0.000000 0.001530 
#    y 0.000000 1.740600 0.000000 
#    z 0.001530 0.000000 1.724830 
# 
# From -- ./inp_files/77220.got.cif
#   From: 2010.05.17/outbox.cif.g08.bks.cpg/sg13_39_cif.got.tgz:77220.got - 2010.06.03 16:44:36.
