data_PCOD9238898
_publ_section_title
;
Structure prediction by ZEFSAII (Michael W. Deem and Ramdas Pophale) SiO2 
 PCOD9238898
Probable space group: P 2/C
;
_chemical_formula_sum "Si O2"
_cell_formula_units_Z 28
_cell_length_a 27.000000
_cell_length_b 9.000000
_cell_length_c 9.000000
_cell_angle_alpha 90.000000
_cell_angle_beta 140.000000
_cell_angle_gamma 90.000000
_cell_volume 1405.776502
_symmetry_space_group_name_H-M "P 2/C"
_symmetry_group_IT_number 13
_symmetry_cell_setting 'monoclinic'
loop_
_space_group_symop_operation_xyz
x,y,z
-x,y,1/2-z
-x,-y,-z
x,-y,1/2+z
loop_
_atom_site_type_symbol
_atom_site_label
_atom_site_fract_x
_atom_site_fract_y
_atom_site_fract_z
Si Si1 0.667833 0.868572 0.025737
Si Si2 0.785900 0.624926 0.810983
Si Si3 0.915441 0.175620 0.484520
Si Si4 0.200671 0.315838 0.804725
Si Si5 0.654342 0.188137 0.849413
Si Si6 0.507682 0.838639 0.591707
Si Si7 0.915961 0.124200 0.127425
O O1 0.741160 0.813890 0.105723
O O2 0.674441 0.845627 0.220173
O O3 0.594690 0.781920 0.784388
O O4 0.654845 0.038922 0.949953
O O5 0.861215 0.687191 0.899481
O O6 0.776314 0.455197 0.743099
O O7 0.714196 0.707785 0.569924
O O8 0.796040 0.650364 0.011683
O O9 0.916717 0.144805 0.308551
O O10 0.880266 0.034193 0.494142
O O11 0.000000 0.201728 0.750000
O O12 0.121529 0.256870 0.552341
O O13 0.566366 0.248427 0.638433
O O14 0.500000 0.862047 0.750000
O O15 0.500000 0.000000 0.500000
O O16 0.000000 0.110975 0.250000
#
# Coordination Sequence:
#
# PCOD9238898 Si02
#       7
#     4   4   4   4   4   4   4
#     4  10  19  35  58  86 115 149 189 235 283 335
#     4  12  25  41  58  82 114 152 192 235 283 338
#     4  11  22  40  64  91 118 149 187 232 279 331
#     4  12  25  41  58  82 114 152 192 235 283 338
#     4  10  19  35  58  86 115 149 189 235 283 335
#     4   8  16  30  53  82 113 144 184 232 282 332
#     4  11  22  40  64  91 118 149 187 232 279 331
#
# _framework density 19.917818
#
# number of rings (size 3 to 8) (size 9 to 14) (size 15 to 20)
#    0.000    1.429    0.000    7.714    0.000    1.714 
#    0.000    3.571    0.000    0.000    0.000    0.000 
#    0.000    0.000    0.000    0.000    0.000    0.000 
#
# Total GULP energy -156043.094350 kJ/mol
# GULP energy per Si atom -5572.967655 kJ/mol
# Density = 1.987248 g / cm^3
# Si number density = 19.917818 Si / 1000 Ang^3
#
#
#
# Elastic Constant Matrix: (Units=GPa)
#
#
# Indices 1 2 3 4 5 6 
#
# 1 36.3909 -28.4259 16.4764 0.0000 -12.5602 0.0000
# 2 -28.4259 23.0710 22.4331 0.0000 9.8253 0.0000
# 3 16.4764 22.4331 129.7583 0.0000 -13.3424 0.0000
# 4 0.0000 0.0000 0.0000 -1.3429 0.0000 -23.1756
# 5 -12.5602 9.8253 -13.3424 0.0000 43.3184 0.0000
# 6 0.0000 0.0000 0.0000 -23.1756 0.0000 3.4845
#
#
#
# Elastic Compliance Matrix: (Units=1/GPa)
#
#
# Indices 1 2 3 4 5 6 
#
# 1 -0.052701 -0.094528 0.024442 0.000000 0.013688 0.000000
# 2 -0.094528 -0.105792 0.030921 0.000000 0.006111 0.000000
# 3 0.024442 0.030921 -0.000759 0.000000 -0.000160 0.000000
# 4 0.000000 0.000000 0.000000 -0.006432 0.000000 -0.042776
# 5 0.013688 0.006111 -0.000160 0.000000 0.025618 0.000000
# 6 0.000000 0.000000 0.000000 -0.042776 0.000000 0.002479
#
#
# Mechanical properties :
#
#
# Convention : Reuss Voigt Hill
#
# Bulk Modulus (GPa) = -4.20907 23.35417 9.57255
# Shear Modulus (GPa) = -36.11399 21.00778 -7.55311
#
# Velocity S-wave (km/s) = -4.26273 3.25117 -1.94945
# Velocity P-wave (km/s) = 5.13280 5.08372 0.50070
#
# Compressibility (1/GPa) = -0.23758230
#
# Stress axis : x y z
#
# Youngs Moduli (GPa) = -18.97509 -9.45249 -1317.24413
#
# Poissons Ratio (x) = -0.89352 32.19562
# Poissons Ratio (y) = -1.79367 40.73062
# Poissons Ratio (z) = 0.46378 0.29228
#
# Static dielectric constant tensor:
#      x y z
#    x 1.742000 0.000000 0.114570 
#    y 0.000000 1.748220 0.000000 
#    z 0.114570 0.000000 1.809150 
# 
# From -- ./inp_files/24591.got.cif
#   From: 2010.05.17/outbox.ucp.g08.bks.cvg/sg13_13_cif.got.tgz:24591.got - 2010.06.11 12:23:55.
