data_PCOD9238436
_publ_section_title
;
Structure prediction by ZEFSAII (Michael W. Deem and Ramdas Pophale) SiO2 
 PCOD9238436
Probable space group: P 2/C
;
_chemical_formula_sum "Si O2"
_cell_formula_units_Z 16
_cell_length_a 4.838546
_cell_length_b 9.584568
_cell_length_c 14.562687
_cell_angle_alpha 90.000000
_cell_angle_beta 71.082332
_cell_angle_gamma 90.000000
_cell_volume 638.871301
_symmetry_space_group_name_H-M "P 2/C"
_symmetry_group_IT_number 13
_symmetry_cell_setting 'monoclinic'
loop_
_space_group_symop_operation_xyz
x,y,z
-x,y,1/2-z
-x,-y,-z
x,-y,1/2+z
loop_
_atom_site_type_symbol
_atom_site_label
_atom_site_fract_x
_atom_site_fract_y
_atom_site_fract_z
Si Si1 0.438629 0.531564 0.148665
Si Si2 0.000000 0.250793 0.750000
Si Si3 0.745488 0.110372 0.054828
Si Si4 0.727927 0.296150 0.469181
Si Si5 0.500000 0.952607 0.250000
O O1 0.500000 0.518475 0.250000
O O2 0.342860 0.389261 0.111823
O O3 0.180523 0.644866 0.167293
O O4 0.690627 0.603399 0.060979
O O5 0.223799 0.149496 0.776122
O O6 0.517791 0.172609 0.005044
O O7 0.948521 0.235874 0.069154
O O8 0.543909 0.046530 0.156104
O O9 0.000000 0.000000 0.000000
#
# Coordination Sequence:
#
# PCOD9238436 Si02
#       5
#     4   2   4   4   2
#     4  11  27  47  78 107 149 195 244 311 370 439
#     4  12  24  44  74 108 142 196 252 290 372 448
#     4  12  26  49  74 107 155 193 246 310 359 448
#     4  11  28  47  75 111 147 190 251 304 372 435
#     4  12  26  44  76 106 148 204 246 300 378 436
#
# _framework density 25.044165
#
# number of rings (size 3 to 8) (size 9 to 14) (size 15 to 20)
#    0.000    0.500    1.250    5.250    8.750    2.000 
#    0.000    0.000    0.000    0.000    0.000    0.000 
#    0.000    0.000    0.000    0.000    0.000    0.000 
#
# Total GULP energy -89708.062446 kJ/mol
# GULP energy per Si atom -5606.753903 kJ/mol
# Density = 2.498716 g / cm^3
# Si number density = 25.044165 Si / 1000 Ang^3
#
#
#
# Elastic Constant Matrix: (Units=GPa)
#
#
# Indices 1 2 3 4 5 6 
#
# 1 121.7084 29.0398 20.4963 0.0000 17.7812 0.0000
# 2 29.0398 82.7874 35.6807 0.0000 2.6576 0.0000
# 3 20.4963 35.6807 126.7148 0.0000 12.9411 0.0000
# 4 0.0000 0.0000 0.0000 214.4605 0.0000 -179.7413
# 5 17.7812 2.6576 12.9411 0.0000 34.9994 0.0000
# 6 0.0000 0.0000 0.0000 -179.7413 0.0000 229.8171
#
#
#
# Elastic Compliance Matrix: (Units=1/GPa)
#
#
# Indices 1 2 3 4 5 6 
#
# 1 0.009677 -0.003158 -0.000206 0.000000 -0.004600 0.000000
# 2 -0.003158 0.014783 -0.003846 0.000000 0.001904 0.000000
# 3 -0.000206 -0.003846 0.009320 0.000000 -0.003049 0.000000
# 4 0.000000 0.000000 0.000000 0.013535 0.000000 0.010586
# 5 -0.004600 0.001904 -0.003049 0.000000 0.031892 0.000000
# 6 0.000000 0.000000 0.000000 0.010586 0.000000 0.012630
#
#
# Mechanical properties :
#
#
# Convention : Reuss Voigt Hill
#
# Bulk Modulus (GPa) = 51.65616 55.73825 53.69720
# Shear Modulus (GPa) = 44.36149 112.25500 78.30824
#
# Velocity S-wave (km/s) = 4.21328 6.70225 5.59785
# Velocity P-wave (km/s) = 6.65881 9.06630 7.95417
#
# Compressibility (1/GPa) = 0.01935878
#
# Stress axis : x y z
#
# Youngs Moduli (GPa) = 103.34215 67.64319 107.30094
#
# Poissons Ratio (x) = 0.21360 0.02213
# Poissons Ratio (y) = 0.32633 0.41273
# Poissons Ratio (z) = 0.02131 0.26019
#
# Static dielectric constant tensor:
#      x y z
#    x 1.968130 0.000000 -0.006550 
#    y 0.000000 2.003890 0.000000 
#    z -0.006550 0.000000 1.908650 
# 
# From -- ./inp_files/43237.got.cif
#   From: 2010.05.17/outbox.cif.g08.bks.cpg/sg13_22_cif.got.tgz:43237.got - 2010.06.03 16:44:36.
