data_PCOD9238647
_publ_section_title
;
Structure prediction by ZEFSAII (Michael W. Deem and Ramdas Pophale) SiO2 
 PCOD9238647
Probable space group: P 2/C
;
_chemical_formula_sum "Si O2"
_cell_formula_units_Z 26
_cell_length_a 15.543464
_cell_length_b 5.215756
_cell_length_c 22.868039
_cell_angle_alpha 90.000000
_cell_angle_beta 153.017112
_cell_angle_gamma 90.000000
_cell_volume 841.174521
_symmetry_space_group_name_H-M "P 2/C"
_symmetry_group_IT_number 13
_symmetry_cell_setting 'monoclinic'
loop_
_space_group_symop_operation_xyz
x,y,z
-x,y,1/2-z
-x,-y,-z
x,-y,1/2+z
loop_
_atom_site_type_symbol
_atom_site_label
_atom_site_fract_x
_atom_site_fract_y
_atom_site_fract_z
Si Si1 0.936693 0.043664 0.272533
Si Si2 0.537148 0.166586 0.360517
Si Si3 0.485536 0.725966 0.963486
Si Si4 0.500000 0.631043 0.250000
Si Si5 0.174038 0.449821 0.744213
Si Si6 0.824955 0.801300 0.487654
Si Si7 0.837852 0.108297 0.879158
O O1 0.872276 0.751758 0.231004
O O2 0.000000 0.156436 0.250000
O O3 0.772482 0.241423 0.198539
O O4 0.122088 0.019080 0.423718
O O5 0.569937 0.220081 0.448810
O O6 0.576654 0.416731 0.346000
O O7 0.595353 0.900566 0.358904
O O8 0.308831 0.125707 0.218742
O O9 0.421380 0.422364 0.916328
O O10 0.500000 0.000000 0.000000
O O11 0.963327 0.572748 0.594841
O O12 0.202315 0.287484 0.701574
O O13 0.730105 0.692814 0.364670
O O14 0.951645 0.977292 0.515276
#
# Coordination Sequence:
#
# PCOD9238647 Si02
#       7
#     4   4   4   2   4   4   4
#     4  12  30  52  81 118 168 224 281 343 418 516
#     4  12  27  50  75 119 164 210 284 342 424 517
#     4  12  29  50  82 113 160 220 272 337 412 494
#     4  12  24  46  82 114 158 208 284 346 428 496
#     4  12  28  53  79 122 163 214 288 351 420 503
#     4  12  27  47  78 116 160 218 271 345 423 504
#     4  12  24  50  79 117 164 212 275 354 439 500
#
# _framework density 30.909161999999998
#
# number of rings (size 3 to 8) (size 9 to 14) (size 15 to 20)
#    0.000    0.000    4.615    4.154   10.769    0.615 
#    0.000    0.000    0.000    0.000    0.000    0.000 
#    0.000    0.000    0.000    0.000    0.000    0.000 
#
# Total GULP energy -145064.240375 kJ/mol
# GULP energy per Si atom -5579.393861 kJ/mol
# Density = 3.083881 g / cm^3
# Si number density = 30.909162 Si / 1000 Ang^3
#
#
#
# Elastic Constant Matrix: (Units=GPa)
#
#
# Indices 1 2 3 4 5 6 
#
# 1 224.9154 87.2222 119.1738 0.0000 -50.7546 0.0000
# 2 87.2222 275.9426 116.9121 0.0000 -11.1897 0.0000
# 3 119.1738 116.9121 254.3081 0.0000 -10.5781 0.0000
# 4 0.0000 0.0000 0.0000 61.0135 0.0000 -23.1449
# 5 -50.7546 -11.1897 -10.5781 0.0000 68.0271 0.0000
# 6 0.0000 0.0000 0.0000 -23.1449 0.0000 23.5600
#
#
#
# Elastic Compliance Matrix: (Units=1/GPa)
#
#
# Indices 1 2 3 4 5 6 
#
# 1 0.007437 -0.000945 -0.002845 0.000000 0.004951 0.000000
# 2 -0.000945 0.004633 -0.001696 0.000000 -0.000206 0.000000
# 3 -0.002845 -0.001696 0.005984 0.000000 -0.001471 0.000000
# 4 0.000000 0.000000 0.000000 0.026126 0.000000 0.025666
# 5 0.004951 -0.000206 -0.001471 0.000000 0.018131 0.000000
# 6 0.000000 0.000000 0.000000 0.025666 0.000000 0.067658
#
#
# Mechanical properties :
#
#
# Convention : Reuss Voigt Hill
#
# Bulk Modulus (GPa) = 141.18306 155.75360 148.46833
# Shear Modulus (GPa) = 34.89171 59.31064 47.10117
#
# Velocity S-wave (km/s) = 3.36348 4.38524 3.90790
# Velocity P-wave (km/s) = 7.80127 8.72586 8.27649
#
# Compressibility (1/GPa) = 0.00708300
#
# Stress axis : x y z
#
# Youngs Moduli (GPa) = 134.46018 215.86297 167.11856
#
# Poissons Ratio (x) = 0.20392 0.47545
# Poissons Ratio (y) = 0.12702 0.28337
# Poissons Ratio (z) = 0.38253 0.36602
#
# Static dielectric constant tensor:
#      x y z
#    x 2.346910 0.000000 -0.005830 
#    y 0.000000 2.509070 0.000000 
#    z -0.005830 0.000000 2.569070 
# 
# From -- ./inp_files/80699.got.cif
#   From: 2010.05.17/outbox.cif.g08.bks.cpg/sg13_41_cif.got.tgz:80699.got - 2010.06.03 16:44:36.
