data_PCOD9238754
_publ_section_title
;
Structure prediction by ZEFSAII (Michael W. Deem and Ramdas Pophale) SiO2 
 PCOD9238754
Probable space group: P 2/C
;
_chemical_formula_sum "Si O2"
_cell_formula_units_Z 16
_cell_length_a 23.393823
_cell_length_b 5.479424
_cell_length_c 14.768671
_cell_angle_alpha 90.000000
_cell_angle_beta 19.902246
_cell_angle_gamma 90.000000
_cell_volume 644.448192
_symmetry_space_group_name_H-M "P 2/C"
_symmetry_group_IT_number 13
_symmetry_cell_setting 'monoclinic'
loop_
_space_group_symop_operation_xyz
x,y,z
-x,y,1/2-z
-x,-y,-z
x,-y,1/2+z
loop_
_atom_site_type_symbol
_atom_site_label
_atom_site_fract_x
_atom_site_fract_y
_atom_site_fract_z
Si Si1 0.000000 0.500000 0.500000
Si Si2 0.000000 0.699637 0.750000
Si Si3 0.148046 0.077377 0.668705
Si Si4 0.326252 0.645710 0.750377
Si Si5 0.318029 0.254893 0.062267
O O1 0.027450 0.706592 0.379575
O O2 0.203005 0.489462 0.213940
O O3 0.166970 0.539050 0.487756
O O4 0.039607 0.868532 0.778378
O O5 0.285871 0.175216 0.393487
O O6 0.229921 0.952275 0.633370
O O7 0.500000 0.500000 0.500000
O O8 0.331682 0.790584 0.648211
O O9 0.500000 0.296454 0.750000
#
# Coordination Sequence:
#
# PCOD9238754 Si02
#       5
#     2   2   4   4   4
#     4  12  26  48  74 108 150 192 246 308 370 442
#     4  12  26  50  78 108 152 202 250 306 378 450
#     4  12  27  48  77 111 150 200 252 310 378 446
#     4  12  28  51  76 110 156 199 250 314 376 448
#     4  12  27  47  76 112 151 200 252 308 378 450
#
# _framework density 24.827439999999999
#
# number of rings (size 3 to 8) (size 9 to 14) (size 15 to 20)
#    0.000    0.000    0.000   10.500    0.000   13.000 
#    0.000    0.000    0.000    0.000    0.000    0.000 
#    0.000    0.000    0.000    0.000    0.000    0.000 
#
# Total GULP energy -89332.709860 kJ/mol
# GULP energy per Si atom -5583.294366 kJ/mol
# Density = 2.477093 g / cm^3
# Si number density = 24.827440 Si / 1000 Ang^3
#
#
#
# Elastic Constant Matrix: (Units=GPa)
#
#
# Indices 1 2 3 4 5 6 
#
# 1 180.8394 72.8542 77.0122 0.0000 28.1270 0.0000
# 2 72.8542 55.4167 27.2963 0.0000 13.6952 0.0000
# 3 77.0122 27.2963 170.5933 0.0000 7.0710 0.0000
# 4 0.0000 0.0000 0.0000 95.6973 0.0000 -50.6152
# 5 28.1270 13.6952 7.0710 0.0000 53.1949 0.0000
# 6 0.0000 0.0000 0.0000 -50.6152 0.0000 112.0840
#
#
#
# Elastic Compliance Matrix: (Units=1/GPa)
#
#
# Indices 1 2 3 4 5 6 
#
# 1 0.013836 -0.015720 -0.003615 0.000000 -0.002788 0.000000
# 2 -0.015720 0.038665 0.000983 0.000000 -0.001773 0.000000
# 3 -0.003615 0.000983 0.007308 0.000000 0.000687 0.000000
# 4 0.000000 0.000000 0.000000 0.013729 0.000000 0.006200
# 5 -0.002788 -0.001773 0.000687 0.000000 0.020638 0.000000
# 6 0.000000 0.000000 0.000000 0.006200 0.000000 0.011722
#
#
# Mechanical properties :
#
#
# Convention : Reuss Voigt Hill
#
# Bulk Modulus (GPa) = 43.27911 84.57499 63.92705
# Shear Modulus (GPa) = 33.26595 67.50767 50.38681
#
# Velocity S-wave (km/s) = 3.66442 5.22013 4.50986
# Velocity P-wave (km/s) = 5.94758 8.39477 7.27481
#
# Compressibility (1/GPa) = 0.02310584
#
# Stress axis : x y z
#
# Youngs Moduli (GPa) = 72.27484 25.86289 136.83377
#
# Poissons Ratio (x) = 0.40656 0.49469
# Poissons Ratio (y) = 1.13616 -0.13455
# Poissons Ratio (z) = 0.26129 -0.02543
#
# Static dielectric constant tensor:
#      x y z
#    x 2.005680 0.000000 0.012980 
#    y 0.000000 2.141340 0.000000 
#    z 0.012980 0.000000 1.970090 
# 
# From -- ./inp_files/58130.got.cif
#   From: 2010.05.17/outbox.cif.g08.bks.cpg/sg13_30_cif.got.tgz:58130.got - 2010.06.03 16:44:36.
