data_PCOD9238839
_publ_section_title
;
Structure prediction by ZEFSAII (Michael W. Deem and Ramdas Pophale) SiO2 
 PCOD9238839
Probable space group: P 2/C
;
_chemical_formula_sum "Si O2"
_cell_formula_units_Z 28
_cell_length_a 7.218890
_cell_length_b 20.156089
_cell_length_c 10.535005
_cell_angle_alpha 90.000000
_cell_angle_beta 45.333697
_cell_angle_gamma 90.000000
_cell_volume 1090.212468
_symmetry_space_group_name_H-M "P 2/C"
_symmetry_group_IT_number 13
_symmetry_cell_setting 'monoclinic'
loop_
_space_group_symop_operation_xyz
x,y,z
-x,y,1/2-z
-x,-y,-z
x,-y,1/2+z
loop_
_atom_site_type_symbol
_atom_site_label
_atom_site_fract_x
_atom_site_fract_y
_atom_site_fract_z
Si Si1 0.810236 0.142310 0.965799
Si Si2 0.176436 0.998849 0.041802
Si Si3 0.181942 0.426726 0.540362
Si Si4 0.809139 0.714988 0.465438
Si Si5 0.256688 0.855305 0.459552
Si Si6 0.749594 0.285774 0.534151
Si Si7 0.255448 0.572736 0.460593
O O1 0.668957 0.213566 0.033006
O O2 0.000000 0.142989 0.750000
O O3 0.998548 0.142169 0.997570
O O4 0.667937 0.070971 0.037922
O O5 0.000000 0.992914 0.250000
O O6 0.299145 0.071634 0.995381
O O7 0.000000 0.000000 0.000000
O O8 0.332855 0.356398 0.464274
O O9 0.293462 0.500493 0.502429
O O10 0.000000 0.419690 0.750000
O O11 0.006857 0.429144 0.497452
O O12 0.000000 0.716175 0.250000
O O13 0.001864 0.714411 0.492809
O O14 0.500000 0.848177 0.250000
O O15 0.250154 0.785162 0.536240
O O16 0.500000 0.286260 0.750000
O O17 0.748672 0.356845 0.464857
O O18 0.500000 0.578075 0.250000
#
# Coordination Sequence:
#
# PCOD9238839 Si02
#       7
#     4   4   4   4   4   4   4
#     4   8  14  26  43  62  83 111 143 175 216 266
#     4   9  17  30  46  66  92 121 151 182 224 277
#     4   9  17  28  43  65  86 108 145 185 220 261
#     4   8  13  23  41  61  79 104 141 181 211 248
#     4   9  16  27  45  67  87 110 146 188 222 258
#     4   8  14  25  41  61  84 110 141 177 216 258
#     4   9  17  29  44  62  87 116 144 179 221 265
#
# _framework density 25.683066
#
# number of rings (size 3 to 8) (size 9 to 14) (size 15 to 20)
#    0.000    3.429    0.000    0.000    0.000    0.571 
#    0.000    7.143    0.000    0.857    0.000    0.000 
#    0.000    0.000    0.000    0.000    0.000    0.000 
#
# Total GULP energy -155937.540093 kJ/mol
# GULP energy per Si atom -5569.197860 kJ/mol
# Density = 2.562461 g / cm^3
# Si number density = 25.683066 Si / 1000 Ang^3
#
#
#
# Elastic Constant Matrix: (Units=GPa)
#
#
# Indices 1 2 3 4 5 6 
#
# 1 139.2361 23.1056 -10.5234 0.0000 18.3947 0.0000
# 2 23.1056 427.2115 18.1170 0.0000 0.1494 0.0000
# 3 -10.5234 18.1170 54.8671 0.0000 3.9358 0.0000
# 4 0.0000 0.0000 0.0000 28.2485 0.0000 11.1118
# 5 18.3947 0.1494 3.9358 0.0000 9.1387 0.0000
# 6 0.0000 0.0000 0.0000 11.1118 0.0000 21.4855
#
#
#
# Elastic Compliance Matrix: (Units=1/GPa)
#
#
# Indices 1 2 3 4 5 6 
#
# 1 0.010660 -0.000736 0.003948 0.000000 -0.023146 0.000000
# 2 -0.000736 0.002426 -0.001079 0.000000 0.001906 0.000000
# 3 0.003948 -0.001079 0.020543 0.000000 -0.016776 0.000000
# 4 0.000000 0.000000 0.000000 0.044441 0.000000 -0.022984
# 5 -0.023146 0.001906 -0.016776 0.000000 0.163206 0.000000
# 6 0.000000 0.000000 0.000000 -0.022984 0.000000 0.058430
#
#
# Mechanical properties :
#
#
# Convention : Reuss Voigt Hill
#
# Bulk Modulus (GPa) = 26.38862 75.85700 51.12281
# Shear Modulus (GPa) = 16.23004 51.14893 33.68949
#
# Velocity S-wave (km/s) = 2.51656 4.46751 3.62572
# Velocity P-wave (km/s) = 4.32910 7.49743 6.12179
#
# Compressibility (1/GPa) = 0.03789512
#
# Stress axis : x y z
#
# Youngs Moduli (GPa) = 93.80562 412.26151 48.67913
#
# Poissons Ratio (x) = 0.30338 -0.19218
# Poissons Ratio (y) = 0.06903 0.05252
# Poissons Ratio (z) = -0.37034 0.44476
#
# Static dielectric constant tensor:
#      x y z
#    x 1.932490 0.000000 -0.003290 
#    y 0.000000 2.217820 0.000000 
#    z -0.003290 0.000000 1.981590 
# 
# From -- ./inp_files/30753.got.cif
#   From: 2010.05.17/outbox.cif.g08.bks.cpg/sg13_16_cif.got.tgz:30753.got - 2010.06.03 16:44:36.
