data_PCOD9238269
_publ_section_title
;
Structure prediction by ZEFSAII (Michael W. Deem and Ramdas Pophale) SiO2 
 PCOD9238269
Probable space group: P 2/C
;
_chemical_formula_sum "Si O2"
_cell_formula_units_Z 20
_cell_length_a 10.104119
_cell_length_b 5.288641
_cell_length_c 27.508345
_cell_angle_alpha 90.000000
_cell_angle_beta 32.756742
_cell_angle_gamma 90.000000
_cell_volume 795.359024
_symmetry_space_group_name_H-M "P 2/C"
_symmetry_group_IT_number 13
_symmetry_cell_setting 'monoclinic'
loop_
_space_group_symop_operation_xyz
x,y,z
-x,y,1/2-z
-x,-y,-z
x,-y,1/2+z
loop_
_atom_site_type_symbol
_atom_site_label
_atom_site_fract_x
_atom_site_fract_y
_atom_site_fract_z
Si Si1 0.828834 0.776946 0.517156
Si Si2 0.243528 0.066279 0.054148
Si Si3 0.391587 0.597496 0.152176
Si Si4 0.646646 0.096878 0.654265
Si Si5 0.082449 0.421821 0.651074
O O1 0.758287 0.006112 0.502269
O O2 0.629747 0.565680 0.568359
O O3 0.113679 0.719730 0.418491
O O4 0.777731 0.855186 0.588877
O O5 0.062204 0.846779 0.130325
O O6 0.184523 0.351641 0.086894
O O7 0.500000 0.000000 0.000000
O O8 0.464951 0.810132 0.168324
O O9 0.260278 0.645120 0.141449
O O10 0.170125 0.465936 0.250127
O O11 0.500000 0.068065 0.750000
#
# Coordination Sequence:
#
# PCOD9238269 Si02
#       5
#     4   4   4   4   4
#     4  11  26  44  77 104 149 196 259 306 383 453
#     4  12  24  47  74 114 150 195 248 314 384 450
#     4  11  25  45  71 108 150 192 257 308 379 455
#     4  11  26  49  70 105 147 204 256 313 373 454
#     4  11  27  43  79 111 152 197 243 316 387 450
#
# _framework density 25.145875
#
# number of rings (size 3 to 8) (size 9 to 14) (size 15 to 20)
#    0.000    0.800    2.000    3.600    8.400    2.400 
#    3.600    0.000    0.000    0.000    0.000    0.000 
#    0.000    0.000    0.000    0.000    0.000    0.000 
#
# Total GULP energy -111751.526313 kJ/mol
# GULP energy per Si atom -5587.576316 kJ/mol
# Density = 2.508864 g / cm^3
# Si number density = 25.145875 Si / 1000 Ang^3
#
#
#
# Elastic Constant Matrix: (Units=GPa)
#
#
# Indices 1 2 3 4 5 6 
#
# 1 82.1276 51.8032 60.8593 0.0000 17.2001 0.0000
# 2 51.8032 74.9034 53.9622 0.0000 17.5491 0.0000
# 3 60.8593 53.9622 225.5108 0.0000 20.1112 0.0000
# 4 0.0000 0.0000 0.0000 31.0606 0.0000 3.3287
# 5 17.2001 17.5491 20.1112 0.0000 51.5151 0.0000
# 6 0.0000 0.0000 0.0000 3.3287 0.0000 34.1068
#
#
#
# Elastic Compliance Matrix: (Units=1/GPa)
#
#
# Indices 1 2 3 4 5 6 
#
# 1 0.023271 -0.013562 -0.002854 0.000000 -0.002036 0.000000
# 2 -0.013562 0.024931 -0.002023 0.000000 -0.003175 0.000000
# 3 -0.002854 -0.002023 0.005742 0.000000 -0.000600 0.000000
# 4 0.000000 0.000000 0.000000 0.032535 0.000000 -0.003175
# 5 -0.002036 -0.003175 -0.000600 0.000000 0.021407 0.000000
# 6 0.000000 0.000000 0.000000 -0.003175 0.000000 0.029630
#
#
# Mechanical properties :
#
#
# Convention : Reuss Voigt Hill
#
# Bulk Modulus (GPa) = 58.58741 79.53236 69.05988
# Shear Modulus (GPa) = 27.76515 37.73098 32.74806
#
# Velocity S-wave (km/s) = 3.32650 3.87781 3.61269
# Velocity P-wave (km/s) = 6.17282 7.19353 6.70264
#
# Compressibility (1/GPa) = 0.01706851
#
# Stress axis : x y z
#
# Youngs Moduli (GPa) = 42.97112 40.11095 174.15660
#
# Poissons Ratio (x) = 0.54397 0.49697
# Poissons Ratio (y) = 0.58276 0.35224
# Poissons Ratio (z) = 0.12262 0.08113
#
# Static dielectric constant tensor:
#      x y z
#    x 2.026140 0.000000 -0.026010 
#    y 0.000000 2.014840 0.000000 
#    z -0.026010 0.000000 2.062740 
# 
# From -- ./inp_files/48595.got.cif
#   From: 2010.05.17/outbox.cif.g08.bks.cpg/sg13_25_cif.got.tgz:48595.got - 2010.06.03 16:44:36.
