data_PCOD9238625
_publ_section_title
;
Structure prediction by ZEFSAII (Michael W. Deem and Ramdas Pophale) SiO2 
 PCOD9238625
Probable space group: P 2/C
;
_chemical_formula_sum "Si O2"
_cell_formula_units_Z 18
_cell_length_a 12.523947
_cell_length_b 8.607052
_cell_length_c 8.594145
_cell_angle_alpha 90.000000
_cell_angle_beta 124.479573
_cell_angle_gamma 90.000000
_cell_volume 763.657135
_symmetry_space_group_name_H-M "P 2/C"
_symmetry_group_IT_number 13
_symmetry_cell_setting 'monoclinic'
loop_
_space_group_symop_operation_xyz
x,y,z
-x,y,1/2-z
-x,-y,-z
x,-y,1/2+z
loop_
_atom_site_type_symbol
_atom_site_label
_atom_site_fract_x
_atom_site_fract_y
_atom_site_fract_z
Si Si1 0.000000 0.679480 0.750000
Si Si2 0.605096 0.624166 0.143439
Si Si3 0.787184 0.169721 0.263529
Si Si4 0.766405 0.551291 0.990238
Si Si5 0.633753 0.068620 0.829422
O O1 0.930053 0.792116 0.815999
O O2 0.891608 0.558939 0.598071
O O3 0.651657 0.560862 0.346439
O O4 0.580756 0.802785 0.163275
O O5 0.500000 0.500000 0.000000
O O6 0.725974 0.620838 0.122398
O O7 0.764390 0.319404 0.354433
O O8 0.748108 0.027542 0.341988
O O9 0.698109 0.140584 0.037860
O O10 0.500000 0.973255 0.750000
#
# Coordination Sequence:
#
# PCOD9238625 Si02
#       5
#     2   4   4   4   4
#     4  12  26  50  76 108 156 202 278 304 380 462
#     4  12  24  44  77 115 151 195 251 319 390 460
#     4  12  27  48  76 110 153 206 251 318 388 452
#     4  12  24  46  75 110 148 200 257 317 377 454
#     4  12  26  49  74 116 158 196 254 321 395 464
#
# _framework density 23.570786999999999
#
# number of rings (size 3 to 8) (size 9 to 14) (size 15 to 20)
#    0.000    0.000    4.444    6.000    0.000    2.667 
#    0.000    2.222    0.000    0.000    0.000    0.000 
#    0.000    0.000    0.000    0.000    0.000    0.000 
#
# Total GULP energy -100457.395889 kJ/mol
# GULP energy per Si atom -5580.966438 kJ/mol
# Density = 2.351714 g / cm^3
# Si number density = 23.570787 Si / 1000 Ang^3
#
#
#
# Elastic Constant Matrix: (Units=GPa)
#
#
# Indices 1 2 3 4 5 6 
#
# 1 153.3848 49.8821 44.0524 0.0000 -15.0243 0.0000
# 2 49.8821 79.5954 27.8458 0.0000 -3.5869 0.0000
# 3 44.0524 27.8458 109.1400 0.0000 2.1101 0.0000
# 4 0.0000 0.0000 0.0000 19.4722 0.0000 -4.4934
# 5 -15.0243 -3.5869 2.1101 0.0000 47.4667 0.0000
# 6 0.0000 0.0000 0.0000 -4.4934 0.0000 57.8993
#
#
#
# Elastic Compliance Matrix: (Units=1/GPa)
#
#
# Indices 1 2 3 4 5 6 
#
# 1 0.009006 -0.004652 -0.002499 0.000000 0.002610 0.000000
# 2 -0.004652 0.016267 -0.002270 0.000000 -0.000142 0.000000
# 3 -0.002499 -0.002270 0.010778 0.000000 -0.001441 0.000000
# 4 0.000000 0.000000 0.000000 0.052292 0.000000 0.004058
# 5 0.002610 -0.000142 -0.001441 0.000000 0.021947 0.000000
# 6 0.000000 0.000000 0.000000 0.004058 0.000000 0.017586
#
#
# Mechanical properties :
#
#
# Convention : Reuss Voigt Hill
#
# Bulk Modulus (GPa) = 58.10724 65.07565 61.59145
# Shear Modulus (GPa) = 32.79707 39.65695 36.22701
#
# Velocity S-wave (km/s) = 3.73423 4.10623 3.92464
# Velocity P-wave (km/s) = 6.58015 7.08167 6.83551
#
# Compressibility (1/GPa) = 0.01720956
#
# Stress axis : x y z
#
# Youngs Moduli (GPa) = 111.04087 61.47551 92.78162
#
# Poissons Ratio (x) = 0.28599 0.23182
# Poissons Ratio (y) = 0.51658 0.21059
# Poissons Ratio (z) = 0.27744 0.13953
#
# Static dielectric constant tensor:
#      x y z
#    x 1.960850 0.000000 -0.023630 
#    y 0.000000 1.941670 0.000000 
#    z -0.023630 0.000000 1.901990 
# 
# From -- ./inp_files/15065.got.cif
#   From: 2010.05.17/outbox.cif.g08.bks.cpg/sg13_8_cif.got.tgz:15065.got - 2010.06.03 16:44:36.
