data_PCOD9238382
_publ_section_title
;
Structure prediction by ZEFSAII (Michael W. Deem and Ramdas Pophale) SiO2 
 PCOD9238382
Probable space group: P 2/C
;
_chemical_formula_sum "Si O2"
_cell_formula_units_Z 20
_cell_length_a 21.696533
_cell_length_b 6.106782
_cell_length_c 10.548048
_cell_angle_alpha 90.000000
_cell_angle_beta 148.715169
_cell_angle_gamma 90.000000
_cell_volume 725.750294
_symmetry_space_group_name_H-M "P 2/C"
_symmetry_group_IT_number 13
_symmetry_cell_setting 'monoclinic'
loop_
_space_group_symop_operation_xyz
x,y,z
-x,y,1/2-z
-x,-y,-z
x,-y,1/2+z
loop_
_atom_site_type_symbol
_atom_site_label
_atom_site_fract_x
_atom_site_fract_y
_atom_site_fract_z
Si Si1 0.680626 0.131443 0.124786
Si Si2 0.846704 0.506313 0.612671
Si Si3 0.073308 0.188670 0.034145
Si Si4 0.370359 0.194294 0.197093
Si Si5 0.500000 0.510086 0.750000
Si Si6 0.000000 0.798191 0.750000
O O1 0.820804 0.176951 0.385089
O O2 0.622585 0.064129 0.157706
O O3 0.664248 0.957023 0.983221
O O4 0.611211 0.351542 0.966087
O O5 0.732253 0.368123 0.445947
O O6 0.882287 0.646871 0.550332
O O7 0.962586 0.352409 0.830705
O O8 0.850373 0.705440 0.719846
O O9 0.017501 0.950101 0.904877
O O10 0.477736 0.339704 0.333098
#
# Coordination Sequence:
#
# PCOD9238382 Si02
#       6
#     4   4   4   4   2   2
#     4  12  29  51  80 116 155 206 266 322 394 466
#     4  11  26  48  72 114 160 206 252 316 397 466
#     4  11  26  45  73 111 156 207 249 317 382 472
#     4  12  29  53  82 116 159 207 261 327 392 468
#     4  12  28  54  80 112 150 210 266 338 388 460
#     4  12  24  42  76 110 156 204 258 312 394 468
#
# _framework density 27.557689
#
# number of rings (size 3 to 8) (size 9 to 14) (size 15 to 20)
#    0.000    0.400    2.000    4.800   11.200    6.400 
#    0.000    0.000    0.000    0.000    0.000    0.000 
#    0.000    0.000    0.000    0.000    0.000    0.000 
#
# Total GULP energy -111881.575056 kJ/mol
# GULP energy per Si atom -5594.078753 kJ/mol
# Density = 2.749497 g / cm^3
# Si number density = 27.557689 Si / 1000 Ang^3
#
#
#
# Elastic Constant Matrix: (Units=GPa)
#
#
# Indices 1 2 3 4 5 6 
#
# 1 120.4432 80.7498 -6.2685 0.0000 -7.4821 0.0000
# 2 80.7498 170.5408 43.8953 0.0000 5.5912 0.0000
# 3 -6.2685 43.8953 49.1131 0.0000 5.7243 0.0000
# 4 0.0000 0.0000 0.0000 56.5006 0.0000 0.7695
# 5 -7.4821 5.5912 5.7243 0.0000 57.1274 0.0000
# 6 0.0000 0.0000 0.0000 0.7695 0.0000 53.4334
#
#
#
# Elastic Compliance Matrix: (Units=1/GPa)
#
#
# Indices 1 2 3 4 5 6 
#
# 1 0.016136 -0.010619 0.011315 0.000000 0.002019 0.000000
# 2 -0.010619 0.014604 -0.014246 0.000000 -0.001393 0.000000
# 3 0.011315 -0.014246 0.034606 0.000000 -0.000591 0.000000
# 4 0.000000 0.000000 0.000000 0.017702 0.000000 -0.000255
# 5 0.002019 -0.001393 -0.000591 0.000000 0.017965 0.000000
# 6 0.000000 0.000000 0.000000 -0.000255 0.000000 0.018719
#
#
# Mechanical properties :
#
#
# Convention : Reuss Voigt Hill
#
# Bulk Modulus (GPa) = 26.14522 64.09448 45.11985
# Shear Modulus (GPa) = 31.33211 48.19365 39.76288
#
# Velocity S-wave (km/s) = 3.37555 4.18644 3.80267
# Velocity P-wave (km/s) = 4.96996 6.83206 5.97401
#
# Compressibility (1/GPa) = 0.03824790
#
# Stress axis : x y z
#
# Youngs Moduli (GPa) = 61.97165 68.47424 28.89642
#
# Poissons Ratio (x) = 0.72713 -0.32697
# Poissons Ratio (y) = 0.65808 0.41164
# Poissons Ratio (z) = -0.70122 0.97545
#
# Static dielectric constant tensor:
#      x y z
#    x 2.371930 0.000000 -0.078100 
#    y 0.000000 2.212700 0.000000 
#    z -0.078100 0.000000 2.157310 
# 
# From -- ./inp_files/59038.got.cif
#   From: 2010.05.17/outbox.cif.g08.bks.cpg/sg13_30_cif.got.tgz:59038.got - 2010.06.03 16:44:36.
