data_PCOD9238015
_publ_section_title
;
Structure prediction by ZEFSAII (Michael W. Deem and Ramdas Pophale) SiO2 
 PCOD9238015
Probable space group: P 2/C
;
_chemical_formula_sum "Si O2"
_cell_formula_units_Z 18
_cell_length_a 19.381250
_cell_length_b 5.347655
_cell_length_c 30.053204
_cell_angle_alpha 90.000000
_cell_angle_beta 13.885704
_cell_angle_gamma 90.000000
_cell_volume 747.517807
_symmetry_space_group_name_H-M "P 2/C"
_symmetry_group_IT_number 13
_symmetry_cell_setting 'monoclinic'
loop_
_space_group_symop_operation_xyz
x,y,z
-x,y,1/2-z
-x,-y,-z
x,-y,1/2+z
loop_
_atom_site_type_symbol
_atom_site_label
_atom_site_fract_x
_atom_site_fract_y
_atom_site_fract_z
Si Si1 0.500000 0.988207 0.250000
Si Si2 0.997096 0.624754 0.549654
Si Si3 0.129735 0.263024 0.543476
Si Si4 0.359567 0.395969 0.488946
Si Si5 0.510353 0.095045 0.544206
O O1 0.197184 0.865332 0.425057
O O2 0.399159 0.092776 0.361828
O O3 0.153486 0.453475 0.488111
O O4 0.000000 0.500000 0.500000
O O5 0.675055 0.626063 0.769575
O O6 0.148654 0.404556 0.578742
O O7 0.826170 0.120858 0.731798
O O8 0.359478 0.634567 0.522249
O O9 0.326235 0.128335 0.533144
O O10 0.500000 0.000000 0.500000
#
# Coordination Sequence:
#
# PCOD9238015 Si02
#       5
#     2   4   4   4   4
#     4  12  22  40  70  98 148 184 248 282 368 422
#     4  11  24  41  65 103 146 190 231 292 353 426
#     4  11  26  42  68 110 138 190 240 288 361 429
#     4  11  25  45  74 103 142 185 234 295 354 419
#     4  11  26  50  74 103 141 186 240 296 354 418
#
# _framework density 24.079695999999998
#
# number of rings (size 3 to 8) (size 9 to 14) (size 15 to 20)
#    0.000    0.889    2.222    4.000    9.333    2.667 
#    0.000    2.222    0.000    0.000    0.000    0.000 
#    0.000    0.000    0.000    0.000    0.000    0.000 
#
# Total GULP energy -100496.331754 kJ/mol
# GULP energy per Si atom -5583.129542 kJ/mol
# Density = 2.402489 g / cm^3
# Si number density = 24.079696 Si / 1000 Ang^3
#
#
#
# Elastic Constant Matrix: (Units=GPa)
#
#
# Indices 1 2 3 4 5 6 
#
# 1 140.4543 40.6894 -5.2716 -0.0378 5.9736 0.0078
# 2 40.6894 106.6302 17.4749 -0.0048 5.6314 0.0015
# 3 -5.2716 17.4749 100.7724 -0.0270 9.2942 0.0053
# 4 -0.0378 -0.0048 -0.0270 119.9550 0.0308 -4.3685
# 5 5.9736 5.6314 9.2942 0.0308 20.3598 -0.0062
# 6 0.0078 0.0015 0.0053 -4.3685 -0.0062 41.4693
#
#
#
# Elastic Compliance Matrix: (Units=1/GPa)
#
#
# Indices 1 2 3 4 5 6 
#
# 1 0.008179 -0.003205 0.001173 0.000003 -0.002049 -0.000002
# 2 -0.003205 0.010986 -0.001962 -0.000001 -0.001203 0.000000
# 3 0.001173 -0.001962 0.010760 0.000004 -0.004713 -0.000002
# 4 0.000003 -0.000001 0.000004 0.008369 -0.000015 0.000882
# 5 -0.002049 -0.001203 -0.004713 -0.000015 0.052202 0.000007
# 6 -0.000002 0.000000 -0.000002 0.000882 0.000007 0.024207
#
#
# Mechanical properties :
#
#
# Convention : Reuss Voigt Hill
#
# Bulk Modulus (GPa) = 45.58616 50.40469 47.99542
# Shear Modulus (GPa) = 38.46042 56.02109 47.24076
#
# Velocity S-wave (km/s) = 4.00085 4.82860 4.43408
# Velocity P-wave (km/s) = 6.34940 7.21561 6.79632
#
# Compressibility (1/GPa) = 0.02193648
#
# Stress axis : x y z
#
# Youngs Moduli (GPa) = 122.25773 91.02223 92.94030
#
# Poissons Ratio (x) = 0.29174 -0.10899
# Poissons Ratio (y) = 0.39186 0.18234
# Poissons Ratio (z) = -0.14337 0.17857
#
# Static dielectric constant tensor:
#      x y z
#    x 1.973560 0.000000 -0.016840 
#    y 0.000000 1.967520 0.000000 
#    z -0.016840 0.000000 1.936220 
# 
# From -- ./inp_files/93053.got.cif
#   From: 2010.05.17/outbox.cif.g08.bks.cpg/sg13_47_cif.got.tgz:93053.got - 2010.06.03 16:44:36.
