data_PCOD9238386
_publ_section_title
;
Structure prediction by ZEFSAII (Michael W. Deem and Ramdas Pophale) SiO2 
 PCOD9238386
Probable space group: P 2/C
;
_chemical_formula_sum "Si O2"
_cell_formula_units_Z 16
_cell_length_a 22.346094
_cell_length_b 5.311755
_cell_length_c 28.099139
_cell_angle_alpha 90.000000
_cell_angle_beta 11.561007
_cell_angle_gamma 90.000000
_cell_volume 668.428099
_symmetry_space_group_name_H-M "P 2/C"
_symmetry_group_IT_number 13
_symmetry_cell_setting 'monoclinic'
loop_
_space_group_symop_operation_xyz
x,y,z
-x,y,1/2-z
-x,-y,-z
x,-y,1/2+z
loop_
_atom_site_type_symbol
_atom_site_label
_atom_site_fract_x
_atom_site_fract_y
_atom_site_fract_z
Si Si1 0.771401 0.267394 0.968220
Si Si2 0.436220 0.743003 0.244764
Si Si3 0.148700 0.079374 0.334359
Si Si4 0.720940 0.700511 0.352369
O O1 0.000000 0.185641 0.750000
O O2 0.979891 0.342356 0.850794
O O3 0.602545 0.524493 0.086146
O O4 0.555141 0.028611 0.144775
O O5 0.500000 0.690266 0.250000
O O6 0.089110 0.725797 0.502153
O O7 0.175047 0.870521 0.272806
O O8 0.488802 0.172638 0.071059
O O9 0.000000 0.000000 0.500000
O O10 0.500000 0.500000 0.500000
#
# Coordination Sequence:
#
# PCOD9238386 Si02
#       4
#     4   4   4   4
#     4  12  27  46  73 105 145 189 244 297 364 430
#     4  12  25  47  72 104 144 190 238 298 360 432
#     4  11  26  46  74 105 144 190 243 296 366 432
#     4  11  26  46  71 103 144 189 236 302 359 430
#
# _framework density 23.936754000000001
#
# number of rings (size 3 to 8) (size 9 to 14) (size 15 to 20)
#    0.000    0.500    2.500    4.500   10.500    1.000 
#    0.000    0.000    0.000    0.000    0.000    0.000 
#    0.000    0.000    0.000    0.000    0.000    0.000 
#
# Total GULP energy -89422.094545 kJ/mol
# GULP energy per Si atom -5588.880909 kJ/mol
# Density = 2.388227 g / cm^3
# Si number density = 23.936754 Si / 1000 Ang^3
#
#
#
# Elastic Constant Matrix: (Units=GPa)
#
#
# Indices 1 2 3 4 5 6 
#
# 1 72.0053 -3.0638 34.8645 0.0000 5.9951 0.0000
# 2 -3.0638 77.9475 60.5281 0.0000 -12.9384 0.0000
# 3 34.8645 60.5281 157.8358 0.0000 1.8264 0.0000
# 4 0.0000 0.0000 0.0000 60.4019 0.0000 -4.4385
# 5 5.9951 -12.9384 1.8264 0.0000 53.5104 0.0000
# 6 0.0000 0.0000 0.0000 -4.4385 0.0000 19.7199
#
#
#
# Elastic Compliance Matrix: (Units=1/GPa)
#
#
# Indices 1 2 3 4 5 6 
#
# 1 0.016856 0.004935 -0.005610 0.000000 -0.000504 0.000000
# 2 0.004935 0.020954 -0.009182 0.000000 0.004827 0.000000
# 3 -0.005610 -0.009182 0.011119 0.000000 -0.001971 0.000000
# 4 0.000000 0.000000 0.000000 0.016834 0.000000 0.003789
# 5 -0.000504 0.004827 -0.001971 0.000000 0.019979 0.000000
# 6 0.000000 0.000000 0.000000 0.003789 0.000000 0.051563
#
#
# Mechanical properties :
#
#
# Convention : Reuss Voigt Hill
#
# Bulk Modulus (GPa) = 34.22758 54.71625 44.47191
# Shear Modulus (GPa) = 29.98374 41.09042 35.53708
#
# Velocity S-wave (km/s) = 3.54308 4.14771 3.85726
# Velocity P-wave (km/s) = 5.57388 6.77099 6.20139
#
# Compressibility (1/GPa) = 0.02921621
#
# Stress axis : x y z
#
# Youngs Moduli (GPa) = 59.32518 47.72311 89.93742
#
# Poissons Ratio (x) = -0.23553 0.50457
# Poissons Ratio (y) = -0.29280 0.82578
# Poissons Ratio (z) = 0.33283 0.43818
#
# Static dielectric constant tensor:
#      x y z
#    x 1.930820 0.000000 0.045790 
#    y 0.000000 1.937350 0.000000 
#    z 0.045790 0.000000 1.666040 
# 
# From -- ./inp_files/62214.got.cif
#   From: 2010.05.17/outbox.cif.g08.bks.cpg/sg13_32_cif.got.tgz:62214.got - 2010.06.03 16:44:36.
