data_PCOD9238369
_publ_section_title
;
Structure prediction by ZEFSAII (Michael W. Deem and Ramdas Pophale) SiO2 
 PCOD9238369
Probable space group: P 2/C
;
_chemical_formula_sum "Si O2"
_cell_formula_units_Z 16
_cell_length_a 25.158182
_cell_length_b 5.152901
_cell_length_c 9.873736
_cell_angle_alpha 90.000000
_cell_angle_beta 148.926559
_cell_angle_gamma 90.000000
_cell_volume 660.658485
_symmetry_space_group_name_H-M "P 2/C"
_symmetry_group_IT_number 13
_symmetry_cell_setting 'monoclinic'
loop_
_space_group_symop_operation_xyz
x,y,z
-x,y,1/2-z
-x,-y,-z
x,-y,1/2+z
loop_
_atom_site_type_symbol
_atom_site_label
_atom_site_fract_x
_atom_site_fract_y
_atom_site_fract_z
Si Si1 0.675526 0.499136 0.423254
Si Si2 0.524737 0.799043 0.942185
Si Si3 0.934958 0.162428 0.245026
Si Si4 0.198708 0.326702 0.038535
O O1 0.566159 0.413650 0.248343
O O2 0.736924 0.300455 0.461169
O O3 0.741388 0.590244 0.694098
O O4 0.637359 0.696572 0.222162
O O5 0.500000 0.939890 0.750000
O O6 0.500000 0.000000 0.000000
O O7 0.885103 0.442058 0.173801
O O8 0.000000 0.201378 0.250000
O O9 0.000000 0.000000 0.500000
O O10 0.846283 0.953224 0.023555
#
# Coordination Sequence:
#
# PCOD9238369 Si02
#       4
#     4   4   4   4
#     4  11  26  43  66 107 142 191 240 288 356 416
#     4  11  26  44  69  99 153 189 238 295 355 423
#     4  12  26  48  72 103 140 183 234 301 370 420
#     4  12  26  44  76 103 142 185 242 293 350 441
#
# _framework density 24.218259
#
# number of rings (size 3 to 8) (size 9 to 14) (size 15 to 20)
#    0.000    0.500    2.500    4.500   10.500    0.000 
#    0.000    0.000    0.000    0.000    0.000    0.000 
#    0.000    0.000    0.000    0.000    0.000    0.000 
#
# Total GULP energy -89368.476186 kJ/mol
# GULP energy per Si atom -5585.529762 kJ/mol
# Density = 2.416314 g / cm^3
# Si number density = 24.218259 Si / 1000 Ang^3
#
#
#
# Elastic Constant Matrix: (Units=GPa)
#
#
# Indices 1 2 3 4 5 6 
#
# 1 97.3772 -9.6940 15.9540 0.0000 -15.5019 0.0000
# 2 -9.6940 75.6707 -8.3027 0.0000 14.6035 0.0000
# 3 15.9540 -8.3027 96.9943 0.0000 -26.3238 0.0000
# 4 0.0000 0.0000 0.0000 4.4030 0.0000 -9.1583
# 5 -15.5019 14.6035 -26.3238 0.0000 49.7975 0.0000
# 6 0.0000 0.0000 0.0000 -9.1583 0.0000 31.4199
#
#
#
# Elastic Compliance Matrix: (Units=1/GPa)
#
#
# Indices 1 2 3 4 5 6 
#
# 1 0.010933 0.000780 -0.001016 0.000000 0.002638 0.000000
# 2 0.000780 0.014064 0.000026 0.000000 -0.003868 0.000000
# 3 -0.001016 0.000026 0.012132 0.000000 0.006089 0.000000
# 4 0.000000 0.000000 0.000000 0.576865 0.000000 0.168145
# 5 0.002638 -0.003868 0.006089 0.000000 0.025256 0.000000
# 6 0.000000 0.000000 0.000000 0.168145 0.000000 0.080838
#
#
# Mechanical properties :
#
#
# Convention : Reuss Voigt Hill
#
# Bulk Modulus (GPa) = 27.24046 29.55076 28.39561
# Shear Modulus (GPa) = 6.82366 35.26309 21.04337
#
# Velocity S-wave (km/s) = 1.68038 3.81997 2.95092
# Velocity P-wave (km/s) = 3.87779 5.62890 4.83331
#
# Compressibility (1/GPa) = 0.03671010
#
# Stress axis : x y z
#
# Youngs Moduli (GPa) = 91.46334 71.10149 82.42824
#
# Poissons Ratio (x) = -0.05547 0.08372
# Poissons Ratio (y) = -0.07135 -0.00213
# Poissons Ratio (z) = 0.09290 -0.00184
#
# Static dielectric constant tensor:
#      x y z
#    x 2.101110 0.000000 0.155690 
#    y 0.000000 2.001410 0.000000 
#    z 0.155690 0.000000 2.269550 
# 
# From -- ./inp_files/17636.got.cif
#   From: 2010.05.17/outbox.cif.g08.bks.cpg/sg13_9_cif.got.tgz:17636.got - 2010.06.03 16:44:36.
