data_PCOD9238339
_publ_section_title
;
Structure prediction by ZEFSAII (Michael W. Deem and Ramdas Pophale) SiO2 
 PCOD9238339
Probable space group: P 2/C
;
_chemical_formula_sum "Si O2"
_cell_formula_units_Z 18
_cell_length_a 11.851975
_cell_length_b 8.861910
_cell_length_c 14.656197
_cell_angle_alpha 90.000000
_cell_angle_beta 27.608336
_cell_angle_gamma 90.000000
_cell_volume 713.376471
_symmetry_space_group_name_H-M "P 2/C"
_symmetry_group_IT_number 13
_symmetry_cell_setting 'monoclinic'
loop_
_space_group_symop_operation_xyz
x,y,z
-x,y,1/2-z
-x,-y,-z
x,-y,1/2+z
loop_
_atom_site_type_symbol
_atom_site_label
_atom_site_fract_x
_atom_site_fract_y
_atom_site_fract_z
Si Si1 0.276243 0.343943 0.579436
Si Si2 0.098922 0.011508 0.080566
Si Si3 0.312646 0.455677 0.758853
Si Si4 0.763338 0.202701 0.184603
Si Si5 0.500000 0.220963 0.750000
O O1 0.282972 0.384562 0.680928
O O2 0.404394 0.485968 0.437903
O O3 0.473840 0.213511 0.415181
O O4 0.000000 0.331609 0.750000
O O5 0.000000 0.968844 0.250000
O O6 0.173571 0.879356 0.955796
O O7 0.336615 0.113132 0.928510
O O8 0.901647 0.111536 0.164930
O O9 0.310843 0.322531 0.831365
O O10 0.823334 0.383285 0.133726
#
# Coordination Sequence:
#
# PCOD9238339 Si02
#       5
#     4   4   4   4   2
#     4   9  19  42  79 119 156 196 249 323 386 454
#     4  11  25  48  78 106 158 208 253 315 388 464
#     4   9  22  40  74 118 153 194 257 316 386 451
#     4   9  22  46  74 112 157 202 261 314 383 462
#     4  12  26  44  78 110 154 198 254 324 380 464
#
# _framework density 25.232118
#
# number of rings (size 3 to 8) (size 9 to 14) (size 15 to 20)
#    1.333    0.889    0.000    1.333    3.111    1.778 
#    0.000   14.444    9.778    4.000    0.000    1.556 
#    0.000    0.000    0.000    0.000    0.000    0.000 
#
# Total GULP energy -100663.061966 kJ/mol
# GULP energy per Si atom -5592.392331 kJ/mol
# Density = 2.517469 g / cm^3
# Si number density = 25.232118 Si / 1000 Ang^3
#
#
#
# Elastic Constant Matrix: (Units=GPa)
#
#
# Indices 1 2 3 4 5 6 
#
# 1 118.3544 91.8261 82.3401 0.0000 6.2036 0.0000
# 2 91.8261 168.0309 84.0713 0.0000 8.5626 0.0000
# 3 82.3401 84.0713 162.8926 0.0000 -8.3457 0.0000
# 4 0.0000 0.0000 0.0000 28.5644 0.0000 13.7804
# 5 6.2036 8.5626 -8.3457 0.0000 59.1207 0.0000
# 6 0.0000 0.0000 0.0000 13.7804 0.0000 10.0773
#
#
#
# Elastic Compliance Matrix: (Units=1/GPa)
#
#
# Indices 1 2 3 4 5 6 
#
# 1 0.017632 -0.006809 -0.005482 0.000000 -0.001638 0.000000
# 2 -0.006809 0.010839 -0.002212 0.000000 -0.001167 0.000000
# 3 -0.005482 -0.002212 0.010171 0.000000 0.002331 0.000000
# 4 0.000000 0.000000 0.000000 0.102880 0.000000 -0.140684
# 5 -0.001638 -0.001167 0.002331 0.000000 0.017585 0.000000
# 6 0.000000 0.000000 0.000000 -0.140684 0.000000 0.291614
#
#
# Mechanical properties :
#
#
# Convention : Reuss Voigt Hill
#
# Bulk Modulus (GPa) = 103.78622 107.30588 105.54605
# Shear Modulus (GPa) = 10.35329 32.28851 21.32090
#
# Velocity S-wave (km/s) = 2.02784 3.58111 2.91003
# Velocity P-wave (km/s) = 6.83408 7.72781 7.29465
#
# Compressibility (1/GPa) = 0.00963519
#
# Stress axis : x y z
#
# Youngs Moduli (GPa) = 56.71447 92.26351 98.31596
#
# Poissons Ratio (x) = 0.62824 0.53901
# Poissons Ratio (y) = 0.38618 0.21745
# Poissons Ratio (z) = 0.31093 0.20407
#
# Static dielectric constant tensor:
#      x y z
#    x 1.821060 0.000000 -0.209170 
#    y 0.000000 2.025260 0.000000 
#    z -0.209170 0.000000 1.960490 
# 
# From -- ./inp_files/50724.got.cif
#   From: 2010.05.17/outbox.cif.g08.bks.cpg/sg13_26_cif.got.tgz:50724.got - 2010.06.03 16:44:36.
