data_PCOD9238493
_publ_section_title
;
Structure prediction by ZEFSAII (Michael W. Deem and Ramdas Pophale) SiO2 
 PCOD9238493
Probable space group: P 2/C
;
_chemical_formula_sum "Si O2"
_cell_formula_units_Z 12
_cell_length_a 8.743466
_cell_length_b 4.851289
_cell_length_c 15.899075
_cell_angle_alpha 90.000000
_cell_angle_beta 41.025064
_cell_angle_gamma 90.000000
_cell_volume 442.663792
_symmetry_space_group_name_H-M "P 2/C"
_symmetry_group_IT_number 13
_symmetry_cell_setting 'monoclinic'
loop_
_space_group_symop_operation_xyz
x,y,z
-x,y,1/2-z
-x,-y,-z
x,-y,1/2+z
loop_
_atom_site_type_symbol
_atom_site_label
_atom_site_fract_x
_atom_site_fract_y
_atom_site_fract_z
Si Si1 0.774598 0.212142 0.308709
Si Si2 0.133973 0.050530 0.560137
Si Si3 0.373072 0.531163 0.391114
O O1 0.758583 0.988387 0.390269
O O2 0.562325 0.406570 0.377723
O O3 0.000000 0.382475 0.250000
O O4 0.871991 0.055817 0.185841
O O5 0.289937 0.838208 0.442676
O O6 0.152831 0.338057 0.505710
O O7 0.500000 0.502769 0.250000
#
# Coordination Sequence:
#
# PCOD9238493 Si02
#       3
#     4   4   4
#     4   8  22  40  61  84 111 156 191 234 277 338
#     4   9  23  39  60  83 116 150 194 228 282 341
#     4  12  22  38  60  87 117 149 186 238 286 333
#
# _framework density 27.108611
#
# number of rings (size 3 to 8) (size 9 to 14) (size 15 to 20)
#    2.000    0.000    0.000    3.000    0.000   10.667 
#    0.000    0.000    0.000    0.000    0.000    0.000 
#    0.000    0.000    0.000    0.000    0.000    0.000 
#
# Total GULP energy -67110.759884 kJ/mol
# GULP energy per Si atom -5592.563324 kJ/mol
# Density = 2.704691 g / cm^3
# Si number density = 27.108611 Si / 1000 Ang^3
#
#
#
# Elastic Constant Matrix: (Units=GPa)
#
#
# Indices 1 2 3 4 5 6 
#
# 1 65.4193 16.3134 29.4443 0.0000 13.6142 0.0000
# 2 16.3134 85.9016 29.4418 0.0000 13.5715 0.0000
# 3 29.4443 29.4418 129.4310 0.0000 41.6167 0.0000
# 4 0.0000 0.0000 0.0000 33.5945 0.0000 4.5398
# 5 13.6142 13.5715 41.6167 0.0000 40.4240 0.0000
# 6 0.0000 0.0000 0.0000 4.5398 0.0000 14.1080
#
#
#
# Elastic Compliance Matrix: (Units=1/GPa)
#
#
# Indices 1 2 3 4 5 6 
#
# 1 0.017526 -0.002004 -0.002765 0.000000 -0.002383 0.000000
# 2 -0.002004 0.012955 -0.001957 0.000000 -0.001659 0.000000
# 3 -0.002765 -0.001957 0.012392 0.000000 -0.011169 0.000000
# 4 0.000000 0.000000 0.000000 0.031120 0.000000 -0.010014
# 5 -0.002383 -0.001659 -0.011169 0.000000 0.037596 0.000000
# 6 0.000000 0.000000 0.000000 -0.010014 0.000000 0.074104
#
#
# Mechanical properties :
#
#
# Convention : Reuss Voigt Hill
#
# Bulk Modulus (GPa) = 33.99097 47.90567 40.94832
# Shear Modulus (GPa) = 23.92897 31.32882 27.62889
#
# Velocity S-wave (km/s) = 2.97426 3.40321 3.19594
# Velocity P-wave (km/s) = 4.93569 5.75783 5.36254
#
# Compressibility (1/GPa) = 0.02941958
#
# Stress axis : x y z
#
# Youngs Moduli (GPa) = 57.05753 77.19108 80.70029
#
# Poissons Ratio (x) = 0.15471 0.22312
# Poissons Ratio (y) = 0.11436 0.15797
# Poissons Ratio (z) = 0.15775 0.15110
#
# Static dielectric constant tensor:
#      x y z
#    x 2.233720 0.000000 -0.061150 
#    y 0.000000 2.100810 0.000000 
#    z -0.061150 0.000000 2.157140 
# 
# From -- ./inp_files/27156.got.cif
#   From: 2010.05.17/outbox.cif.g08.bks.cpg/sg13_14_cif.got.tgz:27156.got - 2010.06.03 16:44:36.
