data_PCOD9238703
_publ_section_title
;
Structure prediction by ZEFSAII (Michael W. Deem and Ramdas Pophale) SiO2 
 PCOD9238703
Probable space group: P 2/C
;
_chemical_formula_sum "Si O2"
_cell_formula_units_Z 16
_cell_length_a 4.965567
_cell_length_b 30.048252
_cell_length_c 4.982426
_cell_angle_alpha 90.000000
_cell_angle_beta 116.637868
_cell_angle_gamma 90.000000
_cell_volume 664.503848
_symmetry_space_group_name_H-M "P 2/C"
_symmetry_group_IT_number 13
_symmetry_cell_setting 'monoclinic'
loop_
_space_group_symop_operation_xyz
x,y,z
-x,y,1/2-z
-x,-y,-z
x,-y,1/2+z
loop_
_atom_site_type_symbol
_atom_site_label
_atom_site_fract_x
_atom_site_fract_y
_atom_site_fract_z
Si Si1 0.500000 0.098509 0.250000
Si Si2 0.500000 0.654441 0.250000
Si Si3 0.000000 0.218870 0.250000
Si Si4 0.500000 0.717769 0.750000
Si Si5 0.500000 0.467288 0.250000
Si Si6 0.500000 0.158652 0.750000
Si Si7 0.000000 0.594448 0.750000
Si Si8 0.000000 0.966812 0.750000
O O1 0.610063 0.129683 0.543150
O O2 0.729195 0.066341 0.197352
O O3 0.430346 0.686308 0.468008
O O4 0.777260 0.624167 0.470917
O O5 0.784086 0.250794 0.323310
O O6 0.223711 0.188331 0.522704
O O7 0.500000 0.500000 0.500000
O O8 0.210113 0.435972 0.155860
O O9 0.000000 0.000000 0.500000
#
# Coordination Sequence:
#
# PCOD9238703 Si02
#       8
#     2   2   2   2   2   2   2   2
#     4  12  27  47  76 111 151 200 253 313 378 453
#     4  12  30  52  80 115 155 202 257 317 382 456
#     4  12  30  52  80 114 156 204 256 318 384 456
#     4  12  30  52  80 115 155 204 257 317 384 456
#     4  12  28  50  78 114 154 202 254 314 380 454
#     4  12  29  51  78 115 155 202 257 317 382 455
#     4  12  29  52  80 115 156 204 256 317 382 454
#     4  12  25  46  74 109 150 198 250 311 378 450
#
# _framework density 24.078116999999999
#
# number of rings (size 3 to 8) (size 9 to 14) (size 15 to 20)
#    0.000    0.000    0.000    7.500    0.000   27.000 
#    0.000    0.000    0.000    0.000    0.000    0.000 
#    0.000    0.000    0.000    0.000    0.000    0.000 
#
# Total GULP energy -89839.638991 kJ/mol
# GULP energy per Si atom -5614.977437 kJ/mol
# Density = 2.402331 g / cm^3
# Si number density = 24.078117 Si / 1000 Ang^3
#
#
#
# Elastic Constant Matrix: (Units=GPa)
#
#
# Indices 1 2 3 4 5 6 
#
# 1 210.4978 123.5320 96.8646 0.0000 2.4979 0.0000
# 2 123.5320 213.9965 137.4057 0.0000 4.0013 0.0000
# 3 96.8646 137.4057 224.7968 0.0000 -11.3137 0.0000
# 4 0.0000 0.0000 0.0000 8.0394 0.0000 -14.1295
# 5 2.4979 4.0013 -11.3137 0.0000 56.5349 0.0000
# 6 0.0000 0.0000 0.0000 -14.1295 0.0000 39.8694
#
#
#
# Elastic Compliance Matrix: (Units=1/GPa)
#
#
# Indices 1 2 3 4 5 6 
#
# 1 0.007307 -0.003593 -0.000965 0.000000 -0.000262 0.000000
# 2 -0.003593 0.009587 -0.004382 0.000000 -0.001397 0.000000
# 3 -0.000965 -0.004382 0.007638 0.000000 0.001881 0.000000
# 4 0.000000 0.000000 0.000000 0.329822 0.000000 0.116887
# 5 -0.000262 -0.001397 0.001881 0.000000 0.018175 0.000000
# 6 0.000000 0.000000 0.000000 0.116887 0.000000 0.066506
#
#
# Mechanical properties :
#
#
# Convention : Reuss Voigt Hill
#
# Bulk Modulus (GPa) = 150.36974 151.65505 151.01240
# Shear Modulus (GPa) = 10.89013 40.32131 25.60572
#
# Velocity S-wave (km/s) = 2.12900 4.09663 3.26459
# Velocity P-wave (km/s) = 8.28432 9.24651 8.77860
#
# Compressibility (1/GPa) = 0.00665027
#
# Stress axis : x y z
#
# Youngs Moduli (GPa) = 136.86279 104.30938 130.93246
#
# Poissons Ratio (x) = 0.37479 0.12639
# Poissons Ratio (y) = 0.49176 0.57374
# Poissons Ratio (z) = 0.13211 0.45708
#
# Static dielectric constant tensor:
#      x y z
#    x 1.867490 0.000000 0.018790 
#    y 0.000000 1.912830 0.000000 
#    z 0.018790 0.000000 1.875080 
# 
# From -- ./inp_files/539.got.cif
#   From: 2010.05.17/outbox.cif.g08.bks.cpg/sg13_1_cif.got.tgz:539.got - 2010.06.03 16:44:36.
