data_PCOD9238702
_publ_section_title
;
Structure prediction by ZEFSAII (Michael W. Deem and Ramdas Pophale) SiO2 
 PCOD9238702
Probable space group: P 2/C
;
_chemical_formula_sum "Si O2"
_cell_formula_units_Z 10
_cell_length_a 4.920961
_cell_length_b 18.674240
_cell_length_c 4.955945
_cell_angle_alpha 90.000000
_cell_angle_beta 65.901760
_cell_angle_gamma 90.000000
_cell_volume 415.735582
_symmetry_space_group_name_H-M "P 2/C"
_symmetry_group_IT_number 13
_symmetry_cell_setting 'monoclinic'
loop_
_space_group_symop_operation_xyz
x,y,z
-x,y,1/2-z
-x,-y,-z
x,-y,1/2+z
loop_
_atom_site_type_symbol
_atom_site_label
_atom_site_fract_x
_atom_site_fract_y
_atom_site_fract_z
Si Si1 0.000000 0.053381 0.250000
Si Si2 0.500000 0.552773 0.750000
Si Si3 0.500000 0.745359 0.250000
Si Si4 0.000000 0.347719 0.250000
Si Si5 0.500000 0.158486 0.250000
O O1 0.271304 0.106658 0.191790
O O2 0.000000 0.000000 0.500000
O O3 0.500000 0.500000 0.500000
O O4 0.789962 0.602743 0.650431
O O5 0.615280 0.792015 0.458476
O O6 0.229661 0.699166 0.481638
#
# Coordination Sequence:
#
# PCOD9238702 Si02
#       5
#     2   2   2   2   2
#     4  12  25  46  74 108 149 198 250 310 374 446
#     4  12  28  50  78 112 152 200 254 314 378 452
#     4  12  29  51  78 115 155 202 254 316 382 454
#     4  12  29  52  80 114 155 202 254 316 382 454
#     4  12  27  47  76 111 151 198 252 312 376 450
#
# _framework density 24.053751999999999
#
# number of rings (size 3 to 8) (size 9 to 14) (size 15 to 20)
#    0.000    0.000    0.000    8.400    0.000   19.200 
#    0.000    0.000    0.000    0.000    0.000    0.000 
#    0.000    0.000    0.000    0.000    0.000    0.000 
#
# Total GULP energy -56110.873165 kJ/mol
# GULP energy per Si atom -5611.087317 kJ/mol
# Density = 2.399900 g / cm^3
# Si number density = 24.053752 Si / 1000 Ang^3
#
#
#
# Elastic Constant Matrix: (Units=GPa)
#
#
# Indices 1 2 3 4 5 6 
#
# 1 189.2951 100.8527 74.3085 0.0000 -2.6865 0.0000
# 2 100.8527 186.4266 119.9082 0.0000 -5.6511 0.0000
# 3 74.3085 119.9082 220.1634 0.0000 17.2151 0.0000
# 4 0.0000 0.0000 0.0000 18.3602 0.0000 6.7386
# 5 -2.6865 -5.6511 17.2151 0.0000 51.1389 0.0000
# 6 0.0000 0.0000 0.0000 6.7386 0.0000 51.7453
#
#
#
# Elastic Compliance Matrix: (Units=1/GPa)
#
#
# Indices 1 2 3 4 5 6 
#
# 1 0.007458 -0.003698 -0.000515 0.000000 0.000156 0.000000
# 2 -0.003698 0.010412 -0.004619 0.000000 0.002511 0.000000
# 3 -0.000515 -0.004619 0.007470 0.000000 -0.003052 0.000000
# 4 0.000000 0.000000 0.000000 0.057200 0.000000 -0.007449
# 5 0.000156 0.002511 -0.003052 0.000000 0.020868 0.000000
# 6 0.000000 0.000000 0.000000 -0.007449 0.000000 0.020295
#
#
# Mechanical properties :
#
#
# Convention : Reuss Voigt Hill
#
# Bulk Modulus (GPa) = 130.29011 131.78043 131.03527
# Shear Modulus (GPa) = 34.74055 44.30325 39.52190
#
# Velocity S-wave (km/s) = 3.80450 4.29633 4.05787
# Velocity P-wave (km/s) = 8.57804 8.91717 8.74925
#
# Compressibility (1/GPa) = 0.00767518
#
# Stress axis : x y z
#
# Youngs Moduli (GPa) = 134.09179 96.04758 133.86961
#
# Poissons Ratio (x) = 0.35522 0.06894
# Poissons Ratio (y) = 0.49592 0.61828
# Poissons Ratio (z) = 0.06906 0.44360
#
# Static dielectric constant tensor:
#      x y z
#    x 1.885560 0.000000 -0.030810 
#    y 0.000000 1.935300 0.000000 
#    z -0.030810 0.000000 1.877690 
# 
# From -- ./inp_files/171.got.cif
#   From: 2010.05.17/outbox.cif.g08.bks.cpg/sg13_1_cif.got.tgz:171.got - 2010.06.03 16:44:36.
