data_PCOD9238428
_publ_section_title
;
Structure prediction by ZEFSAII (Michael W. Deem and Ramdas Pophale) SiO2 
 PCOD9238428
Probable space group: P 2/C
;
_chemical_formula_sum "Si O2"
_cell_formula_units_Z 20
_cell_length_a 7.212160
_cell_length_b 4.834810
_cell_length_c 22.903782
_cell_angle_alpha 90.000000
_cell_angle_beta 67.068837
_cell_angle_gamma 90.000000
_cell_volume 735.527914
_symmetry_space_group_name_H-M "P 2/C"
_symmetry_group_IT_number 13
_symmetry_cell_setting 'monoclinic'
loop_
_space_group_symop_operation_xyz
x,y,z
-x,y,1/2-z
-x,-y,-z
x,-y,1/2+z
loop_
_atom_site_type_symbol
_atom_site_label
_atom_site_fract_x
_atom_site_fract_y
_atom_site_fract_z
Si Si1 0.083979 0.471259 0.652715
Si Si2 0.374688 0.679614 0.467263
Si Si3 0.597599 0.835078 0.617621
Si Si4 0.054571 0.966628 0.584812
Si Si5 0.665821 0.478252 0.770237
O O1 0.097870 0.283212 0.593836
O O2 0.860437 0.496297 0.705511
O O3 0.233200 0.359329 0.683669
O O4 0.131733 0.782514 0.629401
O O5 0.500000 0.500000 0.500000
O O6 0.473737 0.946487 0.423166
O O7 0.172732 0.824040 0.517275
O O8 0.346626 0.453833 0.420582
O O9 0.813902 0.944531 0.612301
O O10 0.449562 0.747677 0.688679
O O11 0.500000 0.334703 0.750000
#
# Coordination Sequence:
#
# PCOD9238428 Si02
#       5
#     4   4   4   4   4
#     4  11  27  50  79 116 157 206 259 327 396 469
#     4  12  27  48  78 119 160 207 265 331 396 477
#     4  12  26  48  81 115 155 214 266 322 402 474
#     4  12  25  52  77 114 158 205 260 323 397 474
#     4  11  26  52  78 116 156 206 266 326 391 465
#
# _framework density 27.191355000000001
#
# number of rings (size 3 to 8) (size 9 to 14) (size 15 to 20)
#    0.000    0.400    2.000    5.400    0.000    9.600 
#    0.000    0.000    0.000    0.000    0.000    0.000 
#    0.000    0.000    0.000    0.000    0.000    0.000 
#
# Total GULP energy -111928.072109 kJ/mol
# GULP energy per Si atom -5596.403605 kJ/mol
# Density = 2.712947 g / cm^3
# Si number density = 27.191355 Si / 1000 Ang^3
#
#
#
# Elastic Constant Matrix: (Units=GPa)
#
#
# Indices 1 2 3 4 5 6 
#
# 1 166.9847 59.5271 55.6720 0.0000 -18.2922 0.0000
# 2 59.5271 156.4143 53.2517 0.0000 -10.8317 0.0000
# 3 55.6720 53.2517 100.0573 0.0000 -18.2411 0.0000
# 4 0.0000 0.0000 0.0000 36.1331 0.0000 7.3000
# 5 -18.2922 -10.8317 -18.2411 0.0000 56.2533 0.0000
# 6 0.0000 0.0000 0.0000 7.3000 0.0000 37.6608
#
#
#
# Elastic Compliance Matrix: (Units=1/GPa)
#
#
# Indices 1 2 3 4 5 6 
#
# 1 0.007821 -0.001816 -0.003173 0.000000 0.001165 0.000000
# 2 -0.001816 0.008231 -0.003389 0.000000 -0.000105 0.000000
# 3 -0.003173 -0.003389 0.014090 0.000000 0.002884 0.000000
# 4 0.000000 0.000000 0.000000 0.028803 0.000000 -0.005583
# 5 0.001165 -0.000105 0.002884 0.000000 0.019071 0.000000
# 6 0.000000 0.000000 0.000000 -0.005583 0.000000 0.027635
#
#
# Mechanical properties :
#
#
# Convention : Reuss Voigt Hill
#
# Bulk Modulus (GPa) = 74.70850 84.48419 79.59634
# Shear Modulus (GPa) = 39.41068 43.00982 41.21025
#
# Velocity S-wave (km/s) = 3.81121 3.98143 3.89725
# Velocity P-wave (km/s) = 6.84849 7.23004 7.04185
#
# Compressibility (1/GPa) = 0.01338536
#
# Stress axis : x y z
#
# Youngs Moduli (GPa) = 127.85578 121.49242 70.97452
#
# Poissons Ratio (x) = 0.22058 0.22521
# Poissons Ratio (y) = 0.23214 0.24057
# Poissons Ratio (z) = 0.40571 0.41180
#
# Static dielectric constant tensor:
#      x y z
#    x 2.151740 0.000000 -0.012160 
#    y 0.000000 2.036930 0.000000 
#    z -0.012160 0.000000 2.164400 
# 
# From -- ./inp_files/90570.got.cif
#   From: 2010.05.17/outbox.cif.g08.bks.cpg/sg13_46_cif.got.tgz:90570.got - 2010.06.03 16:44:36.
