data_PCOD9238730
_publ_section_title
;
Structure prediction by ZEFSAII (Michael W. Deem and Ramdas Pophale) SiO2 
 PCOD9238730
Probable space group: P 2/C
;
_chemical_formula_sum "Si O2"
_cell_formula_units_Z 16
_cell_length_a 5.142366
_cell_length_b 16.686726
_cell_length_c 8.377052
_cell_angle_alpha 90.000000
_cell_angle_beta 115.648646
_cell_angle_gamma 90.000000
_cell_volume 647.999046
_symmetry_space_group_name_H-M "P 2/C"
_symmetry_group_IT_number 13
_symmetry_cell_setting 'monoclinic'
loop_
_space_group_symop_operation_xyz
x,y,z
-x,y,1/2-z
-x,-y,-z
x,-y,1/2+z
loop_
_atom_site_type_symbol
_atom_site_label
_atom_site_fract_x
_atom_site_fract_y
_atom_site_fract_z
Si Si1 0.567495 0.588308 0.454958
Si Si2 0.000000 0.194569 0.750000
Si Si3 0.000000 0.807675 0.750000
Si Si4 0.898499 0.685397 0.968885
Si Si5 0.496606 0.908637 0.554639
O O1 0.500000 0.589624 0.250000
O O2 0.500000 0.500000 0.500000
O O3 0.361935 0.647429 0.501507
O O4 0.898565 0.616577 0.548918
O O5 0.089595 0.257962 0.636416
O O6 0.755868 0.139490 0.603396
O O7 0.183559 0.747598 0.690512
O O8 0.205392 0.864220 0.907380
O O9 0.500000 0.907376 0.750000
O O10 0.500000 0.000000 0.500000
#
# Coordination Sequence:
#
# PCOD9238730 Si02
#       5
#     4   2   2   4   4
#     4  12  27  48  76 114 159 212 266 334 411 485
#     4  12  25  52  81 112 160 214 272 340 397 482
#     4  12  29  48  81 118 158 212 278 332 405 488
#     4  12  27  48  81 114 159 212 273 336 403 480
#     4  12  29  50  77 117 162 214 269 337 410 489
#
# _framework density 24.691396000000001
#
# number of rings (size 3 to 8) (size 9 to 14) (size 15 to 20)
#    0.000    0.000    5.000    3.000    7.000    2.000 
#    0.000    0.000    0.000    0.000    0.000    0.000 
#    0.000    0.000    0.000    0.000    0.000    0.000 
#
# Total GULP energy -89608.139619 kJ/mol
# GULP energy per Si atom -5600.508726 kJ/mol
# Density = 2.463520 g / cm^3
# Si number density = 24.691396 Si / 1000 Ang^3
#
#
#
# Elastic Constant Matrix: (Units=GPa)
#
#
# Indices 1 2 3 4 5 6 
#
# 1 140.9904 61.0016 46.2763 0.0000 -5.7504 0.0000
# 2 61.0016 181.1186 65.7480 0.0000 -4.7226 0.0000
# 3 46.2763 65.7480 121.0419 0.0000 7.9012 0.0000
# 4 0.0000 0.0000 0.0000 44.1662 0.0000 -1.1680
# 5 -5.7504 -4.7226 7.9012 0.0000 46.2116 0.0000
# 6 0.0000 0.0000 0.0000 -1.1680 0.0000 42.0228
#
#
#
# Elastic Compliance Matrix: (Units=1/GPa)
#
#
# Indices 1 2 3 4 5 6 
#
# 1 0.008810 -0.002094 -0.002314 0.000000 0.001278 0.000000
# 2 -0.002094 0.007460 -0.003322 0.000000 0.001070 0.000000
# 3 -0.002314 -0.003322 0.011116 0.000000 -0.002528 0.000000
# 4 0.000000 0.000000 0.000000 0.022658 0.000000 0.000630
# 5 0.001278 0.001070 -0.002528 0.000000 0.022340 0.000000
# 6 0.000000 0.000000 0.000000 0.000630 0.000000 0.023814
#
#
# Mechanical properties :
#
#
# Convention : Reuss Voigt Hill
#
# Bulk Modulus (GPa) = 83.84677 87.68918 85.76798
# Shear Modulus (GPa) = 43.23985 44.48845 43.86415
#
# Velocity S-wave (km/s) = 4.18929 4.24934 4.21942
# Velocity P-wave (km/s) = 7.57838 7.72444 7.65176
#
# Compressibility (1/GPa) = 0.01192652
#
# Stress axis : x y z
#
# Youngs Moduli (GPa) = 113.50205 134.04615 89.96323
#
# Poissons Ratio (x) = 0.28068 0.20821
# Poissons Ratio (y) = 0.23766 0.29881
# Poissons Ratio (z) = 0.26269 0.44524
#
# Static dielectric constant tensor:
#      x y z
#    x 1.996850 0.000000 -0.040020 
#    y 0.000000 1.892960 0.000000 
#    z -0.040020 0.000000 2.045090 
# 
# From -- ./inp_files/9002.got.cif
#   From: 2010.05.17/outbox.cif.g08.bks.cpg/sg13_5_cif.got.tgz:9002.got - 2010.06.03 16:44:36.
