data_PCOD9238566
_publ_section_title
;
Structure prediction by ZEFSAII (Michael W. Deem and Ramdas Pophale) SiO2 
 PCOD9238566
Probable space group: P 2/C
;
_chemical_formula_sum "Si O2"
_cell_formula_units_Z 24
_cell_length_a 10.721270
_cell_length_b 11.716181
_cell_length_c 8.855791
_cell_angle_alpha 90.000000
_cell_angle_beta 77.312885
_cell_angle_gamma 90.000000
_cell_volume 1085.236308
_symmetry_space_group_name_H-M "P 2/C"
_symmetry_group_IT_number 13
_symmetry_cell_setting 'monoclinic'
loop_
_space_group_symop_operation_xyz
x,y,z
-x,y,1/2-z
-x,-y,-z
x,-y,1/2+z
loop_
_atom_site_type_symbol
_atom_site_label
_atom_site_fract_x
_atom_site_fract_y
_atom_site_fract_z
Si Si1 0.764453 0.819367 0.215795
Si Si2 0.097766 0.948192 0.852620
Si Si3 0.500000 0.500000 0.000000
Si Si4 0.165276 0.279837 0.487785
Si Si5 0.246163 0.547405 0.762431
Si Si6 0.883278 0.357119 0.496856
Si Si7 0.500000 0.303445 0.750000
O O1 0.827351 0.754171 0.341094
O O2 0.826066 0.767337 0.047849
O O3 0.618610 0.779832 0.255953
O O4 0.804381 0.951231 0.218455
O O5 0.167795 0.838100 0.897517
O O6 0.000000 0.911233 0.750000
O O7 0.000000 0.000000 0.000000
O O8 0.375824 0.479775 0.142189
O O9 0.534063 0.616240 0.096973
O O10 0.272870 0.363718 0.392574
O O11 0.033456 0.345926 0.488905
O O12 0.181572 0.441034 0.863492
O O13 0.153327 0.599606 0.659217
#
# Coordination Sequence:
#
# PCOD9238566 Si02
#       7
#     4   4   2   4   4   4   2
#     4  12  25  47  71 106 140 193 244 300 357 433
#     4  12  23  45  77 109 146 190 239 300 375 438
#     4  12  24  48  70 100 138 206 236 290 358 444
#     4  12  27  44  74 110 147 189 238 302 374 432
#     4  12  25  42  70 107 147 189 242 293 363 439
#     4  12  23  44  68 107 150 183 234 302 370 436
#     4  12  28  48  74  98 150 192 250 294 352 440
#
# _framework density 22.114999000000001
#
# number of rings (size 3 to 8) (size 9 to 14) (size 15 to 20)
#    0.000    0.000    6.667    3.500    2.333    1.333 
#    0.000    0.833    0.000    0.000    0.000    0.000 
#    0.000    0.000    0.000    0.000    0.000    0.000 
#
# Total GULP energy -133894.174559 kJ/mol
# GULP energy per Si atom -5578.923940 kJ/mol
# Density = 2.206466 g / cm^3
# Si number density = 22.114999 Si / 1000 Ang^3
#
#
#
# Elastic Constant Matrix: (Units=GPa)
#
#
# Indices 1 2 3 4 5 6 
#
# 1 73.1946 21.9290 14.7409 0.0000 -13.8825 0.0000
# 2 21.9290 133.1099 39.9973 0.0000 -7.3290 0.0000
# 3 14.7409 39.9973 100.7400 0.0000 -15.1937 0.0000
# 4 0.0000 0.0000 0.0000 44.1948 0.0000 2.0571
# 5 -13.8825 -7.3290 -15.1937 0.0000 38.8908 0.0000
# 6 0.0000 0.0000 0.0000 2.0571 0.0000 20.9281
#
#
#
# Elastic Compliance Matrix: (Units=1/GPa)
#
#
# Indices 1 2 3 4 5 6 
#
# 1 0.015330 -0.002049 -0.000704 0.000000 0.004811 0.000000
# 2 -0.002049 0.008808 -0.003248 0.000000 -0.000341 0.000000
# 3 -0.000704 -0.003248 0.011890 0.000000 0.003782 0.000000
# 4 0.000000 0.000000 0.000000 0.022731 0.000000 -0.002234
# 5 0.004811 -0.000341 0.003782 0.000000 0.028844 0.000000
# 6 0.000000 0.000000 0.000000 -0.002234 0.000000 0.048002
#
#
# Mechanical properties :
#
#
# Convention : Reuss Voigt Hill
#
# Bulk Modulus (GPa) = 41.62448 51.15322 46.38885
# Shear Modulus (GPa) = 32.13040 36.16121 34.14581
#
# Velocity S-wave (km/s) = 3.81580 4.04808 3.93365
# Velocity P-wave (km/s) = 6.18680 6.71044 6.45393
#
# Compressibility (1/GPa) = 0.02402432
#
# Stress axis : x y z
#
# Youngs Moduli (GPa) = 65.22980 113.53948 84.10683
#
# Poissons Ratio (x) = 0.23266 0.05921
# Poissons Ratio (y) = 0.13366 0.27322
# Poissons Ratio (z) = 0.04592 0.36883
#
# Static dielectric constant tensor:
#      x y z
#    x 1.864790 0.000000 0.055660 
#    y 0.000000 1.837950 0.000000 
#    z 0.055660 0.000000 1.863720 
# 
# From -- ./inp_files/15822.got.cif
#   From: 2010.05.17/outbox.cif.g08.bks.cpg/sg13_8_cif.got.tgz:15822.got - 2010.06.03 16:44:36.
