data_PCOD9238033
_publ_section_title
;
Structure prediction by ZEFSAII (Michael W. Deem and Ramdas Pophale) SiO2 
 PCOD9238033
Probable space group: P 2/C
;
_chemical_formula_sum "Si O2"
_cell_formula_units_Z 18
_cell_length_a 6.296285
_cell_length_b 7.014339
_cell_length_c 18.962233
_cell_angle_alpha 90.000000
_cell_angle_beta 103.424788
_cell_angle_gamma 90.000000
_cell_volume 814.570347
_symmetry_space_group_name_H-M "P 2/C"
_symmetry_group_IT_number 13
_symmetry_cell_setting 'monoclinic'
loop_
_space_group_symop_operation_xyz
x,y,z
-x,y,1/2-z
-x,-y,-z
x,-y,1/2+z
loop_
_atom_site_type_symbol
_atom_site_label
_atom_site_fract_x
_atom_site_fract_y
_atom_site_fract_z
Si Si1 0.084420 0.688678 0.183388
Si Si2 0.500000 0.942986 0.250000
Si Si3 0.574326 0.792246 0.529599
Si Si4 0.831751 0.070435 0.172496
Si Si5 0.226717 0.497195 0.058102
O O1 0.301619 0.810597 0.212304
O O2 0.153991 0.535854 0.131913
O O3 0.000000 0.601499 0.250000
O O4 0.907893 0.857173 0.153032
O O5 0.597756 0.061118 0.193207
O O6 0.781727 0.807206 0.599127
O O7 0.636777 0.672390 0.465014
O O8 0.375767 0.684430 0.553300
O O9 0.500000 0.000000 0.500000
O O10 0.000000 0.121209 0.250000
O O11 0.000000 0.500000 0.000000
#
# Coordination Sequence:
#
# PCOD9238033 Si02
#       5
#     4   2   4   4   4
#     4   9  19  37  63  90 124 165 209 262 324 386
#     4   8  16  34  62  90 122 164 210 260 320 382
#     4  11  24  42  67  94 130 174 218 269 327 388
#     4   9  19  36  62  94 126 168 219 267 327 390
#     4  11  25  42  63  96 129 166 219 268 322 390
#
# _framework density 22.097536000000002
#
# number of rings (size 3 to 8) (size 9 to 14) (size 15 to 20)
#    0.000    2.667    0.000    2.667    0.000   12.444 
#    0.000    6.667    0.000    6.667    0.000    0.000 
#    0.000    0.000    0.000    0.000    0.000    0.000 
#
# Total GULP energy -100424.068355 kJ/mol
# GULP energy per Si atom -5579.114909 kJ/mol
# Density = 2.204724 g / cm^3
# Si number density = 22.097536 Si / 1000 Ang^3
#
#
#
# Elastic Constant Matrix: (Units=GPa)
#
#
# Indices 1 2 3 4 5 6 
#
# 1 121.1781 47.9682 47.6548 0.0000 -23.8261 0.0000
# 2 47.9682 115.5133 49.5328 0.0000 -10.2785 0.0000
# 3 47.6548 49.5328 118.8094 0.0000 -21.7650 0.0000
# 4 0.0000 0.0000 0.0000 31.5184 0.0000 -2.1826
# 5 -23.8261 -10.2785 -21.7650 0.0000 41.3517 0.0000
# 6 0.0000 0.0000 0.0000 -2.1826 0.0000 16.3704
#
#
#
# Elastic Compliance Matrix: (Units=1/GPa)
#
#
# Indices 1 2 3 4 5 6 
#
# 1 0.011374 -0.003312 -0.002359 0.000000 0.004488 0.000000
# 2 -0.003312 0.011510 -0.003647 0.000000 -0.000967 0.000000
# 3 -0.002359 -0.003647 0.011586 0.000000 0.003832 0.000000
# 4 0.000000 0.000000 0.000000 0.032023 0.000000 0.004270
# 5 0.004488 -0.000967 0.003832 0.000000 0.028546 0.000000
# 6 0.000000 0.000000 0.000000 0.004270 0.000000 0.061655
#
#
# Mechanical properties :
#
#
# Convention : Reuss Voigt Hill
#
# Bulk Modulus (GPa) = 63.16022 71.75694 67.45858
# Shear Modulus (GPa) = 27.68424 31.87110 29.77767
#
# Velocity S-wave (km/s) = 3.54336 3.80187 3.67489
# Velocity P-wave (km/s) = 6.73684 7.19831 6.97139
#
# Compressibility (1/GPa) = 0.01583275
#
# Stress axis : x y z
#
# Youngs Moduli (GPa) = 87.92300 86.87789 86.31329
#
# Poissons Ratio (x) = 0.28775 0.20360
# Poissons Ratio (y) = 0.29121 0.31483
# Poissons Ratio (z) = 0.20740 0.31688
#
# Static dielectric constant tensor:
#      x y z
#    x 1.808390 0.000000 -0.019190 
#    y 0.000000 1.857050 0.000000 
#    z -0.019190 0.000000 1.914990 
# 
# From -- ./inp_files/72838.got.cif
#   From: 2010.05.17/outbox.cif.g08.bks.cpg/sg13_37_cif.got.tgz:72838.got - 2010.06.03 16:44:36.
