data_PCOD9238412
_publ_section_title
;
Structure prediction by ZEFSAII (Michael W. Deem and Ramdas Pophale) SiO2 
 PCOD9238412
Probable space group: P 2/C
;
_chemical_formula_sum "Si O2"
_cell_formula_units_Z 22
_cell_length_a 13.925777
_cell_length_b 12.462732
_cell_length_c 10.984530
_cell_angle_alpha 90.000000
_cell_angle_beta 149.128763
_cell_angle_gamma 90.000000
_cell_volume 978.194046
_symmetry_space_group_name_H-M "P 2/C"
_symmetry_group_IT_number 13
_symmetry_cell_setting 'monoclinic'
loop_
_space_group_symop_operation_xyz
x,y,z
-x,y,1/2-z
-x,-y,-z
x,-y,1/2+z
loop_
_atom_site_type_symbol
_atom_site_label
_atom_site_fract_x
_atom_site_fract_y
_atom_site_fract_z
Si Si1 0.404023 0.117672 0.916856
Si Si2 0.883950 0.979844 0.249163
Si Si3 0.798330 0.482802 0.841407
Si Si4 0.000000 0.349942 0.250000
Si Si5 0.520611 0.338350 0.127002
Si Si6 0.290709 0.810479 0.033370
O O1 0.260690 0.113060 0.873994
O O2 0.284784 0.152433 0.668086
O O3 0.536158 0.218137 0.090036
O O4 0.500000 0.000000 0.000000
O O5 0.000000 0.965107 0.250000
O O6 0.000000 0.000000 0.500000
O O7 0.749453 0.081741 0.082336
O O8 0.662786 0.403155 0.619945
O O9 0.691082 0.590841 0.760386
O O10 0.849778 0.421061 0.019876
O O11 0.000000 0.500000 0.000000
O O12 0.131114 0.270059 0.317162
O O13 0.500000 0.335779 0.250000
O O14 0.500000 0.767111 0.250000
#
# Coordination Sequence:
#
# PCOD9238412 Si02
#       6
#     4   4   4   2   4   4
#     4  12  26  47  73 111 155 211 255 313 391 469
#     4  12  25  44  70 108 161 201 260 319 383 470
#     4  11  26  48  79 108 142 194 256 323 393 461
#     4  12  24  46  76 110 146 190 258 320 394 464
#     4  11  27  50  73 111 155 198 254 322 395 468
#     4  12  25  44  75 111 148 203 259 315 389 469
#
# _framework density 22.490425999999999
#
# number of rings (size 3 to 8) (size 9 to 14) (size 15 to 20)
#    0.000    0.364    6.364    1.091    5.091    0.727 
#    3.273    0.000    0.000    0.000    0.000    0.000 
#    0.000    0.000    0.000    0.000    0.000    0.000 
#
# Total GULP energy -122882.597928 kJ/mol
# GULP energy per Si atom -5585.572633 kJ/mol
# Density = 2.243924 g / cm^3
# Si number density = 22.490426 Si / 1000 Ang^3
#
#
#
# Elastic Constant Matrix: (Units=GPa)
#
#
# Indices 1 2 3 4 5 6 
#
# 1 121.2040 47.9072 35.6631 0.0000 10.6736 0.0000
# 2 47.9072 135.2784 48.6589 0.0000 3.5344 0.0000
# 3 35.6631 48.6589 114.3088 0.0000 -0.1655 0.0000
# 4 0.0000 0.0000 0.0000 31.1809 0.0000 7.0496
# 5 10.6736 3.5344 -0.1655 0.0000 52.4226 0.0000
# 6 0.0000 0.0000 0.0000 7.0496 0.0000 23.5882
#
#
#
# Elastic Compliance Matrix: (Units=1/GPa)
#
#
# Indices 1 2 3 4 5 6 
#
# 1 0.010108 -0.002828 -0.001952 0.000000 -0.001874 0.000000
# 2 -0.002828 0.009539 -0.003178 0.000000 -0.000077 0.000000
# 3 -0.001952 -0.003178 0.010711 0.000000 0.000646 0.000000
# 4 0.000000 0.000000 0.000000 0.034395 0.000000 -0.010279
# 5 -0.001874 -0.000077 0.000646 0.000000 0.019464 0.000000
# 6 0.000000 0.000000 0.000000 -0.010279 0.000000 0.045466
#
#
# Mechanical properties :
#
#
# Convention : Reuss Voigt Hill
#
# Bulk Modulus (GPa) = 69.25090 70.58329 69.91709
# Shear Modulus (GPa) = 33.24136 37.34247 35.29191
#
# Velocity S-wave (km/s) = 3.84868 4.07919 3.96561
# Velocity P-wave (km/s) = 7.11392 7.32381 7.21963
#
# Compressibility (1/GPa) = 0.01444025
#
# Stress axis : x y z
#
# Youngs Moduli (GPa) = 98.93204 104.83245 93.36049
#
# Poissons Ratio (x) = 0.29651 0.18227
# Poissons Ratio (y) = 0.27982 0.29672
# Poissons Ratio (z) = 0.19314 0.33318
#
# Static dielectric constant tensor:
#      x y z
#    x 0.945950 0.000000 0.241640 
#    y 0.000000 1.954540 0.000000 
#    z 0.241640 0.000000 1.778770 
# 
# From -- ./inp_files/37259.got.cif
#   From: 2010.05.17/outbox.cif.g08.bks.cpg/sg13_19_cif.got.tgz:37259.got - 2010.06.03 16:44:36.
