data_PCOD9238878
_publ_section_title
;
Structure prediction by ZEFSAII (Michael W. Deem and Ramdas Pophale) SiO2 
 PCOD9238878
Probable space group: P 2/C
;
_chemical_formula_sum "Si O2"
_cell_formula_units_Z 26
_cell_length_a 18.000000
_cell_length_b 9.000000
_cell_length_c 24.000000
_cell_angle_alpha 90.000000
_cell_angle_beta 20.000000
_cell_angle_gamma 90.000000
_cell_volume 1329.774317
_symmetry_space_group_name_H-M "P 2/C"
_symmetry_group_IT_number 13
_symmetry_cell_setting 'monoclinic'
loop_
_space_group_symop_operation_xyz
x,y,z
-x,y,1/2-z
-x,-y,-z
x,-y,1/2+z
loop_
_atom_site_type_symbol
_atom_site_label
_atom_site_fract_x
_atom_site_fract_y
_atom_site_fract_z
Si Si1 0.922568 0.781567 0.508426
Si Si2 0.500000 0.145064 0.250000
Si Si3 0.200211 0.072499 0.294993
Si Si4 0.316297 0.706433 0.620454
Si Si5 0.000000 0.277722 0.750000
Si Si6 0.665257 0.028069 0.022714
Si Si7 0.202059 0.382637 0.726158
Si Si8 0.000000 0.784366 0.750000
O O1 0.682189 0.763379 0.653403
O O2 0.895134 0.806723 0.593688
O O3 0.064647 0.660157 0.377255
O O4 0.032444 0.937098 0.411255
O O5 0.613103 0.046810 0.123853
O O6 0.240869 0.150720 0.207940
O O7 0.434107 0.018138 0.153980
O O8 0.274808 0.552494 0.681101
O O9 0.574944 0.713086 0.429436
O O10 0.158371 0.695056 0.678783
O O11 0.924070 0.355072 0.744510
O O12 0.204536 0.173088 0.590099
O O13 0.827416 0.891950 0.901366
#
# Coordination Sequence:
#
# PCOD9238878 Si02
#       8
#     4   2   4   4   2   4   4   2
#     4  10  21  36  59  85 118 151 198 241 292 340
#     4  10  18  34  54  88 112 150 190 242 284 354
#     4  10  21  38  59  89 115 153 194 250 291 350
#     4  11  24  39  59  85 122 155 197 239 298 349
#     4  11  19  36  58  90 112 156 192 244 280 356
#     4  10  20  33  60  88 114 147 195 242 295 340
#     4  11  23  39  60  86 119 161 193 243 289 355
#     4  11  23  38  56  90 120 152 190 252 294 350
#
# _framework density 19.55219
#
# number of rings (size 3 to 8) (size 9 to 14) (size 15 to 20)
#    0.000    1.538    3.077    2.308    2.154    1.846 
#    0.000    0.000    0.000    7.385    0.000    0.000 
#    0.000    0.000    0.000    0.000    0.000    0.000 
#
# Total GULP energy -144950.963410 kJ/mol
# GULP energy per Si atom -5575.037054 kJ/mol
# Density = 1.950769 g / cm^3
# Si number density = 19.552190 Si / 1000 Ang^3
#
#
#
# Elastic Constant Matrix: (Units=GPa)
#
#
# Indices 1 2 3 4 5 6 
#
# 1 38.8929 -18.4129 5.2184 0.0000 -21.2163 0.0000
# 2 -18.4129 12.6530 1.4382 0.0000 5.8919 0.0000
# 3 5.2184 1.4382 91.6703 0.0000 1.1095 0.0000
# 4 0.0000 0.0000 0.0000 14.9480 0.0000 5.1585
# 5 -21.2163 5.8919 1.1095 0.0000 31.1498 0.0000
# 6 0.0000 0.0000 0.0000 5.1585 0.0000 21.0360
#
#
#
# Elastic Compliance Matrix: (Units=1/GPa)
#
#
# Indices 1 2 3 4 5 6 
#
# 1 0.170776 0.214618 -0.014011 0.000000 0.076221 0.000000
# 2 0.214618 0.356504 -0.018772 0.000000 0.079414 0.000000
# 3 -0.014011 -0.018772 0.012079 0.000000 -0.006423 0.000000
# 4 0.000000 0.000000 0.000000 0.073083 0.000000 -0.017922
# 5 0.076221 0.079414 -0.006423 0.000000 0.069226 0.000000
# 6 0.000000 0.000000 0.000000 -0.017922 0.000000 0.051932
#
#
# Mechanical properties :
#
#
# Convention : Reuss Voigt Hill
#
# Bulk Modulus (GPa) = 1.10739 13.30040 7.20389
# Shear Modulus (GPa) = 7.45224 23.75826 15.60525
#
# Velocity S-wave (km/s) = 1.95441 3.48964 2.82819
# Velocity P-wave (km/s) = 2.37920 4.80146 3.78910
#
# Compressibility (1/GPa) = 0.90302814
#
# Stress axis : x y z
#
# Youngs Moduli (GPa) = 5.85561 2.80502 82.79170
#
# Poissons Ratio (x) = -0.60201 1.16002
# Poissons Ratio (y) = -1.25672 1.55414
# Poissons Ratio (z) = 0.08204 0.05265
#
# Static dielectric constant tensor:
#      x y z
#    x 1.677380 0.000000 -0.005480 
#    y 0.000000 1.694880 0.000000 
#    z -0.005480 0.000000 1.676590 
# 
# From -- ./inp_files/63425.got.cif
#   From: 2010.05.17/outbox.ucp.g08.bks.cvg/sg13_32_cif.got.tgz:63425.got - 2010.06.11 12:23:55.
