data_PCOD9238067
_publ_section_title
;
Structure prediction by ZEFSAII (Michael W. Deem and Ramdas Pophale) SiO2 
 PCOD9238067
Probable space group: P 2/C
;
_chemical_formula_sum "Si O2"
_cell_formula_units_Z 16
_cell_length_a 27.267281
_cell_length_b 5.190927
_cell_length_c 27.709355
_cell_angle_alpha 90.000000
_cell_angle_beta 10.248330
_cell_angle_gamma 90.000000
_cell_volume 697.791064
_symmetry_space_group_name_H-M "P 2/C"
_symmetry_group_IT_number 13
_symmetry_cell_setting 'monoclinic'
loop_
_space_group_symop_operation_xyz
x,y,z
-x,y,1/2-z
-x,-y,-z
x,-y,1/2+z
loop_
_atom_site_type_symbol
_atom_site_label
_atom_site_fract_x
_atom_site_fract_y
_atom_site_fract_z
Si Si1 0.753078 0.187028 0.746922
Si Si2 0.912738 0.500003 0.999997
Si Si3 0.284150 0.999994 0.000000
Si Si4 0.653072 0.500005 0.000004
O O1 0.755738 0.346885 0.695067
O O2 0.854128 0.346889 0.695066
O O3 0.000000 0.000000 0.500000
O O4 0.500000 0.000000 0.000000
O O5 0.114745 0.604052 0.762613
O O6 0.639978 0.395956 0.237378
O O7 0.000000 0.080423 0.250000
O O8 0.500000 0.919564 0.750000
O O9 0.229650 0.750328 0.086150
O O10 0.401952 0.249660 0.913848
#
# Coordination Sequence:
#
# PCOD9238067 Si02
#       4
#     4   4   4   4
#     4  11  24  43  70  95 151 188 236 295 354 423
#     4  11  26  43  66 111 136 191 242 293 356 425
#     4  12  26  48  72 103 140 183 232 300 374 432
#     4  12  26  44  76 103 142 183 242 296 354 446
#
# _framework density 22.929497999999999
#
# number of rings (size 3 to 8) (size 9 to 14) (size 15 to 20)
#    0.000    0.500    0.000    7.500   10.500    4.000 
#    0.000    0.000    0.000    0.000    0.000    0.000 
#    0.000    0.000    0.000    0.000    0.000    0.000 
#
# Total GULP energy -89235.112988 kJ/mol
# GULP energy per Si atom -5577.194562 kJ/mol
# Density = 2.287731 g / cm^3
# Si number density = 22.929498 Si / 1000 Ang^3
#
#
#
# Elastic Constant Matrix: (Units=GPa)
#
#
# Indices 1 2 3 4 5 6 
#
# 1 88.8858 33.0957 32.8765 0.0000 -1.9793 0.0000
# 2 33.0957 96.3283 8.7782 0.0000 1.0443 0.0000
# 3 32.8765 8.7782 170.5477 0.0000 -1.5285 0.0000
# 4 0.0000 0.0000 0.0000 50.7339 0.0000 -0.3171
# 5 -1.9793 1.0443 -1.5285 0.0000 51.0235 0.0000
# 6 0.0000 0.0000 0.0000 -0.3171 0.0000 43.3639
#
#
#
# Elastic Compliance Matrix: (Units=1/GPa)
#
#
# Indices 1 2 3 4 5 6 
#
# 1 0.013854 -0.004544 -0.002432 0.000000 0.000558 0.000000
# 2 -0.004544 0.011923 0.000259 0.000000 -0.000413 0.000000
# 3 -0.002432 0.000259 0.006320 0.000000 0.000090 0.000000
# 4 0.000000 0.000000 0.000000 0.019712 0.000000 0.000144
# 5 0.000558 -0.000413 0.000090 0.000000 0.019632 0.000000
# 6 0.000000 0.000000 0.000000 0.000144 0.000000 0.023062
#
#
# Mechanical properties :
#
#
# Convention : Reuss Voigt Hill
#
# Bulk Modulus (GPa) = 53.58395 56.14030 54.86212
# Shear Modulus (GPa) = 43.79886 47.75836 45.77861
#
# Velocity S-wave (km/s) = 4.37527 4.56876 4.47306
# Velocity P-wave (km/s) = 6.99598 7.23660 7.11731
#
# Compressibility (1/GPa) = 0.01866230
#
# Stress axis : x y z
#
# Youngs Moduli (GPa) = 72.17966 83.86871 158.23452
#
# Poissons Ratio (x) = 0.38113 0.38479
# Poissons Ratio (y) = 0.32801 -0.04092
# Poissons Ratio (z) = 0.17553 -0.02169
#
# Static dielectric constant tensor:
#      x y z
#    x 1.685840 0.000000 -0.005920 
#    y 0.000000 1.888100 0.000000 
#    z -0.005920 0.000000 1.823750 
# 
# From -- ./inp_files/89860.got.cif
#   From: 2010.05.17/outbox.cif.g08.bks.cpg/sg13_45_cif.got.tgz:89860.got - 2010.06.03 16:44:36.
