data_PCOD9238098
_publ_section_title
;
Structure prediction by ZEFSAII (Michael W. Deem and Ramdas Pophale) SiO2 
 PCOD9238098
Probable space group: P 2/C
;
_chemical_formula_sum "Si O2"
_cell_formula_units_Z 16
_cell_length_a 9.892101
_cell_length_b 4.861932
_cell_length_c 20.166529
_cell_angle_alpha 90.000000
_cell_angle_beta 133.795512
_cell_angle_gamma 90.000000
_cell_volume 700.090436
_symmetry_space_group_name_H-M "P 2/C"
_symmetry_group_IT_number 13
_symmetry_cell_setting 'monoclinic'
loop_
_space_group_symop_operation_xyz
x,y,z
-x,y,1/2-z
-x,-y,-z
x,-y,1/2+z
loop_
_atom_site_type_symbol
_atom_site_label
_atom_site_fract_x
_atom_site_fract_y
_atom_site_fract_z
Si Si1 0.651929 0.981834 0.249897
Si Si2 0.009798 0.761786 0.554716
Si Si3 0.664729 0.779867 0.535551
Si Si4 0.626567 0.470346 0.152000
O O1 0.500000 0.870589 0.250000
O O2 0.560512 0.211304 0.172120
O O3 0.804748 0.168310 0.339579
O O4 0.709902 0.720540 0.223990
O O5 0.843508 0.827235 0.550336
O O6 0.000000 0.500000 0.500000
O O7 0.000000 0.000000 0.500000
O O8 0.550071 0.578016 0.448843
O O9 0.745963 0.652423 0.631585
O O10 0.500000 0.000000 0.500000
#
# Coordination Sequence:
#
# PCOD9238098 Si02
#       4
#     4   4   4   4
#     4  12  24  45  71 105 142 185 236 297 359 429
#     4  12  28  47  73 107 147 191 248 299 367 441
#     4  11  25  48  74 104 145 193 239 300 368 436
#     4  11  24  44  72 100 141 186 237 287 365 426
#
# _framework density 22.854192000000001
#
# number of rings (size 3 to 8) (size 9 to 14) (size 15 to 20)
#    0.000    0.500    2.500    5.250    7.000    1.000 
#    4.500    0.000    0.000    0.000    0.000    0.000 
#    0.000    0.000    0.000    0.000    0.000    0.000 
#
# Total GULP energy -89071.649302 kJ/mol
# GULP energy per Si atom -5566.978081 kJ/mol
# Density = 2.280217 g / cm^3
# Si number density = 22.854192 Si / 1000 Ang^3
#
#
#
# Elastic Constant Matrix: (Units=GPa)
#
#
# Indices 1 2 3 4 5 6 
#
# 1 192.3702 57.4467 53.9442 0.0000 -26.3239 0.0000
# 2 57.4467 164.8755 47.9939 0.0000 -29.1096 0.0000
# 3 53.9442 47.9939 94.6451 0.0000 -29.6769 0.0000
# 4 0.0000 0.0000 0.0000 47.3403 0.0000 -19.0773
# 5 -26.3239 -29.1096 -29.6769 0.0000 33.2509 0.0000
# 6 0.0000 0.0000 0.0000 -19.0773 0.0000 27.4049
#
#
#
# Elastic Compliance Matrix: (Units=1/GPa)
#
#
# Indices 1 2 3 4 5 6 
#
# 1 0.006520 -0.001211 -0.002522 0.000000 0.001851 0.000000
# 2 -0.001211 0.007785 -0.001973 0.000000 0.004095 0.000000
# 3 -0.002522 -0.001973 0.016436 0.000000 0.010945 0.000000
# 4 0.000000 0.000000 0.000000 0.029360 0.000000 0.020438
# 5 0.001851 0.004095 0.010945 0.000000 0.044894 0.000000
# 6 0.000000 0.000000 0.000000 0.020438 0.000000 0.050717
#
#
# Mechanical properties :
#
#
# Convention : Reuss Voigt Hill
#
# Bulk Modulus (GPa) = 51.73687 85.62893 68.68290
# Shear Modulus (GPa) = 28.80741 41.09963 34.95352
#
# Velocity S-wave (km/s) = 3.55419 4.24529 3.91501
# Velocity P-wave (km/s) = 6.28728 7.84721 7.11016
#
# Compressibility (1/GPa) = 0.01932858
#
# Stress axis : x y z
#
# Youngs Moduli (GPa) = 153.36430 128.46023 60.84304
#
# Poissons Ratio (x) = 0.15556 0.15344
# Poissons Ratio (y) = 0.18572 0.12005
# Poissons Ratio (z) = 0.38677 0.25348
#
# Static dielectric constant tensor:
#      x y z
#    x 2.114070 0.000000 -0.076120 
#    y 0.000000 1.895930 0.000000 
#    z -0.076120 0.000000 1.846540 
# 
# From -- ./inp_files/62235.got.cif
#   From: 2010.05.17/outbox.cif.g08.bks.cpg/sg13_32_cif.got.tgz:62235.got - 2010.06.03 16:44:36.
