data_PCOD9238768
_publ_section_title
;
Structure prediction by ZEFSAII (Michael W. Deem and Ramdas Pophale) SiO2 
 PCOD9238768
Probable space group: P 2/C
;
_chemical_formula_sum "Si O2"
_cell_formula_units_Z 20
_cell_length_a 9.541535
_cell_length_b 8.620800
_cell_length_c 10.737096
_cell_angle_alpha 90.000000
_cell_angle_beta 96.741020
_cell_angle_gamma 90.000000
_cell_volume 877.081381
_symmetry_space_group_name_H-M "P 2/C"
_symmetry_group_IT_number 13
_symmetry_cell_setting 'monoclinic'
loop_
_space_group_symop_operation_xyz
x,y,z
-x,y,1/2-z
-x,-y,-z
x,-y,1/2+z
loop_
_atom_site_type_symbol
_atom_site_label
_atom_site_fract_x
_atom_site_fract_y
_atom_site_fract_z
Si Si1 0.958111 0.177923 0.002252
Si Si2 0.000000 0.627690 0.750000
Si Si3 0.672489 0.158594 0.851574
Si Si4 0.827511 0.341407 0.648427
Si Si5 0.541890 0.677923 0.997748
Si Si6 0.500000 0.127689 0.250000
O O1 0.011909 0.263737 0.131040
O O2 0.789045 0.171676 0.972665
O O3 0.031836 0.266186 0.894444
O O4 0.000000 0.000000 0.000000
O O5 0.870681 0.511442 0.702252
O O6 0.750000 0.250001 0.750001
O O7 0.531836 0.233814 0.894444
O O8 0.629319 0.988560 0.797748
O O9 0.710955 0.328324 0.527337
O O10 0.500000 0.500000 0.000000
O O11 0.488092 0.763738 0.868960
#
# Coordination Sequence:
#
# PCOD9238768 Si02
#       6
#     4   2   4   4   4   2
#     4  12  29  48  77 113 151 201 254 307 381 450
#     4  12  28  50  80 108 160 198 250 316 376 448
#     4  12  26  50  77 109 151 197 252 312 375 447
#     4  12  26  50  77 109 151 197 252 312 375 447
#     4  12  29  48  77 113 151 201 254 307 381 450
#     4  12  28  50  80 108 160 198 250 316 376 448
#
# _framework density 22.802900999999999
#
# number of rings (size 3 to 8) (size 9 to 14) (size 15 to 20)
#    0.000    0.000    4.000    3.600   11.200    3.200 
#    0.000    0.000    0.000    0.000    0.000    0.000 
#    0.000    0.000    0.000    0.000    0.000    0.000 
#
# Total GULP energy -111861.923083 kJ/mol
# GULP energy per Si atom -5593.096154 kJ/mol
# Density = 2.275100 g / cm^3
# Si number density = 22.802901 Si / 1000 Ang^3
#
#
#
# Elastic Constant Matrix: (Units=GPa)
#
#
# Indices 1 2 3 4 5 6 
#
# 1 142.9003 41.0814 39.7934 0.0000 18.8167 0.0000
# 2 41.0814 180.1762 90.0338 0.0000 -4.2767 0.0000
# 3 39.7934 90.0338 165.2911 0.0000 -5.9877 0.0000
# 4 0.0000 0.0000 0.0000 52.7144 0.0000 21.0892
# 5 18.8167 -4.2767 -5.9877 0.0000 28.1076 0.0000
# 6 0.0000 0.0000 0.0000 21.0892 0.0000 30.0357
#
#
#
# Elastic Compliance Matrix: (Units=1/GPa)
#
#
# Indices 1 2 3 4 5 6 
#
# 1 0.008657 -0.001330 -0.001589 0.000000 -0.006337 0.000000
# 2 -0.001330 0.007832 -0.003901 0.000000 0.001251 0.000000
# 3 -0.001589 -0.003901 0.008641 0.000000 0.002311 0.000000
# 4 0.000000 0.000000 0.000000 0.026380 0.000000 -0.018523
# 5 -0.006337 0.001251 0.002311 0.000000 0.040502 0.000000
# 6 0.000000 0.000000 0.000000 -0.018523 0.000000 0.046299
#
#
# Mechanical properties :
#
#
# Convention : Reuss Voigt Hill
#
# Bulk Modulus (GPa) = 87.02972 92.24278 89.63625
# Shear Modulus (GPa) = 32.09601 43.33546 37.71573
#
# Velocity S-wave (km/s) = 3.75579 4.36413 4.07134
# Velocity P-wave (km/s) = 7.55360 8.11999 7.84191
#
# Compressibility (1/GPa) = 0.01149033
#
# Stress axis : x y z
#
# Youngs Moduli (GPa) = 115.51065 127.67690 115.72824
#
# Poissons Ratio (x) = 0.16983 0.18391
# Poissons Ratio (y) = 0.15365 0.45142
# Poissons Ratio (z) = 0.18357 0.49802
#
# Static dielectric constant tensor:
#      x y z
#    x 1.896280 0.000000 0.130870 
#    y 0.000000 1.807830 0.000000 
#    z 0.130870 0.000000 1.905110 
# 
# From -- ./inp_files/28228.got.cif
#   From: 2010.05.17/outbox.cif.g08.bks.cpg/sg13_15_cif.got.tgz:28228.got - 2010.06.03 16:44:36.
