data_PCOD9238587
_publ_section_title
;
Structure prediction by ZEFSAII (Michael W. Deem and Ramdas Pophale) SiO2 
 PCOD9238587
Probable space group: P 2/C
;
_chemical_formula_sum "Si O2"
_cell_formula_units_Z 20
_cell_length_a 15.982236
_cell_length_b 9.535457
_cell_length_c 10.738101
_cell_angle_alpha 90.000000
_cell_angle_beta 26.880258
_cell_angle_gamma 90.000000
_cell_volume 739.890353
_symmetry_space_group_name_H-M "P 2/C"
_symmetry_group_IT_number 13
_symmetry_cell_setting 'monoclinic'
loop_
_space_group_symop_operation_xyz
x,y,z
-x,y,1/2-z
-x,-y,-z
x,-y,1/2+z
loop_
_atom_site_type_symbol
_atom_site_label
_atom_site_fract_x
_atom_site_fract_y
_atom_site_fract_z
Si Si1 0.788004 0.481726 0.571850
Si Si2 0.194280 0.990396 0.435174
Si Si3 0.101279 0.243215 0.876940
Si Si4 0.706383 0.752642 0.002410
Si Si5 0.358416 0.747268 0.819336
O O1 0.813806 0.370343 0.651251
O O2 0.702163 0.399746 0.568667
O O3 0.655695 0.617242 0.757489
O O4 0.000000 0.508570 0.250000
O O5 0.347460 0.109373 0.255195
O O6 0.169621 0.910015 0.336401
O O7 0.229927 0.858608 0.476094
O O8 0.000000 0.043159 0.750000
O O9 0.172002 0.265271 0.646299
O O10 0.878803 0.245603 0.179012
O O11 0.500000 0.796820 0.250000
O O12 0.500000 0.748122 0.750000
#
# Coordination Sequence:
#
# PCOD9238587 Si02
#       5
#     4   4   4   4   4
#     4   9  20  40  60  86 123 155 197 248 295 357
#     4   9  20  40  60  86 123 155 197 248 295 357
#     4   9  22  42  62  85 122 163 192 244 308 345
#     4   9  17  36  64  89 116 155 202 244 292 359
#     4  12  24  38  61  92 120 156 206 246 291 358
#
# _framework density 27.031030999999999
#
# number of rings (size 3 to 8) (size 9 to 14) (size 15 to 20)
#    0.000    2.400    0.000    4.200    0.000    8.000 
#    0.000   12.000    0.000    7.200    0.000    0.000 
#    0.000    0.000    0.000    0.000    0.000    0.000 
#
# Total GULP energy -111877.982568 kJ/mol
# GULP energy per Si atom -5593.899128 kJ/mol
# Density = 2.696951 g / cm^3
# Si number density = 27.031031 Si / 1000 Ang^3
#
#
#
# Elastic Constant Matrix: (Units=GPa)
#
#
# Indices 1 2 3 4 5 6 
#
# 1 83.2448 38.1577 26.5446 0.0000 -20.3838 0.0000
# 2 38.1577 153.7223 7.5925 0.0000 -12.5859 0.0000
# 3 26.5446 7.5925 86.9660 0.0000 3.7429 0.0000
# 4 0.0000 0.0000 0.0000 -13.7185 0.0000 -150.8804
# 5 -20.3838 -12.5859 3.7429 0.0000 39.5732 0.0000
# 6 0.0000 0.0000 0.0000 -150.8804 0.0000 -517.2013
#
#
#
# Elastic Compliance Matrix: (Units=1/GPa)
#
#
# Indices 1 2 3 4 5 6 
#
# 1 0.017296 -0.003346 -0.005347 0.000000 0.008351 0.000000
# 2 -0.003346 0.007366 0.000353 0.000000 0.000586 0.000000
# 3 -0.005347 0.000353 0.013268 0.000000 -0.003897 0.000000
# 4 0.000000 0.000000 0.000000 0.033007 0.000000 -0.009629
# 5 0.008351 0.000586 -0.003897 0.000000 0.030126 0.000000
# 6 0.000000 0.000000 0.000000 -0.009629 0.000000 0.000875
#
#
# Mechanical properties :
#
#
# Convention : Reuss Voigt Hill
#
# Bulk Modulus (GPa) = 47.05602 52.05807 49.55704
# Shear Modulus (GPa) = 39.77723 -81.49346 -20.85812
#
# Velocity S-wave (km/s) = 3.84023 -5.49669 -2.78085
# Velocity P-wave (km/s) = 6.09172 4.58086 2.83943
#
# Compressibility (1/GPa) = 0.02125127
#
# Stress axis : x y z
#
# Youngs Moduli (GPa) = 57.81701 135.75445 75.37165
#
# Poissons Ratio (x) = 0.45417 0.40298
# Poissons Ratio (y) = 0.19343 -0.02659
# Poissons Ratio (z) = 0.30912 -0.04790
#
# Static dielectric constant tensor:
#      x y z
#    x 2.158700 0.000000 -0.158120 
#    y 0.000000 2.145780 0.000000 
#    z -0.158120 0.000000 2.278370 
# 
# From -- ./inp_files/57140.got.cif
#   From: 2010.05.17/outbox.cif.g08.bks.cpg/sg13_29_cif.got.tgz:57140.got - 2010.06.03 16:44:36.
