data_PCOD9238180
_publ_section_title
;
Structure prediction by ZEFSAII (Michael W. Deem and Ramdas Pophale) SiO2 
 PCOD9238180
Probable space group: P 2/C
;
_chemical_formula_sum "Si O2"
_cell_formula_units_Z 20
_cell_length_a 5.099589
_cell_length_b 10.807523
_cell_length_c 13.712630
_cell_angle_alpha 90.000000
_cell_angle_beta 78.943912
_cell_angle_gamma 90.000000
_cell_volume 741.729964
_symmetry_space_group_name_H-M "P 2/C"
_symmetry_group_IT_number 13
_symmetry_cell_setting 'monoclinic'
loop_
_space_group_symop_operation_xyz
x,y,z
-x,y,1/2-z
-x,-y,-z
x,-y,1/2+z
loop_
_atom_site_type_symbol
_atom_site_label
_atom_site_fract_x
_atom_site_fract_y
_atom_site_fract_z
Si Si1 0.566558 0.023030 0.360140
Si Si2 0.936088 0.869404 0.095891
Si Si3 0.303854 0.738649 0.913656
Si Si4 0.382367 0.513642 0.649174
Si Si5 0.000000 0.688787 0.250000
Si Si6 0.000000 0.297495 0.250000
O O1 0.500000 0.013134 0.250000
O O2 0.842073 0.956971 0.368508
O O3 0.311780 0.949880 0.422673
O O4 0.549752 0.164285 0.398562
O O5 0.841544 0.772218 0.184505
O O6 0.084928 0.789809 0.003064
O O7 0.392296 0.594288 0.925611
O O8 0.199812 0.764199 0.810520
O O9 0.500000 0.517665 0.750000
O O10 0.215182 0.386304 0.667917
O O11 0.145408 0.611619 0.664253
#
# Coordination Sequence:
#
# PCOD9238180 Si02
#       6
#     4   4   4   4   2   2
#     4  12  25  47  73 104 150 195 235 296 368 432
#     4  12  28  45  73 110 148 194 233 305 359 441
#     4  11  25  43  75 107 144 183 255 294 364 420
#     4   9  21  42  70  98 136 190 236 302 345 425
#     4  11  24  47  70  98 151 188 245 284 374 429
#     4   9  20  41  66 104 133 184 229 302 352 407
#
# _framework density 26.963992000000001
#
# number of rings (size 3 to 8) (size 9 to 14) (size 15 to 20)
#    0.000    1.200    2.000    3.000   11.200    0.800 
#    0.000    9.000    0.000    3.600    0.000    0.000 
#    0.000    0.000    0.000    0.000    0.000    0.000 
#
# Total GULP energy -111690.248458 kJ/mol
# GULP energy per Si atom -5584.512423 kJ/mol
# Density = 2.690262 g / cm^3
# Si number density = 26.963992 Si / 1000 Ang^3
#
#
#
# Elastic Constant Matrix: (Units=GPa)
#
#
# Indices 1 2 3 4 5 6 
#
# 1 119.0066 40.0848 -4.5388 0.0000 9.7649 0.0000
# 2 40.0848 142.2851 26.2655 0.0000 1.6753 0.0000
# 3 -4.5388 26.2655 77.6202 0.0000 -7.9944 0.0000
# 4 0.0000 0.0000 0.0000 21.4890 0.0000 -6.0025
# 5 9.7649 1.6753 -7.9944 0.0000 42.5916 0.0000
# 6 0.0000 0.0000 0.0000 -6.0025 0.0000 47.6516
#
#
#
# Elastic Compliance Matrix: (Units=1/GPa)
#
#
# Indices 1 2 3 4 5 6 
#
# 1 0.009593 -0.002933 0.001365 0.000000 -0.001828 0.000000
# 2 -0.002933 0.008419 -0.003044 0.000000 -0.000230 0.000000
# 3 0.001365 -0.003044 0.014249 0.000000 0.002481 0.000000
# 4 0.000000 0.000000 0.000000 0.048233 0.000000 0.006076
# 5 -0.001828 -0.000230 0.002481 0.000000 0.024373 0.000000
# 6 0.000000 0.000000 0.000000 0.006076 0.000000 0.021751
#
#
# Mechanical properties :
#
#
# Convention : Reuss Voigt Hill
#
# Bulk Modulus (GPa) = 43.40883 51.39277 47.40080
# Shear Modulus (GPa) = 34.83846 40.81979 37.82913
#
# Velocity S-wave (km/s) = 3.59839 3.89506 3.74966
# Velocity P-wave (km/s) = 5.77913 6.27135 6.03026
#
# Compressibility (1/GPa) = 0.02303679
#
# Stress axis : x y z
#
# Youngs Moduli (GPa) = 104.24428 118.77789 70.18184
#
# Poissons Ratio (x) = 0.34838 -0.09581
# Poissons Ratio (y) = 0.30575 0.21364
# Poissons Ratio (z) = -0.14231 0.36157
#
# Static dielectric constant tensor:
#      x y z
#    x 2.457160 0.000000 -0.152340 
#    y 0.000000 2.170540 0.000000 
#    z -0.152340 0.000000 2.213560 
# 
# From -- ./inp_files/43506.got.cif
#   From: 2010.05.17/outbox.cif.g08.bks.cpg/sg13_22_cif.got.tgz:43506.got - 2010.06.03 16:44:36.
