data_PCOD9238506
_publ_section_title
;
Structure prediction by ZEFSAII (Michael W. Deem and Ramdas Pophale) SiO2 
 PCOD9238506
Probable space group: P 2/C
;
_chemical_formula_sum "Si O2"
_cell_formula_units_Z 22
_cell_length_a 8.466930
_cell_length_b 6.002281
_cell_length_c 18.338615
_cell_angle_alpha 90.000000
_cell_angle_beta 108.746985
_cell_angle_gamma 90.000000
_cell_volume 882.540243
_symmetry_space_group_name_H-M "P 2/C"
_symmetry_group_IT_number 13
_symmetry_cell_setting 'monoclinic'
loop_
_space_group_symop_operation_xyz
x,y,z
-x,y,1/2-z
-x,-y,-z
x,-y,1/2+z
loop_
_atom_site_type_symbol
_atom_site_label
_atom_site_fract_x
_atom_site_fract_y
_atom_site_fract_z
Si Si1 0.627665 0.685176 0.493118
Si Si2 0.839716 0.994766 0.124862
Si Si3 0.149207 0.669574 0.511239
Si Si4 0.535422 0.835936 0.160721
Si Si5 0.500000 0.433853 0.250000
Si Si6 0.218275 0.912107 0.664638
O O1 0.500000 0.500000 0.500000
O O2 0.716712 0.519171 0.450772
O O3 0.531522 0.866785 0.431939
O O4 0.754056 0.796922 0.568810
O O5 0.717958 0.947499 0.176253
O O6 0.838721 0.785530 0.066668
O O7 0.035216 0.039845 0.170705
O O8 0.161756 0.861295 0.572674
O O9 0.000000 0.500000 0.500000
O O10 0.556548 0.585546 0.190460
O O11 0.370439 0.909942 0.182425
O O12 0.666833 0.292419 0.291382
#
# Coordination Sequence:
#
# PCOD9238506 Si02
#       6
#     4   4   4   4   2   4
#     4  12  22  41  76 115 146 182 232 304 388 443
#     4  12  26  44  81 117 146 182 244 322 378 432
#     4  12  22  41  76 115 146 182 232 304 388 443
#     4  12  26  49  74 106 149 195 247 302 364 446
#     4  12  30  52  74  94 152 214 254 298 362 438
#     4  12  26  49  74 106 149 195 247 302 364 446
#
# _framework density 24.928045000000001
#
# number of rings (size 3 to 8) (size 9 to 14) (size 15 to 20)
#    0.000    0.000    7.273    3.818    0.000    0.000 
#    0.000    5.455    0.000    0.000    0.000    0.000 
#    0.000    0.000    0.000    0.000    0.000    0.000 
#
# Total GULP energy -122506.103805 kJ/mol
# GULP energy per Si atom -5568.459264 kJ/mol
# Density = 2.487131 g / cm^3
# Si number density = 24.928045 Si / 1000 Ang^3
#
#
#
# Elastic Constant Matrix: (Units=GPa)
#
#
# Indices 1 2 3 4 5 6 
#
# 1 233.4064 56.3451 64.3756 0.0000 24.8428 0.0000
# 2 56.3451 90.7733 31.7654 0.0000 9.4559 0.0000
# 3 64.3756 31.7654 83.6040 0.0000 22.8972 0.0000
# 4 0.0000 0.0000 0.0000 36.6081 0.0000 -5.6234
# 5 24.8428 9.4559 22.8972 0.0000 49.4730 0.0000
# 6 0.0000 0.0000 0.0000 -5.6234 0.0000 54.7687
#
#
#
# Elastic Compliance Matrix: (Units=1/GPa)
#
#
# Indices 1 2 3 4 5 6 
#
# 1 0.005889 -0.002377 -0.003374 0.000000 -0.000941 0.000000
# 2 -0.002377 0.013667 -0.003406 0.000000 0.000158 0.000000
# 3 -0.003374 -0.003406 0.017419 0.000000 -0.005717 0.000000
# 4 0.000000 0.000000 0.000000 0.027754 0.000000 0.002850
# 5 -0.000941 0.000158 -0.005717 0.000000 0.023301 0.000000
# 6 0.000000 0.000000 0.000000 0.002850 0.000000 0.018551
#
#
# Mechanical properties :
#
#
# Convention : Reuss Voigt Hill
#
# Bulk Modulus (GPa) = 53.58428 79.19510 66.38969
# Shear Modulus (GPa) = 38.13466 45.18981 41.66223
#
# Velocity S-wave (km/s) = 3.91550 4.26233 4.09259
# Velocity P-wave (km/s) = 6.47948 7.48744 7.00162
#
# Compressibility (1/GPa) = 0.01866219
#
# Stress axis : x y z
#
# Youngs Moduli (GPa) = 169.81488 73.16795 57.40999
#
# Poissons Ratio (x) = 0.17390 0.19367
# Poissons Ratio (y) = 0.40360 0.19554
# Poissons Ratio (z) = 0.57288 0.24921
#
# Static dielectric constant tensor:
#      x y z
#    x 1.977050 0.000000 -0.066280 
#    y 0.000000 2.065080 0.000000 
#    z -0.066280 0.000000 2.042570 
# 
# From -- ./inp_files/74649.got.cif
#   From: 2010.05.17/outbox.cif.g08.bks.cpg/sg13_38_cif.got.tgz:74649.got - 2010.06.03 16:44:36.
