data_PCOD9238598
_publ_section_title
;
Structure prediction by ZEFSAII (Michael W. Deem and Ramdas Pophale) SiO2 
 PCOD9238598
Probable space group: P 2/C
;
_chemical_formula_sum "Si O2"
_cell_formula_units_Z 16
_cell_length_a 20.929333
_cell_length_b 4.823969
_cell_length_c 8.276132
_cell_angle_alpha 90.000000
_cell_angle_beta 50.667768
_cell_angle_gamma 90.000000
_cell_volume 646.306485
_symmetry_space_group_name_H-M "P 2/C"
_symmetry_group_IT_number 13
_symmetry_cell_setting 'monoclinic'
loop_
_space_group_symop_operation_xyz
x,y,z
-x,y,1/2-z
-x,-y,-z
x,-y,1/2+z
loop_
_atom_site_type_symbol
_atom_site_label
_atom_site_fract_x
_atom_site_fract_y
_atom_site_fract_z
Si Si1 0.842517 0.615916 0.917411
Si Si2 0.093774 0.095399 0.868124
Si Si3 0.343099 0.387239 0.665603
Si Si4 0.594480 0.910579 0.119257
O O1 0.884138 0.332357 0.796427
O O2 0.847988 0.831007 0.759259
O O3 0.890800 0.767126 0.983890
O O4 0.749661 0.571980 0.125185
O O5 0.000000 0.000000 0.000000
O O6 0.383699 0.672477 0.545363
O O7 0.347653 0.174382 0.507479
O O8 0.391356 0.231517 0.731132
O O9 0.500000 0.000476 0.250000
#
# Coordination Sequence:
#
# PCOD9238598 Si02
#       4
#     4   4   4   4
#     4  12  25  46  69  99 132 175 223 272 330 395
#     4  12  26  45  69  98 132 171 219 278 332 392
#     4  12  24  43  68  97 134 178 221 272 327 391
#     4  12  24  42  66 100 136 176 221 272 327 388
#
# _framework density 24.756056000000001
#
# number of rings (size 3 to 8) (size 9 to 14) (size 15 to 20)
#    0.000    0.000    0.000   11.250    0.000    2.000 
#    0.000    0.000    0.000    0.000    0.000    0.000 
#    0.000    0.000    0.000    0.000    0.000    0.000 
#
# Total GULP energy -89911.113129 kJ/mol
# GULP energy per Si atom -5619.444571 kJ/mol
# Density = 2.469971 g / cm^3
# Si number density = 24.756056 Si / 1000 Ang^3
#
#
#
# Elastic Constant Matrix: (Units=GPa)
#
#
# Indices 1 2 3 4 5 6 
#
# 1 73.3449 0.6621 9.4764 0.0000 -2.8395 0.0000
# 2 0.6621 155.0561 73.2469 0.0000 -12.8435 0.0000
# 3 9.4764 73.2469 123.9204 0.0000 -16.8493 0.0000
# 4 0.0000 0.0000 0.0000 -32.6295 0.0000 97.5125
# 5 -2.8395 -12.8435 -16.8493 0.0000 38.3148 0.0000
# 6 0.0000 0.0000 0.0000 97.5125 0.0000 -43.3700
#
#
#
# Elastic Compliance Matrix: (Units=1/GPa)
#
#
# Indices 1 2 3 4 5 6 
#
# 1 0.013827 0.000628 -0.001341 0.000000 0.000646 0.000000
# 2 0.000628 0.008995 -0.005263 0.000000 0.000747 0.000000
# 3 -0.001341 -0.005263 0.011731 0.000000 0.003295 0.000000
# 4 0.000000 0.000000 0.000000 0.005359 0.000000 0.012048
# 5 0.000646 0.000747 0.003295 0.000000 0.027847 0.000000
# 6 0.000000 0.000000 0.000000 0.012048 0.000000 0.004032
#
#
# Mechanical properties :
#
#
# Convention : Reuss Voigt Hill
#
# Bulk Modulus (GPa) = 44.24622 57.67691 50.96156
# Shear Modulus (GPa) = 54.77949 10.39212 32.58580
#
# Velocity S-wave (km/s) = 4.70911 2.05108 3.63199
# Velocity P-wave (km/s) = 6.89053 5.38126 6.18212
#
# Compressibility (1/GPa) = 0.02260080
#
# Stress axis : x y z
#
# Youngs Moduli (GPa) = 72.32361 111.17698 85.24336
#
# Poissons Ratio (x) = -0.06979 0.11428
# Poissons Ratio (y) = -0.04540 0.44863
# Poissons Ratio (z) = 0.09696 0.58512
#
# Static dielectric constant tensor:
#      x y z
#    x 1.963650 0.000000 0.082270 
#    y 0.000000 1.929430 0.000000 
#    z 0.082270 0.000000 1.947160 
# 
# From -- ./inp_files/20267.got.cif
#   From: 2010.05.17/outbox.cif.g08.bks.cpg/sg13_11_cif.got.tgz:20267.got - 2010.06.03 16:44:36.
