data_PCOD9238652
_publ_section_title
;
Structure prediction by ZEFSAII (Michael W. Deem and Ramdas Pophale) SiO2 
 PCOD9238652
Probable space group: P 2/C
;
_chemical_formula_sum "Si O2"
_cell_formula_units_Z 10
_cell_length_a 14.051665
_cell_length_b 5.381572
_cell_length_c 14.516391
_cell_angle_alpha 90.000000
_cell_angle_beta 19.707438
_cell_angle_gamma 90.000000
_cell_volume 370.173796
_symmetry_space_group_name_H-M "P 2/C"
_symmetry_group_IT_number 13
_symmetry_cell_setting 'monoclinic'
loop_
_space_group_symop_operation_xyz
x,y,z
-x,y,1/2-z
-x,-y,-z
x,-y,1/2+z
loop_
_atom_site_type_symbol
_atom_site_label
_atom_site_fract_x
_atom_site_fract_y
_atom_site_fract_z
Si Si1 0.500000 0.132779 0.750000
Si Si2 0.525972 0.808105 0.559055
Si Si3 0.949516 0.528890 0.403257
O O1 0.742300 0.292235 0.581209
O O2 0.639246 0.971418 0.542465
O O3 0.733352 0.575160 0.349431
O O4 0.500000 0.000000 0.500000
O O5 0.232030 0.713821 0.868665
O O6 0.000000 0.581564 0.250000
#
# Coordination Sequence:
#
# PCOD9238652 Si02
#       3
#     2   4   4
#     4  12  26  46  84  96 160 198 238 314 372 418
#     4  12  28  48  75 111 150 192 248 308 366 438
#     4  12  24  48  71 110 144 194 256 287 372 451
#
# _framework density 27.014339
#
# number of rings (size 3 to 8) (size 9 to 14) (size 15 to 20)
#    0.000    0.000    8.000    1.200    5.600    3.200 
#    0.000    0.000    0.000    0.000    0.000    0.000 
#    0.000    0.000    0.000    0.000    0.000    0.000 
#
# Total GULP energy -55897.575711 kJ/mol
# GULP energy per Si atom -5589.757571 kJ/mol
# Density = 2.695285 g / cm^3
# Si number density = 27.014339 Si / 1000 Ang^3
#
#
#
# Elastic Constant Matrix: (Units=GPa)
#
#
# Indices 1 2 3 4 5 6 
#
# 1 71.4276 26.6052 0.6474 0.0000 2.3618 0.0000
# 2 26.6052 69.3969 42.3702 0.0000 9.6575 0.0000
# 3 0.6474 42.3702 161.9526 0.0000 -12.6407 0.0000
# 4 0.0000 0.0000 0.0000 58.6544 0.0000 7.4343
# 5 2.3618 9.6575 -12.6407 0.0000 56.2752 0.0000
# 6 0.0000 0.0000 0.0000 7.4343 0.0000 71.4793
#
#
#
# Elastic Compliance Matrix: (Units=1/GPa)
#
#
# Indices 1 2 3 4 5 6 
#
# 1 0.016889 -0.007905 0.002088 0.000000 0.001117 0.000000
# 2 -0.007905 0.021792 -0.006042 0.000000 -0.004765 0.000000
# 3 0.002088 -0.006042 0.007961 0.000000 0.002737 0.000000
# 4 0.000000 0.000000 0.000000 0.017277 0.000000 -0.001797
# 5 0.001117 -0.004765 0.002737 0.000000 0.019156 0.000000
# 6 0.000000 0.000000 0.000000 -0.001797 0.000000 0.014177
#
#
# Mechanical properties :
#
#
# Convention : Reuss Voigt Hill
#
# Bulk Modulus (GPa) = 43.62231 49.11365 46.36798
# Shear Modulus (GPa) = 38.87735 52.82540 45.85137
#
# Velocity S-wave (km/s) = 3.79771 4.42685 4.12430
# Velocity P-wave (km/s) = 5.95089 6.65954 6.31516
#
# Compressibility (1/GPa) = 0.02292405
#
# Stress axis : x y z
#
# Youngs Moduli (GPa) = 59.21115 45.88792 125.61916
#
# Poissons Ratio (x) = 0.36274 -0.26226
# Poissons Ratio (y) = 0.46805 0.75894
# Poissons Ratio (z) = -0.12362 0.27724
#
# Static dielectric constant tensor:
#      x y z
#    x 2.112240 0.000000 -0.105290 
#    y 0.000000 2.184980 0.000000 
#    z -0.105290 0.000000 2.008110 
# 
# From -- ./inp_files/25018.got.cif
#   From: 2010.05.17/outbox.cif.g08.bks.cpg/sg13_13_cif.got.tgz:25018.got - 2010.06.03 16:44:36.
