data_PCOD9238653
_publ_section_title
;
Structure prediction by ZEFSAII (Michael W. Deem and Ramdas Pophale) SiO2 
 PCOD9238653
Probable space group: P 2/C
;
_chemical_formula_sum "Si O2"
_cell_formula_units_Z 20
_cell_length_a 11.965580
_cell_length_b 13.173215
_cell_length_c 7.726274
_cell_angle_alpha 90.000000
_cell_angle_beta 48.694204
_cell_angle_gamma 90.000000
_cell_volume 914.849586
_symmetry_space_group_name_H-M "P 2/C"
_symmetry_group_IT_number 13
_symmetry_cell_setting 'monoclinic'
loop_
_space_group_symop_operation_xyz
x,y,z
-x,y,1/2-z
-x,-y,-z
x,-y,1/2+z
loop_
_atom_site_type_symbol
_atom_site_label
_atom_site_fract_x
_atom_site_fract_y
_atom_site_fract_z
Si Si1 0.235003 0.902449 0.859436
Si Si2 0.918375 0.600916 0.016168
Si Si3 0.175542 0.126282 0.038138
Si Si4 0.000000 0.253312 0.750000
Si Si5 0.500000 0.215693 0.250000
Si Si6 0.379650 0.688206 0.217440
O O1 0.259660 0.887527 0.632801
O O2 0.371602 0.862390 0.829135
O O3 0.110696 0.823451 0.044137
O O4 0.187763 0.018529 0.931320
O O5 0.000000 0.628025 0.750000
O O6 0.740056 0.595985 0.165745
O O7 0.000000 0.500000 0.000000
O O8 0.938488 0.677356 0.157836
O O9 0.000000 0.145677 0.250000
O O10 0.266319 0.216622 0.858510
O O11 0.460586 0.286793 0.453988
O O12 0.500000 0.680735 0.250000
#
# Coordination Sequence:
#
# PCOD9238653 Si02
#       6
#     4   4   4   2   2   4
#     4  12  25  41  70 106 155 204 248 299 359 432
#     4  12  27  51  84 109 139 189 251 312 374 440
#     4  12  25  43  69 111 153 204 259 300 346 434
#     4  12  24  48  74 106 148 192 252 306 358 440
#     4  12  26  44  68 106 156 204 238 296 376 434
#     4  12  26  48  75 109 152 195 242 304 372 444
#
# _framework density 21.861519000000001
#
# number of rings (size 3 to 8) (size 9 to 14) (size 15 to 20)
#    0.000    0.000    6.000    4.800    1.400    1.600 
#    0.000    1.000    2.200    0.000    0.000    0.000 
#    0.000    0.000    0.000    0.000    0.000    0.000 
#
# Total GULP energy -111806.188915 kJ/mol
# GULP energy per Si atom -5590.309446 kJ/mol
# Density = 2.181176 g / cm^3
# Si number density = 21.861519 Si / 1000 Ang^3
#
#
#
# Elastic Constant Matrix: (Units=GPa)
#
#
# Indices 1 2 3 4 5 6 
#
# 1 136.0488 33.7605 28.4543 0.0000 3.2056 0.0000
# 2 33.7605 87.7812 13.3236 0.0000 -2.9694 0.0000
# 3 28.4543 13.3236 85.1889 0.0000 19.1057 0.0000
# 4 0.0000 0.0000 0.0000 5.9053 0.0000 -3.3355
# 5 3.2056 -2.9694 19.1057 0.0000 49.1768 0.0000
# 6 0.0000 0.0000 0.0000 -3.3355 0.0000 21.0990
#
#
#
# Elastic Compliance Matrix: (Units=1/GPa)
#
#
# Indices 1 2 3 4 5 6 
#
# 1 0.008584 -0.002921 -0.002460 0.000000 0.000220 0.000000
# 2 -0.002921 0.012771 -0.001356 0.000000 0.001488 0.000000
# 3 -0.002460 -0.001356 0.013972 0.000000 -0.005350 0.000000
# 4 0.000000 0.000000 0.000000 0.185945 0.000000 0.029396
# 5 0.000220 0.001488 -0.005350 0.000000 0.022489 0.000000
# 6 0.000000 0.000000 0.000000 0.029396 0.000000 0.052043
#
#
# Mechanical properties :
#
#
# Convention : Reuss Voigt Hill
#
# Bulk Modulus (GPa) = 45.75517 51.12176 48.43846
# Shear Modulus (GPa) = 15.79469 30.80156 23.29813
#
# Velocity S-wave (km/s) = 2.69083 3.75766 3.26807
# Velocity P-wave (km/s) = 5.53435 6.50091 6.03700
#
# Compressibility (1/GPa) = 0.02185546
#
# Stress axis : x y z
#
# Youngs Moduli (GPa) = 116.49079 78.29999 71.57140
#
# Poissons Ratio (x) = 0.22870 0.17605
# Poissons Ratio (y) = 0.34024 0.09703
# Poissons Ratio (z) = 0.28654 0.10615
#
# Static dielectric constant tensor:
#      x y z
#    x 2.582670 0.000000 0.123950 
#    y 0.000000 1.830300 0.000000 
#    z 0.123950 0.000000 1.793430 
# 
# From -- ./inp_files/15757.got.cif
#   From: 2010.05.17/outbox.cif.g08.bks.cpg/sg13_8_cif.got.tgz:15757.got - 2010.06.03 16:44:36.
