data_PCOD9238600
_publ_section_title
;
Structure prediction by ZEFSAII (Michael W. Deem and Ramdas Pophale) SiO2 
 PCOD9238600
Probable space group: P 2/C
;
_chemical_formula_sum "Si O2"
_cell_formula_units_Z 14
_cell_length_a 5.602768
_cell_length_b 26.277777
_cell_length_c 4.919793
_cell_angle_alpha 90.000000
_cell_angle_beta 54.902146
_cell_angle_gamma 90.000000
_cell_volume 592.628194
_symmetry_space_group_name_H-M "P 2/C"
_symmetry_group_IT_number 13
_symmetry_cell_setting 'monoclinic'
loop_
_space_group_symop_operation_xyz
x,y,z
-x,y,1/2-z
-x,-y,-z
x,-y,1/2+z
loop_
_atom_site_type_symbol
_atom_site_label
_atom_site_fract_x
_atom_site_fract_y
_atom_site_fract_z
Si Si1 0.500000 0.114849 0.250000
Si Si2 0.000000 0.329839 0.750000
Si Si3 0.000000 0.462225 0.250000
Si Si4 0.500000 0.391060 0.750000
Si Si5 0.500000 0.189564 0.750000
Si Si6 0.000000 0.737432 0.750000
Si Si7 0.000000 0.038319 0.750000
O O1 0.564636 0.152742 0.454566
O O2 0.263038 0.076706 0.527351
O O3 0.270552 0.360025 0.711508
O O4 0.123797 0.297389 0.412260
O O5 0.000000 0.500000 0.500000
O O6 0.715215 0.426670 0.434733
O O7 0.774271 0.227151 0.561280
O O8 0.000000 0.000000 0.500000
#
# Coordination Sequence:
#
# PCOD9238600 Si02
#       7
#     2   2   2   2   2   2   2
#     4  12  24  43  68  98 138 184 236 295 362 434
#     4  12  29  51  78 113 152 199 250 313 377 448
#     4  12  28  50  78 112 152 198 250 308 372 446
#     4  12  29  52  80 114 154 200 252 310 377 448
#     4  12  25  45  70 102 140 188 240 299 363 438
#     4  12  27  47  74 107 146 191 246 305 369 440
#     4  12  24  42  66  98 136 180 234 296 360 432
#
# _framework density 23.623581999999999
#
# number of rings (size 3 to 8) (size 9 to 14) (size 15 to 20)
#    0.000    0.000    0.000    9.429    0.000   13.714 
#    0.000    0.000    0.000    0.000    0.000    0.000 
#    0.000    0.000    0.000    0.000    0.000    0.000 
#
# Total GULP energy -78361.442856 kJ/mol
# GULP energy per Si atom -5597.245918 kJ/mol
# Density = 2.356981 g / cm^3
# Si number density = 23.623582 Si / 1000 Ang^3
#
#
#
# Elastic Constant Matrix: (Units=GPa)
#
#
# Indices 1 2 3 4 5 6 
#
# 1 141.4175 96.8477 61.8677 0.0000 11.8013 0.0000
# 2 96.8477 163.9680 62.2308 0.0000 2.5621 0.0000
# 3 61.8677 62.2308 129.7387 0.0000 1.8214 0.0000
# 4 0.0000 0.0000 0.0000 56.7799 0.0000 -19.8339
# 5 11.8013 2.5621 1.8214 0.0000 72.5035 0.0000
# 6 0.0000 0.0000 0.0000 -19.8339 0.0000 25.2455
#
#
#
# Elastic Compliance Matrix: (Units=1/GPa)
#
#
# Indices 1 2 3 4 5 6 
#
# 1 0.013009 -0.006493 -0.003064 0.000000 -0.001811 0.000000
# 2 -0.006493 0.010699 -0.002046 0.000000 0.000730 0.000000
# 3 -0.003064 -0.002046 0.010146 0.000000 0.000316 0.000000
# 4 0.000000 0.000000 0.000000 0.024273 0.000000 0.019070
# 5 -0.001811 0.000730 0.000316 0.000000 0.014053 0.000000
# 6 0.000000 0.000000 0.000000 0.019070 0.000000 0.054593
#
#
# Mechanical properties :
#
#
# Convention : Reuss Voigt Hill
#
# Bulk Modulus (GPa) = 93.90811 97.44629 95.67720
# Shear Modulus (GPa) = 32.56727 45.18432 38.87580
#
# Velocity S-wave (km/s) = 3.71697 4.37816 4.06104
# Velocity P-wave (km/s) = 7.63278 8.17905 7.91063
#
# Compressibility (1/GPa) = 0.01064871
#
# Stress axis : x y z
#
# Youngs Moduli (GPa) = 76.86815 93.46859 98.56345
#
# Poissons Ratio (x) = 0.60687 0.30199
# Poissons Ratio (y) = 0.49909 0.20165
# Poissons Ratio (z) = 0.23552 0.19123
#
# Static dielectric constant tensor:
#      x y z
#    x 1.909240 0.000000 -0.017090 
#    y 0.000000 2.034070 0.000000 
#    z -0.017090 0.000000 1.834740 
# 
# From -- ./inp_files/316.got.cif
#   From: 2010.05.17/outbox.cif.g08.bks.cpg/sg13_1_cif.got.tgz:316.got - 2010.06.03 16:44:36.
