data_PCOD9238221
_publ_section_title
;
Structure prediction by ZEFSAII (Michael W. Deem and Ramdas Pophale) SiO2 
 PCOD9238221
Probable space group: P 2/C
;
_chemical_formula_sum "Si O2"
_cell_formula_units_Z 16
_cell_length_a 6.647620
_cell_length_b 7.943036
_cell_length_c 14.787760
_cell_angle_alpha 90.000000
_cell_angle_beta 55.779668
_cell_angle_gamma 90.000000
_cell_volume 645.651486
_symmetry_space_group_name_H-M "P 2/C"
_symmetry_group_IT_number 13
_symmetry_cell_setting 'monoclinic'
loop_
_space_group_symop_operation_xyz
x,y,z
-x,y,1/2-z
-x,-y,-z
x,-y,1/2+z
loop_
_atom_site_type_symbol
_atom_site_label
_atom_site_fract_x
_atom_site_fract_y
_atom_site_fract_z
Si Si1 0.743598 0.996872 0.382833
Si Si2 0.263478 0.631862 0.653386
Si Si3 0.244784 0.884530 0.302491
Si Si4 0.732326 0.579855 0.062080
O O1 0.746812 0.169088 0.325267
O O2 0.500000 0.000000 0.500000
O O3 0.747505 0.848282 0.307560
O O4 0.985390 0.974702 0.381450
O O5 0.289269 0.630332 0.537906
O O6 0.499797 0.542361 0.635453
O O7 0.000000 0.560203 0.750000
O O8 0.500000 0.980625 0.250000
O O9 0.262727 0.729415 0.366259
O O10 0.000000 0.500000 0.000000
#
# Coordination Sequence:
#
# PCOD9238221 Si02
#       4
#     4   4   4   4
#     4  11  24  49  76 109 159 197 255 326 393 459
#     4  11  25  49  72 111 156 204 251 329 391 460
#     4  11  25  45  75 115 146 205 258 317 384 471
#     4  11  27  47  76 112 156 204 264 319 392 471
#
# _framework density 24.781168999999998
#
# number of rings (size 3 to 8) (size 9 to 14) (size 15 to 20)
#    0.000    1.000    2.500    3.000    3.500   12.000 
#    0.000    0.000    0.000    0.000    0.000    0.000 
#    0.000    0.000    0.000    0.000    0.000    0.000 
#
# Total GULP energy -89402.895516 kJ/mol
# GULP energy per Si atom -5587.680970 kJ/mol
# Density = 2.472477 g / cm^3
# Si number density = 24.781169 Si / 1000 Ang^3
#
#
#
# Elastic Constant Matrix: (Units=GPa)
#
#
# Indices 1 2 3 4 5 6 
#
# 1 228.0347 91.9641 86.8292 0.0000 -56.4517 0.0000
# 2 91.9641 111.3394 45.5424 0.0000 -17.4384 0.0000
# 3 86.8292 45.5424 178.3010 0.0000 -39.4439 0.0000
# 4 0.0000 0.0000 0.0000 31.5531 0.0000 -2.8671
# 5 -56.4517 -17.4384 -39.4439 0.0000 77.0773 0.0000
# 6 0.0000 0.0000 0.0000 -2.8671 0.0000 48.1202
#
#
#
# Elastic Compliance Matrix: (Units=1/GPa)
#
#
# Indices 1 2 3 4 5 6 
#
# 1 0.008216 -0.005463 -0.001745 0.000000 0.003888 0.000000
# 2 -0.005463 0.013743 -0.001181 0.000000 -0.001496 0.000000
# 3 -0.001745 -0.001181 0.007238 0.000000 0.002158 0.000000
# 4 0.000000 0.000000 0.000000 0.031865 0.000000 0.001899
# 5 0.003888 -0.001496 0.002158 0.000000 0.016588 0.000000
# 6 0.000000 0.000000 0.000000 0.001899 0.000000 0.020894
#
#
# Mechanical properties :
#
#
# Convention : Reuss Voigt Hill
#
# Bulk Modulus (GPa) = 80.53271 107.37186 93.95228
# Shear Modulus (GPa) = 41.85503 50.90609 46.38056
#
# Velocity S-wave (km/s) = 4.11418 4.53727 4.33090
# Velocity P-wave (km/s) = 7.42541 8.41850 7.93750
#
# Compressibility (1/GPa) = 0.01241731
#
# Stress axis : x y z
#
# Youngs Moduli (GPa) = 121.72061 72.76682 138.16919
#
# Poissons Ratio (x) = 0.39753 0.24115
# Poissons Ratio (y) = 0.66496 0.16315
# Poissons Ratio (z) = 0.21244 0.08592
#
# Static dielectric constant tensor:
#      x y z
#    x 2.018340 0.000000 -0.002260 
#    y 0.000000 2.070700 0.000000 
#    z -0.002260 0.000000 2.016670 
# 
# From -- ./inp_files/60305.got.cif
#   From: 2010.05.17/outbox.cif.g08.bks.cpg/sg13_31_cif.got.tgz:60305.got - 2010.06.03 16:44:36.
