data_PCOD9238477
_publ_section_title
;
Structure prediction by ZEFSAII (Michael W. Deem and Ramdas Pophale) SiO2 
 PCOD9238477
Probable space group: P 2/C
;
_chemical_formula_sum "Si O2"
_cell_formula_units_Z 16
_cell_length_a 8.730003
_cell_length_b 5.068412
_cell_length_c 19.585772
_cell_angle_alpha 90.000000
_cell_angle_beta 60.882763
_cell_angle_gamma 90.000000
_cell_volume 757.098674
_symmetry_space_group_name_H-M "P 2/C"
_symmetry_group_IT_number 13
_symmetry_cell_setting 'monoclinic'
loop_
_space_group_symop_operation_xyz
x,y,z
-x,y,1/2-z
-x,-y,-z
x,-y,1/2+z
loop_
_atom_site_type_symbol
_atom_site_label
_atom_site_fract_x
_atom_site_fract_y
_atom_site_fract_z
Si Si1 0.421442 0.251337 0.555250
Si Si2 0.497522 0.006374 0.177753
Si Si3 0.012900 0.225525 0.665088
Si Si4 0.795607 0.270830 0.181947
O O1 0.500000 0.500000 0.500000
O O2 0.211746 0.271374 0.600072
O O3 0.500000 0.000000 0.500000
O O4 0.477564 0.192137 0.620920
O O5 0.500000 0.853509 0.250000
O O6 0.670929 0.187667 0.145520
O O7 0.330435 0.200806 0.225327
O O8 0.000000 0.240691 0.750000
O O9 0.878026 0.442220 0.665205
O O10 0.951539 0.938849 0.654198
#
# Coordination Sequence:
#
# PCOD9238477 Si02
#       4
#     4   4   4   4
#     4  12  27  43  64 101 143 173 211 286 354 387
#     4   8  21  45  67  96 132 178 229 268 338 405
#     4  12  21  41  67  99 127 174 235 275 320 407
#     4   9  22  37  71  93 122 168 240 271 312 389
#
# _framework density 21.133308
#
# number of rings (size 3 to 8) (size 9 to 14) (size 15 to 20)
#    1.500    0.000    2.500    2.250    3.500    6.000 
#    0.000    7.500    0.000    0.000    0.000    0.000 
#    0.000    0.000    0.000    0.000    0.000    0.000 
#
# Total GULP energy -89298.701563 kJ/mol
# GULP energy per Si atom -5581.168848 kJ/mol
# Density = 2.108521 g / cm^3
# Si number density = 21.133308 Si / 1000 Ang^3
#
#
#
# Elastic Constant Matrix: (Units=GPa)
#
#
# Indices 1 2 3 4 5 6 
#
# 1 93.9282 15.8992 38.7823 0.0000 -15.8656 0.0000
# 2 15.8992 91.1916 29.0064 0.0000 0.6173 0.0000
# 3 38.7823 29.0064 94.5045 0.0000 -15.1794 0.0000
# 4 0.0000 0.0000 0.0000 16.3852 0.0000 -10.7399
# 5 -15.8656 0.6173 -15.1794 0.0000 44.3320 0.0000
# 6 0.0000 0.0000 0.0000 -10.7399 0.0000 28.6748
#
#
#
# Elastic Compliance Matrix: (Units=1/GPa)
#
#
# Indices 1 2 3 4 5 6 
#
# 1 0.013251 -0.000846 -0.004672 0.000000 0.003155 0.000000
# 2 -0.000846 0.012305 -0.003710 0.000000 -0.001744 0.000000
# 3 -0.004672 -0.003710 0.014156 0.000000 0.003227 0.000000
# 4 0.000000 0.000000 0.000000 0.080888 0.000000 0.030296
# 5 0.003155 -0.001744 0.003227 0.000000 0.024815 0.000000
# 6 0.000000 0.000000 0.000000 0.030296 0.000000 0.046221
#
#
# Mechanical properties :
#
#
# Convention : Reuss Voigt Hill
#
# Bulk Modulus (GPa) = 47.04254 49.66667 48.35461
# Shear Modulus (GPa) = 23.02266 30.94083 26.98175
#
# Velocity S-wave (km/s) = 3.30419 3.83048 3.57703
# Velocity P-wave (km/s) = 6.07167 6.56628 6.32381
#
# Compressibility (1/GPa) = 0.02125736
#
# Stress axis : x y z
#
# Youngs Moduli (GPa) = 75.46393 81.26609 70.64318
#
# Poissons Ratio (x) = 0.06873 0.33003
# Poissons Ratio (y) = 0.06382 0.26208
# Poissons Ratio (z) = 0.35255 0.30149
#
# Static dielectric constant tensor:
#      x y z
#    x 0.895230 0.000000 -2.744500 
#    y 0.000000 1.741280 0.000000 
#    z -2.744500 0.000000 -6.725940 
# 
# From -- ./inp_files/52410.got.cif
#   From: 2010.05.17/outbox.cif.g08.bks.cpg/sg13_27_cif.got.tgz:52410.got - 2010.06.03 16:44:36.
