data_PCOD9238495
_publ_section_title
;
Structure prediction by ZEFSAII (Michael W. Deem and Ramdas Pophale) SiO2 
 PCOD9238495
Probable space group: P 2/C
;
_chemical_formula_sum "Si O2"
_cell_formula_units_Z 18
_cell_length_a 10.699241
_cell_length_b 15.884706
_cell_length_c 5.082580
_cell_angle_alpha 90.000000
_cell_angle_beta 85.011872
_cell_angle_gamma 90.000000
_cell_volume 860.534852
_symmetry_space_group_name_H-M "P 2/C"
_symmetry_group_IT_number 13
_symmetry_cell_setting 'monoclinic'
loop_
_space_group_symop_operation_xyz
x,y,z
-x,y,1/2-z
-x,-y,-z
x,-y,1/2+z
loop_
_atom_site_type_symbol
_atom_site_label
_atom_site_fract_x
_atom_site_fract_y
_atom_site_fract_z
Si Si1 0.500000 0.440121 0.750000
Si Si2 0.358352 0.223999 0.306881
Si Si3 0.000000 0.845210 0.750000
Si Si4 0.741487 0.054478 0.363412
Si Si5 0.000000 0.722563 0.250000
Si Si6 0.269684 0.688266 0.322199
O O1 0.500000 0.500000 0.500000
O O2 0.625382 0.383036 0.728909
O O3 0.500000 0.255611 0.250000
O O4 0.350462 0.128821 0.208568
O O5 0.312545 0.238219 0.611401
O O6 0.275449 0.277891 0.118384
O O7 0.121019 0.904296 0.695049
O O8 0.985507 0.784982 0.500937
O O9 0.726495 0.021773 0.661253
O O10 0.873424 0.669484 0.228406
#
# Coordination Sequence:
#
# PCOD9238495 Si02
#       6
#     2   4   2   4   2   4
#     4  12  26  46  74 108 134 168 206 256 332 404
#     4  12  23  42  67  92 126 181 230 269 330 389
#     4  12  22  39  62  89 130 172 236 270 330 393
#     4  12  24  38  57  90 131 176 224 289 338 372
#     4  12  22  41  70 101 124 176 224 276 316 383
#     4  12  23  44  71 100 134 169 218 268 317 404
#
# _framework density 20.917224000000001
#
# number of rings (size 3 to 8) (size 9 to 14) (size 15 to 20)
#    0.000    0.000    6.667    4.667    0.000    0.889 
#    0.000    1.111    0.000    0.000    0.000    0.000 
#    0.000    0.000    0.000    0.000    0.000    0.000 
#
# Total GULP energy -100739.113691 kJ/mol
# GULP energy per Si atom -5596.617427 kJ/mol
# Density = 2.086962 g / cm^3
# Si number density = 20.917224 Si / 1000 Ang^3
#
#
#
# Elastic Constant Matrix: (Units=GPa)
#
#
# Indices 1 2 3 4 5 6 
#
# 1 124.7548 28.4656 -4.1001 0.0000 23.5232 0.0000
# 2 28.4656 82.6266 16.8859 0.0000 13.9340 0.0000
# 3 -4.1001 16.8859 96.2230 0.0000 15.0603 0.0000
# 4 0.0000 0.0000 0.0000 31.7425 0.0000 3.1670
# 5 23.5232 13.9340 15.0603 0.0000 25.9694 0.0000
# 6 0.0000 0.0000 0.0000 3.1670 0.0000 21.8868
#
#
#
# Elastic Compliance Matrix: (Units=1/GPa)
#
#
# Indices 1 2 3 4 5 6 
#
# 1 0.010453 -0.002482 0.002370 0.000000 -0.009511 0.000000
# 2 -0.002482 0.014055 -0.001918 0.000000 -0.004181 0.000000
# 3 0.002370 -0.001918 0.012104 0.000000 -0.008137 0.000000
# 4 0.000000 0.000000 0.000000 0.031965 0.000000 -0.004625
# 5 -0.009511 -0.004181 -0.008137 0.000000 0.054084 0.000000
# 6 0.000000 0.000000 0.000000 -0.004625 0.000000 0.046359
#
#
# Mechanical properties :
#
#
# Convention : Reuss Voigt Hill
#
# Bulk Modulus (GPa) = 30.72018 42.90080 36.81049
# Shear Modulus (GPa) = 27.18434 33.40993 30.29714
#
# Velocity S-wave (km/s) = 3.60893 4.00089 3.80995
# Velocity P-wave (km/s) = 5.66430 6.47280 6.08200
#
# Compressibility (1/GPa) = 0.03255189
#
# Stress axis : x y z
#
# Youngs Moduli (GPa) = 95.66432 71.15139 82.62065
#
# Poissons Ratio (x) = 0.17656 -0.19577
# Poissons Ratio (y) = 0.23739 0.15844
# Poissons Ratio (z) = -0.22668 0.13645
#
# Static dielectric constant tensor:
#      x y z
#    x 1.788830 0.000000 0.007070 
#    y 0.000000 1.724520 0.000000 
#    z 0.007070 0.000000 1.719000 
# 
# From -- ./inp_files/3052.got.cif
#   From: 2010.05.17/outbox.cif.g08.bks.cpg/sg13_2_cif.got.tgz:3052.got - 2010.06.03 16:44:36.
