data_PCOD9238893
_publ_section_title
;
Structure prediction by ZEFSAII (Michael W. Deem and Ramdas Pophale) SiO2 
 PCOD9238893
Probable space group: P 2/C
;
_chemical_formula_sum "Si O2"
_cell_formula_units_Z 26
_cell_length_a 30.000000
_cell_length_b 9.000000
_cell_length_c 30.000000
_cell_angle_alpha 90.000000
_cell_angle_beta 170.000000
_cell_angle_gamma 90.000000
_cell_volume 1406.550239
_symmetry_space_group_name_H-M "P 2/C"
_symmetry_group_IT_number 13
_symmetry_cell_setting 'monoclinic'
loop_
_space_group_symop_operation_xyz
x,y,z
-x,y,1/2-z
-x,-y,-z
x,-y,1/2+z
loop_
_atom_site_type_symbol
_atom_site_label
_atom_site_fract_x
_atom_site_fract_y
_atom_site_fract_z
Si Si1 0.267567 0.158603 0.106375
Si Si2 0.239878 0.142465 0.280967
Si Si3 0.216835 0.333216 0.340680
Si Si4 0.267958 0.058426 0.209435
Si Si5 0.500000 0.739603 0.250000
Si Si6 0.226478 0.041198 0.412392
Si Si7 0.308726 0.478937 0.641668
O O1 0.254284 0.138598 0.147607
O O2 0.529198 0.070283 0.350873
O O3 0.285680 0.338568 0.113114
O O4 0.028386 0.065249 0.847066
O O5 0.231192 0.290633 0.302570
O O6 0.263688 0.158490 0.250534
O O7 0.477317 0.042496 0.533029
O O8 0.978057 0.050233 0.030822
O O9 0.455861 0.431513 0.593869
O O10 0.219543 0.170692 0.367783
O O11 0.956734 0.417584 0.098864
O O12 0.631717 0.625758 0.343685
O O13 0.703070 0.852421 0.474872
#
# Coordination Sequence:
#
# PCOD9238893 Si02
#       7
#     4   4   4   4   2   4   4
#     4  12  22  42  63 100 120 170 194 272 309 375
#     4  10  19  33  62  92 128 164 213 257 290 358
#     4  11  20  41  61  94 119 180 200 253 298 391
#     4  10  19  34  59  97 128 159 212 264 294 350
#     4  10  26  48  60  96 112 170 202 268 308 396
#     4  11  23  40  70  84 122 153 226 246 305 370
#     4  11  26  40  65  86 138 154 205 255 340 363
#
# _framework density 18.484942
#
# number of rings (size 3 to 8) (size 9 to 14) (size 15 to 20)
#    0.000    1.231    3.077    3.692    0.000    6.154 
#    0.000    4.615    0.000    0.000    0.000    0.000 
#    0.000    0.000    0.000    0.000    0.000    0.000 
#
# Total GULP energy -145010.873888 kJ/mol
# GULP energy per Si atom -5577.341303 kJ/mol
# Density = 1.844287 g / cm^3
# Si number density = 18.484942 Si / 1000 Ang^3
#
#
#
# Elastic Constant Matrix: (Units=GPa)
#
#
# Indices 1 2 3 4 5 6 
#
# 1 110.2209 35.5024 26.3949 0.0000 -14.9262 0.0000
# 2 35.5024 150.4003 53.4992 0.0000 0.7310 0.0000
# 3 26.3949 53.4992 171.3245 0.0000 -0.6969 0.0000
# 4 0.0000 0.0000 0.0000 39.2664 0.0000 -0.2675
# 5 -14.9262 0.7310 -0.6969 0.0000 30.5981 0.0000
# 6 0.0000 0.0000 0.0000 -0.2675 0.0000 35.2679
#
#
#
# Elastic Compliance Matrix: (Units=1/GPa)
#
#
# Indices 1 2 3 4 5 6 
#
# 1 0.010726 -0.002224 -0.000937 0.000000 0.005264 0.000000
# 2 -0.002224 0.007943 -0.002143 0.000000 -0.001324 0.000000
# 3 -0.000937 -0.002143 0.006649 0.000000 -0.000254 0.000000
# 4 0.000000 0.000000 0.000000 0.025468 0.000000 0.000193
# 5 0.005264 -0.001324 -0.000254 0.000000 0.035276 0.000000
# 6 0.000000 0.000000 0.000000 0.000193 0.000000 0.028356
#
#
# Mechanical properties :
#
#
# Convention : Reuss Voigt Hill
#
# Bulk Modulus (GPa) = 67.97826 73.63763 70.80794
# Shear Modulus (GPa) = 38.48241 42.12976 40.30609
#
# Velocity S-wave (km/s) = 4.56765 4.77921 4.67463
# Velocity P-wave (km/s) = 8.04193 8.38913 8.21737
#
# Compressibility (1/GPa) = 0.01471059
#
# Stress axis : x y z
#
# Youngs Moduli (GPa) = 93.22835 125.90166 150.39194
#
# Poissons Ratio (x) = 0.28006 0.14084
# Poissons Ratio (y) = 0.20738 0.32228
# Poissons Ratio (z) = 0.08731 0.26980
#
# Static dielectric constant tensor:
#      x y z
#    x 1.709010 0.000000 0.005460 
#    y 0.000000 1.610350 0.000000 
#    z 0.005460 0.000000 1.651970 
# 
# From -- ./inp_files/98004.got.cif
#   From: 2010.05.17/outbox.ucp.g08.bks.cvg/sg13_50_cif.got.tgz:98004.got - 2010.06.11 12:23:55.
