data_PCOD9238240
_publ_section_title
;
Structure prediction by ZEFSAII (Michael W. Deem and Ramdas Pophale) SiO2 
 PCOD9238240
Probable space group: P 2/C
;
_chemical_formula_sum "Si O2"
_cell_formula_units_Z 10
_cell_length_a 12.027479
_cell_length_b 6.263047
_cell_length_c 12.857731
_cell_angle_alpha 90.000000
_cell_angle_beta 152.328408
_cell_angle_gamma 90.000000
_cell_volume 449.800184
_symmetry_space_group_name_H-M "P 2/C"
_symmetry_group_IT_number 13
_symmetry_cell_setting 'monoclinic'
loop_
_space_group_symop_operation_xyz
x,y,z
-x,y,1/2-z
-x,-y,-z
x,-y,1/2+z
loop_
_atom_site_type_symbol
_atom_site_label
_atom_site_fract_x
_atom_site_fract_y
_atom_site_fract_z
Si Si1 0.854046 0.357852 0.297490
Si Si2 0.000000 0.952413 0.750000
Si Si3 0.588975 0.703718 0.936265
O O1 0.641943 0.242886 0.185241
O O2 0.000000 0.500000 0.500000
O O3 0.010594 0.193351 0.361471
O O4 0.731024 0.517461 0.113205
O O5 0.767471 0.100120 0.567770
O O6 0.500000 0.628769 0.750000
#
# Coordination Sequence:
#
# PCOD9238240 Si02
#       3
#     4   2   4
#     4  11  25  46  68  96 136 176 218 272 331 391
#     4  12  24  42  68  98 132 172 224 274 326 390
#     4  11  25  43  67  99 132 175 222 270 329 391
#
# _framework density 22.232095000000001
#
# number of rings (size 3 to 8) (size 9 to 14) (size 15 to 20)
#    0.000    0.800    0.000    7.200    0.000   14.400 
#    0.000    0.000    0.000    0.000    0.000    0.000 
#    0.000    0.000    0.000    0.000    0.000    0.000 
#
# Total GULP energy -56044.581725 kJ/mol
# GULP energy per Si atom -5604.458172 kJ/mol
# Density = 2.218149 g / cm^3
# Si number density = 22.232095 Si / 1000 Ang^3
#
#
#
# Elastic Constant Matrix: (Units=GPa)
#
#
# Indices 1 2 3 4 5 6 
#
# 1 205.0089 101.2097 73.8201 0.0000 9.4141 0.0000
# 2 101.2097 92.3408 57.1296 0.0000 8.0779 0.0000
# 3 73.8201 57.1296 133.4214 0.0000 -25.9087 0.0000
# 4 0.0000 0.0000 0.0000 24.1106 0.0000 10.1709
# 5 9.4141 8.0779 -25.9087 0.0000 54.9311 0.0000
# 6 0.0000 0.0000 0.0000 10.1709 0.0000 49.0227
#
#
#
# Elastic Compliance Matrix: (Units=1/GPa)
#
#
# Indices 1 2 3 4 5 6 
#
# 1 0.010820 -0.010813 -0.001550 0.000000 -0.000995 0.000000
# 2 -0.010813 0.027332 -0.006760 0.000000 -0.005355 0.000000
# 3 -0.001550 -0.006760 0.012650 0.000000 0.007226 0.000000
# 4 0.000000 0.000000 0.000000 0.045454 0.000000 -0.009430
# 5 -0.000995 -0.005355 0.007226 0.000000 0.022571 0.000000
# 6 0.000000 0.000000 0.000000 -0.009430 0.000000 0.022355
#
#
# Mechanical properties :
#
#
# Convention : Reuss Voigt Hill
#
# Bulk Modulus (GPa) = 79.64280 99.45444 89.54862
# Shear Modulus (GPa) = 27.23098 38.85366 33.04232
#
# Velocity S-wave (km/s) = 3.50358 4.18501 3.85937
# Velocity P-wave (km/s) = 7.22965 8.25737 7.76054
#
# Compressibility (1/GPa) = 0.01255606
#
# Stress axis : x y z
#
# Youngs Moduli (GPa) = 92.42238 36.58666 79.04912
#
# Poissons Ratio (x) = 0.39563 0.12249
# Poissons Ratio (y) = 0.99940 0.53440
# Poissons Ratio (z) = 0.14321 0.24734
#
# Static dielectric constant tensor:
#      x y z
#    x 1.822170 0.000000 0.020660 
#    y 0.000000 1.791990 0.000000 
#    z 0.020660 0.000000 1.790050 
# 
# From -- ./inp_files/24993.got.cif
#   From: 2010.05.17/outbox.cif.g08.bks.cpg/sg13_13_cif.got.tgz:24993.got - 2010.06.03 16:44:36.
