data_PCOD9238985
_publ_section_title
;
Structure prediction by ZEFSAII (Michael W. Deem and Ramdas Pophale) SiO2 
 PCOD9238985
Probable space group: P 2/C
;
_chemical_formula_sum "Si O2"
_cell_formula_units_Z 32
_cell_length_a 15.000000
_cell_length_b 9.000000
_cell_length_c 24.000000
_cell_angle_alpha 90.000000
_cell_angle_beta 150.000000
_cell_angle_gamma 90.000000
_cell_volume 1620.000000
_symmetry_space_group_name_H-M "P 2/C"
_symmetry_group_IT_number 13
_symmetry_cell_setting 'monoclinic'
loop_
_space_group_symop_operation_xyz
x,y,z
-x,y,1/2-z
-x,-y,-z
x,-y,1/2+z
loop_
_atom_site_type_symbol
_atom_site_label
_atom_site_fract_x
_atom_site_fract_y
_atom_site_fract_z
Si Si1 0.975004 0.732996 0.989513
Si Si2 0.180682 0.624776 0.936229
Si Si3 0.468007 0.177349 0.044008
Si Si4 0.099978 0.687942 0.359219
Si Si5 0.863681 0.153821 0.816639
Si Si6 0.503460 0.175997 0.935119
Si Si7 0.854569 0.185286 0.300891
Si Si8 0.290079 0.518199 0.117568
O O1 0.899224 0.795060 0.890442
O O2 0.810159 0.637869 0.925267
O O3 0.051408 0.847020 0.076214
O O4 0.151984 0.631469 0.073884
O O5 0.140980 0.485188 0.875997
O O6 0.997148 0.710178 0.848395
O O7 0.322442 0.737265 0.988272
O O8 0.264885 0.561321 0.039289
O O9 0.652577 0.224796 0.173418
O O10 0.462494 0.999498 0.043647
O O11 0.288423 0.236614 0.973653
O O12 0.457210 0.223955 0.973194
O O13 0.000000 0.745598 0.250000
O O14 0.971013 0.723585 0.340360
O O15 0.656975 0.196166 0.695811
O O16 0.882450 0.988510 0.801462
O O17 0.500000 0.522549 0.250000
#
# Coordination Sequence:
#
# PCOD9238985 Si02
#       8
#     4   4   4   4   4   4   4   4
#     4  10  21  38  62  90 120 157 204 247 300 361
#     4  11  24  40  59  92 121 161 202 248 304 364
#     4  10  23  42  61  91 120 161 201 253 303 358
#     4  12  25  40  60  91 125 159 202 249 306 360
#     4  11  21  43  64  90 120 161 203 253 299 361
#     4  10  22  41  65  86 121 161 206 245 305 355
#     4  10  24  40  64  90 123 157 203 251 304 360
#     4  10  21  38  58  88 126 160 195 248 307 356
#
# _framework density 19.753086
#
# number of rings (size 3 to 8) (size 9 to 14) (size 15 to 20)
#    0.000    1.500    2.500    1.875    3.500    1.500 
#    0.000    0.000    0.000    6.000    0.000    0.000 
#    0.000    0.000    0.000    0.000    0.000    0.000 
#
# Total GULP energy -178546.085397 kJ/mol
# GULP energy per Si atom -5579.565169 kJ/mol
# Density = 1.970813 g / cm^3
# Si number density = 19.753086 Si / 1000 Ang^3
#
#
#
# Elastic Constant Matrix: (Units=GPa)
#
#
# Indices 1 2 3 4 5 6 
#
# 1 31.3217 5.2183 5.9603 0.0000 13.2745 0.0000
# 2 5.2183 34.5188 31.8918 0.0000 14.6077 0.0000
# 3 5.9603 31.8918 129.8125 0.0000 20.5881 0.0000
# 4 0.0000 0.0000 0.0000 37.7035 0.0000 6.5492
# 5 13.2745 14.6077 20.5881 0.0000 30.3336 0.0000
# 6 0.0000 0.0000 0.0000 6.5492 0.0000 26.8643
#
#
#
# Elastic Compliance Matrix: (Units=1/GPa)
#
#
# Indices 1 2 3 4 5 6 
#
# 1 0.039344 0.001005 0.000845 0.000000 -0.018275 0.000000
# 2 0.001005 0.042917 -0.008116 0.000000 -0.015599 0.000000
# 3 0.000845 -0.008116 0.010195 0.000000 -0.003381 0.000000
# 4 0.000000 0.000000 0.000000 0.027696 0.000000 -0.006752
# 5 -0.018275 -0.015599 -0.003381 0.000000 0.050771 0.000000
# 6 0.000000 0.000000 0.000000 -0.006752 0.000000 0.038870
#
#
# Mechanical properties :
#
#
# Convention : Reuss Voigt Hill
#
# Bulk Modulus (GPa) = 12.51187 31.31045 21.91116
# Shear Modulus (GPa) = 20.08318 29.15245 24.61781
#
# Velocity S-wave (km/s) = 3.19205 3.84584 3.53409
# Velocity P-wave (km/s) = 4.46469 5.96707 5.26970
#
# Compressibility (1/GPa) = 0.07992410
#
# Stress axis : x y z
#
# Youngs Moduli (GPa) = 25.41710 23.30070 98.09029
#
# Poissons Ratio (x) = -0.02342 -0.08288
# Poissons Ratio (y) = -0.02555 0.79609
# Poissons Ratio (z) = -0.02148 0.18911
#
# Static dielectric constant tensor:
#      x y z
#    x 1.711910 0.000000 -0.030280 
#    y 0.000000 1.693340 0.000000 
#    z -0.030280 0.000000 1.666050 
# 
# From -- ./inp_files/87432.got.cif
#   From: 2010.05.17/outbox.ucp.g08.bks.cvg/sg13_44_cif.got.tgz:87432.got - 2010.06.11 12:23:55.
