data_PCOD9238090
_publ_section_title
;
Structure prediction by ZEFSAII (Michael W. Deem and Ramdas Pophale) SiO2 
 PCOD9238090
Probable space group: P 2/C
;
_chemical_formula_sum "Si O2"
_cell_formula_units_Z 20
_cell_length_a 12.122947
_cell_length_b 11.288606
_cell_length_c 13.522494
_cell_angle_alpha 90.000000
_cell_angle_beta 152.772383
_cell_angle_gamma 90.000000
_cell_volume 846.684576
_symmetry_space_group_name_H-M "P 2/C"
_symmetry_group_IT_number 13
_symmetry_cell_setting 'monoclinic'
loop_
_space_group_symop_operation_xyz
x,y,z
-x,y,1/2-z
-x,-y,-z
x,-y,1/2+z
loop_
_atom_site_type_symbol
_atom_site_label
_atom_site_fract_x
_atom_site_fract_y
_atom_site_fract_z
Si Si1 0.264866 0.989316 0.444939
Si Si2 0.672176 0.398772 0.098632
Si Si3 0.500000 0.796109 0.750000
Si Si4 0.643031 0.162038 0.679103
Si Si5 0.000000 0.544212 0.250000
Si Si6 0.089441 0.320202 0.027515
O O1 0.295196 0.881891 0.545174
O O2 0.299339 0.922681 0.368026
O O3 0.000000 0.043311 0.250000
O O4 0.487572 0.079866 0.628180
O O5 0.776844 0.454054 0.081600
O O6 0.882369 0.392413 0.348888
O O7 0.500000 0.500000 0.000000
O O8 0.532871 0.274890 0.978466
O O9 0.363999 0.720692 0.723461
O O10 0.902955 0.217360 0.909021
O O11 0.989331 0.623326 0.141346
#
# Coordination Sequence:
#
# PCOD9238090 Si02
#       6
#     4   4   2   4   2   4
#     4  11  24  44  70 101 140 181 242 296 353 428
#     4  12  26  47  71 105 143 190 241 299 357 428
#     4  12  22  40  74 102 128 198 238 280 364 430
#     4  11  25  45  68 101 143 183 234 304 354 419
#     4  12  26  44  72 104 140 192 234 294 362 426
#     4  12  24  47  72 103 148 189 244 291 359 438
#
# _framework density 23.621549000000002
#
# number of rings (size 3 to 8) (size 9 to 14) (size 15 to 20)
#    0.000    0.400    6.000    3.000    1.400    2.400 
#    0.000    0.000    0.000    0.000    0.000    0.000 
#    0.000    0.000    0.000    0.000    0.000    0.000 
#
# Total GULP energy -111643.683658 kJ/mol
# GULP energy per Si atom -5582.184183 kJ/mol
# Density = 2.356779 g / cm^3
# Si number density = 23.621549 Si / 1000 Ang^3
#
#
#
# Elastic Constant Matrix: (Units=GPa)
#
#
# Indices 1 2 3 4 5 6 
#
# 1 66.9936 35.3971 4.8218 0.0000 27.4578 0.0000
# 2 35.3971 85.8777 16.8743 0.0000 10.1565 0.0000
# 3 4.8218 16.8743 48.1260 0.0000 18.2461 0.0000
# 4 0.0000 0.0000 0.0000 53.8557 0.0000 21.9481
# 5 27.4578 10.1565 18.2461 0.0000 46.4755 0.0000
# 6 0.0000 0.0000 0.0000 21.9481 0.0000 26.8115
#
#
#
# Elastic Compliance Matrix: (Units=1/GPa)
#
#
# Indices 1 2 3 4 5 6 
#
# 1 0.026581 -0.010442 0.007151 0.000000 -0.016230 0.000000
# 2 -0.010442 0.016664 -0.006761 0.000000 0.005182 0.000000
# 3 0.007151 -0.006761 0.027580 0.000000 -0.013575 0.000000
# 4 0.000000 0.000000 0.000000 0.027864 0.000000 -0.022809
# 5 -0.016230 0.005182 -0.013575 0.000000 0.035302 0.000000
# 6 0.000000 0.000000 0.000000 -0.022809 0.000000 0.055969
#
#
# Mechanical properties :
#
#
# Convention : Reuss Voigt Hill
#
# Bulk Modulus (GPa) = 19.71565 35.02041 27.36803
# Shear Modulus (GPa) = 22.02916 35.02214 28.52565
#
# Velocity S-wave (km/s) = 3.05714 3.85468 3.47884
# Velocity P-wave (km/s) = 4.56356 5.88805 5.26760
#
# Compressibility (1/GPa) = 0.05072111
#
# Stress axis : x y z
#
# Youngs Moduli (GPa) = 37.62059 60.00906 36.25840
#
# Poissons Ratio (x) = 0.62661 -0.25930
# Poissons Ratio (y) = 0.39283 0.24516
# Poissons Ratio (z) = -0.26904 0.40574
#
# Static dielectric constant tensor:
#      x y z
#    x 2.147830 0.000000 0.044050 
#    y 0.000000 1.902850 0.000000 
#    z 0.044050 0.000000 1.959570 
# 
# From -- ./inp_files/50761.got.cif
#   From: 2010.05.17/outbox.cif.g08.bks.cpg/sg13_26_cif.got.tgz:50761.got - 2010.06.03 16:44:36.
