data_PCOD9238761
_publ_section_title
;
Structure prediction by ZEFSAII (Michael W. Deem and Ramdas Pophale) SiO2 
 PCOD9238761
Probable space group: P 2/C
;
_chemical_formula_sum "Si O2"
_cell_formula_units_Z 10
_cell_length_a 11.326062
_cell_length_b 7.252802
_cell_length_c 11.677438
_cell_angle_alpha 90.000000
_cell_angle_beta 23.999028
_cell_angle_gamma 90.000000
_cell_volume 390.147724
_symmetry_space_group_name_H-M "P 2/C"
_symmetry_group_IT_number 13
_symmetry_cell_setting 'monoclinic'
loop_
_space_group_symop_operation_xyz
x,y,z
-x,y,1/2-z
-x,-y,-z
x,-y,1/2+z
loop_
_atom_site_type_symbol
_atom_site_label
_atom_site_fract_x
_atom_site_fract_y
_atom_site_fract_z
Si Si1 0.993559 0.185547 0.876470
Si Si2 0.500000 0.109938 0.750000
Si Si3 0.413674 0.287930 0.064987
O O1 0.000000 0.296780 0.750000
O O2 0.329846 0.161806 0.607657
O O3 0.862616 0.267072 0.108444
O O4 0.776854 0.016926 0.039887
O O5 0.396035 0.232058 0.948943
O O6 0.500000 0.500000 0.000000
#
# Coordination Sequence:
#
# PCOD9238761 Si02
#       3
#     4   2   4
#     4  12  26  49  77 109 154 199 257 304 375 458
#     4  12  28  46  86 106 156 206 256 306 378 452
#     4  12  29  49  76 116 154 196 253 318 382 441
#
# _framework density 25.631316000000002
#
# number of rings (size 3 to 8) (size 9 to 14) (size 15 to 20)
#    0.000    0.000    4.000    3.600   11.200    0.000 
#    0.000    0.000    0.000    0.000    0.000    0.000 
#    0.000    0.000    0.000    0.000    0.000    0.000 
#
# Total GULP energy -56013.730785 kJ/mol
# GULP energy per Si atom -5601.373079 kJ/mol
# Density = 2.557298 g / cm^3
# Si number density = 25.631316 Si / 1000 Ang^3
#
#
#
# Elastic Constant Matrix: (Units=GPa)
#
#
# Indices 1 2 3 4 5 6 
#
# 1 140.2911 39.9096 38.6473 0.0000 43.3117 0.0000
# 2 39.9096 113.7761 25.9056 0.0000 8.2716 0.0000
# 3 38.6473 25.9056 175.7441 0.0000 30.1841 0.0000
# 4 0.0000 0.0000 0.0000 14.0656 0.0000 -2.0210
# 5 43.3117 8.2716 30.1841 0.0000 76.5880 0.0000
# 6 0.0000 0.0000 0.0000 -2.0210 0.0000 20.4901
#
#
#
# Elastic Compliance Matrix: (Units=1/GPa)
#
#
# Indices 1 2 3 4 5 6 
#
# 1 0.009664 -0.002840 -0.000880 0.000000 -0.004811 0.000000
# 2 -0.002840 0.009946 -0.001001 0.000000 0.000926 0.000000
# 3 -0.000880 -0.001001 0.006357 0.000000 -0.001900 0.000000
# 4 0.000000 0.000000 0.000000 0.072117 0.000000 0.007113
# 5 -0.004811 0.000926 -0.001900 0.000000 0.016426 0.000000
# 6 0.000000 0.000000 0.000000 0.007113 0.000000 0.049506
#
#
# Mechanical properties :
#
#
# Convention : Reuss Voigt Hill
#
# Bulk Modulus (GPa) = 60.51051 70.97070 65.74061
# Shear Modulus (GPa) = 27.93828 43.91867 35.92847
#
# Velocity S-wave (km/s) = 3.30511 4.14391 3.74805
# Velocity P-wave (km/s) = 6.18258 7.11654 6.66593
#
# Compressibility (1/GPa) = 0.01652605
#
# Stress axis : x y z
#
# Youngs Moduli (GPa) = 103.47983 100.54538 157.29641
#
# Poissons Ratio (x) = 0.28551 0.13845
# Poissons Ratio (y) = 0.29384 0.15740
# Poissons Ratio (z) = 0.09108 0.10061
#
# Static dielectric constant tensor:
#      x y z
#    x 2.039280 0.000000 0.020610 
#    y 0.000000 2.067090 0.000000 
#    z 0.020610 0.000000 1.982690 
# 
# From -- ./inp_files/8356.got.cif
#   From: 2010.05.17/outbox.cif.g08.bks.cpg/sg13_5_cif.got.tgz:8356.got - 2010.06.03 16:44:36.
