data_PCOD9238203
_publ_section_title
;
Structure prediction by ZEFSAII (Michael W. Deem and Ramdas Pophale) SiO2 
 PCOD9238203
Probable space group: P 2/C
;
_chemical_formula_sum "Si O2"
_cell_formula_units_Z 18
_cell_length_a 7.740615
_cell_length_b 7.588986
_cell_length_c 14.388254
_cell_angle_alpha 90.000000
_cell_angle_beta 99.198874
_cell_angle_gamma 90.000000
_cell_volume 834.345262
_symmetry_space_group_name_H-M "P 2/C"
_symmetry_group_IT_number 13
_symmetry_cell_setting 'monoclinic'
loop_
_space_group_symop_operation_xyz
x,y,z
-x,y,1/2-z
-x,-y,-z
x,-y,1/2+z
loop_
_atom_site_type_symbol
_atom_site_label
_atom_site_fract_x
_atom_site_fract_y
_atom_site_fract_z
Si Si1 0.000000 0.738241 0.250000
Si Si2 0.303541 0.982959 0.366389
Si Si3 0.699006 0.130357 0.933377
Si Si4 0.173199 0.156974 0.197591
Si Si5 0.856589 0.485590 0.907465
O O1 0.159453 0.849427 0.311094
O O2 0.068016 0.611237 0.175912
O O3 0.495235 0.905363 0.397186
O O4 0.246450 0.060077 0.460549
O O5 0.317539 0.134429 0.289865
O O6 0.720237 0.340224 0.931009
O O7 0.810099 0.016287 0.867487
O O8 0.197475 0.321842 0.131974
O O9 0.000000 0.173886 0.250000
O O10 0.000000 0.500000 0.000000
#
# Coordination Sequence:
#
# PCOD9238203 Si02
#       5
#     2   4   4   4   4
#     4  12  24  44  76 102 142 188 238 286 360 420
#     4  11  24  48  73 102 144 190 235 296 355 424
#     4  11  26  48  72 104 146 186 236 296 359 417
#     4  12  23  44  71 105 139 189 236 287 351 427
#     4  12  26  43  71 107 141 185 235 293 355 421
#
# _framework density 21.573803000000002
#
# number of rings (size 3 to 8) (size 9 to 14) (size 15 to 20)
#    0.000    0.444    4.444    3.333    0.000    2.667 
#    8.000    3.333    0.000    0.000    0.000    0.000 
#    0.000    0.000    0.000    0.000    0.000    0.000 
#
# Total GULP energy -100473.657073 kJ/mol
# GULP energy per Si atom -5581.869837 kJ/mol
# Density = 2.152470 g / cm^3
# Si number density = 21.573803 Si / 1000 Ang^3
#
#
#
# Elastic Constant Matrix: (Units=GPa)
#
#
# Indices 1 2 3 4 5 6 
#
# 1 42.8437 -3.2756 4.8767 0.0000 2.3976 0.0000
# 2 -3.2756 95.9336 12.3069 0.0000 10.9204 0.0000
# 3 4.8767 12.3069 141.0539 0.0000 10.0228 0.0000
# 4 0.0000 0.0000 0.0000 41.6182 0.0000 1.7899
# 5 2.3976 10.9204 10.0228 0.0000 31.2755 0.0000
# 6 0.0000 0.0000 0.0000 1.7899 0.0000 10.5491
#
#
#
# Elastic Compliance Matrix: (Units=1/GPa)
#
#
# Indices 1 2 3 4 5 6 
#
# 1 0.023625 0.001129 -0.000776 0.000000 -0.001957 0.000000
# 2 0.001129 0.010976 -0.000735 0.000000 -0.003684 0.000000
# 3 -0.000776 -0.000735 0.007325 0.000000 -0.002031 0.000000
# 4 0.000000 0.000000 0.000000 0.024205 0.000000 -0.004107
# 5 -0.001957 -0.003684 -0.002031 0.000000 0.034061 0.000000
# 6 0.000000 0.000000 0.000000 -0.004107 0.000000 0.095492
#
#
# Mechanical properties :
#
#
# Convention : Reuss Voigt Hill
#
# Bulk Modulus (GPa) = 24.29477 34.18301 29.23889
# Shear Modulus (GPa) = 23.79050 34.41677 29.10363
#
# Velocity S-wave (km/s) = 3.32437 3.99846 3.67689
# Velocity P-wave (km/s) = 5.10107 6.09885 5.62214
#
# Compressibility (1/GPa) = 0.04116112
#
# Stress axis : x y z
#
# Youngs Moduli (GPa) = 42.32838 91.10777 136.52277
#
# Poissons Ratio (x) = -0.10286 0.10598
# Poissons Ratio (y) = -0.04779 0.10034
# Poissons Ratio (z) = 0.03286 0.06696
#
# Static dielectric constant tensor:
#      x y z
#    x 1.850030 0.000000 -0.031870 
#    y 0.000000 1.829080 0.000000 
#    z -0.031870 0.000000 1.758540 
# 
# From -- ./inp_files/45603.got.cif
#   From: 2010.05.17/outbox.cif.g08.bks.cpg/sg13_23_cif.got.tgz:45603.got - 2010.06.03 16:44:36.
