data_PCOD9238733
_publ_section_title
;
Structure prediction by ZEFSAII (Michael W. Deem and Ramdas Pophale) SiO2 
 PCOD9238733
Probable space group: P 2/C
;
_chemical_formula_sum "Si O2"
_cell_formula_units_Z 22
_cell_length_a 14.820655
_cell_length_b 6.644409
_cell_length_c 10.267724
_cell_angle_alpha 90.000000
_cell_angle_beta 102.255653
_cell_angle_gamma 90.000000
_cell_volume 988.065917
_symmetry_space_group_name_H-M "P 2/C"
_symmetry_group_IT_number 13
_symmetry_cell_setting 'monoclinic'
loop_
_space_group_symop_operation_xyz
x,y,z
-x,y,1/2-z
-x,-y,-z
x,-y,1/2+z
loop_
_atom_site_type_symbol
_atom_site_label
_atom_site_fract_x
_atom_site_fract_y
_atom_site_fract_z
Si Si1 0.730942 0.402572 0.368276
Si Si2 0.607723 0.777691 0.276471
Si Si3 0.000000 0.842912 0.250000
Si Si4 0.677504 0.057306 0.531258
Si Si5 0.849673 0.871789 0.714547
Si Si6 0.086367 0.507630 0.931447
O O1 0.668605 0.574729 0.285657
O O2 0.676271 0.271168 0.457205
O O3 0.778994 0.243772 0.286412
O O4 0.817844 0.506065 0.463529
O O5 0.500000 0.729151 0.250000
O O6 0.627614 0.914005 0.154959
O O7 0.636545 0.895297 0.417535
O O8 0.068873 0.694067 0.345057
O O9 0.073101 0.984910 0.196366
O O10 0.782672 0.993921 0.596897
O O11 0.906535 0.701506 0.656494
O O12 0.000000 0.500000 0.000000
#
# Coordination Sequence:
#
# PCOD9238733 Si02
#       6
#     4   4   2   4   4   4
#     4  12  26  47  77 108 155 200 249 322 385 448
#     4  12  29  52  81 115 151 198 257 320 390 465
#     4  12  26  42  68 104 146 198 252 304 370 448
#     4  12  26  50  81 111 153 201 253 317 390 459
#     4  12  26  46  69 111 150 198 254 311 380 449
#     4  12  26  42  69 105 149 201 253 312 373 449
#
# _framework density 22.265720000000002
#
# number of rings (size 3 to 8) (size 9 to 14) (size 15 to 20)
#    0.000    0.000    5.455    4.364    5.091    2.909 
#    0.000    0.000    0.000    0.000    0.000    0.000 
#    0.000    0.000    0.000    0.000    0.000    0.000 
#
# Total GULP energy -123053.520189 kJ/mol
# GULP energy per Si atom -5593.341827 kJ/mol
# Density = 2.221504 g / cm^3
# Si number density = 22.265720 Si / 1000 Ang^3
#
#
#
# Elastic Constant Matrix: (Units=GPa)
#
#
# Indices 1 2 3 4 5 6 
#
# 1 109.7169 29.8662 20.9406 0.0000 4.9501 0.0000
# 2 29.8662 75.4244 21.9907 0.0000 -9.6353 0.0000
# 3 20.9406 21.9907 69.3274 0.0000 -8.0794 0.0000
# 4 0.0000 0.0000 0.0000 49.2584 0.0000 3.6734
# 5 4.9501 -9.6353 -8.0794 0.0000 32.7274 0.0000
# 6 0.0000 0.0000 0.0000 3.6734 0.0000 34.5121
#
#
#
# Elastic Compliance Matrix: (Units=1/GPa)
#
#
# Indices 1 2 3 4 5 6 
#
# 1 0.010819 -0.004023 -0.002389 0.000000 -0.003411 0.000000
# 2 -0.004023 0.016449 -0.003467 0.000000 0.004596 0.000000
# 3 -0.002389 -0.003467 0.016648 0.000000 0.003451 0.000000
# 4 0.000000 0.000000 0.000000 0.020464 0.000000 -0.002178
# 5 -0.003411 0.004596 0.003451 0.000000 0.033276 0.000000
# 6 0.000000 0.000000 0.000000 -0.002178 0.000000 0.029207
#
#
# Mechanical properties :
#
#
# Convention : Reuss Voigt Hill
#
# Bulk Modulus (GPa) = 41.39507 44.45151 42.92329
# Shear Modulus (GPa) = 32.32578 35.41099 33.86838
#
# Velocity S-wave (km/s) = 3.81441 3.99229 3.90436
# Velocity P-wave (km/s) = 6.16696 6.42328 6.29642
#
# Compressibility (1/GPa) = 0.02415746
#
# Stress axis : x y z
#
# Youngs Moduli (GPa) = 92.42588 60.79272 60.06775
#
# Poissons Ratio (x) = 0.24459 0.14352
# Poissons Ratio (y) = 0.37186 0.20825
# Poissons Ratio (z) = 0.22084 0.21076
#
# Static dielectric constant tensor:
#      x y z
#    x 1.751450 0.000000 -0.015610 
#    y 0.000000 1.853620 0.000000 
#    z -0.015610 0.000000 1.887490 
# 
# From -- ./inp_files/35321.got.cif
#   From: 2010.05.17/outbox.cif.g08.bks.cpg/sg13_18_cif.got.tgz:35321.got - 2010.06.03 16:44:36.
