data_PCOD9238623
_publ_section_title
;
Structure prediction by ZEFSAII (Michael W. Deem and Ramdas Pophale) SiO2 
 PCOD9238623
Probable space group: P 2/C
;
_chemical_formula_sum "Si O2"
_cell_formula_units_Z 28
_cell_length_a 10.900890
_cell_length_b 9.045659
_cell_length_c 14.063646
_cell_angle_alpha 90.000000
_cell_angle_beta 54.612619
_cell_angle_gamma 90.000000
_cell_volume 1130.560368
_symmetry_space_group_name_H-M "P 2/C"
_symmetry_group_IT_number 13
_symmetry_cell_setting 'monoclinic'
loop_
_space_group_symop_operation_xyz
x,y,z
-x,y,1/2-z
-x,-y,-z
x,-y,1/2+z
loop_
_atom_site_type_symbol
_atom_site_label
_atom_site_fract_x
_atom_site_fract_y
_atom_site_fract_z
Si Si1 0.580779 0.640764 0.419705
Si Si2 0.677391 0.872994 0.526996
Si Si3 0.187231 0.661662 0.334699
Si Si4 0.679886 0.364269 0.186939
Si Si5 0.991295 0.063363 0.611095
Si Si6 0.165115 0.203958 0.206204
Si Si7 0.353768 0.815518 0.425929
O O1 0.500000 0.500000 0.500000
O O2 0.596357 0.775884 0.484859
O O3 0.740595 0.619022 0.299169
O O4 0.484014 0.697057 0.375072
O O5 0.707414 0.764882 0.600117
O O6 0.839406 0.936602 0.424815
O O7 0.585704 0.017532 0.598571
O O8 0.212807 0.506892 0.378298
O O9 0.045979 0.762295 0.372252
O O10 0.264475 0.781562 0.370723
O O11 0.500000 0.398169 0.250000
O O12 0.734060 0.295279 0.263200
O O13 0.882593 0.950715 0.718002
O O14 0.000000 0.000000 0.500000
O O15 0.000000 0.266901 0.250000
O O16 0.259156 0.207312 0.065782
#
# Coordination Sequence:
#
# PCOD9238623 Si02
#       7
#     4   4   4   4   4   4   4
#     4  12  27  49  72 110 154 200 257 317 388 472
#     4  12  25  45  75 105 151 197 258 324 380 466
#     4  12  26  47  77 105 153 203 249 320 391 468
#     4  12  27  48  74 111 155 202 253 320 391 467
#     4  12  24  51  73 111 148 200 263 318 386 467
#     4  12  24  47  78 107 155 199 254 328 385 461
#     4  12  24  44  75 108 146 198 257 317 393 461
#
# _framework density 24.766480999999999
#
# number of rings (size 3 to 8) (size 9 to 14) (size 15 to 20)
#    0.000    0.000    4.286    6.000    0.000    2.857 
#    5.143    0.714    0.000    0.000    0.000    0.000 
#    0.000    0.000    0.000    0.000    0.000    0.000 
#
# Total GULP energy -156376.171480 kJ/mol
# GULP energy per Si atom -5584.863267 kJ/mol
# Density = 2.471011 g / cm^3
# Si number density = 24.766481 Si / 1000 Ang^3
#
#
#
# Elastic Constant Matrix: (Units=GPa)
#
#
# Indices 1 2 3 4 5 6 
#
# 1 99.7729 15.4144 9.6436 0.0000 2.2770 0.0000
# 2 15.4144 143.2797 31.7112 0.0000 -2.5754 0.0000
# 3 9.6436 31.7112 116.1553 0.0000 7.5826 0.0000
# 4 0.0000 0.0000 0.0000 27.2591 0.0000 14.4270
# 5 2.2770 -2.5754 7.5826 0.0000 32.6903 0.0000
# 6 0.0000 0.0000 0.0000 14.4270 0.0000 29.3094
#
#
#
# Elastic Compliance Matrix: (Units=1/GPa)
#
#
# Indices 1 2 3 4 5 6 
#
# 1 0.010244 -0.000996 -0.000535 0.000000 -0.000668 0.000000
# 2 -0.000996 0.007562 -0.002056 0.000000 0.001142 0.000000
# 3 -0.000535 -0.002056 0.009365 0.000000 -0.002297 0.000000
# 4 0.000000 0.000000 0.000000 0.049609 0.000000 -0.024419
# 5 -0.000668 0.001142 -0.002297 0.000000 0.031259 0.000000
# 6 0.000000 0.000000 0.000000 -0.024419 0.000000 0.046139
#
#
# Mechanical properties :
#
#
# Convention : Reuss Voigt Hill
#
# Bulk Modulus (GPa) = 50.00884 52.52738 51.26811
# Shear Modulus (GPa) = 29.75886 38.01432 33.88659
#
# Velocity S-wave (km/s) = 3.47014 3.92204 3.70299
# Velocity P-wave (km/s) = 6.02427 6.46258 6.24727
#
# Compressibility (1/GPa) = 0.01999646
#
# Stress axis : x y z
#
# Youngs Moduli (GPa) = 97.62255 132.23790 106.78121
#
# Poissons Ratio (x) = 0.13166 0.05713
# Poissons Ratio (y) = 0.09719 0.21959
# Poissons Ratio (z) = 0.05223 0.27194
#
# Static dielectric constant tensor:
#      x y z
#    x 2.074520 0.000000 -0.098770 
#    y 0.000000 1.999000 0.000000 
#    z -0.098770 0.000000 2.034380 
# 
# From -- ./inp_files/50235.got.cif
#   From: 2010.05.17/outbox.cif.g08.bks.cpg/sg13_26_cif.got.tgz:50235.got - 2010.06.03 16:44:36.
