data_PCOD9238031
_publ_section_title
;
Structure prediction by ZEFSAII (Michael W. Deem and Ramdas Pophale) SiO2 
 PCOD9238031
Probable space group: P 2/C
;
_chemical_formula_sum "Si O2"
_cell_formula_units_Z 16
_cell_length_a 6.627853
_cell_length_b 6.689466
_cell_length_c 26.693559
_cell_angle_alpha 90.000000
_cell_angle_beta 140.023377
_cell_angle_gamma 90.000000
_cell_volume 760.373612
_symmetry_space_group_name_H-M "P 2/C"
_symmetry_group_IT_number 13
_symmetry_cell_setting 'monoclinic'
loop_
_space_group_symop_operation_xyz
x,y,z
-x,y,1/2-z
-x,-y,-z
x,-y,1/2+z
loop_
_atom_site_type_symbol
_atom_site_label
_atom_site_fract_x
_atom_site_fract_y
_atom_site_fract_z
Si Si1 0.567218 0.984612 0.571688
Si Si2 0.861340 0.293518 0.332875
Si Si3 0.199276 0.378004 0.834794
Si Si4 0.229432 0.657488 0.569881
O O1 0.605223 0.202527 0.602332
O O2 0.309650 0.847419 0.550488
O O3 0.500000 0.000000 0.500000
O O4 0.902098 0.873711 0.642729
O O5 0.500000 0.259180 0.250000
O O6 0.894462 0.288750 0.399064
O O7 0.981162 0.504873 0.333162
O O8 0.441358 0.542013 0.860063
O O9 0.000000 0.300556 0.750000
O O10 0.000000 0.500000 0.500000
#
# Coordination Sequence:
#
# PCOD9238031 Si02
#       4
#     4   4   4   4
#     4  11  26  43  66 100 134 169 220 272 322 388
#     4  11  24  43  66  96 133 173 217 268 327 384
#     4  11  24  42  66  96 132 171 218 271 323 384
#     4  11  24  44  69  93 134 173 214 265 326 389
#
# _framework density 21.042287000000002
#
# number of rings (size 3 to 8) (size 9 to 14) (size 15 to 20)
#    0.000    1.000    2.500    3.000    3.500   11.000 
#    0.000    0.000    0.000    0.000    0.000    0.000 
#    0.000    0.000    0.000    0.000    0.000    0.000 
#
# Total GULP energy -89510.196054 kJ/mol
# GULP energy per Si atom -5594.387253 kJ/mol
# Density = 2.099439 g / cm^3
# Si number density = 21.042287 Si / 1000 Ang^3
#
#
#
# Elastic Constant Matrix: (Units=GPa)
#
#
# Indices 1 2 3 4 5 6 
#
# 1 106.2256 35.6327 13.1587 0.0000 -8.2814 0.0000
# 2 35.6327 98.1479 13.6231 0.0000 -5.2774 0.0000
# 3 13.1587 13.6231 73.9074 0.0000 -4.8045 0.0000
# 4 0.0000 0.0000 0.0000 34.3117 0.0000 3.9287
# 5 -8.2814 -5.2774 -4.8045 0.0000 46.9505 0.0000
# 6 0.0000 0.0000 0.0000 3.9287 0.0000 37.8732
#
#
#
# Elastic Compliance Matrix: (Units=1/GPa)
#
#
# Indices 1 2 3 4 5 6 
#
# 1 0.010917 -0.003727 -0.001167 0.000000 0.001387 0.000000
# 2 -0.003727 0.011774 -0.001473 0.000000 0.000515 0.000000
# 3 -0.001167 -0.001473 0.014079 0.000000 0.001069 0.000000
# 4 0.000000 0.000000 0.000000 0.029495 0.000000 -0.003060
# 5 0.001387 0.000515 0.001069 0.000000 0.021711 0.000000
# 6 0.000000 0.000000 0.000000 -0.003060 0.000000 0.026721
#
#
# Mechanical properties :
#
#
# Convention : Reuss Voigt Hill
#
# Bulk Modulus (GPa) = 41.60295 44.79000 43.19647
# Shear Modulus (GPa) = 36.91605 38.21817 37.56711
#
# Velocity S-wave (km/s) = 4.19307 4.26638 4.22988
# Velocity P-wave (km/s) = 6.57697 6.75287 6.66550
#
# Compressibility (1/GPa) = 0.02403676
#
# Stress axis : x y z
#
# Youngs Moduli (GPa) = 91.60263 84.93341 71.02668
#
# Poissons Ratio (x) = 0.31653 0.08285
# Poissons Ratio (y) = 0.34139 0.10464
# Poissons Ratio (z) = 0.10686 0.12513
#
# Static dielectric constant tensor:
#      x y z
#    x 1.737530 0.000000 0.025430 
#    y 0.000000 1.717240 0.000000 
#    z 0.025430 0.000000 1.746750 
# 
# From -- ./inp_files/90015.got.cif
#   From: 2010.05.17/outbox.cif.g08.bks.cpg/sg13_46_cif.got.tgz:90015.got - 2010.06.03 16:44:36.
