data_PCOD9238212
_publ_section_title
;
Structure prediction by ZEFSAII (Michael W. Deem and Ramdas Pophale) SiO2 
 PCOD9238212
Probable space group: P 2/C
;
_chemical_formula_sum "Si O2"
_cell_formula_units_Z 18
_cell_length_a 5.689612
_cell_length_b 5.814250
_cell_length_c 23.074895
_cell_angle_alpha 90.000000
_cell_angle_beta 64.789167
_cell_angle_gamma 90.000000
_cell_volume 690.626142
_symmetry_space_group_name_H-M "P 2/C"
_symmetry_group_IT_number 13
_symmetry_cell_setting 'monoclinic'
loop_
_space_group_symop_operation_xyz
x,y,z
-x,y,1/2-z
-x,-y,-z
x,-y,1/2+z
loop_
_atom_site_type_symbol
_atom_site_label
_atom_site_fract_x
_atom_site_fract_y
_atom_site_fract_z
Si Si1 0.483518 0.193723 0.953456
Si Si2 0.279615 0.960624 0.858844
Si Si3 0.500000 0.239941 0.750000
Si Si4 0.282451 0.637484 0.694091
Si Si5 0.849145 0.569919 0.921083
O O1 0.776741 0.298682 0.921264
O O2 0.351239 0.098856 0.909438
O O3 0.283424 0.373761 0.003521
O O4 0.500000 0.000000 0.000000
O O5 0.548539 0.854600 0.807196
O O6 0.100887 0.736623 0.890311
O O7 0.242128 0.129198 0.808081
O O8 0.399195 0.407884 0.709291
O O9 0.293167 0.644852 0.623445
O O10 0.000000 0.660224 0.750000
#
# Coordination Sequence:
#
# PCOD9238212 Si02
#       5
#     4   4   2   4   4
#     4  11  24  48  77 111 155 207 257 334 409 476
#     4  12  26  49  76 115 153 211 263 327 418 479
#     4  12  26  46  74 108 152 210 262 324 406 474
#     4  12  26  48  72 110 153 199 267 325 391 495
#     4  11  25  47  74 114 154 199 270 327 392 504
#
# _framework density 26.063305
#
# number of rings (size 3 to 8) (size 9 to 14) (size 15 to 20)
#    0.000    0.444    4.444    4.000    0.000    7.111 
#    4.000    0.000    0.000    0.000    0.000    0.000 
#    0.000    0.000    0.000    0.000    0.000    0.000 
#
# Total GULP energy -100377.516080 kJ/mol
# GULP energy per Si atom -5576.528671 kJ/mol
# Density = 2.600398 g / cm^3
# Si number density = 26.063305 Si / 1000 Ang^3
#
#
#
# Elastic Constant Matrix: (Units=GPa)
#
#
# Indices 1 2 3 4 5 6 
#
# 1 78.8470 38.2463 59.6165 0.0000 5.6413 0.0000
# 2 38.2463 38.9783 39.1820 0.0000 3.8605 0.0000
# 3 59.6165 39.1820 162.7903 0.0000 13.0779 0.0000
# 4 0.0000 0.0000 0.0000 66.1204 0.0000 2.9421
# 5 5.6413 3.8605 13.0779 0.0000 58.3410 0.0000
# 6 0.0000 0.0000 0.0000 2.9421 0.0000 25.2060
#
#
#
# Elastic Compliance Matrix: (Units=1/GPa)
#
#
# Indices 1 2 3 4 5 6 
#
# 1 0.026535 -0.021458 -0.004543 0.000000 -0.000128 0.000000
# 2 -0.021458 0.051206 -0.004441 0.000000 -0.000318 0.000000
# 3 -0.004543 -0.004441 0.008978 0.000000 -0.001279 0.000000
# 4 0.000000 0.000000 0.000000 0.015203 0.000000 -0.001774
# 5 -0.000128 -0.000318 -0.001279 0.000000 0.017461 0.000000
# 6 0.000000 0.000000 0.000000 -0.001774 0.000000 0.039880
#
#
# Mechanical properties :
#
#
# Convention : Reuss Voigt Hill
#
# Bulk Modulus (GPa) = 38.70533 61.63393 50.16963
# Shear Modulus (GPa) = 21.85714 39.50486 30.68100
#
# Velocity S-wave (km/s) = 2.89903 3.89746 3.43472
# Velocity P-wave (km/s) = 5.10770 6.62968 5.91782
#
# Compressibility (1/GPa) = 0.02583624
#
# Stress axis : x y z
#
# Youngs Moduli (GPa) = 37.68580 19.52900 111.38122
#
# Poissons Ratio (x) = 0.41905 0.50597
# Poissons Ratio (y) = 0.80865 0.49464
# Poissons Ratio (z) = 0.17119 0.08673
#
# Static dielectric constant tensor:
#      x y z
#    x 2.189100 0.000000 -0.066970 
#    y 0.000000 2.366860 0.000000 
#    z -0.066970 0.000000 2.047260 
# 
# From -- ./inp_files/89871.got.cif
#   From: 2010.05.17/outbox.cif.g08.bks.cpg/sg13_45_cif.got.tgz:89871.got - 2010.06.03 16:44:36.
