data_PCOD9238101
_publ_section_title
;
Structure prediction by ZEFSAII (Michael W. Deem and Ramdas Pophale) SiO2 
 PCOD9238101
Probable space group: P 2/C
;
_chemical_formula_sum "Si O2"
_cell_formula_units_Z 20
_cell_length_a 7.504904
_cell_length_b 20.102203
_cell_length_c 5.529408
_cell_angle_alpha 90.000000
_cell_angle_beta 89.532168
_cell_angle_gamma 90.000000
_cell_volume 834.166903
_symmetry_space_group_name_H-M "P 2/C"
_symmetry_group_IT_number 13
_symmetry_cell_setting 'monoclinic'
loop_
_space_group_symop_operation_xyz
x,y,z
-x,y,1/2-z
-x,-y,-z
x,-y,1/2+z
loop_
_atom_site_type_symbol
_atom_site_label
_atom_site_fract_x
_atom_site_fract_y
_atom_site_fract_z
Si Si1 0.000000 0.737175 0.250000
Si Si2 0.500000 0.279959 0.250000
Si Si3 0.000000 0.541681 0.750000
Si Si4 0.500000 0.540737 0.250000
Si Si5 0.189310 0.182448 0.111924
Si Si6 0.784683 0.030679 0.280904
Si Si7 0.748584 0.368731 0.985083
O O1 0.146347 0.788161 0.350146
O O2 0.898559 0.685498 0.423376
O O3 0.335286 0.232304 0.206160
O O4 0.568213 0.329333 0.044639
O O5 0.828083 0.589024 0.706805
O O6 0.000000 0.500000 0.500000
O O7 0.500000 0.500000 0.500000
O O8 0.684107 0.582590 0.273393
O O9 0.248107 0.106559 0.139684
O O10 0.000000 0.187764 0.250000
O O11 0.000000 0.022176 0.250000
O O12 0.719542 0.986535 0.510030
#
# Coordination Sequence:
#
# PCOD9238101 Si02
#       7
#     2   2   2   2   4   4   4
#     4  12  25  46  72 106 141 198 238 304 364 444
#     4  12  25  48  72 112 145 196 240 308 368 440
#     4  12  27  50  78 110 145 196 244 308 374 448
#     4  12  27  48  72 104 141 188 240 304 364 442
#     4  11  24  44  72 105 148 192 248 303 367 440
#     4   9  20  37  67 102 142 193 246 303 365 431
#     4  12  26  47  75 106 148 188 246 300 373 442
#
# _framework density 23.976018
#
# number of rings (size 3 to 8) (size 9 to 14) (size 15 to 20)
#    0.000    0.800    2.000    4.800    7.000    3.200 
#    0.000    1.000    0.000    0.000    0.000    0.000 
#    0.000    0.000    0.000    0.000    0.000    0.000 
#
# Total GULP energy -111764.168572 kJ/mol
# GULP energy per Si atom -5588.208429 kJ/mol
# Density = 2.392145 g / cm^3
# Si number density = 23.976018 Si / 1000 Ang^3
#
#
#
# Elastic Constant Matrix: (Units=GPa)
#
#
# Indices 1 2 3 4 5 6 
#
# 1 75.9378 40.7354 25.0685 0.0000 12.2463 0.0000
# 2 40.7354 157.4602 92.3453 0.0000 8.1636 0.0000
# 3 25.0685 92.3453 144.4506 0.0000 17.7945 0.0000
# 4 0.0000 0.0000 0.0000 38.3367 0.0000 0.9792
# 5 12.2463 8.1636 17.7945 0.0000 34.6989 0.0000
# 6 0.0000 0.0000 0.0000 0.9792 0.0000 19.3667
#
#
#
# Elastic Compliance Matrix: (Units=1/GPa)
#
#
# Indices 1 2 3 4 5 6 
#
# 1 0.016046 -0.004189 0.000501 0.000000 -0.004935 0.000000
# 2 -0.004189 0.011287 -0.006771 0.000000 0.002296 0.000000
# 3 0.000501 -0.006771 0.011731 0.000000 -0.004600 0.000000
# 4 0.000000 0.000000 0.000000 0.026118 0.000000 -0.001321
# 5 -0.004935 0.002296 -0.004600 0.000000 0.032380 0.000000
# 6 0.000000 0.000000 0.000000 -0.001321 0.000000 0.051702
#
#
# Mechanical properties :
#
#
# Convention : Reuss Voigt Hill
#
# Bulk Modulus (GPa) = 55.10938 77.12747 66.11842
# Shear Modulus (GPa) = 28.37180 33.12706 30.74943
#
# Velocity S-wave (km/s) = 3.44370 3.72112 3.58510
# Velocity P-wave (km/s) = 6.23276 7.12045 6.69134
#
# Compressibility (1/GPa) = 0.01814573
#
# Stress axis : x y z
#
# Youngs Moduli (GPa) = 62.31964 88.59995 85.24325
#
# Poissons Ratio (x) = 0.37119 -0.04274
# Poissons Ratio (y) = 0.26109 0.57720
# Poissons Ratio (z) = -0.03125 0.59992
#
# Static dielectric constant tensor:
#      x y z
#    x 1.904710 0.000000 -0.019190 
#    y 0.000000 1.904730 0.000000 
#    z -0.019190 0.000000 1.983880 
# 
# From -- ./inp_files/1586.got.cif
#   From: 2010.05.17/outbox.cif.g08.bks.cpg/sg13_1_cif.got.tgz:1586.got - 2010.06.03 16:44:36.
