data_PCOD9238297
_publ_section_title
;
Structure prediction by ZEFSAII (Michael W. Deem and Ramdas Pophale) SiO2 
 PCOD9238297
Probable space group: P 2/C
;
_chemical_formula_sum "Si O2"
_cell_formula_units_Z 16
_cell_length_a 12.444572
_cell_length_b 12.868094
_cell_length_c 11.071664
_cell_angle_alpha 90.000000
_cell_angle_beta 156.221779
_cell_angle_gamma 90.000000
_cell_volume 714.866413
_symmetry_space_group_name_H-M "P 2/C"
_symmetry_group_IT_number 13
_symmetry_cell_setting 'monoclinic'
loop_
_space_group_symop_operation_xyz
x,y,z
-x,y,1/2-z
-x,-y,-z
x,-y,1/2+z
loop_
_atom_site_type_symbol
_atom_site_label
_atom_site_fract_x
_atom_site_fract_y
_atom_site_fract_z
Si Si1 0.757727 0.071385 0.287024
Si Si2 0.500000 0.350725 0.250000
Si Si3 0.170256 0.486931 0.297946
Si Si4 0.000000 0.195300 0.750000
Si Si5 0.753407 0.752871 0.585978
O O1 0.761095 0.174271 0.208906
O O2 0.835734 0.116105 0.496571
O O3 0.000000 0.000000 0.500000
O O4 0.500000 0.000000 0.000000
O O5 0.579762 0.433586 0.437837
O O6 0.756904 0.275587 0.527065
O O7 0.264289 0.367891 0.397861
O O8 0.000000 0.502268 0.250000
O O9 0.000000 0.500000 0.000000
O O10 0.000000 0.766436 0.750000
O O11 0.500000 0.785432 0.250000
#
# Coordination Sequence:
#
# PCOD9238297 Si02
#       5
#     4   2   4   2   4
#     4  12  28  49  77 103 142 196 249 315 371 438
#     4  12  24  48  74 114 152 194 242 312 376 460
#     4  11  25  46  75 112 156 202 246 303 375 453
#     4  12  28  48  74 112 146 192 252 314 374 446
#     4  11  25  46  72 109 145 189 242 297 365 445
#
# _framework density 22.381803999999999
#
# number of rings (size 3 to 8) (size 9 to 14) (size 15 to 20)
#    0.000    0.500    2.500    4.500    5.250    5.000 
#    0.000    0.000    0.000    0.000    0.000    0.000 
#    0.000    0.000    0.000    0.000    0.000    0.000 
#
# Total GULP energy -89271.379581 kJ/mol
# GULP energy per Si atom -5579.461224 kJ/mol
# Density = 2.233086 g / cm^3
# Si number density = 22.381804 Si / 1000 Ang^3
#
#
#
# Elastic Constant Matrix: (Units=GPa)
#
#
# Indices 1 2 3 4 5 6 
#
# 1 51.6023 33.7350 43.3388 0.0000 -1.6563 0.0000
# 2 33.7350 144.7346 45.4650 0.0000 2.2315 0.0000
# 3 43.3388 45.4650 178.9611 0.0000 -1.5896 0.0000
# 4 0.0000 0.0000 0.0000 50.5643 0.0000 -56.8814
# 5 -1.6563 2.2315 -1.5896 0.0000 55.1635 0.0000
# 6 0.0000 0.0000 0.0000 -56.8814 0.0000 -113.4159
#
#
#
# Elastic Compliance Matrix: (Units=1/GPa)
#
#
# Indices 1 2 3 4 5 6 
#
# 1 0.026899 -0.004606 -0.005336 0.000000 0.000840 0.000000
# 2 -0.004606 0.008304 -0.000999 0.000000 -0.000503 0.000000
# 3 -0.005336 -0.000999 0.007135 0.000000 0.000086 0.000000
# 4 0.000000 0.000000 0.000000 0.012644 0.000000 -0.006341
# 5 0.000840 -0.000503 0.000086 0.000000 0.018176 0.000000
# 6 0.000000 0.000000 0.000000 -0.006341 0.000000 -0.005637
#
#
# Mechanical properties :
#
#
# Convention : Reuss Voigt Hill
#
# Bulk Modulus (GPa) = 48.88728 68.93062 58.90895
# Shear Modulus (GPa) = 51.96314 15.31302 33.63808
#
# Velocity S-wave (km/s) = 4.82360 2.61851 3.88096
# Velocity P-wave (km/s) = 7.27411 6.32508 6.81613
#
# Compressibility (1/GPa) = 0.02045522
#
# Stress axis : x y z
#
# Youngs Moduli (GPa) = 37.17580 120.41933 140.16211
#
# Poissons Ratio (x) = 0.55469 0.74797
# Poissons Ratio (y) = 0.17124 0.13997
# Poissons Ratio (z) = 0.19839 0.12026
#
# Static dielectric constant tensor:
#      x y z
#    x 1.756210 0.000000 0.170570 
#    y 0.000000 1.894950 0.000000 
#    z 0.170570 0.000000 1.627100 
# 
# From -- ./inp_files/25951.got.cif
#   From: 2010.05.17/outbox.cif.g08.bks.cpg/sg13_13_cif.got.tgz:25951.got - 2010.06.03 16:44:36.
