data_PCOD9238784
_publ_section_title
;
Structure prediction by ZEFSAII (Michael W. Deem and Ramdas Pophale) SiO2 
 PCOD9238784
Probable space group: P 2/C
;
_chemical_formula_sum "Si O2"
_cell_formula_units_Z 14
_cell_length_a 12.767597
_cell_length_b 6.874764
_cell_length_c 10.743944
_cell_angle_alpha 90.000000
_cell_angle_beta 144.241039
_cell_angle_gamma 90.000000
_cell_volume 551.091236
_symmetry_space_group_name_H-M "P 2/C"
_symmetry_group_IT_number 13
_symmetry_cell_setting 'monoclinic'
loop_
_space_group_symop_operation_xyz
x,y,z
-x,y,1/2-z
-x,-y,-z
x,-y,1/2+z
loop_
_atom_site_type_symbol
_atom_site_label
_atom_site_fract_x
_atom_site_fract_y
_atom_site_fract_z
Si Si1 0.955492 0.889862 0.332191
Si Si2 0.596271 0.760699 0.071042
Si Si3 0.737069 0.424928 0.366434
Si Si4 0.500000 0.718985 0.250000
O O1 0.081889 0.696846 0.448402
O O2 0.000000 0.005692 0.250000
O O3 0.743936 0.867336 0.133727
O O4 0.000000 0.000000 0.500000
O O5 0.713757 0.571396 0.227437
O O6 0.528755 0.824633 0.144920
O O7 0.423722 0.721347 0.822002
O O8 0.670866 0.567975 0.414054
#
# Coordination Sequence:
#
# PCOD9238784 Si02
#       4
#     4   4   4   2
#     4  12  27  43  61  94 138 179 211 256 320 391
#     4   9  20  40  67  98 119 161 218 273 323 372
#     4   9  19  40  66  96 120 161 212 274 321 374
#     4   8  16  34  66  96 114 148 206 272 320 358
#
# _framework density 25.404143999999999
#
# number of rings (size 3 to 8) (size 9 to 14) (size 15 to 20)
#    1.714    0.571    0.000    2.571    0.000    3.429 
#    0.000    1.429    0.000    0.000    0.000    0.000 
#    0.000    0.000    0.000    0.000    0.000    0.000 
#
# Total GULP energy -77985.815733 kJ/mol
# GULP energy per Si atom -5570.415410 kJ/mol
# Density = 2.534632 g / cm^3
# Si number density = 25.404144 Si / 1000 Ang^3
#
#
#
# Elastic Constant Matrix: (Units=GPa)
#
#
# Indices 1 2 3 4 5 6 
#
# 1 224.1051 25.2633 53.3319 0.0000 2.3491 0.0000
# 2 25.2633 33.6663 -3.3142 0.0000 14.7177 0.0000
# 3 53.3319 -3.3142 91.8162 0.0000 15.9981 0.0000
# 4 0.0000 0.0000 0.0000 18.7105 0.0000 1.8449
# 5 2.3491 14.7177 15.9981 0.0000 50.1502 0.0000
# 6 0.0000 0.0000 0.0000 1.8449 0.0000 -0.8845
#
#
#
# Elastic Compliance Matrix: (Units=1/GPa)
#
#
# Indices 1 2 3 4 5 6 
#
# 1 0.006179 -0.006357 -0.004334 0.000000 0.002959 0.000000
# 2 -0.006357 0.041496 0.007688 0.000000 -0.014333 0.000000
# 3 -0.004334 0.007688 0.014871 0.000000 -0.006797 0.000000
# 4 0.000000 0.000000 0.000000 0.044329 0.000000 0.092461
# 5 0.002959 -0.014333 -0.006797 0.000000 0.026176 0.000000
# 6 0.000000 0.000000 0.000000 0.092461 0.000000 -0.937725
#
#
# Mechanical properties :
#
#
# Convention : Reuss Voigt Hill
#
# Bulk Modulus (GPa) = 17.68695 55.57217 36.62956
# Shear Modulus (GPa) = -6.41173 31.88235 12.73531
#
# Velocity S-wave (km/s) = -1.59040 3.54645 2.24142
# Velocity P-wave (km/s) = 1.89864 6.22033 4.59877
#
# Compressibility (1/GPa) = 0.05653885
#
# Stress axis : x y z
#
# Youngs Moduli (GPa) = 161.83136 24.09858 67.24634
#
# Poissons Ratio (x) = 0.15320 0.29146
# Poissons Ratio (y) = 1.02878 -0.51697
# Poissons Ratio (z) = 0.70142 -0.18526
#
# Static dielectric constant tensor:
#      x y z
#    x 2.054150 0.000000 -0.020360 
#    y 0.000000 2.246790 0.000000 
#    z -0.020360 0.000000 1.853880 
# 
# From -- ./inp_files/25235.got.cif
#   From: 2010.05.17/outbox.cif.g08.bks.cpg/sg13_13_cif.got.tgz:25235.got - 2010.06.03 16:44:36.
