data_PCOD9238097
_publ_section_title
;
Structure prediction by ZEFSAII (Michael W. Deem and Ramdas Pophale) SiO2 
 PCOD9238097
Probable space group: P 2/C
;
_chemical_formula_sum "Si O2"
_cell_formula_units_Z 22
_cell_length_a 5.374505
_cell_length_b 13.188904
_cell_length_c 13.869230
_cell_angle_alpha 90.000000
_cell_angle_beta 84.431409
_cell_angle_gamma 90.000000
_cell_volume 978.464629
_symmetry_space_group_name_H-M "P 2/C"
_symmetry_group_IT_number 13
_symmetry_cell_setting 'monoclinic'
loop_
_space_group_symop_operation_xyz
x,y,z
-x,y,1/2-z
-x,-y,-z
x,-y,1/2+z
loop_
_atom_site_type_symbol
_atom_site_label
_atom_site_fract_x
_atom_site_fract_y
_atom_site_fract_z
Si Si1 0.547416 0.911059 0.134648
Si Si2 0.904104 0.689772 0.553092
Si Si3 0.405115 0.429190 0.091148
Si Si4 0.889919 0.273170 0.649736
Si Si5 0.803071 0.911967 0.529128
Si Si6 0.500000 0.426734 0.750000
O O1 0.500000 0.903342 0.250000
O O2 0.762045 0.826939 0.110253
O O3 0.613431 0.026432 0.104798
O O4 0.329690 0.884299 0.067323
O O5 0.157221 0.634698 0.577033
O O6 0.918872 0.682777 0.435418
O O7 0.648713 0.640861 0.600726
O O8 0.900151 0.809870 0.574114
O O9 0.350570 0.500696 0.183927
O O10 0.500000 0.500000 0.000000
O O11 0.677599 0.355722 0.679797
O O12 0.000000 0.247962 0.750000
O O13 0.000000 0.000000 0.500000
#
# Coordination Sequence:
#
# PCOD9238097 Si02
#       6
#     4   4   4   4   4   2
#     4  11  24  44  71 111 146 184 242 308 368 429
#     4  12  26  48  73 102 150 192 237 295 373 433
#     4  12  27  48  71 104 144 195 237 304 364 429
#     4  12  24  41  78 109 138 182 244 313 364 425
#     4  11  25  44  74 104 145 193 239 292 366 454
#     4  12  28  44  74 108 140 188 254 300 362 436
#
# _framework density 22.484206
#
# number of rings (size 3 to 8) (size 9 to 14) (size 15 to 20)
#    0.000    0.364    4.545    3.818    5.091    0.000 
#    1.636    1.818    0.000    0.000    0.000    0.000 
#    0.000    0.000    0.000    0.000    0.000    0.000 
#
# Total GULP energy -123075.476780 kJ/mol
# GULP energy per Si atom -5594.339854 kJ/mol
# Density = 2.243303 g / cm^3
# Si number density = 22.484206 Si / 1000 Ang^3
#
#
#
# Elastic Constant Matrix: (Units=GPa)
#
#
# Indices 1 2 3 4 5 6 
#
# 1 110.2590 60.4133 9.3397 0.0000 26.5101 0.0000
# 2 60.4133 160.9403 24.0005 0.0000 21.2713 0.0000
# 3 9.3397 24.0005 61.0560 0.0000 14.1166 0.0000
# 4 0.0000 0.0000 0.0000 24.7022 0.0000 9.9590
# 5 26.5101 21.2713 14.1166 0.0000 42.2119 0.0000
# 6 0.0000 0.0000 0.0000 9.9590 0.0000 58.3042
#
#
#
# Elastic Compliance Matrix: (Units=1/GPa)
#
#
# Indices 1 2 3 4 5 6 
#
# 1 0.012748 -0.004120 0.001128 0.000000 -0.006307 0.000000
# 2 -0.004120 0.008220 -0.002429 0.000000 -0.000743 0.000000
# 3 0.001128 -0.002429 0.018470 0.000000 -0.005661 0.000000
# 4 0.000000 0.000000 0.000000 0.043476 0.000000 -0.007426
# 5 -0.006307 -0.000743 -0.005661 0.000000 0.029918 0.000000
# 6 0.000000 0.000000 0.000000 -0.007426 0.000000 0.018420
#
#
# Mechanical properties :
#
#
# Convention : Reuss Voigt Hill
#
# Bulk Modulus (GPa) = 34.97159 57.75136 46.36147
# Shear Modulus (GPa) = 32.97570 40.94380 36.95975
#
# Velocity S-wave (km/s) = 3.83380 4.27195 4.05879
# Velocity P-wave (km/s) = 5.93169 7.07628 6.52912
#
# Compressibility (1/GPa) = 0.02859464
#
# Stress axis : x y z
#
# Youngs Moduli (GPa) = 78.44502 121.64840 54.14284
#
# Poissons Ratio (x) = 0.50117 -0.06105
# Poissons Ratio (y) = 0.32318 0.13154
# Poissons Ratio (z) = -0.08846 0.29554
#
# Static dielectric constant tensor:
#      x y z
#    x 5.917460 0.000000 -0.956180 
#    y 0.000000 1.851230 0.000000 
#    z -0.956180 0.000000 2.040680 
# 
# From -- ./inp_files/43772.got.cif
#   From: 2010.05.17/outbox.cif.g08.bks.cpg/sg13_22_cif.got.tgz:43772.got - 2010.06.03 16:44:36.
