data_PCOD9238738
_publ_section_title
;
Structure prediction by ZEFSAII (Michael W. Deem and Ramdas Pophale) SiO2 
 PCOD9238738
Probable space group: P 2/C
;
_chemical_formula_sum "Si O2"
_cell_formula_units_Z 12
_cell_length_a 7.902319
_cell_length_b 13.749079
_cell_length_c 9.261505
_cell_angle_alpha 90.000000
_cell_angle_beta 147.560467
_cell_angle_gamma 90.000000
_cell_volume 539.766564
_symmetry_space_group_name_H-M "P 2/C"
_symmetry_group_IT_number 13
_symmetry_cell_setting 'monoclinic'
loop_
_space_group_symop_operation_xyz
x,y,z
-x,y,1/2-z
-x,-y,-z
x,-y,1/2+z
loop_
_atom_site_type_symbol
_atom_site_label
_atom_site_fract_x
_atom_site_fract_y
_atom_site_fract_z
Si Si1 0.798464 0.098313 0.360315
Si Si2 0.415393 0.210254 0.856712
Si Si3 0.370911 0.408563 0.995916
O O1 0.500000 0.088199 0.250000
O O2 0.050955 0.176617 0.600270
O O3 0.647555 0.132516 0.100161
O O4 0.000000 0.000000 0.500000
O O5 0.500000 0.219890 0.750000
O O6 0.453649 0.310629 0.969107
O O7 0.000000 0.417492 0.750000
O O8 0.500000 0.404408 0.250000
O O9 0.500000 0.500000 0.000000
#
# Coordination Sequence:
#
# PCOD9238738 Si02
#       3
#     4   4   4
#     4  12  26  47  71 101 140 185 233 285 344 411
#     4  12  26  46  71 103 140 183 231 285 345 411
#     4  12  26  47  73 104 140 182 229 284 345 412
#
# _framework density 22.231833000000002
#
# number of rings (size 3 to 8) (size 9 to 14) (size 15 to 20)
#    0.000    0.000    0.000   11.000    0.000    5.333 
#    0.000    1.667    0.000    0.000    0.000    0.000 
#    0.000    0.000    0.000    0.000    0.000    0.000 
#
# Total GULP energy -67332.960607 kJ/mol
# GULP energy per Si atom -5611.080051 kJ/mol
# Density = 2.218123 g / cm^3
# Si number density = 22.231833 Si / 1000 Ang^3
#
#
#
# Elastic Constant Matrix: (Units=GPa)
#
#
# Indices 1 2 3 4 5 6 
#
# 1 190.1562 106.0802 107.5826 0.0000 -19.7189 0.0000
# 2 106.0802 157.8600 87.5946 0.0000 -16.6054 0.0000
# 3 107.5826 87.5946 226.6365 0.0000 -18.5239 0.0000
# 4 0.0000 0.0000 0.0000 40.1811 0.0000 0.0576
# 5 -19.7189 -16.6054 -18.5239 0.0000 56.4749 0.0000
# 6 0.0000 0.0000 0.0000 0.0576 0.0000 41.0928
#
#
#
# Elastic Compliance Matrix: (Units=1/GPa)
#
#
# Indices 1 2 3 4 5 6 
#
# 1 0.009535 -0.004879 -0.002554 0.000000 0.001057 0.000000
# 2 -0.004879 0.010668 -0.001736 0.000000 0.000863 0.000000
# 3 -0.002554 -0.001736 0.006352 0.000000 0.000681 0.000000
# 4 0.000000 0.000000 0.000000 0.024887 0.000000 -0.000035
# 5 0.001057 0.000863 0.000681 0.000000 0.018553 0.000000
# 6 0.000000 0.000000 0.000000 -0.000035 0.000000 0.024335
#
#
# Mechanical properties :
#
#
# Convention : Reuss Voigt Hill
#
# Bulk Modulus (GPa) = 121.72519 130.79639 126.26079
# Shear Modulus (GPa) = 43.32428 45.77611 44.55020
#
# Velocity S-wave (km/s) = 4.41925 4.54258 4.48134
# Velocity P-wave (km/s) = 8.99507 9.29914 9.14837
#
# Compressibility (1/GPa) = 0.00821523
#
# Stress axis : x y z
#
# Youngs Moduli (GPa) = 104.87219 93.73955 157.44124
#
# Poissons Ratio (x) = 0.45738 0.40213
# Poissons Ratio (y) = 0.51170 0.27338
# Poissons Ratio (z) = 0.26786 0.16277
#
# Static dielectric constant tensor:
#      x y z
#    x 1.743700 0.000000 0.006380 
#    y 0.000000 1.990180 0.000000 
#    z 0.006380 0.000000 1.760970 
# 
# From -- ./inp_files/11003.got.cif
#   From: 2010.05.17/outbox.cif.g08.bks.cpg/sg13_6_cif.got.tgz:11003.got - 2010.06.03 16:44:36.
