data_PCOD9238718
_publ_section_title
;
Structure prediction by ZEFSAII (Michael W. Deem and Ramdas Pophale) SiO2 
 PCOD9238718
Probable space group: P 2/C
;
_chemical_formula_sum "Si O2"
_cell_formula_units_Z 14
_cell_length_a 12.161616
_cell_length_b 4.986616
_cell_length_c 15.784268
_cell_angle_alpha 90.000000
_cell_angle_beta 141.113089
_cell_angle_gamma 90.000000
_cell_volume 600.942293
_symmetry_space_group_name_H-M "P 2/C"
_symmetry_group_IT_number 13
_symmetry_cell_setting 'monoclinic'
loop_
_space_group_symop_operation_xyz
x,y,z
-x,y,1/2-z
-x,-y,-z
x,-y,1/2+z
loop_
_atom_site_type_symbol
_atom_site_label
_atom_site_fract_x
_atom_site_fract_y
_atom_site_fract_z
Si Si1 0.372150 0.902924 0.996472
Si Si2 0.500000 0.825896 0.250000
Si Si3 0.875423 0.741209 0.402828
Si Si4 0.182341 0.621488 0.329893
O O1 0.465315 0.966355 0.140537
O O2 0.675861 0.403654 0.053375
O O3 0.500000 0.000000 0.000000
O O4 0.207558 0.099236 0.893650
O O5 0.694386 0.705802 0.347873
O O6 0.821726 0.699504 0.271800
O O7 0.000000 0.500000 0.500000
O O8 0.000000 0.000000 0.500000
O O9 0.000000 0.499245 0.250000
#
# Coordination Sequence:
#
# PCOD9238718 Si02
#       4
#     4   2   4   4
#     4  12  26  47  73 107 145 197 245 303 373 443
#     4  12  28  48  80 106 156 194 252 310 376 442
#     4  12  27  47  74 112 147 193 251 305 370 447
#     4  12  25  48  74 105 152 190 248 310 372 445
#
# _framework density 23.296744
#
# number of rings (size 3 to 8) (size 9 to 14) (size 15 to 20)
#    0.000    0.000    2.857    6.857    0.000    2.286 
#    0.000    0.000    0.000    0.000    0.000    0.000 
#    0.000    0.000    0.000    0.000    0.000    0.000 
#
# Total GULP energy -78117.732298 kJ/mol
# GULP energy per Si atom -5579.838021 kJ/mol
# Density = 2.324372 g / cm^3
# Si number density = 23.296744 Si / 1000 Ang^3
#
#
#
# Elastic Constant Matrix: (Units=GPa)
#
#
# Indices 1 2 3 4 5 6 
#
# 1 140.9278 5.2652 36.4187 0.0000 8.8218 0.0000
# 2 5.2652 140.9634 44.5152 0.0000 3.1998 0.0000
# 3 36.4187 44.5152 144.9104 0.0000 -22.5015 0.0000
# 4 0.0000 0.0000 0.0000 8.4711 0.0000 11.4239
# 5 8.8218 3.1998 -22.5015 0.0000 70.3018 0.0000
# 6 0.0000 0.0000 0.0000 11.4239 0.0000 24.7430
#
#
#
# Elastic Compliance Matrix: (Units=1/GPa)
#
#
# Indices 1 2 3 4 5 6 
#
# 1 0.007806 0.000504 -0.002391 0.000000 -0.001768 0.000000
# 2 0.000504 0.007984 -0.002784 0.000000 -0.001318 0.000000
# 3 -0.002391 -0.002784 0.008864 0.000000 0.003264 0.000000
# 4 0.000000 0.000000 0.000000 0.312824 0.000000 -0.144431
# 5 -0.001768 -0.001318 0.003264 0.000000 0.015551 0.000000
# 6 0.000000 0.000000 0.000000 -0.144431 0.000000 0.107100
#
#
# Mechanical properties :
#
#
# Convention : Reuss Voigt Hill
#
# Bulk Modulus (GPa) = 65.31171 66.57775 65.94473
# Shear Modulus (GPa) = 10.53578 43.41004 26.97291
#
# Velocity S-wave (km/s) = 2.12891 4.32134 3.40633
# Velocity P-wave (km/s) = 5.84282 7.31702 6.62108
#
# Compressibility (1/GPa) = 0.01531119
#
# Stress axis : x y z
#
# Youngs Moduli (GPa) = 128.11465 125.24644 112.82054
#
# Poissons Ratio (x) = -0.06307 0.26974
# Poissons Ratio (y) = -0.06452 0.31408
# Poissons Ratio (z) = 0.30630 0.34867
#
# Static dielectric constant tensor:
#      x y z
#    x 1.997540 0.000000 0.097130 
#    y 0.000000 1.757850 0.000000 
#    z 0.097130 0.000000 1.932900 
# 
# From -- ./inp_files/48377.got.cif
#   From: 2010.05.17/outbox.cif.g08.bks.cpg/sg13_25_cif.got.tgz:48377.got - 2010.06.03 16:44:36.
