data_PCOD9238475
_publ_section_title
;
Structure prediction by ZEFSAII (Michael W. Deem and Ramdas Pophale) SiO2 
 PCOD9238475
Probable space group: P 2/C
;
_chemical_formula_sum "Si O2"
_cell_formula_units_Z 28
_cell_length_a 9.067334
_cell_length_b 20.976376
_cell_length_c 14.407841
_cell_angle_alpha 90.000000
_cell_angle_beta 30.195901
_cell_angle_gamma 90.000000
_cell_volume 1378.290614
_symmetry_space_group_name_H-M "P 2/C"
_symmetry_group_IT_number 13
_symmetry_cell_setting 'monoclinic'
loop_
_space_group_symop_operation_xyz
x,y,z
-x,y,1/2-z
-x,-y,-z
x,-y,1/2+z
loop_
_atom_site_type_symbol
_atom_site_label
_atom_site_fract_x
_atom_site_fract_y
_atom_site_fract_z
Si Si1 0.832193 0.270711 0.579085
Si Si2 0.873004 0.357373 0.224969
Si Si3 0.857893 0.068575 0.564437
Si Si4 0.867409 0.828302 0.217726
Si Si5 0.775326 0.470545 0.551788
Si Si6 0.810984 0.160229 0.439146
Si Si7 0.659481 0.439879 0.963309
O O1 0.500000 0.297657 0.750000
O O2 0.899720 0.239345 0.643143
O O3 0.817289 0.210749 0.518370
O O4 0.063410 0.317801 0.403482
O O5 0.541607 0.377659 0.428906
O O6 0.000000 0.326606 0.250000
O O7 0.058206 0.422674 0.107339
O O8 0.500000 0.067037 0.750000
O O9 0.958682 0.115607 0.594332
O O10 0.938510 0.097763 0.420135
O O11 0.000000 0.000000 0.500000
O O12 0.521968 0.842559 0.413473
O O13 0.000000 0.828037 0.250000
O O14 0.500000 0.437751 0.750000
O O15 0.655105 0.533270 0.568317
O O16 0.000000 0.500000 0.500000
O O17 0.000000 0.179419 0.250000
O O18 0.000000 0.431574 0.750000
O O19 0.500000 0.500000 0.000000
#
# Coordination Sequence:
#
# PCOD9238475 Si02
#       7
#     4   4   4   4   4   4   4
#     4   9  20  41  66  88 116 155 213 257 308 379
#     4  12  23  38  68  91 117 160 203 250 307 380
#     4   9  19  34  54  92 134 171 217 256 304 366
#     4   9  19  38  66  89 123 168 207 268 321 358
#     4  12  22  36  61  87 118 154 193 237 303 371
#     4   9  18  36  63  87 119 169 210 255 309 367
#     4  12  21  41  62  90 122 156 197 240 308 383
#
# _framework density 20.315020000000001
#
# number of rings (size 3 to 8) (size 9 to 14) (size 15 to 20)
#    0.000    1.714    4.286    2.571    0.000    1.714 
#    0.000    5.000   18.857    0.000    0.000    0.000 
#    0.000    0.000    0.000    0.000    0.000    0.000 
#
# Total GULP energy -155940.780287 kJ/mol
# GULP energy per Si atom -5569.313582 kJ/mol
# Density = 2.026878 g / cm^3
# Si number density = 20.315020 Si / 1000 Ang^3
#
#
#
# Elastic Constant Matrix: (Units=GPa)
#
#
# Indices 1 2 3 4 5 6 
#
# 1 161.8838 44.8378 35.4629 0.0000 6.6465 0.0000
# 2 44.8378 85.1832 32.0360 0.0000 -4.7049 0.0000
# 3 35.4629 32.0360 117.0208 0.0000 3.1867 0.0000
# 4 0.0000 0.0000 0.0000 24.1130 0.0000 2.4840
# 5 6.6465 -4.7049 3.1867 0.0000 24.7391 0.0000
# 6 0.0000 0.0000 0.0000 2.4840 0.0000 0.7977
#
#
#
# Elastic Compliance Matrix: (Units=1/GPa)
#
#
# Indices 1 2 3 4 5 6 
#
# 1 0.007565 -0.003666 -0.001219 0.000000 -0.002573 0.000000
# 2 -0.003666 0.015083 -0.003134 0.000000 0.004257 0.000000
# 3 -0.001219 -0.003134 0.009815 0.000000 -0.001533 0.000000
# 4 0.000000 0.000000 0.000000 0.061056 0.000000 -0.190113
# 5 -0.002573 0.004257 -0.001533 0.000000 0.042120 0.000000
# 6 0.000000 0.000000 0.000000 -0.190113 0.000000 1.845496
#
#
# Mechanical properties :
#
#
# Convention : Reuss Voigt Hill
#
# Bulk Modulus (GPa) = 60.88335 65.41792 63.15064
# Shear Modulus (GPa) = 2.49669 26.71337 14.60503
#
# Velocity S-wave (km/s) = 1.10980 3.63017 2.68419
# Velocity P-wave (km/s) = 5.62822 7.05992 6.38433
#
# Compressibility (1/GPa) = 0.01642485
#
# Stress axis : x y z
#
# Youngs Moduli (GPa) = 132.18308 66.30079 101.88829
#
# Poissons Ratio (x) = 0.24304 0.12420
# Poissons Ratio (y) = 0.48455 0.31933
# Poissons Ratio (z) = 0.16114 0.20780
#
# Static dielectric constant tensor:
#      x y z
#    x 1.781410 0.000000 0.019090 
#    y 0.000000 1.747100 0.000000 
#    z 0.019090 0.000000 1.772040 
# 
# From -- ./inp_files/48198.got.cif
#   From: 2010.05.17/outbox.cif.g08.bks.cpg/sg13_25_cif.got.tgz:48198.got - 2010.06.03 16:44:36.
