data_PCOD9238789
_publ_section_title
;
Structure prediction by ZEFSAII (Michael W. Deem and Ramdas Pophale) SiO2 
 PCOD9238789
Probable space group: P 2/C
;
_chemical_formula_sum "Si O2"
_cell_formula_units_Z 14
_cell_length_a 7.978022
_cell_length_b 4.954720
_cell_length_c 20.573612
_cell_angle_alpha 90.000000
_cell_angle_beta 43.068067
_cell_angle_gamma 90.000000
_cell_volume 555.342410
_symmetry_space_group_name_H-M "P 2/C"
_symmetry_group_IT_number 13
_symmetry_cell_setting 'monoclinic'
loop_
_space_group_symop_operation_xyz
x,y,z
-x,y,1/2-z
-x,-y,-z
x,-y,1/2+z
loop_
_atom_site_type_symbol
_atom_site_label
_atom_site_fract_x
_atom_site_fract_y
_atom_site_fract_z
Si Si1 0.000000 0.141482 0.750000
Si Si2 0.351512 0.473251 0.232949
Si Si3 0.101411 0.143296 0.099132
Si Si4 0.784188 0.621525 0.515865
O O1 0.173051 0.325653 0.745352
O O2 0.158029 0.962050 0.655332
O O3 0.500000 0.608568 0.250000
O O4 0.546462 0.355904 0.127535
O O5 0.177783 0.247836 0.314328
O O6 0.135496 0.900239 0.039400
O O7 0.250598 0.399027 0.030881
O O8 0.000000 0.500000 0.500000
#
# Coordination Sequence:
#
# PCOD9238789 Si02
#       4
#     2   4   4   4
#     4  12  28  54  78 124 168 212 272 332 408 474
#     4  12  28  53  85 115 167 215 266 343 398 483
#     4  12  27  50  78 119 161 208 270 330 402 477
#     4  12  27  49  83 121 158 213 274 327 408 481
#
# _framework density 25.209672999999999
#
# number of rings (size 3 to 8) (size 9 to 14) (size 15 to 20)
#    0.000    0.000    5.714    1.714    4.000    3.429 
#    0.000    0.000    0.000    0.000    0.000    0.000 
#    0.000    0.000    0.000    0.000    0.000    0.000 
#
# Total GULP energy -78584.696759 kJ/mol
# GULP energy per Si atom -5613.192626 kJ/mol
# Density = 2.515229 g / cm^3
# Si number density = 25.209673 Si / 1000 Ang^3
#
#
#
# Elastic Constant Matrix: (Units=GPa)
#
#
# Indices 1 2 3 4 5 6 
#
# 1 170.3471 61.0290 45.1631 0.0000 12.4306 0.0000
# 2 61.0290 141.2791 64.8303 0.0000 11.4476 0.0000
# 3 45.1631 64.8303 210.6094 0.0000 17.1373 0.0000
# 4 0.0000 0.0000 0.0000 -13.4690 0.0000 -0.8282
# 5 12.4306 11.4476 17.1373 0.0000 29.8796 0.0000
# 6 0.0000 0.0000 0.0000 -0.8282 0.0000 17.2124
#
#
#
# Elastic Compliance Matrix: (Units=1/GPa)
#
#
# Indices 1 2 3 4 5 6 
#
# 1 0.007096 -0.002675 -0.000568 0.000000 -0.001602 0.000000
# 2 -0.002675 0.009343 -0.002204 0.000000 -0.001202 0.000000
# 3 -0.000568 -0.002204 0.005728 0.000000 -0.002204 0.000000
# 4 0.000000 0.000000 0.000000 -0.074026 0.000000 -0.003562
# 5 -0.001602 -0.001202 -0.002204 0.000000 0.035859 0.000000
# 6 0.000000 0.000000 0.000000 -0.003562 0.000000 0.057926
#
#
# Mechanical properties :
#
#
# Convention : Reuss Voigt Hill
#
# Bulk Modulus (GPa) = 88.71565 96.03115 92.37340
# Shear Modulus (GPa) = 88.37308 30.13881 59.25594
#
# Velocity S-wave (km/s) = 5.92717 3.46139 4.85348
# Velocity P-wave (km/s) = 9.06142 7.35871 8.25409
#
# Compressibility (1/GPa) = 0.01127197
#
# Stress axis : x y z
#
# Youngs Moduli (GPa) = 140.92137 107.03553 174.58506
#
# Poissons Ratio (x) = 0.28632 0.09916
# Poissons Ratio (y) = 0.37696 0.38486
# Poissons Ratio (z) = 0.08004 0.23595
#
# Static dielectric constant tensor:
#      x y z
#    x 2.050870 0.000000 0.008770 
#    y 0.000000 1.980670 0.000000 
#    z 0.008770 0.000000 1.950060 
# 
# From -- ./inp_files/74336.got.cif
#   From: 2010.05.17/outbox.cif.g08.bks.cpg/sg13_38_cif.got.tgz:74336.got - 2010.06.03 16:44:36.
