data_PCOD9238252
_publ_section_title
;
Structure prediction by ZEFSAII (Michael W. Deem and Ramdas Pophale) SiO2 
 PCOD9238252
Probable space group: P 2/C
;
_chemical_formula_sum "Si O2"
_cell_formula_units_Z 18
_cell_length_a 14.668034
_cell_length_b 4.924934
_cell_length_c 14.818405
_cell_angle_alpha 90.000000
_cell_angle_beta 138.246112
_cell_angle_gamma 90.000000
_cell_volume 712.859361
_symmetry_space_group_name_H-M "P 2/C"
_symmetry_group_IT_number 13
_symmetry_cell_setting 'monoclinic'
loop_
_space_group_symop_operation_xyz
x,y,z
-x,y,1/2-z
-x,-y,-z
x,-y,1/2+z
loop_
_atom_site_type_symbol
_atom_site_label
_atom_site_fract_x
_atom_site_fract_y
_atom_site_fract_z
Si Si1 0.842287 0.360004 0.783790
Si Si2 0.605383 0.837908 0.015929
Si Si3 0.628982 0.339965 0.906371
Si Si4 0.000000 0.875157 0.250000
Si Si5 0.907011 0.240484 0.017818
O O1 0.682552 0.346355 0.649879
O O2 0.949392 0.596980 0.881796
O O3 0.870478 0.158881 0.888584
O O4 0.883284 0.294810 0.711084
O O5 0.578962 0.612460 0.920005
O O6 0.500000 0.000000 0.000000
O O7 0.665992 0.098818 0.004627
O O8 0.500000 0.247041 0.750000
O O9 0.768065 0.391123 0.949980
O O10 0.939056 0.029554 0.119789
#
# Coordination Sequence:
#
# PCOD9238252 Si02
#       5
#     4   4   4   2   4
#     4  11  25  44  72 108 148 199 254 317 386 459
#     4  12  26  49  76 111 155 204 259 324 386 462
#     4  12  26  49  76 110 158 205 258 317 388 462
#     4  12  20  44  68 102 146 184 250 316 374 448
#     4  11  25  44  71 108 148 200 254 314 386 459
#
# _framework density 25.250420999999999
#
# number of rings (size 3 to 8) (size 9 to 14) (size 15 to 20)
#    0.000    0.444    2.222    6.667    0.000    0.000 
#    4.000    0.000    0.000    0.000    0.000    0.000 
#    0.000    0.000    0.000    0.000    0.000    0.000 
#
# Total GULP energy -100220.645636 kJ/mol
# GULP energy per Si atom -5567.813646 kJ/mol
# Density = 2.519295 g / cm^3
# Si number density = 25.250421 Si / 1000 Ang^3
#
#
#
# Elastic Constant Matrix: (Units=GPa)
#
#
# Indices 1 2 3 4 5 6 
#
# 1 123.2497 38.7054 20.2411 0.0000 -7.4251 0.0000
# 2 38.7054 86.5952 8.9800 0.0000 -3.5512 0.0000
# 3 20.2411 8.9800 109.9237 0.0000 -11.7214 0.0000
# 4 0.0000 0.0000 0.0000 29.8890 0.0000 -26.9424
# 5 -7.4251 -3.5512 -11.7214 0.0000 56.0576 0.0000
# 6 0.0000 0.0000 0.0000 -26.9424 0.0000 18.5014
#
#
#
# Elastic Compliance Matrix: (Units=1/GPa)
#
#
# Indices 1 2 3 4 5 6 
#
# 1 0.009688 -0.004159 -0.001366 0.000000 0.000734 0.000000
# 2 -0.004159 0.013448 -0.000308 0.000000 0.000237 0.000000
# 3 -0.001366 -0.000308 0.009566 0.000000 0.001800 0.000000
# 4 0.000000 0.000000 0.000000 -0.107004 0.000000 -0.155824
# 5 0.000734 0.000237 0.001800 0.000000 0.018327 0.000000
# 6 0.000000 0.000000 0.000000 -0.155824 0.000000 -0.172866
#
#
# Mechanical properties :
#
#
# Convention : Reuss Voigt Hill
#
# Bulk Modulus (GPa) = 47.53301 50.62461 49.07881
# Shear Modulus (GPa) = -23.79096 37.67907 6.94405
#
# Velocity S-wave (km/s) = -3.07286 3.86711 1.66013
# Velocity P-wave (km/s) = 2.50511 6.32708 4.81183
#
# Compressibility (1/GPa) = 0.02103801
#
# Stress axis : x y z
#
# Youngs Moduli (GPa) = 103.21928 74.35869 104.53923
#
# Poissons Ratio (x) = 0.30922 0.14279
# Poissons Ratio (y) = 0.42924 0.03216
# Poissons Ratio (z) = 0.14099 0.02288
#
# Static dielectric constant tensor:
#      x y z
#    x 1.704320 0.000000 -1.606540 
#    y 0.000000 2.100360 0.000000 
#    z -1.606540 0.000000 -5.834620 
# 
# From -- ./inp_files/52451.got.cif
#   From: 2010.05.17/outbox.cif.g08.bks.cpg/sg13_27_cif.got.tgz:52451.got - 2010.06.03 16:44:36.
