data_PCOD9238312
_publ_section_title
;
Structure prediction by ZEFSAII (Michael W. Deem and Ramdas Pophale) SiO2 
 PCOD9238312
Probable space group: P 2/C
;
_chemical_formula_sum "Si O2"
_cell_formula_units_Z 28
_cell_length_a 9.349138
_cell_length_b 13.910974
_cell_length_c 14.041362
_cell_angle_alpha 90.000000
_cell_angle_beta 45.853933
_cell_angle_gamma 90.000000
_cell_volume 1310.389858
_symmetry_space_group_name_H-M "P 2/C"
_symmetry_group_IT_number 13
_symmetry_cell_setting 'monoclinic'
loop_
_space_group_symop_operation_xyz
x,y,z
-x,y,1/2-z
-x,-y,-z
x,-y,1/2+z
loop_
_atom_site_type_symbol
_atom_site_label
_atom_site_fract_x
_atom_site_fract_y
_atom_site_fract_z
Si Si1 0.776427 0.016043 0.887435
Si Si2 0.384353 0.465347 0.398827
Si Si3 0.910730 0.336172 0.047951
Si Si4 0.381881 0.826935 0.895546
Si Si5 0.326739 0.326218 0.152593
Si Si6 0.679794 0.314106 0.554926
Si Si7 0.512878 0.890475 0.132363
O O1 0.653515 0.051410 0.850995
O O2 0.000000 0.006192 0.750000
O O3 0.729432 0.098802 0.986061
O O4 0.704389 0.922975 0.980408
O O5 0.500000 0.431507 0.250000
O O6 0.159252 0.426885 0.484659
O O7 0.501451 0.408589 0.426172
O O8 0.404391 0.578756 0.394795
O O9 0.779934 0.249117 0.066862
O O10 0.830411 0.351158 0.192597
O O11 0.141284 0.308528 0.951480
O O12 0.500000 0.868273 0.750000
O O13 0.550853 0.769100 0.874988
O O14 0.236933 0.313720 0.091034
O O15 0.524304 0.225972 0.628928
O O16 0.500000 0.916996 0.250000
#
# Coordination Sequence:
#
# PCOD9238312 Si02
#       7
#     4   4   4   4   4   4   4
#     4  11  25  47  71  92 128 170 216 265 328 403
#     4   9  19  36  54  80 124 175 211 252 320 376
#     4   9  20  33  59  90 124 163 214 255 311 386
#     4   9  18  40  65  91 123 170 209 260 319 386
#     4   9  18  35  57  86 122 165 212 257 314 378
#     4  12  20  35  60  91 126 159 212 273 314 370
#     4  11  27  46  64 100 132 166 213 273 331 382
#
# _framework density 21.367687
#
# number of rings (size 3 to 8) (size 9 to 14) (size 15 to 20)
#    0.000    2.000    1.429    3.857    2.000    1.714 
#    2.571    0.000    0.000    0.000    0.000    0.000 
#    0.000    0.000    0.000    0.000    0.000    0.000 
#
# Total GULP energy -156086.812705 kJ/mol
# GULP energy per Si atom -5574.529025 kJ/mol
# Density = 2.131905 g / cm^3
# Si number density = 21.367687 Si / 1000 Ang^3
#
#
#
# Elastic Constant Matrix: (Units=GPa)
#
#
# Indices 1 2 3 4 5 6 
#
# 1 101.7008 25.1459 37.4679 0.0000 12.9662 0.0000
# 2 25.1459 103.7700 16.7914 0.0000 9.5133 0.0000
# 3 37.4679 16.7914 92.5857 0.0000 7.8838 0.0000
# 4 0.0000 0.0000 0.0000 36.8551 0.0000 3.0048
# 5 12.9662 9.5133 7.8838 0.0000 34.2147 0.0000
# 6 0.0000 0.0000 0.0000 3.0048 0.0000 17.0856
#
#
#
# Elastic Compliance Matrix: (Units=1/GPa)
#
#
# Indices 1 2 3 4 5 6 
#
# 1 0.012331 -0.001997 -0.004363 0.000000 -0.003112 0.000000
# 2 -0.001997 0.010447 -0.000922 0.000000 -0.001936 0.000000
# 3 -0.004363 -0.000922 0.012823 0.000000 -0.001045 0.000000
# 4 0.000000 0.000000 0.000000 0.027528 0.000000 -0.004841
# 5 -0.003112 -0.001936 -0.001045 0.000000 0.031186 0.000000
# 6 0.000000 0.000000 0.000000 -0.004841 0.000000 0.059380
#
#
# Mechanical properties :
#
#
# Convention : Reuss Voigt Hill
#
# Bulk Modulus (GPa) = 47.53407 50.76300 49.14854
# Shear Modulus (GPa) = 28.52749 32.20783 30.36766
#
# Velocity S-wave (km/s) = 3.65783 3.88663 3.77396
# Velocity P-wave (km/s) = 6.33512 6.62945 6.48396
#
# Compressibility (1/GPa) = 0.02103754
#
# Stress axis : x y z
#
# Youngs Moduli (GPa) = 81.09909 95.71965 77.98768
#
# Poissons Ratio (x) = 0.19112 0.34025
# Poissons Ratio (y) = 0.16193 0.07189
# Poissons Ratio (z) = 0.35382 0.08824
#
# Static dielectric constant tensor:
#      x y z
#    x 1.811200 0.000000 -0.009130 
#    y 0.000000 1.802060 0.000000 
#    z -0.009130 0.000000 1.781420 
# 
# From -- ./inp_files/47616.got.cif
#   From: 2010.05.17/outbox.cif.g08.bks.cpg/sg13_24_cif.got.tgz:47616.got - 2010.06.03 16:44:36.
