data_PCOD9238946
_publ_section_title
;
Structure prediction by ZEFSAII (Michael W. Deem and Ramdas Pophale) SiO2 
 PCOD9238946
Probable space group: P 2/C
;
_chemical_formula_sum "Si O2"
_cell_formula_units_Z 20
_cell_length_a 9.000000
_cell_length_b 9.000000
_cell_length_c 24.000000
_cell_angle_alpha 90.000000
_cell_angle_beta 30.000000
_cell_angle_gamma 90.000000
_cell_volume 972.000000
_symmetry_space_group_name_H-M "P 2/C"
_symmetry_group_IT_number 13
_symmetry_cell_setting 'monoclinic'
loop_
_space_group_symop_operation_xyz
x,y,z
-x,y,1/2-z
-x,-y,-z
x,-y,1/2+z
loop_
_atom_site_type_symbol
_atom_site_label
_atom_site_fract_x
_atom_site_fract_y
_atom_site_fract_z
Si Si1 0.668416 0.960350 0.056501
Si Si2 0.177356 0.808773 0.383357
Si Si3 0.671385 0.278303 0.470216
Si Si4 0.375973 0.224947 0.225450
Si Si5 0.345738 0.400829 0.466100
O O1 0.780338 0.836915 0.064465
O O2 0.475231 0.076341 0.157408
O O3 0.541590 0.863931 0.046429
O O4 0.950003 0.056021 0.942760
O O5 0.500000 0.814472 0.250000
O O6 0.991759 0.661030 0.429208
O O7 0.509619 0.312077 0.463756
O O8 0.643391 0.427618 0.517642
O O9 0.020667 0.245529 0.345411
O O10 0.500000 0.222958 0.250000
O O11 0.505341 0.355196 0.141959
#
# Coordination Sequence:
#
# PCOD9238946 Si02
#       5
#     4   4   4   4   4
#     4  10  21  38  64  93 124 164 212 261 314 376
#     4  10  20  38  59  89 126 161 211 262 309 370
#     4  11  23  44  65  93 136 167 209 265 314 380
#     4  11  23  42  68  94 126 168 213 266 319 372
#     4  10  25  42  64  96 129 170 211 258 320 382
#
# _framework density 20.576132000000001
#
# number of rings (size 3 to 8) (size 9 to 14) (size 15 to 20)
#    0.000    1.600    0.000    6.000    0.000    8.800 
#    0.000   12.000    0.000    0.000    0.000    0.000 
#    0.000    0.000    0.000    0.000    0.000    0.000 
#
# Total GULP energy -111724.651886 kJ/mol
# GULP energy per Si atom -5586.232594 kJ/mol
# Density = 2.052930 g / cm^3
# Si number density = 20.576132 Si / 1000 Ang^3
#
#
#
# Elastic Constant Matrix: (Units=GPa)
#
#
# Indices 1 2 3 4 5 6 
#
# 1 92.4343 39.6274 35.9330 0.0000 14.8330 0.0000
# 2 39.6274 74.0138 39.5154 0.0000 16.1937 0.0000
# 3 35.9330 39.5154 124.4630 0.0000 10.9709 0.0000
# 4 0.0000 0.0000 0.0000 29.9159 0.0000 9.6307
# 5 14.8330 16.1937 10.9709 0.0000 36.0536 0.0000
# 6 0.0000 0.0000 0.0000 9.6307 0.0000 48.0765
#
#
#
# Elastic Compliance Matrix: (Units=1/GPa)
#
#
# Indices 1 2 3 4 5 6 
#
# 1 0.014693 -0.006200 -0.002041 0.000000 -0.002639 0.000000
# 2 -0.006200 0.020202 -0.004161 0.000000 -0.005257 0.000000
# 3 -0.002041 -0.004161 0.009973 0.000000 -0.000326 0.000000
# 4 0.000000 0.000000 0.000000 0.035731 0.000000 -0.007158
# 5 -0.002639 -0.005257 -0.000326 0.000000 0.031283 0.000000
# 6 0.000000 0.000000 0.000000 -0.007158 0.000000 0.022234
#
#
# Mechanical properties :
#
#
# Convention : Reuss Voigt Hill
#
# Bulk Modulus (GPa) = 49.83548 57.89587 53.86567
# Shear Modulus (GPa) = 30.19171 34.53154 32.36163
#
# Velocity S-wave (km/s) = 3.83471 4.10107 3.97013
# Velocity P-wave (km/s) = 6.62415 7.11502 6.87397
#
# Compressibility (1/GPa) = 0.02006602
#
# Stress axis : x y z
#
# Youngs Moduli (GPa) = 68.05794 49.50039 100.26599
#
# Poissons Ratio (x) = 0.30689 0.20465
# Poissons Ratio (y) = 0.42194 0.41716
# Poissons Ratio (z) = 0.13891 0.20595
#
# Static dielectric constant tensor:
#      x y z
#    x 1.750750 0.000000 0.000860 
#    y 0.000000 1.789630 0.000000 
#    z 0.000860 0.000000 1.726310 
# 
# From -- ./inp_files/84936.got.cif
#   From: 2010.05.17/outbox.ucp.g08.bks.cvg/sg13_43_cif.got.tgz:84936.got - 2010.06.11 12:23:55.
