data_PCOD9238830
_publ_section_title
;
Structure prediction by ZEFSAII (Michael W. Deem and Ramdas Pophale) SiO2 
 PCOD9238830
Probable space group: P 2/C
;
_chemical_formula_sum "Si O2"
_cell_formula_units_Z 16
_cell_length_a 10.884690
_cell_length_b 4.923628
_cell_length_c 15.037225
_cell_angle_alpha 90.000000
_cell_angle_beta 47.660143
_cell_angle_gamma 90.000000
_cell_volume 595.674577
_symmetry_space_group_name_H-M "P 2/C"
_symmetry_group_IT_number 13
_symmetry_cell_setting 'monoclinic'
loop_
_space_group_symop_operation_xyz
x,y,z
-x,y,1/2-z
-x,-y,-z
x,-y,1/2+z
loop_
_atom_site_type_symbol
_atom_site_label
_atom_site_fract_x
_atom_site_fract_y
_atom_site_fract_z
Si Si1 0.424984 0.056034 0.676090
Si Si2 0.651483 0.449513 0.037031
Si Si3 0.151603 0.791064 0.907383
Si Si4 0.833272 0.429544 0.778293
O O1 0.527630 0.330285 0.636625
O O2 0.264268 0.155461 0.698280
O O3 0.543459 0.824608 0.578992
O O4 0.326681 0.946667 0.809542
O O5 0.805524 0.392714 0.028027
O O6 0.282361 0.440542 0.089006
O O7 0.140045 0.608143 0.823501
O O8 0.000000 0.000000 0.000000
O O9 0.000000 0.366924 0.750000
#
# Coordination Sequence:
#
# PCOD9238830 Si02
#       4
#     4   4   4   4
#     4  12  28  55  83 126 166 230 283 359 424 510
#     4  12  30  54  88 122 174 220 299 354 427 520
#     4  12  31  53  88 127 176 227 288 357 438 511
#     4  12  30  54  83 125 176 229 282 355 440 513
#
# _framework density 26.860302000000001
#
# number of rings (size 3 to 8) (size 9 to 14) (size 15 to 20)
#    0.000    0.000    2.500    3.750   14.000    3.000 
#    0.000    0.000    0.000    0.000    0.000    0.000 
#    0.000    0.000    0.000    0.000    0.000    0.000 
#
# Total GULP energy -89725.590620 kJ/mol
# GULP energy per Si atom -5607.849414 kJ/mol
# Density = 2.679917 g / cm^3
# Si number density = 26.860302 Si / 1000 Ang^3
#
#
#
# Elastic Constant Matrix: (Units=GPa)
#
#
# Indices 1 2 3 4 5 6 
#
# 1 209.3456 82.2378 70.9739 0.0000 1.3344 0.0000
# 2 82.2378 164.5323 76.1430 0.0000 -10.9064 0.0000
# 3 70.9739 76.1430 185.7780 0.0000 -2.6475 0.0000
# 4 0.0000 0.0000 0.0000 62.0839 0.0000 -1.4544
# 5 1.3344 -10.9064 -2.6475 0.0000 53.3777 0.0000
# 6 0.0000 0.0000 0.0000 -1.4544 0.0000 44.9200
#
#
#
# Elastic Compliance Matrix: (Units=1/GPa)
#
#
# Indices 1 2 3 4 5 6 
#
# 1 0.006238 -0.002542 -0.001352 0.000000 -0.000742 0.000000
# 2 -0.002542 0.008639 -0.002546 0.000000 0.001702 0.000000
# 3 -0.001352 -0.002546 0.006941 0.000000 -0.000142 0.000000
# 4 0.000000 0.000000 0.000000 0.016119 0.000000 0.000522
# 5 -0.000742 0.001702 -0.000142 0.000000 0.019094 0.000000
# 6 0.000000 0.000000 0.000000 0.000522 0.000000 0.022279
#
#
# Mechanical properties :
#
#
# Convention : Reuss Voigt Hill
#
# Bulk Modulus (GPa) = 111.86345 113.15168 112.50756
# Shear Modulus (GPa) = 52.53842 54.09641 53.31742
#
# Velocity S-wave (km/s) = 4.42745 4.49262 4.46016
# Velocity P-wave (km/s) = 8.23852 8.31438 8.27654
#
# Compressibility (1/GPa) = 0.00893947
#
# Stress axis : x y z
#
# Youngs Moduli (GPa) = 160.29887 115.75305 144.07846
#
# Poissons Ratio (x) = 0.29419 0.19482
# Poissons Ratio (y) = 0.40741 0.36677
# Poissons Ratio (z) = 0.21675 0.29466
#
# Static dielectric constant tensor:
#      x y z
#    x 2.273980 0.000000 0.094330 
#    y 0.000000 2.071170 0.000000 
#    z 0.094330 0.000000 2.200630 
# 
# From -- ./inp_files/85384.got.cif
#   From: 2010.05.17/outbox.cif.g08.bks.cpg/sg13_43_cif.got.tgz:85384.got - 2010.06.03 16:44:36.
