data_PCOD9238795
_publ_section_title
;
Structure prediction by ZEFSAII (Michael W. Deem and Ramdas Pophale) SiO2 
 PCOD9238795
Probable space group: P 2/C
;
_chemical_formula_sum "Si O2"
_cell_formula_units_Z 18
_cell_length_a 16.136389
_cell_length_b 5.113415
_cell_length_c 15.590230
_cell_angle_alpha 90.000000
_cell_angle_beta 149.227625
_cell_angle_gamma 90.000000
_cell_volume 658.149844
_symmetry_space_group_name_H-M "P 2/C"
_symmetry_group_IT_number 13
_symmetry_cell_setting 'monoclinic'
loop_
_space_group_symop_operation_xyz
x,y,z
-x,y,1/2-z
-x,-y,-z
x,-y,1/2+z
loop_
_atom_site_type_symbol
_atom_site_label
_atom_site_fract_x
_atom_site_fract_y
_atom_site_fract_z
Si Si1 0.054816 0.931108 0.645146
Si Si2 0.761652 0.641689 0.344074
Si Si3 0.559191 0.156622 0.205168
Si Si4 0.734733 0.501105 0.627056
Si Si5 0.000000 0.673142 0.250000
O O1 0.925863 0.695760 0.541083
O O2 0.234148 0.808537 0.820890
O O3 0.004464 0.132700 0.672576
O O4 0.000000 0.000000 0.500000
O O5 0.703959 0.360689 0.323717
O O6 0.790221 0.624269 0.267036
O O7 0.627736 0.871436 0.238987
O O8 0.500000 0.129264 0.250000
O O9 0.424450 0.329423 0.034103
O O10 0.838008 0.481467 0.631601
#
# Coordination Sequence:
#
# PCOD9238795 Si02
#       5
#     4   4   4   4   2
#     4  12  27  50  79 118 164 211 272 338 408 485
#     4  12  27  50  79 112 162 212 268 336 413 483
#     4  12  29  50  80 114 163 210 275 337 413 487
#     4  12  28  48  79 118 158 217 273 334 408 493
#     4  12  28  46  84 112 166 202 280 322 412 476
#
# _framework density 27.349395999999999
#
# number of rings (size 3 to 8) (size 9 to 14) (size 15 to 20)
#    0.000    0.000    2.222    6.000   12.444    0.000 
#    0.000    0.000    0.000    0.000    0.000    0.000 
#    0.000    0.000    0.000    0.000    0.000    0.000 
#
# Total GULP energy -100584.832489 kJ/mol
# GULP energy per Si atom -5588.046249 kJ/mol
# Density = 2.728715 g / cm^3
# Si number density = 27.349396 Si / 1000 Ang^3
#
#
#
# Elastic Constant Matrix: (Units=GPa)
#
#
# Indices 1 2 3 4 5 6 
#
# 1 173.7206 50.0020 13.7603 0.0000 -35.9959 0.0000
# 2 50.0020 149.6851 15.5457 0.0000 -13.0561 0.0000
# 3 13.7603 15.5457 73.8365 0.0000 -5.0246 0.0000
# 4 0.0000 0.0000 0.0000 44.0333 0.0000 -6.0714
# 5 -35.9959 -13.0561 -5.0246 0.0000 43.0664 0.0000
# 6 0.0000 0.0000 0.0000 -6.0714 0.0000 28.8265
#
#
#
# Elastic Compliance Matrix: (Units=1/GPa)
#
#
# Indices 1 2 3 4 5 6 
#
# 1 0.007537 -0.001963 -0.000608 0.000000 0.005633 0.000000
# 2 -0.001963 0.007502 -0.001180 0.000000 0.000496 0.000000
# 3 -0.000608 -0.001180 0.013957 0.000000 0.000763 0.000000
# 4 0.000000 0.000000 0.000000 0.023389 0.000000 0.004926
# 5 0.005633 0.000496 0.000763 0.000000 0.028168 0.000000
# 6 0.000000 0.000000 0.000000 0.004926 0.000000 0.035728
#
#
# Mechanical properties :
#
#
# Convention : Reuss Voigt Hill
#
# Bulk Modulus (GPa) = 46.52424 61.76202 54.14313
# Shear Modulus (GPa) = 38.18311 44.38084 41.28197
#
# Velocity S-wave (km/s) = 3.74053 4.03269 3.88935
# Velocity P-wave (km/s) = 5.97523 6.65696 6.32528
#
# Compressibility (1/GPa) = 0.02149417
#
# Stress axis : x y z
#
# Youngs Moduli (GPa) = 132.68142 133.29282 71.64837
#
# Poissons Ratio (x) = 0.26168 0.04355
# Poissons Ratio (y) = 0.26048 0.08454
# Poissons Ratio (z) = 0.08066 0.15728
#
# Static dielectric constant tensor:
#      x y z
#    x 2.227760 0.000000 0.043470 
#    y 0.000000 2.534050 0.000000 
#    z 0.043470 0.000000 2.211570 
# 
# From -- ./inp_files/52424.got.cif
#   From: 2010.05.17/outbox.cif.g08.bks.cpg/sg13_27_cif.got.tgz:52424.got - 2010.06.03 16:44:36.
