data_PCOD9238595
_publ_section_title
;
Structure prediction by ZEFSAII (Michael W. Deem and Ramdas Pophale) SiO2 
 PCOD9238595
Probable space group: P 2/C
;
_chemical_formula_sum "Si O2"
_cell_formula_units_Z 16
_cell_length_a 4.926899
_cell_length_b 30.485127
_cell_length_c 4.786122
_cell_angle_alpha 90.000000
_cell_angle_beta 109.688335
_cell_angle_gamma 90.000000
_cell_volume 676.836574
_symmetry_space_group_name_H-M "P 2/C"
_symmetry_group_IT_number 13
_symmetry_cell_setting 'monoclinic'
loop_
_space_group_symop_operation_xyz
x,y,z
-x,y,1/2-z
-x,-y,-z
x,-y,1/2+z
loop_
_atom_site_type_symbol
_atom_site_label
_atom_site_fract_x
_atom_site_fract_y
_atom_site_fract_z
Si Si1 0.000000 0.900767 0.750000
Si Si2 0.500000 0.464913 0.250000
Si Si3 0.500000 0.965993 0.750000
Si Si4 0.000000 0.644865 0.750000
Si Si5 0.500000 0.770492 0.250000
Si Si6 0.000000 0.834385 0.250000
Si Si7 0.000000 0.410222 0.750000
Si Si8 0.500000 0.294343 0.250000
O O1 0.237777 0.933211 0.709054
O O2 0.932194 0.867370 0.478895
O O3 0.500000 0.500000 0.500000
O O4 0.765667 0.435606 0.468977
O O5 0.500000 0.000000 0.500000
O O6 0.848617 0.617261 0.447870
O O7 0.225446 0.673797 0.650456
O O8 0.730469 0.801669 0.175765
O O9 0.587030 0.737499 0.525376
#
# Coordination Sequence:
#
# PCOD9238595 Si02
#       8
#     2   2   2   2   2   2   2   2
#     4  12  24  42  64  94 128 170 220 276 340 410
#     4  12  25  46  73 108 147 194 245 304 367 438
#     4  12  24  42  64  92 127 170 219 276 338 408
#     4  12  26  46  72 106 144 190 240 298 360 430
#     4  12  24  43  67  98 134 178 226 282 347 417
#     4  12  24  42  66  96 132 174 222 280 342 414
#     4  12  26  46  74 108 148 194 246 304 368 438
#     4  12  25  45  70 102 140 184 234 290 352 425
#
# _framework density 23.639386999999999
#
# number of rings (size 3 to 8) (size 9 to 14) (size 15 to 20)
#    0.000    0.000    0.000   11.250    0.000    2.000 
#    0.000    0.000    0.000    0.000    0.000    0.000 
#    0.000    0.000    0.000    0.000    0.000    0.000 
#
# Total GULP energy -89156.975479 kJ/mol
# GULP energy per Si atom -5572.310967 kJ/mol
# Density = 2.358558 g / cm^3
# Si number density = 23.639387 Si / 1000 Ang^3
#
#
#
# Elastic Constant Matrix: (Units=GPa)
#
#
# Indices 1 2 3 4 5 6 
#
# 1 109.6624 44.0618 11.8723 0.0000 14.9290 0.0000
# 2 44.0618 129.3008 66.9653 0.0000 14.2545 0.0000
# 3 11.8723 66.9653 166.8969 0.0000 -13.5995 0.0000
# 4 0.0000 0.0000 0.0000 84.2842 0.0000 -22.1675
# 5 14.9290 14.2545 -13.5995 0.0000 40.0172 0.0000
# 6 0.0000 0.0000 0.0000 -22.1675 0.0000 -72.3762
#
#
#
# Elastic Compliance Matrix: (Units=1/GPa)
#
#
# Indices 1 2 3 4 5 6 
#
# 1 0.010898 -0.003683 0.000492 0.000000 -0.002586 0.000000
# 2 -0.003683 0.012062 -0.004953 0.000000 -0.004606 0.000000
# 3 0.000492 -0.004953 0.008303 0.000000 0.004402 0.000000
# 4 0.000000 0.000000 0.000000 0.010980 0.000000 -0.003363
# 5 -0.002586 -0.004606 0.004402 0.000000 0.029091 0.000000
# 6 0.000000 0.000000 0.000000 -0.003363 0.000000 -0.012787
#
#
# Mechanical properties :
#
#
# Convention : Reuss Voigt Hill
#
# Bulk Modulus (GPa) = 66.78360 72.40656 69.59508
# Shear Modulus (GPa) = 62.63582 29.24909 45.94246
#
# Velocity S-wave (km/s) = 5.15305 3.52135 4.41326
# Velocity P-wave (km/s) = 7.98233 6.87236 7.44805
#
# Compressibility (1/GPa) = 0.01497374
#
# Stress axis : x y z
#
# Youngs Moduli (GPa) = 91.76308 82.90538 120.44149
#
# Poissons Ratio (x) = 0.30536 -0.05924
# Poissons Ratio (y) = 0.33798 0.59655
# Poissons Ratio (z) = -0.04514 0.41063
#
# Static dielectric constant tensor:
#      x y z
#    x 2.129050 0.000000 0.092070 
#    y 0.000000 1.879730 0.000000 
#    z 0.092070 0.000000 1.892760 
# 
# From -- ./inp_files/396.got.cif
#   From: 2010.05.17/outbox.cif.g08.bks.cpg/sg13_1_cif.got.tgz:396.got - 2010.06.03 16:44:36.
