data_PCOD9238230
_publ_section_title
;
Structure prediction by ZEFSAII (Michael W. Deem and Ramdas Pophale) SiO2 
 PCOD9238230
Probable space group: P 2/C
;
_chemical_formula_sum "Si O2"
_cell_formula_units_Z 22
_cell_length_a 5.214182
_cell_length_b 5.716879
_cell_length_c 28.548624
_cell_angle_alpha 90.000000
_cell_angle_beta 84.275867
_cell_angle_gamma 90.000000
_cell_volume 846.758188
_symmetry_space_group_name_H-M "P 2/C"
_symmetry_group_IT_number 13
_symmetry_cell_setting 'monoclinic'
loop_
_space_group_symop_operation_xyz
x,y,z
-x,y,1/2-z
-x,-y,-z
x,-y,1/2+z
loop_
_atom_site_type_symbol
_atom_site_label
_atom_site_fract_x
_atom_site_fract_y
_atom_site_fract_z
Si Si1 0.395980 0.834747 0.206675
Si Si2 0.932177 0.179155 0.042306
Si Si3 0.284112 0.194827 0.887921
Si Si4 0.931595 0.465603 0.342278
Si Si5 0.407847 0.437489 0.069651
Si Si6 0.000000 0.802704 0.750000
O O1 0.500000 0.695307 0.250000
O O2 0.600929 0.891975 0.163171
O O3 0.190442 0.683719 0.182469
O O4 0.247332 0.046501 0.232524
O O5 0.162627 0.367812 0.042510
O O6 0.653607 0.302605 0.044754
O O7 0.894628 0.004251 0.087325
O O8 0.000000 0.000000 0.000000
O O9 0.499200 0.295813 0.920608
O O10 0.129413 0.428658 0.876056
O O11 0.699452 0.353780 0.377033
O O12 0.054872 0.325934 0.297811
#
# Coordination Sequence:
#
# PCOD9238230 Si02
#       6
#     4   4   4   4   4   2
#     4  11  25  41  68 104 143 197 244 303 365 443
#     4  12  28  49  78 114 148 196 255 315 386 458
#     4  11  26  48  75 105 155 196 252 312 379 456
#     4  11  25  46  69 104 146 195 246 300 370 444
#     4  11  26  48  76 110 148 197 245 307 384 449
#     4  12  24  40  68 100 148 186 248 296 364 436
#
# _framework density 25.981442000000001
#
# number of rings (size 3 to 8) (size 9 to 14) (size 15 to 20)
#    0.000    0.727    1.818    4.364   10.182    5.091 
#    0.000    0.000    0.000    0.000    0.000    0.000 
#    0.000    0.000    0.000    0.000    0.000    0.000 
#
# Total GULP energy -123137.236182 kJ/mol
# GULP energy per Si atom -5597.147099 kJ/mol
# Density = 2.592231 g / cm^3
# Si number density = 25.981442 Si / 1000 Ang^3
#
#
#
# Elastic Constant Matrix: (Units=GPa)
#
#
# Indices 1 2 3 4 5 6 
#
# 1 151.6454 40.3808 48.8778 0.0000 -18.0242 0.0000
# 2 40.3808 52.4836 39.7298 0.0000 -22.6895 0.0000
# 3 48.8778 39.7298 135.0726 0.0000 -44.6918 0.0000
# 4 0.0000 0.0000 0.0000 79.6484 0.0000 -99.5182
# 5 -18.0242 -22.6895 -44.6918 0.0000 45.6869 0.0000
# 6 0.0000 0.0000 0.0000 -99.5182 0.0000 683.0226
#
#
#
# Elastic Compliance Matrix: (Units=1/GPa)
#
#
# Indices 1 2 3 4 5 6 
#
# 1 0.008565 -0.005755 -0.001825 0.000000 -0.001264 0.000000
# 2 -0.005755 0.030287 -0.003845 0.000000 0.009010 0.000000
# 3 -0.001825 -0.003845 0.012309 0.000000 0.009411 0.000000
# 4 0.000000 0.000000 0.000000 0.015350 0.000000 0.002236
# 5 -0.001264 0.009010 0.009411 0.000000 0.035070 0.000000
# 6 0.000000 0.000000 0.000000 0.002236 0.000000 0.001790
#
#
# Mechanical properties :
#
#
# Convention : Reuss Voigt Hill
#
# Bulk Modulus (GPa) = 35.32183 66.35315 50.83749
# Shear Modulus (GPa) = 36.85795 175.68579 106.27187
#
# Velocity S-wave (km/s) = 3.77055 8.23204 6.40248
# Velocity P-wave (km/s) = 5.70794 10.76798 8.61772
#
# Compressibility (1/GPa) = 0.02831110
#
# Stress axis : x y z
#
# Youngs Moduli (GPa) = 116.75887 33.01740 81.24437
#
# Poissons Ratio (x) = 0.19001 0.14826
# Poissons Ratio (y) = 0.67192 0.31238
# Poissons Ratio (z) = 0.21306 0.12695
#
# Static dielectric constant tensor:
#      x y z
#    x 2.155560 0.000000 0.138490 
#    y 0.000000 2.059400 0.000000 
#    z 0.138490 0.000000 2.081190 
# 
# From -- ./inp_files/94561.got.cif
#   From: 2010.05.17/outbox.cif.g08.bks.cpg/sg13_48_cif.got.tgz:94561.got - 2010.06.03 16:44:36.
