data_PCOD9238594
_publ_section_title
;
Structure prediction by ZEFSAII (Michael W. Deem and Ramdas Pophale) SiO2 
 PCOD9238594
Probable space group: P 2/C
;
_chemical_formula_sum "Si O2"
_cell_formula_units_Z 20
_cell_length_a 6.365599
_cell_length_b 18.510769
_cell_length_c 9.208734
_cell_angle_alpha 90.000000
_cell_angle_beta 99.137557
_cell_angle_gamma 90.000000
_cell_volume 1071.314957
_symmetry_space_group_name_H-M "P 2/C"
_symmetry_group_IT_number 13
_symmetry_cell_setting 'monoclinic'
loop_
_space_group_symop_operation_xyz
x,y,z
-x,y,1/2-z
-x,-y,-z
x,-y,1/2+z
loop_
_atom_site_type_symbol
_atom_site_label
_atom_site_fract_x
_atom_site_fract_y
_atom_site_fract_z
Si Si1 0.302247 0.837625 0.115854
Si Si2 0.085269 0.567179 0.598376
Si Si3 0.000000 0.951914 0.250000
Si Si4 0.500000 0.633824 0.750000
Si Si5 0.373453 0.052881 0.384787
Si Si6 0.146953 0.712522 0.902832
O O1 0.500000 0.827368 0.250000
O O2 0.143983 0.897287 0.169766
O O3 0.370199 0.872903 0.970592
O O4 0.190901 0.765751 0.042050
O O5 0.335671 0.584098 0.641106
O O6 0.000000 0.553627 0.750000
O O7 0.000000 0.500000 0.500000
O O8 0.975880 0.643180 0.546031
O O9 0.844959 0.009027 0.155732
O O10 0.358881 0.682688 0.844370
O O11 0.500000 0.060587 0.250000
O O12 0.500000 0.000000 0.500000
O O13 0.000000 0.740973 0.750000
#
# Coordination Sequence:
#
# PCOD9238594 Si02
#       6
#     4   4   2   2   4   4
#     4  12  26  42  61  94 129 161 209 269 319 371
#     4   9  19  39  61  93 122 159 208 243 300 374
#     4  12  24  42  64  84 130 158 212 262 314 368
#     4   8  18  40  64  82 130 158 202 250 296 368
#     4  12  24  43  63  91 119 165 218 256 314 382
#     4   9  22  40  61  92 120 167 210 244 315 377
#
# _framework density 18.668645999999999
#
# number of rings (size 3 to 8) (size 9 to 14) (size 15 to 20)
#    0.000    2.000    4.000    0.600    2.800    6.400 
#    7.200    0.000    0.000    0.000    0.000    0.000 
#    0.000    0.000    0.000    0.000    0.000    0.000 
#
# Total GULP energy -111344.887796 kJ/mol
# GULP energy per Si atom -5567.244390 kJ/mol
# Density = 1.862616 g / cm^3
# Si number density = 18.668646 Si / 1000 Ang^3
#
#
#
# Elastic Constant Matrix: (Units=GPa)
#
#
# Indices 1 2 3 4 5 6 
#
# 1 99.7764 29.0382 48.6501 0.0000 33.3196 0.0000
# 2 29.0382 109.9991 68.3089 0.0000 30.7888 0.0000
# 3 48.6501 68.3089 113.2258 0.0000 24.3841 0.0000
# 4 0.0000 0.0000 0.0000 38.5077 0.0000 12.6818
# 5 33.3196 30.7888 24.3841 0.0000 37.2159 0.0000
# 6 0.0000 0.0000 0.0000 12.6818 0.0000 8.5398
#
#
#
# Elastic Compliance Matrix: (Units=1/GPa)
#
#
# Indices 1 2 3 4 5 6 
#
# 1 0.016596 0.003227 -0.006174 0.000000 -0.013483 0.000000
# 2 0.003227 0.017101 -0.009355 0.000000 -0.010908 0.000000
# 3 -0.006174 -0.009355 0.016616 0.000000 0.002380 0.000000
# 4 0.000000 0.000000 0.000000 0.050826 0.000000 -0.075479
# 5 -0.013483 -0.010908 0.002380 0.000000 0.046406 0.000000
# 6 0.000000 0.000000 0.000000 -0.075479 0.000000 0.229186
#
#
# Mechanical properties :
#
#
# Convention : Reuss Voigt Hill
#
# Bulk Modulus (GPa) = 38.89584 68.33282 53.61433
# Shear Modulus (GPa) = 12.19792 28.65295 20.42544
#
# Velocity S-wave (km/s) = 2.55892 3.92192 3.31131
# Velocity P-wave (km/s) = 5.44159 7.56248 6.58794
#
# Compressibility (1/GPa) = 0.02570969
#
# Stress axis : x y z
#
# Youngs Moduli (GPa) = 60.25463 58.47466 60.18371
#
# Poissons Ratio (x) = -0.18868 0.37157
# Poissons Ratio (y) = -0.19442 0.56300
# Poissons Ratio (z) = 0.37201 0.54701
#
# Static dielectric constant tensor:
#      x y z
#    x 1.683910 0.000000 0.006570 
#    y 0.000000 0.798220 0.000000 
#    z 0.006570 0.000000 1.654480 
# 
# From -- ./inp_files/10027.got.cif
#   From: 2010.05.17/outbox.cif.g08.bks.cpg/sg13_6_cif.got.tgz:10027.got - 2010.06.03 16:44:36.
