data_PCOD9238920
_publ_section_title
;
Structure prediction by ZEFSAII (Michael W. Deem and Ramdas Pophale) SiO2 
 PCOD9238920
Probable space group: P 2/C
;
_chemical_formula_sum "Si O2"
_cell_formula_units_Z 16
_cell_length_a 18.000000
_cell_length_b 9.000000
_cell_length_c 9.000000
_cell_angle_alpha 90.000000
_cell_angle_beta 30.000000
_cell_angle_gamma 90.000000
_cell_volume 729.000000
_symmetry_space_group_name_H-M "P 2/C"
_symmetry_group_IT_number 13
_symmetry_cell_setting 'monoclinic'
loop_
_space_group_symop_operation_xyz
x,y,z
-x,y,1/2-z
-x,-y,-z
x,-y,1/2+z
loop_
_atom_site_type_symbol
_atom_site_label
_atom_site_fract_x
_atom_site_fract_y
_atom_site_fract_z
Si Si1 0.000000 0.717251 0.250000
Si Si2 0.162605 0.044627 0.274592
Si Si3 0.182659 0.212704 0.950735
Si Si4 0.722210 0.453305 0.127098
Si Si5 0.500000 0.535068 0.250000
O O1 0.881735 0.824561 0.535127
O O2 0.887761 0.620455 0.339678
O O3 0.228627 0.895869 0.234553
O O4 0.232967 0.118789 0.008503
O O5 0.000000 0.000000 0.500000
O O6 0.246468 0.377122 0.869737
O O7 0.000000 0.224826 0.250000
O O8 0.620824 0.455943 0.153267
O O9 0.611562 0.383852 0.442718
#
# Coordination Sequence:
#
# PCOD9238920 Si02
#       5
#     2   4   4   4   2
#     4  12  22  36  74 102 118 162 224 266 310 374
#     4  10  20  35  56 100 132 153 191 280 323 356
#     4  10  20  37  61  96 126 160 204 267 314 367
#     4  11  24  42  68  95 127 169 218 262 315 377
#     4  10  26  44  58  94 140 172 198 268 326 376
#
# _framework density 21.947873999999999
#
# number of rings (size 3 to 8) (size 9 to 14) (size 15 to 20)
#    0.000    1.500    5.000    1.500    7.000    2.000 
#    0.000    0.000    0.000   25.500    0.000    0.000 
#    0.000    0.000    0.000    0.000    0.000    0.000 
#
# Total GULP energy -89086.917112 kJ/mol
# GULP energy per Si atom -5567.932320 kJ/mol
# Density = 2.189792 g / cm^3
# Si number density = 21.947874 Si / 1000 Ang^3
#
#
#
# Elastic Constant Matrix: (Units=GPa)
#
#
# Indices 1 2 3 4 5 6 
#
# 1 134.1305 34.9334 16.2986 0.0000 -11.6828 0.0000
# 2 34.9334 114.1828 -1.7253 0.0000 -5.6753 0.0000
# 3 16.2986 -1.7253 35.3368 0.0000 -5.4456 0.0000
# 4 0.0000 0.0000 0.0000 12.3813 0.0000 0.6004
# 5 -11.6828 -5.6753 -5.4456 0.0000 43.0835 0.0000
# 6 0.0000 0.0000 0.0000 0.6004 0.0000 24.1794
#
#
#
# Elastic Compliance Matrix: (Units=1/GPa)
#
#
# Indices 1 2 3 4 5 6 
#
# 1 0.008760 -0.002664 -0.003935 0.000000 0.001527 0.000000
# 2 -0.002664 0.009639 0.001819 0.000000 0.000777 0.000000
# 3 -0.003935 0.001819 0.030673 0.000000 0.003049 0.000000
# 4 0.000000 0.000000 0.000000 0.080864 0.000000 -0.002008
# 5 0.001527 0.000777 0.003049 0.000000 0.024113 0.000000
# 6 0.000000 0.000000 0.000000 -0.002008 0.000000 0.041407
#
#
# Mechanical properties :
#
#
# Convention : Reuss Voigt Hill
#
# Bulk Modulus (GPa) = 25.30860 42.51817 33.91339
# Shear Modulus (GPa) = 22.91605 31.53838 27.22722
#
# Velocity S-wave (km/s) = 3.23478 3.79485 3.52595
# Velocity P-wave (km/s) = 5.05054 6.21414 5.66231
#
# Compressibility (1/GPa) = 0.03951226
#
# Stress axis : x y z
#
# Youngs Moduli (GPa) = 114.15020 103.74569 32.60200
#
# Poissons Ratio (x) = 0.27635 0.12830
# Poissons Ratio (y) = 0.30407 -0.05930
# Poissons Ratio (z) = 0.44921 -0.18871
#
# Static dielectric constant tensor:
#      x y z
#    x 1.745470 0.000000 -0.011600 
#    y 0.000000 1.873030 0.000000 
#    z -0.011600 0.000000 1.770150 
# 
# From -- ./inp_files/14395.got.cif
#   From: 2010.05.17/outbox.ucp.g08.bks.cvg/sg13_8_cif.got.tgz:14395.got - 2010.06.11 12:23:55.
