data_PCOD9238782
_publ_section_title
;
Structure prediction by ZEFSAII (Michael W. Deem and Ramdas Pophale) SiO2 
 PCOD9238782
Probable space group: P 2/C
;
_chemical_formula_sum "Si O2"
_cell_formula_units_Z 14
_cell_length_a 7.924697
_cell_length_b 4.744890
_cell_length_c 25.449108
_cell_angle_alpha 90.000000
_cell_angle_beta 29.030683
_cell_angle_gamma 90.000000
_cell_volume 464.378299
_symmetry_space_group_name_H-M "P 2/C"
_symmetry_group_IT_number 13
_symmetry_cell_setting 'monoclinic'
loop_
_space_group_symop_operation_xyz
x,y,z
-x,y,1/2-z
-x,-y,-z
x,-y,1/2+z
loop_
_atom_site_type_symbol
_atom_site_label
_atom_site_fract_x
_atom_site_fract_y
_atom_site_fract_z
Si Si1 0.500000 0.927350 0.750000
Si Si2 0.311837 0.157826 0.945880
Si Si3 0.180703 0.693789 0.051170
Si Si4 0.852678 0.524577 0.737284
O O1 0.179161 0.131140 0.848400
O O2 0.620388 0.725074 0.764582
O O3 0.615483 0.271856 0.825268
O O4 0.835491 0.566372 0.984496
O O5 0.426443 0.933071 0.959439
O O6 0.000000 0.000000 0.000000
O O7 0.172653 0.569449 0.112500
O O8 0.000000 0.659701 0.750000
#
# Coordination Sequence:
#
# PCOD9238782 Si02
#       4
#     2   4   4   4
#     4  12  26  54  84 120 178 218 284 356 418 512
#     4  12  28  50  88 126 166 229 282 349 432 504
#     4  12  28  49  85 122 165 219 289 342 417 517
#     4  12  31  55  85 125 174 225 282 359 430 500
#
# _framework density 30.147832999999999
#
# number of rings (size 3 to 8) (size 9 to 14) (size 15 to 20)
#    0.000    0.000    2.857    5.143    8.000    3.429 
#    0.000    0.000    0.000    1.714    0.000    0.000 
#    0.000    0.000    0.000    0.000    0.000    0.000 
#
# Total GULP energy -78741.048117 kJ/mol
# GULP energy per Si atom -5624.360580 kJ/mol
# Density = 3.007922 g / cm^3
# Si number density = 30.147833 Si / 1000 Ang^3
#
#
#
# Elastic Constant Matrix: (Units=GPa)
#
#
# Indices 1 2 3 4 5 6 
#
# 1 144.9444 57.8537 35.0212 0.0000 42.6620 0.0000
# 2 57.8537 258.8463 100.5813 0.0000 23.8750 0.0000
# 3 35.0212 100.5813 272.2842 0.0000 23.9173 0.0000
# 4 0.0000 0.0000 0.0000 105.4793 0.0000 4.1707
# 5 42.6620 23.8750 23.9173 0.0000 67.7173 0.0000
# 6 0.0000 0.0000 0.0000 4.1707 0.0000 50.9223
#
#
#
# Elastic Compliance Matrix: (Units=1/GPa)
#
#
# Indices 1 2 3 4 5 6 
#
# 1 0.009036 -0.001484 -0.000165 0.000000 -0.005111 0.000000
# 2 -0.001484 0.004826 -0.001573 0.000000 -0.000211 0.000000
# 3 -0.000165 -0.001573 0.004352 0.000000 -0.000879 0.000000
# 4 0.000000 0.000000 0.000000 0.009511 0.000000 -0.000779
# 5 -0.005111 -0.000211 -0.000879 0.000000 0.018372 0.000000
# 6 0.000000 0.000000 0.000000 -0.000779 0.000000 0.019702
#
#
# Mechanical properties :
#
#
# Convention : Reuss Voigt Hill
#
# Bulk Modulus (GPa) = 84.96794 118.10970 101.53882
# Shear Modulus (GPa) = 65.64608 76.99836 71.32222
#
# Velocity S-wave (km/s) = 4.67140 5.05922 4.86917
# Velocity P-wave (km/s) = 7.57238 8.56677 8.08488
#
# Compressibility (1/GPa) = 0.01176914
#
# Stress axis : x y z
#
# Youngs Moduli (GPa) = 110.67145 207.22205 229.77004
#
# Poissons Ratio (x) = 0.30752 0.03792
# Poissons Ratio (y) = 0.16424 0.36148
# Poissons Ratio (z) = 0.01827 0.32601
#
# Static dielectric constant tensor:
#      x y z
#    x 2.494410 0.000000 0.109630 
#    y 0.000000 2.279900 0.000000 
#    z 0.109630 0.000000 2.466530 
# 
# From -- ./inp_files/62733.got.cif
#   From: 2010.05.17/outbox.cif.g08.bks.cpg/sg13_32_cif.got.tgz:62733.got - 2010.06.03 16:44:36.
