data_PCOD9238469
_publ_section_title
;
Structure prediction by ZEFSAII (Michael W. Deem and Ramdas Pophale) SiO2 
 PCOD9238469
Probable space group: P 2/C
;
_chemical_formula_sum "Si O2"
_cell_formula_units_Z 20
_cell_length_a 14.414964
_cell_length_b 6.832457
_cell_length_c 16.335592
_cell_angle_alpha 90.000000
_cell_angle_beta 146.820363
_cell_angle_gamma 90.000000
_cell_volume 880.488438
_symmetry_space_group_name_H-M "P 2/C"
_symmetry_group_IT_number 13
_symmetry_cell_setting 'monoclinic'
loop_
_space_group_symop_operation_xyz
x,y,z
-x,y,1/2-z
-x,-y,-z
x,-y,1/2+z
loop_
_atom_site_type_symbol
_atom_site_label
_atom_site_fract_x
_atom_site_fract_y
_atom_site_fract_z
Si Si1 0.550987 0.105471 0.625353
Si Si2 0.500000 0.844799 0.750000
Si Si3 0.132034 0.622377 0.153931
Si Si4 0.244589 0.378646 0.371828
Si Si5 0.000000 0.073928 0.250000
Si Si6 0.833137 0.285255 0.554555
O O1 0.741448 0.198072 0.774608
O O2 0.415520 0.280443 0.528198
O O3 0.500000 0.000000 0.500000
O O4 0.519847 0.969310 0.681266
O O5 0.333095 0.714433 0.622242
O O6 0.256747 0.470414 0.291396
O O7 0.001548 0.695948 0.126264
O O8 0.000000 0.500000 0.000000
O O9 0.192129 0.545527 0.397814
O O10 0.094737 0.217570 0.257716
O O11 0.856320 0.929295 0.110748
#
# Coordination Sequence:
#
# PCOD9238469 Si02
#       6
#     4   2   4   4   2   4
#     4  12  29  52  77 113 157 208 258 322 391 461
#     4  12  30  46  82 112 150 208 260 314 380 474
#     4  12  28  45  74 115 151 196 256 324 385 464
#     4  12  25  49  80 103 155 204 250 315 391 460
#     4  12  20  48  80 104 142 194 260 302 380 462
#     4  12  26  49  75 111 148 199 256 313 387 464
#
# _framework density 22.714663999999999
#
# number of rings (size 3 to 8) (size 9 to 14) (size 15 to 20)
#    0.000    0.000    6.000    3.000   11.200    0.800 
#    0.000    0.000    0.000    0.000    0.000    0.000 
#    0.000    0.000    0.000    0.000    0.000    0.000 
#
# Total GULP energy -111642.710728 kJ/mol
# GULP energy per Si atom -5582.135536 kJ/mol
# Density = 2.266296 g / cm^3
# Si number density = 22.714664 Si / 1000 Ang^3
#
#
#
# Elastic Constant Matrix: (Units=GPa)
#
#
# Indices 1 2 3 4 5 6 
#
# 1 94.2040 37.4032 36.7265 0.0000 4.6780 0.0000
# 2 37.4032 88.0015 26.1479 0.0000 -1.6587 0.0000
# 3 36.7265 26.1479 132.8071 0.0000 17.0409 0.0000
# 4 0.0000 0.0000 0.0000 55.7030 0.0000 10.5378
# 5 4.6780 -1.6587 17.0409 0.0000 45.0429 0.0000
# 6 0.0000 0.0000 0.0000 10.5378 0.0000 31.8073
#
#
#
# Elastic Compliance Matrix: (Units=1/GPa)
#
#
# Indices 1 2 3 4 5 6 
#
# 1 0.013702 -0.005025 -0.002726 0.000000 -0.000577 0.000000
# 2 -0.005025 0.013998 -0.001576 0.000000 0.001634 0.000000
# 3 -0.002726 -0.001576 0.009002 0.000000 -0.003181 0.000000
# 4 0.000000 0.000000 0.000000 0.019153 0.000000 -0.006345
# 5 -0.000577 0.001634 -0.003181 0.000000 0.023524 0.000000
# 6 0.000000 0.000000 0.000000 -0.006345 0.000000 0.033542
#
#
# Mechanical properties :
#
#
# Convention : Reuss Voigt Hill
#
# Bulk Modulus (GPa) = 55.40563 57.28532 56.34547
# Shear Modulus (GPa) = 36.33999 40.82630 38.58314
#
# Velocity S-wave (km/s) = 4.00415 4.24412 4.12588
# Velocity P-wave (km/s) = 6.76924 7.02076 6.89614
#
# Compressibility (1/GPa) = 0.01804871
#
# Stress axis : x y z
#
# Youngs Moduli (GPa) = 72.98459 71.43811 111.08722
#
# Poissons Ratio (x) = 0.35894 0.30280
# Poissons Ratio (y) = 0.36671 0.17509
# Poissons Ratio (z) = 0.19894 0.11260
#
# Static dielectric constant tensor:
#      x y z
#    x 2.025870 0.000000 -0.108380 
#    y 0.000000 1.918700 0.000000 
#    z -0.108380 0.000000 1.937170 
# 
# From -- ./inp_files/69220.got.cif
#   From: 2010.05.17/outbox.cif.g08.bks.cpg/sg13_35_cif.got.tgz:69220.got - 2010.06.03 16:44:36.
