data_PCOD9238580
_publ_section_title
;
Structure prediction by ZEFSAII (Michael W. Deem and Ramdas Pophale) SiO2 
 PCOD9238580
Probable space group: P 2/C
;
_chemical_formula_sum "Si O2"
_cell_formula_units_Z 26
_cell_length_a 7.636334
_cell_length_b 8.063223
_cell_length_c 27.513097
_cell_angle_alpha 90.000000
_cell_angle_beta 36.337946
_cell_angle_gamma 90.000000
_cell_volume 1003.819721
_symmetry_space_group_name_H-M "P 2/C"
_symmetry_group_IT_number 13
_symmetry_cell_setting 'monoclinic'
loop_
_space_group_symop_operation_xyz
x,y,z
-x,y,1/2-z
-x,-y,-z
x,-y,1/2+z
loop_
_atom_site_type_symbol
_atom_site_label
_atom_site_fract_x
_atom_site_fract_y
_atom_site_fract_z
Si Si1 0.881105 0.357836 0.618833
Si Si2 0.567886 0.990781 0.180320
Si Si3 0.000000 0.500000 0.500000
Si Si4 0.135621 0.811129 0.522791
Si Si5 0.690172 0.015526 0.861011
Si Si6 0.093279 0.611034 0.173757
Si Si7 0.416014 0.693490 0.559571
O O1 0.824232 0.502243 0.592923
O O2 0.875506 0.413220 0.676513
O O3 0.228532 0.310265 0.528236
O O4 0.678208 0.198280 0.658395
O O5 0.500000 0.042382 0.250000
O O6 0.831629 0.104477 0.103509
O O7 0.314157 0.000385 0.196299
O O8 0.109956 0.686458 0.484287
O O9 0.357016 0.953379 0.455359
O O10 0.276631 0.719094 0.537780
O O11 0.831061 0.191964 0.845083
O O12 0.742648 0.839244 0.874346
O O13 0.349014 0.479055 0.102236
O O14 0.000000 0.577895 0.250000
#
# Coordination Sequence:
#
# PCOD9238580 Si02
#       7
#     4   4   2   4   4   4   4
#     4  12  23  47  71 105 139 190 244 294 356 433
#     4  12  27  45  70 104 146 187 235 299 366 425
#     4  12  24  40  78 102 140 184 238 306 344 420
#     4  12  23  47  72 107 138 186 246 293 353 432
#     4  12  24  46  73 103 142 192 239 294 354 431
#     4  12  27  45  70 108 149 185 236 299 367 429
#     4  12  25  45  80 104 138 191 248 297 348 434
#
# _framework density 25.901067000000001
#
# number of rings (size 3 to 8) (size 9 to 14) (size 15 to 20)
#    0.000    0.000    6.154    5.077    0.000    1.846 
#    0.000    0.769    0.000    0.000    0.000    0.000 
#    0.000    0.000    0.000    0.000    0.000    0.000 
#
# Total GULP energy -145206.797513 kJ/mol
# GULP energy per Si atom -5584.876827 kJ/mol
# Density = 2.584212 g / cm^3
# Si number density = 25.901067 Si / 1000 Ang^3
#
#
#
# Elastic Constant Matrix: (Units=GPa)
#
#
# Indices 1 2 3 4 5 6 
#
# 1 88.9237 3.4360 30.8519 0.0000 40.2194 0.0000
# 2 3.4360 90.9386 37.0073 0.0000 18.8351 0.0000
# 3 30.8519 37.0073 100.9789 0.0000 44.4350 0.0000
# 4 0.0000 0.0000 0.0000 35.9322 0.0000 15.3433
# 5 40.2194 18.8351 44.4350 0.0000 50.1674 0.0000
# 6 0.0000 0.0000 0.0000 15.3433 0.0000 33.5899
#
#
#
# Elastic Compliance Matrix: (Units=1/GPa)
#
#
# Indices 1 2 3 4 5 6 
#
# 1 0.018185 0.002378 0.000624 0.000000 -0.016024 0.000000
# 2 0.002378 0.013270 -0.004193 0.000000 -0.003175 0.000000
# 3 0.000624 -0.004193 0.017659 0.000000 -0.014567 0.000000
# 4 0.000000 0.000000 0.000000 0.034574 0.000000 -0.015793
# 5 -0.016024 -0.003175 -0.014567 0.000000 0.046875 0.000000
# 6 0.000000 0.000000 0.000000 -0.015793 0.000000 0.036985
#
#
# Mechanical properties :
#
#
# Convention : Reuss Voigt Hill
#
# Bulk Modulus (GPa) = 21.39827 47.04795 34.22311
# Shear Modulus (GPa) = 26.95305 37.90763 32.43034
#
# Velocity S-wave (km/s) = 3.22936 3.82979 3.54232
# Velocity P-wave (km/s) = 4.71004 6.14494 5.47471
#
# Compressibility (1/GPa) = 0.04673274
#
# Stress axis : x y z
#
# Youngs Moduli (GPa) = 54.99069 75.35540 56.62717
#
# Poissons Ratio (x) = -0.17919 -0.03533
# Poissons Ratio (y) = -0.13077 0.23743
# Poissons Ratio (z) = -0.03431 0.31595
#
# Static dielectric constant tensor:
#      x y z
#    x 2.357940 0.000000 -0.082120 
#    y 0.000000 2.237520 0.000000 
#    z -0.082120 0.000000 2.930500 
# 
# From -- ./inp_files/91237.got.cif
#   From: 2010.05.17/outbox.cif.g08.bks.cpg/sg13_46_cif.got.tgz:91237.got - 2010.06.03 16:44:36.
