data_PCOD9238948
_publ_section_title
;
Structure prediction by ZEFSAII (Michael W. Deem and Ramdas Pophale) SiO2 
 PCOD9238948
Probable space group: P 2/C
;
_chemical_formula_sum "Si O2"
_cell_formula_units_Z 28
_cell_length_a 30.000000
_cell_length_b 9.000000
_cell_length_c 30.000000
_cell_angle_alpha 90.000000
_cell_angle_beta 170.000000
_cell_angle_gamma 90.000000
_cell_volume 1406.550239
_symmetry_space_group_name_H-M "P 2/C"
_symmetry_group_IT_number 13
_symmetry_cell_setting 'monoclinic'
loop_
_space_group_symop_operation_xyz
x,y,z
-x,y,1/2-z
-x,-y,-z
x,-y,1/2+z
loop_
_atom_site_type_symbol
_atom_site_label
_atom_site_fract_x
_atom_site_fract_y
_atom_site_fract_z
Si Si1 0.154241 0.601337 0.028204
Si Si2 0.500000 0.356649 0.250000
Si Si3 0.335942 0.562621 0.492181
Si Si4 0.802973 0.909805 0.149561
Si Si5 0.956726 0.341995 0.433780
Si Si6 0.000000 0.158901 0.750000
Si Si7 0.714830 0.925411 0.337748
Si Si8 0.566269 0.153266 0.589557
O O1 0.412691 0.501298 0.285581
O O2 0.231684 0.765117 0.087471
O O3 0.923481 0.528604 0.772873
O O4 0.037629 0.629260 0.962338
O O5 0.573611 0.443548 0.367221
O O6 0.754758 0.257233 0.493111
O O7 0.261823 0.734150 0.408035
O O8 0.911995 0.927825 0.206976
O O9 0.024314 0.976704 0.399979
O O10 0.531209 0.991802 0.884819
O O11 0.000000 0.500000 0.500000
O O12 0.166532 0.230059 0.662002
O O13 0.673328 0.267104 0.153657
O O14 0.624646 0.888983 0.198459
O O15 0.500000 0.000000 0.500000
#
# Coordination Sequence:
#
# PCOD9238948 Si02
#       8
#     4   2   4   4   4   2   4   4
#     4  11  23  41  61  89 127 160 191 247 311 356
#     4  10  20  38  60  90 124 154 198 260 304 336
#     4  11  22  39  65  91 116 160 209 248 290 356
#     4  11  22  39  65  91 116 160 209 248 290 356
#     4  11  24  43  64  90 123 161 199 248 302 356
#     4  10  20  38  60  90 124 154 198 260 304 336
#     4  11  23  41  61  89 127 160 191 247 311 356
#     4  11  24  43  64  90 123 161 199 248 302 356
#
# _framework density 19.906860999999999
#
# number of rings (size 3 to 8) (size 9 to 14) (size 15 to 20)
#    0.000    1.143    0.000    9.429    0.000    3.429 
#    0.000    2.857    0.000    3.429    0.000    0.000 
#    0.000    0.000    0.000    0.000    0.000    0.000 
#
# Total GULP energy -156395.714703 kJ/mol
# GULP energy per Si atom -5585.561239 kJ/mol
# Density = 1.986155 g / cm^3
# Si number density = 19.906861 Si / 1000 Ang^3
#
#
#
# Elastic Constant Matrix: (Units=GPa)
#
#
# Indices 1 2 3 4 5 6 
#
# 1 28.4803 30.7002 21.8681 0.0000 -12.4893 0.0000
# 2 30.7002 126.6145 76.3998 0.0000 -17.0922 0.0000
# 3 21.8681 76.3998 195.8445 0.0000 -14.9054 0.0000
# 4 0.0000 0.0000 0.0000 64.1816 0.0000 0.3876
# 5 -12.4893 -17.0922 -14.9054 0.0000 31.5872 0.0000
# 6 0.0000 0.0000 0.0000 0.3876 0.0000 18.5180
#
#
#
# Elastic Compliance Matrix: (Units=1/GPa)
#
#
# Indices 1 2 3 4 5 6 
#
# 1 0.053676 -0.010523 -0.000733 0.000000 0.015183 0.000000
# 2 -0.010523 0.012858 -0.003763 0.000000 0.001021 0.000000
# 3 -0.000733 -0.003763 0.006720 0.000000 0.000845 0.000000
# 4 0.000000 0.000000 0.000000 0.015583 0.000000 -0.000326
# 5 0.015183 0.001021 0.000845 0.000000 0.038613 0.000000
# 6 0.000000 0.000000 0.000000 -0.000326 0.000000 0.054008
#
#
# Mechanical properties :
#
#
# Convention : Reuss Voigt Hill
#
# Bulk Modulus (GPa) = 23.13948 67.65282 45.39615
# Shear Modulus (GPa) = 22.13347 37.65544 29.89445
#
# Velocity S-wave (km/s) = 3.33806 4.35395 3.87940
# Velocity P-wave (km/s) = 5.14839 7.70288 6.55135
#
# Compressibility (1/GPa) = 0.04321619
#
# Stress axis : x y z
#
# Youngs Moduli (GPa) = 18.63031 77.77179 148.80251
#
# Poissons Ratio (x) = 0.81839 0.10905
# Poissons Ratio (y) = 0.19605 0.55999
# Poissons Ratio (z) = 0.01365 0.29268
#
# Static dielectric constant tensor:
#      x y z
#    x 1.748830 0.000000 0.015460 
#    y 0.000000 1.743050 0.000000 
#    z 0.015460 0.000000 1.684030 
# 
# From -- ./inp_files/98018.got.cif
#   From: 2010.05.17/outbox.ucp.g08.bks.cvg/sg13_50_cif.got.tgz:98018.got - 2010.06.11 12:23:55.
