data_PCOD9238482
_publ_section_title
;
Structure prediction by ZEFSAII (Michael W. Deem and Ramdas Pophale) SiO2 
 PCOD9238482
Probable space group: P 2/C
;
_chemical_formula_sum "Si O2"
_cell_formula_units_Z 24
_cell_length_a 16.915810
_cell_length_b 7.567347
_cell_length_c 16.859384
_cell_angle_alpha 90.000000
_cell_angle_beta 32.100559
_cell_angle_gamma 90.000000
_cell_volume 1146.846500
_symmetry_space_group_name_H-M "P 2/C"
_symmetry_group_IT_number 13
_symmetry_cell_setting 'monoclinic'
loop_
_space_group_symop_operation_xyz
x,y,z
-x,y,1/2-z
-x,-y,-z
x,-y,1/2+z
loop_
_atom_site_type_symbol
_atom_site_label
_atom_site_fract_x
_atom_site_fract_y
_atom_site_fract_z
Si Si1 0.325352 0.792091 0.791685
Si Si2 0.672814 0.456834 0.617387
Si Si3 0.407422 0.336335 0.539461
Si Si4 0.865102 0.527933 0.812056
Si Si5 0.954291 0.310499 0.075598
Si Si6 0.735284 0.171883 0.692859
O O1 0.294830 0.662713 0.891391
O O2 0.484618 0.741075 0.619350
O O3 0.199644 0.748692 0.832790
O O4 0.313042 0.000295 0.814732
O O5 0.500000 0.438131 0.750000
O O6 0.762408 0.384853 0.466477
O O7 0.711448 0.348295 0.662390
O O8 0.500000 0.500000 0.500000
O O9 0.251178 0.403027 0.635528
O O10 0.362522 0.196101 0.645135
O O11 0.931842 0.656395 0.688429
O O12 0.000000 0.447787 0.750000
O O13 0.000000 0.500000 0.000000
O O14 0.088283 0.177827 0.941760
#
# Coordination Sequence:
#
# PCOD9238482 Si02
#       6
#     4   4   4   4   4   4
#     4  12  25  43  70 100 133 178 234 281 338 407
#     4  12  24  43  68  94 138 179 219 280 352 413
#     4  12  21  44  71  99 131 181 234 283 335 407
#     4  12  22  39  73  97 133 184 227 278 355 411
#     4  12  21  44  72  94 130 180 228 278 340 405
#     4  12  25  43  70  99 133 178 231 287 334 406
#
# _framework density 20.926949
#
# number of rings (size 3 to 8) (size 9 to 14) (size 15 to 20)
#    0.000    0.000   10.000    1.000    0.000    0.667 
#    0.000    0.000    3.667    0.000    0.000    0.000 
#    0.000    0.000    0.000    0.000    0.000    0.000 
#
# Total GULP energy -134097.121275 kJ/mol
# GULP energy per Si atom -5587.380053 kJ/mol
# Density = 2.087932 g / cm^3
# Si number density = 20.926949 Si / 1000 Ang^3
#
#
#
# Elastic Constant Matrix: (Units=GPa)
#
#
# Indices 1 2 3 4 5 6 
#
# 1 75.1647 -9.2799 17.5640 0.0000 -18.6974 0.0000
# 2 -9.2799 55.1127 11.2802 0.0000 -11.9082 0.0000
# 3 17.5640 11.2802 116.6120 0.0000 2.8073 0.0000
# 4 0.0000 0.0000 0.0000 16.8174 0.0000 -5.0957
# 5 -18.6974 -11.9082 2.8073 0.0000 47.8610 0.0000
# 6 0.0000 0.0000 0.0000 -5.0957 0.0000 16.7437
#
#
#
# Elastic Compliance Matrix: (Units=1/GPa)
#
#
# Indices 1 2 3 4 5 6 
#
# 1 0.016685 0.005194 -0.003208 0.000000 0.007999 0.000000
# 2 0.005194 0.021257 -0.003019 0.000000 0.007495 0.000000
# 3 -0.003208 -0.003019 0.009412 0.000000 -0.002556 0.000000
# 4 0.000000 0.000000 0.000000 0.065503 0.000000 0.019935
# 5 0.007999 0.007495 -0.002556 0.000000 0.026033 0.000000
# 6 0.000000 0.000000 0.000000 0.019935 0.000000 0.065791
#
#
# Mechanical properties :
#
#
# Convention : Reuss Voigt Hill
#
# Bulk Modulus (GPa) = 22.08095 31.77979 26.93037
# Shear Modulus (GPa) = 22.53859 31.43942 26.98901
#
# Velocity S-wave (km/s) = 3.28535 3.88021 3.59510
# Velocity P-wave (km/s) = 4.99657 5.94085 5.48905
#
# Compressibility (1/GPa) = 0.04528791
#
# Stress axis : x y z
#
# Youngs Moduli (GPa) = 59.93509 47.04421 106.24487
#
# Poissons Ratio (x) = -0.24436 0.34084
# Poissons Ratio (y) = -0.31132 0.32075
# Poissons Ratio (z) = 0.19227 0.14203
#
# Static dielectric constant tensor:
#      x y z
#    x 1.880030 0.000000 -0.072400 
#    y 0.000000 1.750910 0.000000 
#    z -0.072400 0.000000 1.799170 
# 
# From -- ./inp_files/69426.got.cif
#   From: 2010.05.17/outbox.cif.g08.bks.cpg/sg13_35_cif.got.tgz:69426.got - 2010.06.03 16:44:36.
