data_PCOD9238465
_publ_section_title
;
Structure prediction by ZEFSAII (Michael W. Deem and Ramdas Pophale) SiO2 
 PCOD9238465
Probable space group: P 2/C
;
_chemical_formula_sum "Si O2"
_cell_formula_units_Z 24
_cell_length_a 8.631151
_cell_length_b 11.447029
_cell_length_c 10.181553
_cell_angle_alpha 90.000000
_cell_angle_beta 88.117442
_cell_angle_gamma 90.000000
_cell_volume 1005.405035
_symmetry_space_group_name_H-M "P 2/C"
_symmetry_group_IT_number 13
_symmetry_cell_setting 'monoclinic'
loop_
_space_group_symop_operation_xyz
x,y,z
-x,y,1/2-z
-x,-y,-z
x,-y,1/2+z
loop_
_atom_site_type_symbol
_atom_site_label
_atom_site_fract_x
_atom_site_fract_y
_atom_site_fract_z
Si Si1 0.773236 0.299927 0.954789
Si Si2 0.000000 0.500000 0.000000
Si Si3 0.500000 0.530091 0.750000
Si Si4 0.577014 0.267422 0.435426
Si Si5 0.845958 0.933681 0.545521
Si Si6 0.763463 0.650494 0.161000
Si Si7 0.346371 0.019786 0.192558
O O1 0.596035 0.280850 0.003807
O O2 0.783019 0.284173 0.798218
O O3 0.835897 0.427305 0.988173
O O4 0.870787 0.205304 0.034552
O O5 0.081722 0.411894 0.891409
O O6 0.408179 0.617781 0.655948
O O7 0.373416 0.444507 0.815409
O O8 0.702232 0.267451 0.547097
O O9 0.602846 0.149693 0.353971
O O10 0.780613 0.969223 0.688977
O O11 0.719069 0.960094 0.435957
O O12 0.000000 0.000000 0.500000
O O13 0.500000 0.961566 0.250000
#
# Coordination Sequence:
#
# PCOD9238465 Si02
#       7
#     4   2   2   4   4   4   4
#     4  12  26  50  75 114 156 200 275 321 400 479
#     4  12  28  46  70 116 158 204 250 324 398 474
#     4  12  20  44  74 106 152 200 264 314 394 472
#     4  12  24  46  78 112 152 200 268 332 386 472
#     4  12  30  54  80 117 161 210 265 342 418 483
#     4  12  26  44  75 113 153 210 257 330 392 474
#     4  12  27  51  83 119 151 211 274 339 401 480
#
# _framework density 23.870975999999999
#
# number of rings (size 3 to 8) (size 9 to 14) (size 15 to 20)
#    0.000    0.000    5.833    3.000    4.667    1.333 
#    0.000    0.000    0.000    0.000    0.000    0.000 
#    0.000    0.000    0.000    0.000    0.000    0.000 
#
# Total GULP energy -134041.881392 kJ/mol
# GULP energy per Si atom -5585.078391 kJ/mol
# Density = 2.381664 g / cm^3
# Si number density = 23.870976 Si / 1000 Ang^3
#
#
#
# Elastic Constant Matrix: (Units=GPa)
#
#
# Indices 1 2 3 4 5 6 
#
# 1 101.3117 11.8251 16.4522 0.0000 -33.1542 0.0000
# 2 11.8251 35.6437 18.7451 0.0000 0.9088 0.0000
# 3 16.4522 18.7451 101.7110 0.0000 -18.1423 0.0000
# 4 0.0000 0.0000 0.0000 37.8666 0.0000 -12.3258
# 5 -33.1542 0.9088 -18.1423 0.0000 49.8671 0.0000
# 6 0.0000 0.0000 0.0000 -12.3258 0.0000 25.1611
#
#
#
# Elastic Compliance Matrix: (Units=1/GPa)
#
#
# Indices 1 2 3 4 5 6 
#
# 1 0.013356 -0.004850 0.000356 0.000000 0.009098 0.000000
# 2 -0.004850 0.033207 -0.006436 0.000000 -0.006171 0.000000
# 3 0.000356 -0.006436 0.011788 0.000000 0.004643 0.000000
# 4 0.000000 0.000000 0.000000 0.031418 0.000000 0.015391
# 5 0.009098 -0.006171 0.004643 0.000000 0.027904 0.000000
# 6 0.000000 0.000000 0.000000 0.015391 0.000000 0.047284
#
#
# Mechanical properties :
#
#
# Convention : Reuss Voigt Hill
#
# Bulk Modulus (GPa) = 27.40410 36.96789 32.18599
# Shear Modulus (GPa) = 25.12804 35.35523 30.24163
#
# Velocity S-wave (km/s) = 3.24799 3.85268 3.56319
# Velocity P-wave (km/s) = 5.05677 5.94231 5.51733
#
# Compressibility (1/GPa) = 0.03649090
#
# Stress axis : x y z
#
# Youngs Moduli (GPa) = 74.87242 30.11435 84.82859
#
# Poissons Ratio (x) = 0.14606 -0.03022
# Poissons Ratio (y) = 0.36315 0.54597
# Poissons Ratio (z) = -0.02668 0.19382
#
# Static dielectric constant tensor:
#      x y z
#    x 1.894130 0.000000 0.029220 
#    y 0.000000 1.916400 0.000000 
#    z 0.029220 0.000000 1.909080 
# 
# From -- ./inp_files/29496.got.cif
#   From: 2010.05.17/outbox.cif.g08.bks.cpg/sg13_15_cif.got.tgz:29496.got - 2010.06.03 16:44:36.
