data_PCOD9238181
_publ_section_title
;
Structure prediction by ZEFSAII (Michael W. Deem and Ramdas Pophale) SiO2 
 PCOD9238181
Probable space group: P 2/C
;
_chemical_formula_sum "Si O2"
_cell_formula_units_Z 14
_cell_length_a 12.613102
_cell_length_b 6.581544
_cell_length_c 13.850234
_cell_angle_alpha 90.000000
_cell_angle_beta 32.907980
_cell_angle_gamma 90.000000
_cell_volume 624.654145
_symmetry_space_group_name_H-M "P 2/C"
_symmetry_group_IT_number 13
_symmetry_cell_setting 'monoclinic'
loop_
_space_group_symop_operation_xyz
x,y,z
-x,y,1/2-z
-x,-y,-z
x,-y,1/2+z
loop_
_atom_site_type_symbol
_atom_site_label
_atom_site_fract_x
_atom_site_fract_y
_atom_site_fract_z
Si Si1 0.434251 0.117238 0.199567
Si Si2 0.000000 0.280652 0.250000
Si Si3 0.203161 0.074414 0.708166
Si Si4 0.888548 0.588745 0.492621
O O1 0.500000 0.019013 0.250000
O O2 0.291585 0.976591 0.245325
O O3 0.315816 0.318403 0.318358
O O4 0.622561 0.161803 0.990358
O O5 0.881446 0.422757 0.414095
O O6 0.864048 0.134862 0.289964
O O7 0.978688 0.223994 0.646065
O O8 0.000000 0.500000 0.500000
#
# Coordination Sequence:
#
# PCOD9238181 Si02
#       4
#     4   2   4   4
#     4  11  24  47  71 102 146 187 230 296 357 423
#     4  12  24  48  78 100 148 194 240 298 354 430
#     4  11  26  47  71 108 145 186 241 292 360 428
#     4  12  26  47  73 107 142 189 242 293 354 426
#
# _framework density 22.412403999999999
#
# number of rings (size 3 to 8) (size 9 to 14) (size 15 to 20)
#    0.000    0.571    2.857    5.143    4.000    1.143 
#   10.286    2.857    0.000    0.000    0.000    0.000 
#    0.000    0.000    0.000    0.000    0.000    0.000 
#
# Total GULP energy -78465.544397 kJ/mol
# GULP energy per Si atom -5604.681743 kJ/mol
# Density = 2.236139 g / cm^3
# Si number density = 22.412404 Si / 1000 Ang^3
#
#
#
# Elastic Constant Matrix: (Units=GPa)
#
#
# Indices 1 2 3 4 5 6 
#
# 1 170.1475 49.3253 29.0699 0.0000 19.8340 0.0000
# 2 49.3253 114.9090 74.0542 0.0000 12.2017 0.0000
# 3 29.0699 74.0542 123.6202 0.0000 1.7457 0.0000
# 4 0.0000 0.0000 0.0000 28.4857 0.0000 12.1148
# 5 19.8340 12.2017 1.7457 0.0000 34.0014 0.0000
# 6 0.0000 0.0000 0.0000 12.1148 0.0000 16.2585
#
#
#
# Elastic Compliance Matrix: (Units=1/GPa)
#
#
# Indices 1 2 3 4 5 6 
#
# 1 0.007020 -0.002680 -0.000001 0.000000 -0.003133 0.000000
# 2 -0.002680 0.015974 -0.008887 0.000000 -0.003713 0.000000
# 3 -0.000001 -0.008887 0.013378 0.000000 0.002503 0.000000
# 4 0.000000 0.000000 0.000000 0.051391 0.000000 -0.038293
# 5 -0.003133 -0.003713 0.002503 0.000000 0.032442 0.000000
# 6 0.000000 0.000000 0.000000 -0.038293 0.000000 0.090040
#
#
# Mechanical properties :
#
#
# Convention : Reuss Voigt Hill
#
# Bulk Modulus (GPa) = 75.54975 79.28616 77.41796
# Shear Modulus (GPa) = 21.02676 32.83093 26.92884
#
# Velocity S-wave (km/s) = 3.06629 3.83150 3.47005
# Velocity P-wave (km/s) = 6.80575 7.41799 7.11846
#
# Compressibility (1/GPa) = 0.01323631
#
# Stress axis : x y z
#
# Youngs Moduli (GPa) = 142.46012 62.60075 74.75085
#
# Poissons Ratio (x) = 0.16775 0.00008
# Poissons Ratio (y) = 0.38176 0.66429
# Poissons Ratio (z) = 0.00016 0.55632
#
# Static dielectric constant tensor:
#      x y z
#    x 1.853160 0.000000 0.005170 
#    y 0.000000 1.794660 0.000000 
#    z 0.005170 0.000000 1.800960 
# 
# From -- ./inp_files/48366.got.cif
#   From: 2010.05.17/outbox.cif.g08.bks.cpg/sg13_25_cif.got.tgz:48366.got - 2010.06.03 16:44:36.
