data_PCOD9238108
_publ_section_title
;
Structure prediction by ZEFSAII (Michael W. Deem and Ramdas Pophale) SiO2 
 PCOD9238108
Probable space group: P 2/C
;
_chemical_formula_sum "Si O2"
_cell_formula_units_Z 26
_cell_length_a 11.404624
_cell_length_b 14.720362
_cell_length_c 14.067930
_cell_angle_alpha 90.000000
_cell_angle_beta 149.161753
_cell_angle_gamma 90.000000
_cell_volume 1210.659277
_symmetry_space_group_name_H-M "P 2/C"
_symmetry_group_IT_number 13
_symmetry_cell_setting 'monoclinic'
loop_
_space_group_symop_operation_xyz
x,y,z
-x,y,1/2-z
-x,-y,-z
x,-y,1/2+z
loop_
_atom_site_type_symbol
_atom_site_label
_atom_site_fract_x
_atom_site_fract_y
_atom_site_fract_z
Si Si1 0.491049 0.290891 0.498363
Si Si2 0.568515 0.093211 0.099375
Si Si3 0.839437 0.393705 0.344295
Si Si4 0.906663 0.425378 0.791525
Si Si5 0.741648 0.299417 0.970515
Si Si6 0.078233 0.906153 0.910869
Si Si7 0.500000 0.031067 0.250000
O O1 0.507171 0.181976 0.511422
O O2 0.731780 0.341104 0.671892
O O3 0.320400 0.322435 0.464095
O O4 0.359309 0.321710 0.312170
O O5 0.469143 0.090578 0.135103
O O6 0.841409 0.094998 0.301579
O O7 0.500000 0.000000 0.000000
O O8 0.893006 0.408721 0.492026
O O9 0.072384 0.359212 0.454971
O O10 0.779676 0.487269 0.248659
O O11 0.000000 0.440433 0.750000
O O12 0.500000 0.304533 0.750000
O O13 0.831086 0.196352 0.032970
O O14 0.000000 0.936202 0.750000
O O15 0.276359 0.966561 0.094615
#
# Coordination Sequence:
#
# PCOD9238108 Si02
#       7
#     4   4   4   4   4   4   2
#     4  12  24  45  70  98 139 177 228 283 341 400
#     4  12  26  45  68 102 136 184 230 281 344 405
#     4  11  24  44  74 102 131 179 228 277 341 401
#     4  11  26  46  66 103 142 178 222 276 341 418
#     4  12  21  41  75 104 129 175 235 291 341 395
#     4  12  22  44  71  97 135 178 234 294 332 400
#     4  12  26  44  66 100 140 186 226 280 350 414
#
# _framework density 21.475902000000001
#
# number of rings (size 3 to 8) (size 9 to 14) (size 15 to 20)
#    0.000    0.308    6.923    2.308    0.000    1.846 
#    5.538    0.000    0.000    0.000    0.000    0.000 
#    0.000    0.000    0.000    0.000    0.000    0.000 
#
# Total GULP energy -145413.237434 kJ/mol
# GULP energy per Si atom -5592.816824 kJ/mol
# Density = 2.142702 g / cm^3
# Si number density = 21.475902 Si / 1000 Ang^3
#
#
#
# Elastic Constant Matrix: (Units=GPa)
#
#
# Indices 1 2 3 4 5 6 
#
# 1 82.6070 16.4412 6.0158 0.0000 -24.6542 0.0000
# 2 16.4412 93.3121 42.9712 0.0000 -1.1902 0.0000
# 3 6.0158 42.9712 88.4974 0.0000 -4.2711 0.0000
# 4 0.0000 0.0000 0.0000 33.7751 0.0000 -0.4491
# 5 -24.6542 -1.1902 -4.2711 0.0000 38.5189 0.0000
# 6 0.0000 0.0000 0.0000 -0.4491 0.0000 15.7298
#
#
#
# Elastic Compliance Matrix: (Units=1/GPa)
#
#
# Indices 1 2 3 4 5 6 
#
# 1 0.015633 -0.003040 0.000896 0.000000 0.010012 0.000000
# 2 -0.003040 0.014398 -0.006894 0.000000 -0.002265 0.000000
# 3 0.000896 -0.006894 0.014682 0.000000 0.001989 0.000000
# 4 0.000000 0.000000 0.000000 0.029619 0.000000 0.000846
# 5 0.010012 -0.002265 0.001989 0.000000 0.032520 0.000000
# 6 0.000000 0.000000 0.000000 0.000846 0.000000 0.063598
#
#
# Mechanical properties :
#
#
# Convention : Reuss Voigt Hill
#
# Bulk Modulus (GPa) = 37.53845 43.91919 40.72882
# Shear Modulus (GPa) = 25.32879 30.87066 28.09972
#
# Velocity S-wave (km/s) = 3.43797 3.79549 3.62115
# Velocity P-wave (km/s) = 5.76861 6.30099 6.04067
#
# Compressibility (1/GPa) = 0.02663935
#
# Stress axis : x y z
#
# Youngs Moduli (GPa) = 63.96651 69.45349 68.10945
#
# Poissons Ratio (x) = 0.21111 -0.06105
# Poissons Ratio (y) = 0.19443 0.46954
# Poissons Ratio (z) = -0.05734 0.47881
#
# Static dielectric constant tensor:
#      x y z
#    x 1.830550 0.000000 -0.031340 
#    y 0.000000 1.776990 0.000000 
#    z -0.031340 0.000000 1.778570 
# 
# From -- ./inp_files/51538.got.cif
#   From: 2010.05.17/outbox.cif.g08.bks.cpg/sg13_26_cif.got.tgz:51538.got - 2010.06.03 16:44:36.
