data_PCOD9238170
_publ_section_title
;
Structure prediction by ZEFSAII (Michael W. Deem and Ramdas Pophale) SiO2 
 PCOD9238170
Probable space group: P 2/C
;
_chemical_formula_sum "Si O2"
_cell_formula_units_Z 20
_cell_length_a 16.875188
_cell_length_b 8.809288
_cell_length_c 16.946664
_cell_angle_alpha 90.000000
_cell_angle_beta 160.240123
_cell_angle_gamma 90.000000
_cell_volume 851.710084
_symmetry_space_group_name_H-M "P 2/C"
_symmetry_group_IT_number 13
_symmetry_cell_setting 'monoclinic'
loop_
_space_group_symop_operation_xyz
x,y,z
-x,y,1/2-z
-x,-y,-z
x,-y,1/2+z
loop_
_atom_site_type_symbol
_atom_site_label
_atom_site_fract_x
_atom_site_fract_y
_atom_site_fract_z
Si Si1 0.267282 0.771078 0.975688
Si Si2 0.933765 0.665560 0.278456
Si Si3 0.710823 0.408939 0.156444
Si Si4 0.170446 0.875687 0.622955
Si Si5 0.408870 0.914731 0.575767
O O1 0.500000 0.776696 0.250000
O O2 0.232099 0.944297 0.913178
O O3 0.356148 0.660530 0.990615
O O4 0.000000 0.724031 0.750000
O O5 0.913588 0.527007 0.320315
O O6 0.000000 0.629746 0.250000
O O7 0.089926 0.793896 0.466343
O O8 0.686685 0.752137 0.040084
O O9 0.790131 0.264478 0.281302
O O10 0.500000 0.500000 0.000000
O O11 0.403302 0.960739 0.813722
O O12 0.000000 0.000000 0.500000
O O13 0.500000 0.898064 0.750000
#
# Coordination Sequence:
#
# PCOD9238170 Si02
#       5
#     4   4   4   4   4
#     4  11  28  50  78 113 155 206 264 319 387 474
#     4  12  25  47  75 104 150 201 256 312 395 474
#     4  12  28  47  72 112 153 201 255 329 402 465
#     4  12  28  47  78 112 151 199 261 331 393 462
#     4  11  24  46  77 109 148 197 261 315 384 474
#
# _framework density 23.482168999999999
#
# number of rings (size 3 to 8) (size 9 to 14) (size 15 to 20)
#    0.000    0.400    4.000    3.000   11.200    5.600 
#    0.000    0.000    0.000    0.000    0.000    0.000 
#    0.000    0.000    0.000    0.000    0.000    0.000 
#
# Total GULP energy -111679.479296 kJ/mol
# GULP energy per Si atom -5583.973965 kJ/mol
# Density = 2.342872 g / cm^3
# Si number density = 23.482169 Si / 1000 Ang^3
#
#
#
# Elastic Constant Matrix: (Units=GPa)
#
#
# Indices 1 2 3 4 5 6 
#
# 1 169.0881 68.2175 57.0471 0.0000 32.7699 0.0000
# 2 68.2175 128.8150 34.3944 0.0000 12.0654 0.0000
# 3 57.0471 34.3944 69.4084 0.0000 11.3327 0.0000
# 4 0.0000 0.0000 0.0000 33.9980 0.0000 -2.0077
# 5 32.7699 12.0654 11.3327 0.0000 40.6648 0.0000
# 6 0.0000 0.0000 0.0000 -2.0077 0.0000 58.9998
#
#
#
# Elastic Compliance Matrix: (Units=1/GPa)
#
#
# Indices 1 2 3 4 5 6 
#
# 1 0.010386 -0.003382 -0.005927 0.000000 -0.005714 0.000000
# 2 -0.003382 0.010135 -0.002301 0.000000 0.000360 0.000000
# 3 -0.005927 -0.002301 0.020459 0.000000 -0.000243 0.000000
# 4 0.000000 0.000000 0.000000 0.029473 0.000000 0.001003
# 5 -0.005714 0.000360 -0.000243 0.000000 0.029157 0.000000
# 6 0.000000 0.000000 0.000000 0.001003 0.000000 0.016983
#
#
# Mechanical properties :
#
#
# Convention : Reuss Voigt Hill
#
# Bulk Modulus (GPa) = 56.31057 76.29217 66.30137
# Shear Modulus (GPa) = 34.30936 40.57600 37.44268
#
# Velocity S-wave (km/s) = 3.82656 4.16137 3.99747
# Velocity P-wave (km/s) = 6.59966 7.45984 7.04290
#
# Compressibility (1/GPa) = 0.01775866
#
# Stress axis : x y z
#
# Youngs Moduli (GPa) = 96.28610 98.66852 48.87864
#
# Poissons Ratio (x) = 0.33372 0.28971
# Poissons Ratio (y) = 0.32567 0.11247
# Poissons Ratio (z) = 0.57069 0.22705
#
# Static dielectric constant tensor:
#      x y z
#    x 1.816260 0.000000 0.133730 
#    y 0.000000 1.891040 0.000000 
#    z 0.133730 0.000000 1.818220 
# 
# From -- ./inp_files/69738.got.cif
#   From: 2010.05.17/outbox.cif.g08.bks.cpg/sg13_35_cif.got.tgz:69738.got - 2010.06.03 16:44:36.
