data_PCOD9238755
_publ_section_title
;
Structure prediction by ZEFSAII (Michael W. Deem and Ramdas Pophale) SiO2 
 PCOD9238755
Probable space group: P 2/C
;
_chemical_formula_sum "Si O2"
_cell_formula_units_Z 20
_cell_length_a 10.952061
_cell_length_b 4.964837
_cell_length_c 25.373983
_cell_angle_alpha 90.000000
_cell_angle_beta 33.754054
_cell_angle_gamma 90.000000
_cell_volume 766.609942
_symmetry_space_group_name_H-M "P 2/C"
_symmetry_group_IT_number 13
_symmetry_cell_setting 'monoclinic'
loop_
_space_group_symop_operation_xyz
x,y,z
-x,y,1/2-z
-x,-y,-z
x,-y,1/2+z
loop_
_atom_site_type_symbol
_atom_site_label
_atom_site_fract_x
_atom_site_fract_y
_atom_site_fract_z
Si Si1 0.808015 0.544721 0.001441
Si Si2 0.083694 0.912307 0.392868
Si Si3 0.326690 0.441575 0.721014
Si Si4 0.655310 0.249418 0.952623
Si Si5 0.000000 0.585657 0.250000
Si Si6 0.500000 0.177895 0.250000
O O1 0.981224 0.331427 0.964057
O O2 0.303721 0.994030 0.844857
O O3 0.565852 0.612246 0.109739
O O4 0.929829 0.822367 0.942340
O O5 0.199306 0.799555 0.297148
O O6 0.763848 0.666937 0.468575
O O7 0.385256 0.644342 0.746766
O O8 0.160303 0.554729 0.735572
O O9 0.837301 0.237006 0.842715
O O10 0.500000 0.500000 0.000000
O O11 0.500000 0.000000 0.000000
#
# Coordination Sequence:
#
# PCOD9238755 Si02
#       6
#     4   4   4   4   2   2
#     4  12  28  51  85 121 166 221 279 342 423 494
#     4  12  27  53  81 122 164 212 279 346 408 501
#     4  12  29  53  86 124 167 223 276 349 416 498
#     4  12  26  48  75 120 164 212 272 333 412 495
#     4  12  26  50  88 118 166 216 268 348 404 480
#     4  12  28  56  82 122 176 214 284 336 428 494
#
# _framework density 26.088888000000001
#
# number of rings (size 3 to 8) (size 9 to 14) (size 15 to 20)
#    0.000    0.000    6.000    1.800    2.800    2.400 
#    0.000    0.000    0.000    0.000    0.000    0.000 
#    0.000    0.000    0.000    0.000    0.000    0.000 
#
# Total GULP energy -111804.447912 kJ/mol
# GULP energy per Si atom -5590.222396 kJ/mol
# Density = 2.602951 g / cm^3
# Si number density = 26.088888 Si / 1000 Ang^3
#
#
#
# Elastic Constant Matrix: (Units=GPa)
#
#
# Indices 1 2 3 4 5 6 
#
# 1 137.9428 72.0691 58.7123 0.0000 -9.3168 0.0000
# 2 72.0691 202.3534 93.1343 0.0000 -18.4003 0.0000
# 3 58.7123 93.1343 265.9325 0.0000 -16.4821 0.0000
# 4 0.0000 0.0000 0.0000 37.3072 0.0000 -16.2782
# 5 -9.3168 -18.4003 -16.4821 0.0000 44.6190 0.0000
# 6 0.0000 0.0000 0.0000 -16.2782 0.0000 27.1253
#
#
#
# Elastic Compliance Matrix: (Units=1/GPa)
#
#
# Indices 1 2 3 4 5 6 
#
# 1 0.009152 -0.002748 -0.001034 0.000000 0.000396 0.000000
# 2 -0.002748 0.006846 -0.001690 0.000000 0.001625 0.000000
# 3 -0.001034 -0.001690 0.004630 0.000000 0.000797 0.000000
# 4 0.000000 0.000000 0.000000 0.036313 0.000000 0.021792
# 5 0.000396 0.001625 0.000797 0.000000 0.023459 0.000000
# 6 0.000000 0.000000 0.000000 0.021792 0.000000 0.049943
#
#
# Mechanical properties :
#
#
# Convention : Reuss Voigt Hill
#
# Bulk Modulus (GPa) = 103.25743 117.11778 110.18760
# Shear Modulus (GPa) = 34.59859 47.29785 40.94822
#
# Velocity S-wave (km/s) = 3.64563 4.26249 3.96607
# Velocity P-wave (km/s) = 7.57534 8.31952 7.95614
#
# Compressibility (1/GPa) = 0.00968453
#
# Stress axis : x y z
#
# Youngs Moduli (GPa) = 109.27056 146.06687 215.98434
#
# Poissons Ratio (x) = 0.40134 0.22326
# Poissons Ratio (y) = 0.30023 0.36508
# Poissons Ratio (z) = 0.11295 0.24690
#
# Static dielectric constant tensor:
#      x y z
#    x 2.365060 0.000000 -0.098230 
#    y 0.000000 2.158820 0.000000 
#    z -0.098230 0.000000 2.112090 
# 
# From -- ./inp_files/96417.got.cif
#   From: 2010.05.17/outbox.cif.g08.bks.cpg/sg13_49_cif.got.tgz:96417.got - 2010.06.03 16:44:36.
