data_PCOD9238501
_publ_section_title
;
Structure prediction by ZEFSAII (Michael W. Deem and Ramdas Pophale) SiO2 
 PCOD9238501
Probable space group: P 2/C
;
_chemical_formula_sum "Si O2"
_cell_formula_units_Z 18
_cell_length_a 14.082815
_cell_length_b 6.096904
_cell_length_c 9.996535
_cell_angle_alpha 90.000000
_cell_angle_beta 52.798725
_cell_angle_gamma 90.000000
_cell_volume 683.664578
_symmetry_space_group_name_H-M "P 2/C"
_symmetry_group_IT_number 13
_symmetry_cell_setting 'monoclinic'
loop_
_space_group_symop_operation_xyz
x,y,z
-x,y,1/2-z
-x,-y,-z
x,-y,1/2+z
loop_
_atom_site_type_symbol
_atom_site_label
_atom_site_fract_x
_atom_site_fract_y
_atom_site_fract_z
Si Si1 0.263731 0.865325 0.835570
Si Si2 0.092719 0.788416 0.428621
Si Si3 0.615709 0.602345 0.971824
Si Si4 0.500000 0.965985 0.250000
Si Si5 0.845559 0.558549 0.391955
O O1 0.279253 0.674173 0.716802
O O2 0.220519 0.090547 0.807384
O O3 0.396084 0.897372 0.774237
O O4 0.162609 0.789833 0.023496
O O5 0.106342 0.644515 0.556016
O O6 0.089196 0.623417 0.303329
O O7 0.000000 0.000000 0.500000
O O8 0.700786 0.475125 0.001619
O O9 0.500000 0.500000 0.000000
O O10 0.564045 0.814016 0.087994
#
# Coordination Sequence:
#
# PCOD9238501 Si02
#       5
#     4   4   4   2   4
#     4  12  25  48  78 122 171 215 285 338 425 506
#     4  12  30  57  88 121 165 225 286 360 430 510
#     4  12  23  44  77 120 168 224 273 342 420 506
#     4  12  22  40  76 120 168 220 272 340 414 512
#     4  12  26  56  83 121 170 217 290 353 427 510
#
# _framework density 26.328702
#
# number of rings (size 3 to 8) (size 9 to 14) (size 15 to 20)
#    0.000    0.000    4.444    6.000    0.000    1.778 
#    4.000    1.111    0.000    0.000    0.000    0.000 
#    0.000    0.000    0.000    0.000    0.000    0.000 
#
# Total GULP energy -100497.722067 kJ/mol
# GULP energy per Si atom -5583.206781 kJ/mol
# Density = 2.626878 g / cm^3
# Si number density = 26.328702 Si / 1000 Ang^3
#
#
#
# Elastic Constant Matrix: (Units=GPa)
#
#
# Indices 1 2 3 4 5 6 
#
# 1 143.4209 69.6712 31.5185 0.0000 -15.4892 0.0000
# 2 69.6712 97.8753 24.8899 0.0000 6.8712 0.0000
# 3 31.5185 24.8899 103.8924 0.0000 6.1641 0.0000
# 4 0.0000 0.0000 0.0000 78.8651 0.0000 -6.2132
# 5 -15.4892 6.8712 6.1641 0.0000 36.3411 0.0000
# 6 0.0000 0.0000 0.0000 -6.2132 0.0000 78.0384
#
#
#
# Elastic Compliance Matrix: (Units=1/GPa)
#
#
# Indices 1 2 3 4 5 6 
#
# 1 0.012578 -0.008936 -0.002115 0.000000 0.007409 0.000000
# 2 -0.008936 0.017325 -0.001030 0.000000 -0.006910 0.000000
# 3 -0.002115 -0.001030 0.010663 0.000000 -0.002515 0.000000
# 4 0.000000 0.000000 0.000000 0.012760 0.000000 0.001016
# 5 0.007409 -0.006910 -0.002515 0.000000 0.032408 0.000000
# 6 0.000000 0.000000 0.000000 0.001016 0.000000 0.012895
#
#
# Mechanical properties :
#
#
# Convention : Reuss Voigt Hill
#
# Bulk Modulus (GPa) = 60.95613 66.37198 63.66406
# Shear Modulus (GPa) = 38.98355 53.25620 46.11987
#
# Velocity S-wave (km/s) = 3.85209 4.50237 4.18987
# Velocity P-wave (km/s) = 6.55645 7.23133 6.90215
#
# Compressibility (1/GPa) = 0.01640524
#
# Stress axis : x y z
#
# Youngs Moduli (GPa) = 79.50085 57.71960 93.78387
#
# Poissons Ratio (x) = 0.51579 0.19833
# Poissons Ratio (y) = 0.71044 0.09656
# Poissons Ratio (z) = 0.16812 0.05943
#
# Static dielectric constant tensor:
#      x y z
#    x 2.064540 0.000000 0.310830 
#    y 0.000000 1.740620 0.000000 
#    z 0.310830 0.000000 2.720900 
# 
# From -- ./inp_files/31303.got.cif
#   From: 2010.05.17/outbox.cif.g08.bks.cpg/sg13_16_cif.got.tgz:31303.got - 2010.06.03 16:44:36.
