data_PCOD9238304
_publ_section_title
;
Structure prediction by ZEFSAII (Michael W. Deem and Ramdas Pophale) SiO2 
 PCOD9238304
Probable space group: P 2/C
;
_chemical_formula_sum "Si O2"
_cell_formula_units_Z 18
_cell_length_a 5.338127
_cell_length_b 19.780964
_cell_length_c 8.178183
_cell_angle_alpha 90.000000
_cell_angle_beta 114.136908
_cell_angle_gamma 90.000000
_cell_volume 788.060974
_symmetry_space_group_name_H-M "P 2/C"
_symmetry_group_IT_number 13
_symmetry_cell_setting 'monoclinic'
loop_
_space_group_symop_operation_xyz
x,y,z
-x,y,1/2-z
-x,-y,-z
x,-y,1/2+z
loop_
_atom_site_type_symbol
_atom_site_label
_atom_site_fract_x
_atom_site_fract_y
_atom_site_fract_z
Si Si1 0.686481 0.554548 0.139860
Si Si2 0.502965 0.308215 0.945211
Si Si3 0.000000 0.728806 0.750000
Si Si4 0.714810 0.042648 0.450647
Si Si5 0.159512 0.804594 0.459288
O O1 0.500000 0.566981 0.250000
O O2 0.698181 0.629944 0.064801
O O3 0.000000 0.532077 0.250000
O O4 0.500000 0.500000 0.000000
O O5 0.500000 0.297433 0.750000
O O6 0.437781 0.236410 0.009974
O O7 0.786071 0.323041 0.109247
O O8 0.056314 0.777646 0.607180
O O9 0.500000 0.060139 0.250000
O O10 0.809502 0.115325 0.539898
O O11 0.500000 0.000000 0.500000
O O12 0.000000 0.000000 0.500000
O O13 0.000000 0.783409 0.250000
#
# Coordination Sequence:
#
# PCOD9238304 Si02
#       5
#     4   4   2   4   4
#     4  11  26  47  77 111 155 202 254 317 385 458
#     4  11  25  46  75 109 155 197 263 318 388 455
#     4  12  26  44  78 108 146 210 252 322 390 466
#     4  12  28  49  75 110 151 200 255 315 391 460
#     4  12  26  48  76 108 153 196 258 323 383 463
#
# _framework density 22.840875
#
# number of rings (size 3 to 8) (size 9 to 14) (size 15 to 20)
#    0.000    0.444    2.222    5.333   10.889    2.667 
#    0.000    0.000    0.000    0.000    0.000    0.000 
#    0.000    0.000    0.000    0.000    0.000    0.000 
#
# Total GULP energy -100243.300967 kJ/mol
# GULP energy per Si atom -5569.072276 kJ/mol
# Density = 2.278889 g / cm^3
# Si number density = 22.840875 Si / 1000 Ang^3
#
#
#
# Elastic Constant Matrix: (Units=GPa)
#
#
# Indices 1 2 3 4 5 6 
#
# 1 129.7514 33.8394 46.6280 0.0000 18.5055 0.0000
# 2 33.8394 117.2177 8.3827 0.0000 4.7656 0.0000
# 3 46.6280 8.3827 151.8069 0.0000 14.0695 0.0000
# 4 0.0000 0.0000 0.0000 -333.7266 0.0000 99.0042
# 5 18.5055 4.7656 14.0695 0.0000 48.0725 0.0000
# 6 0.0000 0.0000 0.0000 99.0042 0.0000 2.2293
#
#
#
# Elastic Compliance Matrix: (Units=1/GPa)
#
#
# Indices 1 2 3 4 5 6 
#
# 1 0.009674 -0.002498 -0.002581 0.000000 -0.002721 0.000000
# 2 -0.002498 0.009235 0.000260 0.000000 -0.000030 0.000000
# 3 -0.002581 0.000260 0.007479 0.000000 -0.001221 0.000000
# 4 0.000000 0.000000 0.000000 -0.000211 0.000000 0.009388
# 5 -0.002721 -0.000030 -0.001221 0.000000 0.022210 0.000000
# 6 0.000000 0.000000 0.000000 0.009388 0.000000 0.031645
#
#
# Mechanical properties :
#
#
# Convention : Reuss Voigt Hill
#
# Bulk Modulus (GPa) = 59.70137 64.05293 61.87715
# Shear Modulus (GPa) = 52.49183 -36.02324 8.23430
#
# Velocity S-wave (km/s) = 4.79911 -3.97563 1.90076
# Velocity P-wave (km/s) = 7.54342 2.65138 5.65390
#
# Compressibility (1/GPa) = 0.01675004
#
# Stress axis : x y z
#
# Youngs Moduli (GPa) = 103.36836 108.28618 133.70783
#
# Poissons Ratio (x) = 0.27045 0.34515
# Poissons Ratio (y) = 0.25817 -0.03476
# Poissons Ratio (z) = 0.26683 -0.02815
#
# Static dielectric constant tensor:
#      x y z
#    x 1.798690 0.000000 0.048320 
#    y 0.000000 1.888780 0.000000 
#    z 0.048320 0.000000 1.895180 
# 
# From -- ./inp_files/9655.got.cif
#   From: 2010.05.17/outbox.cif.g08.bks.cpg/sg13_5_cif.got.tgz:9655.got - 2010.06.03 16:44:36.
