data_PCOD9238611
_publ_section_title
;
Structure prediction by ZEFSAII (Michael W. Deem and Ramdas Pophale) SiO2 
 PCOD9238611
Probable space group: P 2/C
;
_chemical_formula_sum "Si O2"
_cell_formula_units_Z 14
_cell_length_a 5.617390
_cell_length_b 26.075065
_cell_length_c 4.910625
_cell_angle_alpha 90.000000
_cell_angle_beta 124.982567
_cell_angle_gamma 90.000000
_cell_volume 589.323503
_symmetry_space_group_name_H-M "P 2/C"
_symmetry_group_IT_number 13
_symmetry_cell_setting 'monoclinic'
loop_
_space_group_symop_operation_xyz
x,y,z
-x,y,1/2-z
-x,-y,-z
x,-y,1/2+z
loop_
_atom_site_type_symbol
_atom_site_label
_atom_site_fract_x
_atom_site_fract_y
_atom_site_fract_z
Si Si1 0.000000 0.961567 0.250000
Si Si2 0.500000 0.886800 0.750000
Si Si3 0.500000 0.688457 0.750000
Si Si4 0.000000 0.756619 0.250000
Si Si5 0.000000 0.538611 0.750000
Si Si6 0.500000 0.818015 0.250000
Si Si7 0.500000 0.614880 0.250000
O O1 0.269430 0.923695 0.456781
O O2 0.000000 0.000000 0.500000
O O3 0.618534 0.851791 0.581514
O O4 0.420595 0.652608 0.443346
O O5 0.212921 0.723458 0.586024
O O6 0.766057 0.787228 0.282449
O O7 0.000000 0.500000 0.500000
O O8 0.734867 0.576926 0.532341
#
# Coordination Sequence:
#
# PCOD9238611 Si02
#       7
#     2   2   2   2   2   2   2
#     4  12  25  46  74 108 148 194 246 304 371 446
#     4  12  27  47  76 110 150 196 248 309 373 444
#     4  12  27  47  74 106 148 196 248 307 371 442
#     4  12  29  51  78 112 152 202 254 313 377 448
#     4  12  24  43  70 102 142 188 240 301 368 440
#     4  12  29  51  78 114 154 200 254 313 377 448
#     4  12  25  45  70 104 144 190 244 303 367 442
#
# _framework density 23.756050999999999
#
# number of rings (size 3 to 8) (size 9 to 14) (size 15 to 20)
#    0.000    0.000    0.000    9.429    0.000   13.714 
#    0.000    0.000    0.000    0.000    0.000    0.000 
#    0.000    0.000    0.000    0.000    0.000    0.000 
#
# Total GULP energy -78418.162472 kJ/mol
# GULP energy per Si atom -5601.297319 kJ/mol
# Density = 2.370198 g / cm^3
# Si number density = 23.756051 Si / 1000 Ang^3
#
#
#
# Elastic Constant Matrix: (Units=GPa)
#
#
# Indices 1 2 3 4 5 6 
#
# 1 144.6636 95.8233 68.6141 0.0000 -10.7020 0.0000
# 2 95.8233 157.8557 68.9360 0.0000 0.3216 0.0000
# 3 68.6141 68.9360 147.3851 0.0000 0.4078 0.0000
# 4 0.0000 0.0000 0.0000 266.9321 0.0000 0.3069
# 5 -10.7020 0.3216 0.4078 0.0000 72.4375 0.0000
# 6 0.0000 0.0000 0.0000 0.3069 0.0000 43.7554
#
#
#
# Elastic Compliance Matrix: (Units=1/GPa)
#
#
# Indices 1 2 3 4 5 6 
#
# 1 0.012702 -0.006446 -0.002903 0.000000 0.001922 0.000000
# 2 -0.006446 0.011233 -0.002250 0.000000 -0.000990 0.000000
# 3 -0.002903 -0.002250 0.009190 0.000000 -0.000471 0.000000
# 4 0.000000 0.000000 0.000000 0.003746 0.000000 -0.000026
# 5 0.001922 -0.000990 -0.000471 0.000000 0.014096 0.000000
# 6 0.000000 0.000000 0.000000 -0.000026 0.000000 0.022855
#
#
# Mechanical properties :
#
#
# Convention : Reuss Voigt Hill
#
# Bulk Modulus (GPa) = 100.75397 101.85014 101.30206
# Shear Modulus (GPa) = 49.83572 91.06039 70.44806
#
# Velocity S-wave (km/s) = 4.58516 6.19796 5.45153
# Velocity P-wave (km/s) = 8.39854 9.70495 9.07528
#
# Compressibility (1/GPa) = 0.00992517
#
# Stress axis : x y z
#
# Youngs Moduli (GPa) = 78.72867 89.02606 108.81038
#
# Poissons Ratio (x) = 0.57390 0.31592
# Poissons Ratio (y) = 0.50752 0.24482
# Poissons Ratio (z) = 0.22858 0.20031
#
# Static dielectric constant tensor:
#      x y z
#    x 1.904140 0.000000 0.009580 
#    y 0.000000 1.985280 0.000000 
#    z 0.009580 0.000000 1.834540 
# 
# From -- ./inp_files/319.got.cif
#   From: 2010.05.17/outbox.cif.g08.bks.cpg/sg13_1_cif.got.tgz:319.got - 2010.06.03 16:44:36.
