data_PCOD9238473
_publ_section_title
;
Structure prediction by ZEFSAII (Michael W. Deem and Ramdas Pophale) SiO2 
 PCOD9238473
Probable space group: P 2/C
;
_chemical_formula_sum "Si O2"
_cell_formula_units_Z 22
_cell_length_a 4.953067
_cell_length_b 12.087488
_cell_length_c 15.057296
_cell_angle_alpha 90.000000
_cell_angle_beta 82.130751
_cell_angle_gamma 90.000000
_cell_volume 892.993208
_symmetry_space_group_name_H-M "P 2/C"
_symmetry_group_IT_number 13
_symmetry_cell_setting 'monoclinic'
loop_
_space_group_symop_operation_xyz
x,y,z
-x,y,1/2-z
-x,-y,-z
x,-y,1/2+z
loop_
_atom_site_type_symbol
_atom_site_label
_atom_site_fract_x
_atom_site_fract_y
_atom_site_fract_z
Si Si1 0.500000 0.441120 0.250000
Si Si2 0.077565 0.728932 0.073061
Si Si3 0.016989 0.885071 0.913262
Si Si4 0.000000 0.845229 0.250000
Si Si5 0.460733 0.985541 0.658889
Si Si6 0.405183 0.582473 0.427820
Si Si7 0.000000 0.716757 0.750000
O O1 0.402910 0.517631 0.335206
O O2 0.258700 0.362581 0.226993
O O3 0.930582 0.769545 0.169310
O O4 0.889924 0.633282 0.040660
O O5 0.373046 0.681275 0.083045
O O6 0.086347 0.826392 0.001460
O O7 0.229378 0.986049 0.888418
O O8 0.713112 0.927875 0.909918
O O9 0.042581 0.793446 0.834286
O O10 0.740339 0.917245 0.296498
O O11 0.500000 0.918748 0.750000
O O12 0.500000 0.500000 0.500000
#
# Coordination Sequence:
#
# PCOD9238473 Si02
#       7
#     2   4   4   2   4   4   2
#     4  12  24  38  70  98 134 188 226 292 364 414
#     4  12  28  46  73 103 139 191 237 286 347 427
#     4  12  24  44  71 103 139 183 232 291 350 405
#     4  12  29  47  74 102 150 188 238 281 347 416
#     4  12  23  46  69 100 143 180 224 299 340 409
#     4  12  25  48  68 102 144 180 236 295 349 411
#     4  12  21  39  68 104 132 176 240 291 353 418
#
# _framework density 24.636244000000001
#
# number of rings (size 3 to 8) (size 9 to 14) (size 15 to 20)
#    0.000    0.000    3.636    7.091    2.545    1.455 
#    0.000    0.000    0.000    0.000    0.000    0.000 
#    0.000    0.000    0.000    0.000    0.000    0.000 
#
# Total GULP energy -123205.054328 kJ/mol
# GULP energy per Si atom -5600.229742 kJ/mol
# Density = 2.458017 g / cm^3
# Si number density = 24.636244 Si / 1000 Ang^3
#
#
#
# Elastic Constant Matrix: (Units=GPa)
#
#
# Indices 1 2 3 4 5 6 
#
# 1 137.0978 23.2885 -15.4912 0.0000 5.4634 0.0000
# 2 23.2885 70.6449 32.7454 0.0000 5.3540 0.0000
# 3 -15.4912 32.7454 111.6579 0.0000 15.8494 0.0000
# 4 0.0000 0.0000 0.0000 496.4930 0.0000 -238.7033
# 5 5.4634 5.3540 15.8494 0.0000 24.9876 0.0000
# 6 0.0000 0.0000 0.0000 -238.7033 0.0000 153.6899
#
#
#
# Elastic Compliance Matrix: (Units=1/GPa)
#
#
# Indices 1 2 3 4 5 6 
#
# 1 0.008341 -0.003772 0.002646 0.000000 -0.002694 0.000000
# 2 -0.003772 0.018094 -0.005930 0.000000 0.000709 0.000000
# 3 0.002646 -0.005930 0.012049 0.000000 -0.006950 0.000000
# 4 0.000000 0.000000 0.000000 0.007952 0.000000 0.012351
# 5 -0.002694 0.000709 -0.006950 0.000000 0.044865 0.000000
# 6 0.000000 0.000000 0.000000 0.012351 0.000000 0.025689
#
#
# Mechanical properties :
#
#
# Convention : Reuss Voigt Hill
#
# Bulk Modulus (GPa) = 41.03287 44.49848 42.76567
# Shear Modulus (GPa) = 35.91259 153.62462 94.76861
#
# Velocity S-wave (km/s) = 3.82214 7.90522 6.20892
# Velocity P-wave (km/s) = 6.01415 10.07099 8.29442
#
# Compressibility (1/GPa) = 0.02437071
#
# Stress axis : x y z
#
# Youngs Moduli (GPa) = 119.88839 55.26757 82.99653
#
# Poissons Ratio (x) = 0.20846 -0.21959
# Poissons Ratio (y) = 0.45221 0.49219
# Poissons Ratio (z) = -0.31720 0.32775
#
# Static dielectric constant tensor:
#      x y z
#    x 1.931820 0.000000 -0.011130 
#    y 0.000000 1.976270 0.000000 
#    z -0.011130 0.000000 1.966830 
# 
# From -- ./inp_files/43646.got.cif
#   From: 2010.05.17/outbox.cif.g08.bks.cpg/sg13_22_cif.got.tgz:43646.got - 2010.06.03 16:44:36.
