data_PCOD9238687
_publ_section_title
;
Structure prediction by ZEFSAII (Michael W. Deem and Ramdas Pophale) SiO2 
 PCOD9238687
Probable space group: P 2/C
;
_chemical_formula_sum "Si O2"
_cell_formula_units_Z 16
_cell_length_a 7.690549
_cell_length_b 18.243903
_cell_length_c 8.105532
_cell_angle_alpha 90.000000
_cell_angle_beta 144.292769
_cell_angle_gamma 90.000000
_cell_volume 663.749828
_symmetry_space_group_name_H-M "P 2/C"
_symmetry_group_IT_number 13
_symmetry_cell_setting 'monoclinic'
loop_
_space_group_symop_operation_xyz
x,y,z
-x,y,1/2-z
-x,-y,-z
x,-y,1/2+z
loop_
_atom_site_type_symbol
_atom_site_label
_atom_site_fract_x
_atom_site_fract_y
_atom_site_fract_z
Si Si1 0.788862 0.446905 0.741583
Si Si2 0.657161 0.929204 0.541358
Si Si3 0.697116 0.809031 0.046513
Si Si4 0.807790 0.292497 0.931417
O O1 0.500000 0.500000 0.500000
O O2 0.745914 0.374239 0.816413
O O3 0.000000 0.424976 0.750000
O O4 0.000000 0.500000 0.000000
O O5 0.563949 0.861876 0.586414
O O6 0.000000 0.937370 0.750000
O O7 0.500000 0.000000 0.500000
O O8 0.500000 0.913493 0.250000
O O9 0.854132 0.754216 0.300103
O O10 0.000000 0.856897 0.250000
O O11 0.500000 0.769895 0.750000
O O12 0.500000 0.258402 0.750000
O O13 0.000000 0.293186 0.250000
#
# Coordination Sequence:
#
# PCOD9238687 Si02
#       4
#     4   4   4   4
#     4  12  25  44  70 102 140 187 240 298 361 431
#     4  12  25  46  74 107 145 190 240 299 363 437
#     4  12  26  46  71 104 143 189 241 300 365 438
#     4  12  26  46  71 105 145 192 244 303 368 440
#
# _framework density 24.10547
#
# number of rings (size 3 to 8) (size 9 to 14) (size 15 to 20)
#    0.000    0.000    0.000   11.250    0.000    4.000 
#    0.000    0.000    0.000    0.000    0.000    0.000 
#    0.000    0.000    0.000    0.000    0.000    0.000 
#
# Total GULP energy -89112.426279 kJ/mol
# GULP energy per Si atom -5569.526642 kJ/mol
# Density = 2.405060 g / cm^3
# Si number density = 24.105470 Si / 1000 Ang^3
#
#
#
# Elastic Constant Matrix: (Units=GPa)
#
#
# Indices 1 2 3 4 5 6 
#
# 1 116.8374 20.5151 61.9760 0.0000 23.4653 0.0000
# 2 20.5151 131.7367 44.2566 0.0000 -2.1704 0.0000
# 3 61.9760 44.2566 223.7472 0.0000 18.8669 0.0000
# 4 0.0000 0.0000 0.0000 45.5499 0.0000 -1.0023
# 5 23.4653 -2.1704 18.8669 0.0000 58.9135 0.0000
# 6 0.0000 0.0000 0.0000 -1.0023 0.0000 41.8902
#
#
#
# Elastic Compliance Matrix: (Units=1/GPa)
#
#
# Indices 1 2 3 4 5 6 
#
# 1 0.010749 -0.000890 -0.002505 0.000000 -0.003512 0.000000
# 2 -0.000890 0.008245 -0.001480 0.000000 0.001132 0.000000
# 3 -0.002505 -0.001480 0.005526 0.000000 -0.000826 0.000000
# 4 0.000000 0.000000 0.000000 0.021966 0.000000 0.000526
# 5 -0.003512 0.001132 -0.000826 0.000000 0.018679 0.000000
# 6 0.000000 0.000000 0.000000 0.000526 0.000000 0.023884
#
#
# Mechanical properties :
#
#
# Convention : Reuss Voigt Hill
#
# Bulk Modulus (GPa) = 67.70550 80.64629 74.17589
# Shear Modulus (GPa) = 48.20508 52.30896 50.25702
#
# Velocity S-wave (km/s) = 4.47672 4.66338 4.57100
# Velocity P-wave (km/s) = 7.40739 7.90724 7.66139
#
# Compressibility (1/GPa) = 0.01476985
#
# Stress axis : x y z
#
# Youngs Moduli (GPa) = 93.02782 121.28095 180.97454
#
# Poissons Ratio (x) = 0.10797 0.45339
# Poissons Ratio (y) = 0.08281 0.26780
# Poissons Ratio (z) = 0.23306 0.17947
#
# Static dielectric constant tensor:
#      x y z
#    x 2.023420 0.000000 0.041510 
#    y 0.000000 2.109780 0.000000 
#    z 0.041510 0.000000 1.892830 
# 
# From -- ./inp_files/13238.got.cif
#   From: 2010.05.17/outbox.cif.g08.bks.cpg/sg13_7_cif.got.tgz:13238.got - 2010.06.03 16:44:36.
