data_PCOD9238073
_publ_section_title
;
Structure prediction by ZEFSAII (Michael W. Deem and Ramdas Pophale) SiO2 
 PCOD9238073
Probable space group: P 2/C
;
_chemical_formula_sum "Si O2"
_cell_formula_units_Z 8
_cell_length_a 8.696013
_cell_length_b 4.047175
_cell_length_c 7.788473
_cell_angle_alpha 90.000000
_cell_angle_beta 114.991675
_cell_angle_gamma 90.000000
_cell_volume 248.444630
_symmetry_space_group_name_H-M "P 2/C"
_symmetry_group_IT_number 13
_symmetry_cell_setting 'monoclinic'
loop_
_space_group_symop_operation_xyz
x,y,z
-x,y,1/2-z
-x,-y,-z
x,-y,1/2+z
loop_
_atom_site_type_symbol
_atom_site_label
_atom_site_fract_x
_atom_site_fract_y
_atom_site_fract_z
Si Si1 0.623588 0.260574 0.669679
Si Si2 0.128721 0.202456 0.442293
O O1 0.500000 0.080696 0.750000
O O2 0.500000 0.500000 0.500000
O O3 0.257288 0.975634 0.389109
O O4 0.755570 0.411397 0.871428
O O5 0.000000 0.378729 0.250000
O O6 0.000000 0.000000 0.500000
#
# Coordination Sequence:
#
# PCOD9238073 Si02
#       2
#     4   4
#     4  11  24  43  73 113 147 190 250 312 371 441
#     4   9  21  47  74 101 145 198 244 300 369 445
#
# _framework density 32.200327999999999
#
# number of rings (size 3 to 8) (size 9 to 14) (size 15 to 20)
#    0.000    2.000    0.000    1.500    0.000   10.000 
#    0.000   32.500    0.000    0.000    0.000   14.000 
#    0.000    0.000    0.000    0.000    0.000    0.000 
#
# Total GULP energy -44707.059055 kJ/mol
# GULP energy per Si atom -5588.382382 kJ/mol
# Density = 3.212704 g / cm^3
# Si number density = 32.200328 Si / 1000 Ang^3
#
#
#
# Elastic Constant Matrix: (Units=GPa)
#
#
# Indices 1 2 3 4 5 6 
#
# 1 407.9376 120.7599 25.6386 0.0000 -45.3876 0.0000
# 2 120.7599 108.5881 105.9828 0.0000 -0.1143 0.0000
# 3 25.6386 105.9828 466.0858 0.0000 75.1151 0.0000
# 4 0.0000 0.0000 0.0000 78.1932 0.0000 9.5795
# 5 -45.3876 -0.1143 75.1151 0.0000 55.8252 0.0000
# 6 0.0000 0.0000 0.0000 9.5795 0.0000 120.2267
#
#
#
# Elastic Compliance Matrix: (Units=1/GPa)
#
#
# Indices 1 2 3 4 5 6 
#
# 1 0.004288 -0.005266 0.000513 0.000000 0.002786 0.000000
# 2 -0.005266 0.019333 -0.004370 0.000000 0.001639 0.000000
# 3 0.000513 -0.004370 0.003889 0.000000 -0.004825 0.000000
# 4 0.000000 0.000000 0.000000 0.012915 0.000000 -0.001029
# 5 0.002786 0.001639 -0.004825 0.000000 0.026673 0.000000
# 6 0.000000 0.000000 0.000000 -0.001029 0.000000 0.008400
#
#
# Mechanical properties :
#
#
# Convention : Reuss Voigt Hill
#
# Bulk Modulus (GPa) = 107.97271 165.26376 136.61824
# Shear Modulus (GPa) = 51.63604 99.53103 75.58353
#
# Velocity S-wave (km/s) = 4.00883 5.56570 4.85014
# Velocity P-wave (km/s) = 7.41835 9.63005 8.59563
#
# Compressibility (1/GPa) = 0.00926160
#
# Stress axis : x y z
#
# Youngs Moduli (GPa) = 233.21264 51.72589 257.15756
#
# Poissons Ratio (x) = 0.27239 -0.13182
# Poissons Ratio (y) = 1.22808 1.12391
# Poissons Ratio (z) = -0.11954 0.22607
#
# Static dielectric constant tensor:
#      x y z
#    x 2.484500 0.000000 0.032940 
#    y 0.000000 2.594740 0.000000 
#    z 0.032940 0.000000 2.508700 
# 
# From -- ./inp_files/8234.got.cif
#   From: 2010.05.17/outbox.cif.g08.bks.cpg/sg13_5_cif.got.tgz:8234.got - 2010.06.03 16:44:36.
