data_PCOD9238806
_publ_section_title
;
Structure prediction by ZEFSAII (Michael W. Deem and Ramdas Pophale) SiO2 
 PCOD9238806
Probable space group: P 2/C
;
_chemical_formula_sum "Si O2"
_cell_formula_units_Z 10
_cell_length_a 11.285622
_cell_length_b 8.041465
_cell_length_c 10.200959
_cell_angle_alpha 90.000000
_cell_angle_beta 28.014327
_cell_angle_gamma 90.000000
_cell_volume 434.825643
_symmetry_space_group_name_H-M "P 2/C"
_symmetry_group_IT_number 13
_symmetry_cell_setting 'monoclinic'
loop_
_space_group_symop_operation_xyz
x,y,z
-x,y,1/2-z
-x,-y,-z
x,-y,1/2+z
loop_
_atom_site_type_symbol
_atom_site_label
_atom_site_fract_x
_atom_site_fract_y
_atom_site_fract_z
Si Si1 0.500000 0.202992 0.750000
Si Si2 0.168910 0.942716 0.213883
Si Si3 0.745940 0.392738 0.730870
O O1 0.705379 0.314583 0.625187
O O2 0.622336 0.080988 0.522759
O O3 0.260395 0.760116 0.161508
O O4 0.000000 0.933326 0.250000
O O5 0.000000 0.000000 0.500000
O O6 0.000000 0.500000 0.500000
O O7 0.500000 0.500000 0.000000
#
# Coordination Sequence:
#
# PCOD9238806 Si02
#       3
#     2   4   4
#     4  12  28  52  82 114 162 214 276 320 402 488
#     4  12  27  52  82 114 159 214 274 324 396 492
#     4  12  30  49  79 120 162 208 265 340 403 467
#
# _framework density 22.997720999999999
#
# number of rings (size 3 to 8) (size 9 to 14) (size 15 to 20)
#    0.000    0.000    4.000    3.600   11.200    0.000 
#    0.000    0.000    0.000    0.000    0.000    0.000 
#    0.000    0.000    0.000    0.000    0.000    0.000 
#
# Total GULP energy -56076.079674 kJ/mol
# GULP energy per Si atom -5607.607967 kJ/mol
# Density = 2.294538 g / cm^3
# Si number density = 22.997721 Si / 1000 Ang^3
#
#
#
# Elastic Constant Matrix: (Units=GPa)
#
#
# Indices 1 2 3 4 5 6 
#
# 1 161.0887 76.9808 60.9801 0.0000 -12.1828 0.0000
# 2 76.9808 184.2864 103.4737 0.0000 -17.3805 0.0000
# 3 60.9801 103.4737 177.4826 0.0000 -1.8402 0.0000
# 4 0.0000 0.0000 0.0000 52.1567 0.0000 -17.7143
# 5 -12.1828 -17.3805 -1.8402 0.0000 53.5267 0.0000
# 6 0.0000 0.0000 0.0000 -17.7143 0.0000 69.1736
#
#
#
# Elastic Compliance Matrix: (Units=1/GPa)
#
#
# Indices 1 2 3 4 5 6 
#
# 1 0.007964 -0.002537 -0.001247 0.000000 0.000946 0.000000
# 2 -0.002537 0.009212 -0.004476 0.000000 0.002260 0.000000
# 3 -0.001247 -0.004476 0.008657 0.000000 -0.001440 0.000000
# 4 0.000000 0.000000 0.000000 0.020999 0.000000 0.005378
# 5 0.000946 0.002260 -0.001440 0.000000 0.019582 0.000000
# 6 0.000000 0.000000 0.000000 0.005378 0.000000 0.015834
#
#
# Mechanical properties :
#
#
# Convention : Reuss Voigt Hill
#
# Bulk Modulus (GPa) = 107.37338 111.74743 109.56041
# Shear Modulus (GPa) = 49.08063 53.73295 51.40679
#
# Velocity S-wave (km/s) = 4.62470 4.83892 4.73302
# Velocity P-wave (km/s) = 8.67797 8.93960 8.80976
#
# Compressibility (1/GPa) = 0.00931330
#
# Stress axis : x y z
#
# Youngs Moduli (GPa) = 125.56646 108.54988 115.50902
#
# Poissons Ratio (x) = 0.27541 0.14407
# Poissons Ratio (y) = 0.31859 0.51698
# Poissons Ratio (z) = 0.15661 0.48584
#
# Static dielectric constant tensor:
#      x y z
#    x 1.852870 0.000000 -0.022830 
#    y 0.000000 2.153050 0.000000 
#    z -0.022830 0.000000 1.940950 
# 
# From -- ./inp_files/8275.got.cif
#   From: 2010.05.17/outbox.cif.g08.bks.cpg/sg13_5_cif.got.tgz:8275.got - 2010.06.03 16:44:36.
