data_PCOD9238076
_publ_section_title
;
Structure prediction by ZEFSAII (Michael W. Deem and Ramdas Pophale) SiO2 
 PCOD9238076
Probable space group: P 2/C
;
_chemical_formula_sum "Si O2"
_cell_formula_units_Z 20
_cell_length_a 4.967098
_cell_length_b 10.986990
_cell_length_c 14.040197
_cell_angle_alpha 90.000000
_cell_angle_beta 79.252550
_cell_angle_gamma 90.000000
_cell_volume 752.781541
_symmetry_space_group_name_H-M "P 2/C"
_symmetry_group_IT_number 13
_symmetry_cell_setting 'monoclinic'
loop_
_space_group_symop_operation_xyz
x,y,z
-x,y,1/2-z
-x,-y,-z
x,-y,1/2+z
loop_
_atom_site_type_symbol
_atom_site_label
_atom_site_fract_x
_atom_site_fract_y
_atom_site_fract_z
Si Si1 0.195752 0.358958 0.027684
Si Si2 0.104326 0.587890 0.139160
Si Si3 0.784897 0.240169 0.180248
Si Si4 0.436264 0.174646 0.574265
Si Si5 0.921316 0.038240 0.644982
O O1 0.274531 0.476167 0.083551
O O2 0.897203 0.321530 0.087381
O O3 0.392983 0.241800 0.020966
O O4 0.139006 0.390242 0.921277
O O5 0.272575 0.712834 0.131250
O O6 0.000000 0.557074 0.250000
O O7 0.500000 0.264297 0.250000
O O8 0.000000 0.260377 0.250000
O O9 0.820826 0.100094 0.147160
O O10 0.669402 0.118728 0.625814
O O11 0.201138 0.073915 0.570319
O O12 0.000000 0.061149 0.750000
#
# Coordination Sequence:
#
# PCOD9238076 Si02
#       5
#     4   4   4   4   4
#     4  11  27  48  75 114 152 194 265 312 376 455
#     4  11  26  50  75 110 150 206 249 319 384 449
#     4  11  26  49  77 112 155 207 251 307 378 449
#     4  12  24  45  74 109 152 192 252 316 372 444
#     4  11  24  43  75 110 152 200 250 304 380 454
#
# _framework density 26.568134000000001
#
# number of rings (size 3 to 8) (size 9 to 14) (size 15 to 20)
#    0.000    0.800    2.000    4.800    5.600    1.600 
#    7.200    0.000    0.000    0.000    0.000    0.000 
#    0.000    0.000    0.000    0.000    0.000    0.000 
#
# Total GULP energy -112232.221077 kJ/mol
# GULP energy per Si atom -5611.611054 kJ/mol
# Density = 2.650766 g / cm^3
# Si number density = 26.568134 Si / 1000 Ang^3
#
#
#
# Elastic Constant Matrix: (Units=GPa)
#
#
# Indices 1 2 3 4 5 6 
#
# 1 144.2832 10.1862 30.0129 0.0000 -5.5322 0.0000
# 2 10.1862 110.7366 11.8421 0.0000 2.0964 0.0000
# 3 30.0129 11.8421 148.4321 0.0000 -3.8952 0.0000
# 4 0.0000 0.0000 0.0000 40.1796 0.0000 -4.8627
# 5 -5.5322 2.0964 -3.8952 0.0000 45.8422 0.0000
# 6 0.0000 0.0000 0.0000 -4.8627 0.0000 44.4077
#
#
#
# Elastic Compliance Matrix: (Units=1/GPa)
#
#
# Indices 1 2 3 4 5 6 
#
# 1 0.007292 -0.000535 -0.001411 0.000000 0.000785 0.000000
# 2 -0.000535 0.009158 -0.000637 0.000000 -0.000537 0.000000
# 3 -0.001411 -0.000637 0.007085 0.000000 0.000461 0.000000
# 4 0.000000 0.000000 0.000000 0.025222 0.000000 0.002762
# 5 0.000785 -0.000537 0.000461 0.000000 0.021972 0.000000
# 6 0.000000 0.000000 0.000000 0.002762 0.000000 0.022821
#
#
# Mechanical properties :
#
#
# Convention : Reuss Voigt Hill
#
# Bulk Modulus (GPa) = 54.43575 56.39271 55.41423
# Shear Modulus (GPa) = 47.69178 49.51328 48.60253
#
# Velocity S-wave (km/s) = 4.24143 4.32167 4.28174
# Velocity P-wave (km/s) = 6.67232 6.79516 6.73402
#
# Compressibility (1/GPa) = 0.01837028
#
# Stress axis : x y z
#
# Youngs Moduli (GPa) = 137.13278 109.19564 141.13686
#
# Poissons Ratio (x) = 0.05839 0.19918
# Poissons Ratio (y) = 0.07333 0.08985
# Poissons Ratio (z) = 0.19353 0.06952
#
# Static dielectric constant tensor:
#      x y z
#    x 2.080740 0.000000 -0.054920 
#    y 0.000000 2.107980 0.000000 
#    z -0.054920 0.000000 1.833090 
# 
# From -- ./inp_files/43583.got.cif
#   From: 2010.05.17/outbox.cif.g08.bks.cpg/sg13_22_cif.got.tgz:43583.got - 2010.06.03 16:44:36.
