data_PCOD9238809
_publ_section_title
;
Structure prediction by ZEFSAII (Michael W. Deem and Ramdas Pophale) SiO2 
 PCOD9238809
Probable space group: P 2/C
;
_chemical_formula_sum "Si O2"
_cell_formula_units_Z 16
_cell_length_a 8.108633
_cell_length_b 9.602291
_cell_length_c 17.648016
_cell_angle_alpha 90.000000
_cell_angle_beta 29.552406
_cell_angle_gamma 90.000000
_cell_volume 677.732909
_symmetry_space_group_name_H-M "P 2/C"
_symmetry_group_IT_number 13
_symmetry_cell_setting 'monoclinic'
loop_
_space_group_symop_operation_xyz
x,y,z
-x,y,1/2-z
-x,-y,-z
x,-y,1/2+z
loop_
_atom_site_type_symbol
_atom_site_label
_atom_site_fract_x
_atom_site_fract_y
_atom_site_fract_z
Si Si1 0.883604 0.144785 0.076998
Si Si2 0.351194 0.411752 0.638346
Si Si3 0.040567 0.403505 0.557715
Si Si4 0.294785 0.852930 0.568016
O O1 0.500000 0.141406 0.250000
O O2 0.907263 0.255102 0.000430
O O3 0.095189 0.164374 0.068644
O O4 0.000000 0.000000 0.000000
O O5 0.648118 0.522754 0.524391
O O6 0.442077 0.274156 0.552450
O O7 0.000000 0.472795 0.750000
O O8 0.262230 0.385097 0.762432
O O9 0.000000 0.500000 0.500000
O O10 0.000000 0.839703 0.750000
O O11 0.500000 0.000000 0.500000
#
# Coordination Sequence:
#
# PCOD9238809 Si02
#       4
#     4   4   4   4
#     4  12  29  49  84 115 161 214 280 340 412 491
#     4  12  29  50  85 120 169 218 274 343 419 494
#     4  12  27  54  80 119 162 218 278 338 413 497
#     4  12  29  53  82 121 170 218 276 343 418 499
#
# _framework density 23.60812
#
# number of rings (size 3 to 8) (size 9 to 14) (size 15 to 20)
#    0.000    0.000    2.500    5.250   14.000    1.000 
#    0.000    0.000    0.000    0.000    0.000    0.000 
#    0.000    0.000    0.000    0.000    0.000    0.000 
#
# Total GULP energy -89411.423142 kJ/mol
# GULP energy per Si atom -5588.213946 kJ/mol
# Density = 2.355439 g / cm^3
# Si number density = 23.608120 Si / 1000 Ang^3
#
#
#
# Elastic Constant Matrix: (Units=GPa)
#
#
# Indices 1 2 3 4 5 6 
#
# 1 99.3834 38.5633 38.4189 0.0000 -17.0098 0.0000
# 2 38.5633 191.1284 95.1300 0.0000 9.8958 0.0000
# 3 38.4189 95.1300 219.2274 0.0000 34.1298 0.0000
# 4 0.0000 0.0000 0.0000 46.9438 0.0000 4.2674
# 5 -17.0098 9.8958 34.1298 0.0000 49.1078 0.0000
# 6 0.0000 0.0000 0.0000 4.2674 0.0000 53.2996
#
#
#
# Elastic Compliance Matrix: (Units=1/GPa)
#
#
# Indices 1 2 3 4 5 6 
#
# 1 0.012807 -0.001657 -0.002543 0.000000 0.006537 0.000000
# 2 -0.001657 0.006912 -0.002695 0.000000 -0.000094 0.000000
# 3 -0.002543 -0.002695 0.006985 0.000000 -0.005192 0.000000
# 4 0.000000 0.000000 0.000000 0.021458 0.000000 -0.001718
# 5 0.006537 -0.000094 -0.005192 0.000000 0.026255 0.000000
# 6 0.000000 0.000000 0.000000 -0.001718 0.000000 0.018899
#
#
# Mechanical properties :
#
#
# Convention : Reuss Voigt Hill
#
# Bulk Modulus (GPa) = 77.42826 94.88486 86.15656
# Shear Modulus (GPa) = 44.87887 52.37871 48.62879
#
# Velocity S-wave (km/s) = 4.36477 4.71539 4.54346
# Velocity P-wave (km/s) = 7.63349 8.36214 8.00611
#
# Compressibility (1/GPa) = 0.01291518
#
# Stress axis : x y z
#
# Youngs Moduli (GPa) = 78.08281 144.66853 143.16854
#
# Poissons Ratio (x) = 0.23966 0.36411
# Poissons Ratio (y) = 0.12935 0.38577
# Poissons Ratio (z) = 0.19858 0.38981
#
# Static dielectric constant tensor:
#      x y z
#    x 1.954380 0.000000 0.035680 
#    y 0.000000 1.924950 0.000000 
#    z 0.035680 0.000000 1.895780 
# 
# From -- ./inp_files/63623.got.cif
#   From: 2010.05.17/outbox.cif.g08.bks.cpg/sg13_32_cif.got.tgz:63623.got - 2010.06.03 16:44:36.
