data_PCOD9238334
_publ_section_title
;
Structure prediction by ZEFSAII (Michael W. Deem and Ramdas Pophale) SiO2 
 PCOD9238334
Probable space group: P 2/C
;
_chemical_formula_sum "Si O2"
_cell_formula_units_Z 16
_cell_length_a 11.819374
_cell_length_b 9.147959
_cell_length_c 8.602864
_cell_angle_alpha 90.000000
_cell_angle_beta 136.707344
_cell_angle_gamma 90.000000
_cell_volume 637.840021
_symmetry_space_group_name_H-M "P 2/C"
_symmetry_group_IT_number 13
_symmetry_cell_setting 'monoclinic'
loop_
_space_group_symop_operation_xyz
x,y,z
-x,y,1/2-z
-x,-y,-z
x,-y,1/2+z
loop_
_atom_site_type_symbol
_atom_site_label
_atom_site_fract_x
_atom_site_fract_y
_atom_site_fract_z
Si Si1 0.186059 0.971906 0.134316
Si Si2 0.813940 0.528092 0.262199
Si Si3 0.687935 0.788210 0.956286
Si Si4 0.687934 0.288210 0.919584
O O1 0.291207 0.901340 0.379039
O O2 0.198841 0.848604 0.012643
O O3 0.257689 0.120960 0.138596
O O4 0.000000 0.000000 0.000000
O O5 0.708791 0.598659 0.296625
O O6 0.000000 0.500000 0.500000
O O7 0.801157 0.651394 0.114960
O O8 0.742310 0.379038 0.123220
O O9 0.500000 0.738971 0.750000
O O10 0.500000 0.238968 0.750000
#
# Coordination Sequence:
#
# PCOD9238334 Si02
#       4
#     4   4   4   4
#     4  11  26  46  72 108 147 195 248 308 372 444
#     4  11  26  46  72 108 147 195 248 308 372 444
#     4  11  25  48  74 106 146 194 247 308 373 445
#     4  11  25  48  74 106 146 194 247 308 373 445
#
# _framework density 25.084661000000001
#
# number of rings (size 3 to 8) (size 9 to 14) (size 15 to 20)
#    0.000    1.000    0.000    4.500    0.000   22.000 
#    0.000    0.000    0.000    0.000    0.000    0.000 
#    0.000    0.000    0.000    0.000    0.000    0.000 
#
# Total GULP energy -89817.715221 kJ/mol
# GULP energy per Si atom -5613.607201 kJ/mol
# Density = 2.502757 g / cm^3
# Si number density = 25.084661 Si / 1000 Ang^3
#
#
#
# Elastic Constant Matrix: (Units=GPa)
#
#
# Indices 1 2 3 4 5 6 
#
# 1 118.8987 65.4708 31.9747 0.0000 36.7675 0.0000
# 2 65.4708 159.9811 65.2471 0.0000 -0.7393 0.0000
# 3 31.9747 65.2471 140.4223 0.0000 34.0690 0.0000
# 4 0.0000 0.0000 0.0000 57.6363 0.0000 -17.1128
# 5 36.7675 -0.7393 34.0690 0.0000 40.1611 0.0000
# 6 0.0000 0.0000 0.0000 -17.1128 0.0000 62.8356
#
#
#
# Elastic Compliance Matrix: (Units=1/GPa)
#
#
# Indices 1 2 3 4 5 6 
#
# 1 0.020164 -0.010941 0.006321 0.000000 -0.024024 0.000000
# 2 -0.010941 0.014197 -0.008309 0.000000 0.017326 0.000000
# 3 0.006321 -0.008309 0.013831 0.000000 -0.017672 0.000000
# 4 0.000000 0.000000 0.000000 0.018877 0.000000 0.005141
# 5 -0.024024 0.017326 -0.017672 0.000000 0.062204 0.000000
# 6 0.000000 0.000000 0.000000 0.005141 0.000000 0.017315
#
#
# Mechanical properties :
#
#
# Convention : Reuss Voigt Hill
#
# Bulk Modulus (GPa) = 44.77590 82.74303 63.75947
# Shear Modulus (GPa) = 27.79477 49.23388 38.51432
#
# Velocity S-wave (km/s) = 3.33233 4.43505 3.92264
# Velocity P-wave (km/s) = 5.71792 7.69957 6.78152
#
# Compressibility (1/GPa) = 0.02233344
#
# Stress axis : x y z
#
# Youngs Moduli (GPa) = 49.59279 70.43694 72.30385
#
# Poissons Ratio (x) = 0.77065 -0.45702
# Poissons Ratio (y) = 0.54259 0.60078
# Poissons Ratio (z) = -0.31347 0.58527
#
# Static dielectric constant tensor:
#      x y z
#    x 1.978420 0.000000 -0.102300 
#    y 0.000000 1.970230 0.000000 
#    z -0.102300 0.000000 1.947340 
# 
# From -- ./inp_files/15142.got.cif
#   From: 2010.05.17/outbox.cif.g08.bks.cpg/sg13_8_cif.got.tgz:15142.got - 2010.06.03 16:44:36.
