data_PCOD9238825
_publ_section_title
;
Structure prediction by ZEFSAII (Michael W. Deem and Ramdas Pophale) SiO2 
 PCOD9238825
Probable space group: P 2/C
;
_chemical_formula_sum "Si O2"
_cell_formula_units_Z 16
_cell_length_a 8.283903
_cell_length_b 5.064779
_cell_length_c 23.152562
_cell_angle_alpha 90.000000
_cell_angle_beta 41.458342
_cell_angle_gamma 90.000000
_cell_volume 643.134736
_symmetry_space_group_name_H-M "P 2/C"
_symmetry_group_IT_number 13
_symmetry_cell_setting 'monoclinic'
loop_
_space_group_symop_operation_xyz
x,y,z
-x,y,1/2-z
-x,-y,-z
x,-y,1/2+z
loop_
_atom_site_type_symbol
_atom_site_label
_atom_site_fract_x
_atom_site_fract_y
_atom_site_fract_z
Si Si1 0.856310 0.451321 0.126841
Si Si2 0.330192 0.043697 0.891016
Si Si3 0.765308 0.933515 0.953171
Si Si4 0.858197 0.765025 0.231782
O O1 0.739862 0.185947 0.133959
O O2 0.139604 0.369328 0.063924
O O3 0.762325 0.540179 0.214490
O O4 0.788825 0.683797 0.100518
O O5 0.379425 0.077684 0.684948
O O6 0.239121 0.973284 0.979199
O O7 0.957328 0.067007 0.857788
O O8 0.500000 0.000000 0.000000
O O9 0.000000 0.666359 0.250000
#
# Coordination Sequence:
#
# PCOD9238825 Si02
#       4
#     4   4   4   4
#     4  12  29  52  81 118 156 214 267 334 396 469
#     4  12  29  53  83 118 162 208 276 331 392 483
#     4  12  28  53  83 118 166 211 268 326 411 472
#     4  12  29  52  80 120 163 216 265 333 403 476
#
# _framework density 24.878146000000001
#
# number of rings (size 3 to 8) (size 9 to 14) (size 15 to 20)
#    0.000    0.000    5.000    2.250   10.500    4.000 
#    0.000    0.000    0.000    0.000    0.000    0.000 
#    0.000    0.000    0.000    0.000    0.000    0.000 
#
# Total GULP energy -89624.794671 kJ/mol
# GULP energy per Si atom -5601.549667 kJ/mol
# Density = 2.482152 g / cm^3
# Si number density = 24.878146 Si / 1000 Ang^3
#
#
#
# Elastic Constant Matrix: (Units=GPa)
#
#
# Indices 1 2 3 4 5 6 
#
# 1 140.6722 32.8299 32.3922 0.0000 5.5848 0.0000
# 2 32.8299 103.1323 7.5017 0.0000 0.5754 0.0000
# 3 32.3922 7.5017 136.8656 0.0000 -0.9680 0.0000
# 4 0.0000 0.0000 0.0000 27.8515 0.0000 -9.6653
# 5 5.5848 0.5754 -0.9680 0.0000 72.7296 0.0000
# 6 0.0000 0.0000 0.0000 -9.6653 0.0000 31.1361
#
#
#
# Elastic Compliance Matrix: (Units=1/GPa)
#
#
# Indices 1 2 3 4 5 6 
#
# 1 0.008118 -0.002450 -0.001791 0.000000 -0.000628 0.000000
# 2 -0.002450 0.010475 0.000007 0.000000 0.000105 0.000000
# 3 -0.001791 0.000007 0.007732 0.000000 0.000240 0.000000
# 4 0.000000 0.000000 0.000000 0.040240 0.000000 0.012491
# 5 -0.000628 0.000105 0.000240 0.000000 0.013800 0.000000
# 6 0.000000 0.000000 0.000000 0.012491 0.000000 0.035995
#
#
# Mechanical properties :
#
#
# Convention : Reuss Voigt Hill
#
# Bulk Modulus (GPa) = 56.00848 58.45752 57.23300
# Shear Modulus (GPa) = 38.23169 46.87319 42.55244
#
# Velocity S-wave (km/s) = 3.92440 4.34534 4.14023
# Velocity P-wave (km/s) = 6.56480 6.98030 6.77573
#
# Compressibility (1/GPa) = 0.01785444
#
# Stress axis : x y z
#
# Youngs Moduli (GPa) = 123.18258 95.46317 129.33663
#
# Poissons Ratio (x) = 0.23392 0.23170
# Poissons Ratio (y) = 0.30185 -0.00084
# Poissons Ratio (z) = 0.22067 -0.00062
#
# Static dielectric constant tensor:
#      x y z
#    x 1.991690 0.000000 -0.069140 
#    y 0.000000 2.010650 0.000000 
#    z -0.069140 0.000000 1.966130 
# 
# From -- ./inp_files/74136.got.cif
#   From: 2010.05.17/outbox.cif.g08.bks.cpg/sg13_38_cif.got.tgz:74136.got - 2010.06.03 16:44:36.
