data_PCOD9238295
_publ_section_title
;
Structure prediction by ZEFSAII (Michael W. Deem and Ramdas Pophale) SiO2 
 PCOD9238295
Probable space group: P 2/C
;
_chemical_formula_sum "Si O2"
_cell_formula_units_Z 16
_cell_length_a 7.459294
_cell_length_b 16.621047
_cell_length_c 5.376312
_cell_angle_alpha 90.000000
_cell_angle_beta 97.841889
_cell_angle_gamma 90.000000
_cell_volume 660.328571
_symmetry_space_group_name_H-M "P 2/C"
_symmetry_group_IT_number 13
_symmetry_cell_setting 'monoclinic'
loop_
_space_group_symop_operation_xyz
x,y,z
-x,y,1/2-z
-x,-y,-z
x,-y,1/2+z
loop_
_atom_site_type_symbol
_atom_site_label
_atom_site_fract_x
_atom_site_fract_y
_atom_site_fract_z
Si Si1 0.199258 0.223855 0.913522
Si Si2 0.771792 0.448205 0.008725
Si Si3 0.500000 0.660223 0.250000
Si Si4 0.779421 0.958503 0.186920
Si Si5 0.000000 0.314897 0.250000
O O1 0.342695 0.283850 0.823892
O O2 0.264061 0.132554 0.899187
O O3 0.000000 0.226236 0.750000
O O4 0.157199 0.257137 0.180400
O O5 0.786393 0.499988 0.261394
O O6 0.922323 0.377911 0.036370
O O7 0.583919 0.399754 0.969009
O O8 0.000000 0.963680 0.250000
O O9 0.716456 0.984068 0.449749
#
# Coordination Sequence:
#
# PCOD9238295 Si02
#       5
#     4   4   2   4   2
#     4  11  25  46  72 105 147 188 239 297 357 429
#     4  12  27  48  73 104 145 190 244 304 365 434
#     4  12  26  50  74 108 142 194 242 300 366 430
#     4   9  20  38  67 102 140 187 234 284 351 425
#     4  12  26  46  74 108 144 192 244 300 366 430
#
# _framework density 24.230362
#
# number of rings (size 3 to 8) (size 9 to 14) (size 15 to 20)
#    0.000    1.000    2.500    3.000    8.750    3.000 
#    0.000    1.250    0.000    0.000    0.000    0.000 
#    0.000    0.000    0.000    0.000    0.000    0.000 
#
# Total GULP energy -89568.523532 kJ/mol
# GULP energy per Si atom -5598.032721 kJ/mol
# Density = 2.417521 g / cm^3
# Si number density = 24.230362 Si / 1000 Ang^3
#
#
#
# Elastic Constant Matrix: (Units=GPa)
#
#
# Indices 1 2 3 4 5 6 
#
# 1 76.4024 41.3021 24.9466 0.0000 -12.4357 0.0000
# 2 41.3021 198.2417 93.9833 0.0000 -9.8435 0.0000
# 3 24.9466 93.9833 136.2917 0.0000 -25.1815 0.0000
# 4 0.0000 0.0000 0.0000 216.9905 0.0000 -105.4392
# 5 -12.4357 -9.8435 -25.1815 0.0000 31.4245 0.0000
# 6 0.0000 0.0000 0.0000 -105.4392 0.0000 91.6735
#
#
#
# Elastic Compliance Matrix: (Units=1/GPa)
#
#
# Indices 1 2 3 4 5 6 
#
# 1 0.015557 -0.003115 0.000303 0.000000 0.005423 0.000000
# 2 -0.003115 0.008239 -0.005707 0.000000 -0.003225 0.000000
# 3 0.000303 -0.005707 0.012805 0.000000 0.008593 0.000000
# 4 0.000000 0.000000 0.000000 0.010447 0.000000 0.012016
# 5 0.005423 -0.003225 0.008593 0.000000 0.039844 0.000000
# 6 0.000000 0.000000 0.000000 0.012016 0.000000 0.024729
#
#
# Mechanical properties :
#
#
# Convention : Reuss Voigt Hill
#
# Bulk Modulus (GPa) = 51.12177 81.26665 66.19421
# Shear Modulus (GPa) = 36.98781 84.73129 60.85955
#
# Velocity S-wave (km/s) = 3.91129 5.91988 5.01713
# Velocity P-wave (km/s) = 6.44528 8.96318 7.80642
#
# Compressibility (1/GPa) = 0.01956114
#
# Stress axis : x y z
#
# Youngs Moduli (GPa) = 64.28175 121.37613 78.09539
#
# Poissons Ratio (x) = 0.37813 -0.02365
# Poissons Ratio (y) = 0.20026 0.44569
# Poissons Ratio (z) = -0.01946 0.69269
#
# Static dielectric constant tensor:
#      x y z
#    x 2.003860 0.000000 0.050090 
#    y 0.000000 1.872350 0.000000 
#    z 0.050090 0.000000 1.990170 
# 
# From -- ./inp_files/1157.got.cif
#   From: 2010.05.17/outbox.cif.g08.bks.cpg/sg13_1_cif.got.tgz:1157.got - 2010.06.03 16:44:36.
