data_PCOD9238837
_publ_section_title
;
Structure prediction by ZEFSAII (Michael W. Deem and Ramdas Pophale) SiO2 
 PCOD9238837
Probable space group: P 2/C
;
_chemical_formula_sum "Si O2"
_cell_formula_units_Z 32
_cell_length_a 19.814093
_cell_length_b 6.990433
_cell_length_c 23.011719
_cell_angle_alpha 90.000000
_cell_angle_beta 160.281077
_cell_angle_gamma 90.000000
_cell_volume 1075.425593
_symmetry_space_group_name_H-M "P 2/C"
_symmetry_group_IT_number 13
_symmetry_cell_setting 'monoclinic'
loop_
_space_group_symop_operation_xyz
x,y,z
-x,y,1/2-z
-x,-y,-z
x,-y,1/2+z
loop_
_atom_site_type_symbol
_atom_site_label
_atom_site_fract_x
_atom_site_fract_y
_atom_site_fract_z
Si Si1 0.265502 0.456694 0.556584
Si Si2 0.257043 0.023565 0.148162
Si Si3 0.237366 0.999172 0.507926
Si Si4 0.228759 0.961022 0.877159
Si Si5 0.747796 0.497937 0.079390
Si Si6 0.795383 0.913798 0.766056
Si Si7 0.705011 0.411965 0.797241
Si Si8 0.255994 0.481592 0.798751
O O1 0.500000 0.500465 0.750000
O O2 0.256446 0.227907 0.535951
O O3 0.178463 0.543867 0.426257
O O4 0.187873 0.499880 0.558979
O O5 0.332238 0.805371 0.214359
O O6 0.299631 0.099476 0.247130
O O7 0.311732 0.095889 0.127976
O O8 0.013127 0.010045 0.947802
O O9 0.320123 0.952824 0.510606
O O10 0.000091 0.973350 0.311136
O O11 0.221070 0.731052 0.883743
O O12 0.310851 0.993661 0.878509
O O13 0.805322 0.594342 0.187320
O O14 0.507061 0.515121 0.880568
O O15 0.826329 0.694794 0.774327
O O16 0.793586 0.392239 0.804294
O O17 0.500000 0.500000 0.000000
#
# Coordination Sequence:
#
# PCOD9238837 Si02
#       8
#     4   4   4   4   4   4   4   4
#     4   8  13  22  38  60  81 103 134 177 216 245
#     4   9  17  28  43  65  87 110 141 177 219 260
#     4   8  13  22  39  60  81 103 136 176 209 247
#     4   8  13  23  39  59  80 107 138 170 209 248
#     4   8  14  25  40  59  82 108 137 175 214 244
#     4   9  17  29  44  62  88 115 139 174 219 263
#     4   9  16  26  42  64  84 107 141 175 211 258
#     4   9  17  29  43  61  85 113 143 173 210 257
#
# _framework density 29.755663999999999
#
# number of rings (size 3 to 8) (size 9 to 14) (size 15 to 20)
#    0.000    3.500    0.000    0.000    0.000    0.500 
#    0.000    5.625    0.000    1.500    0.000   35.000 
#    0.000    0.000    0.000    0.000    0.000    0.000 
#
# Total GULP energy -178911.682798 kJ/mol
# GULP energy per Si atom -5590.990087 kJ/mol
# Density = 2.968794 g / cm^3
# Si number density = 29.755664 Si / 1000 Ang^3
#
#
#
# Elastic Constant Matrix: (Units=GPa)
#
#
# Indices 1 2 3 4 5 6 
#
# 1 318.6454 19.0468 127.1499 0.0000 -93.5792 0.0000
# 2 19.0468 96.3337 25.8670 0.0000 -2.5332 0.0000
# 3 127.1499 25.8670 193.9114 0.0000 -81.9444 0.0000
# 4 0.0000 0.0000 0.0000 6.0377 0.0000 -2.4373
# 5 -93.5792 -2.5332 -81.9444 0.0000 90.9399 0.0000
# 6 0.0000 0.0000 0.0000 -2.4373 0.0000 37.7646
#
#
#
# Elastic Compliance Matrix: (Units=1/GPa)
#
#
# Indices 1 2 3 4 5 6 
#
# 1 0.004846 -0.000425 -0.001645 0.000000 0.003492 0.000000
# 2 -0.000425 0.010951 -0.001999 0.000000 -0.001934 0.000000
# 3 -0.001645 -0.001999 0.009308 0.000000 0.006639 0.000000
# 4 0.000000 0.000000 0.000000 0.170057 0.000000 0.010975
# 5 0.003492 -0.001934 0.006639 0.000000 0.020518 0.000000
# 6 0.000000 0.000000 0.000000 0.010975 0.000000 0.027188
#
#
# Mechanical properties :
#
#
# Convention : Reuss Voigt Hill
#
# Bulk Modulus (GPa) = 58.94124 105.89087 82.41606
# Shear Modulus (GPa) = 19.48102 56.07021 37.77561
#
# Velocity S-wave (km/s) = 2.56149 4.34562 3.56691
# Velocity P-wave (km/s) = 5.34787 7.80021 6.68741
#
# Compressibility (1/GPa) = 0.01696605
#
# Stress axis : x y z
#
# Youngs Moduli (GPa) = 206.37139 91.31956 107.43744
#
# Poissons Ratio (x) = 0.03877 0.17673
# Poissons Ratio (y) = 0.08761 0.21482
# Poissons Ratio (z) = 0.33947 0.18259
#
# Static dielectric constant tensor:
#      x y z
#    x 0.270230 0.000000 -0.845460 
#    y 0.000000 2.676880 0.000000 
#    z -0.845460 0.000000 1.989120 
# 
# From -- ./inp_files/81700.got.cif
#   From: 2010.05.17/outbox.cif.g08.bks.cpg/sg13_41_cif.got.tgz:81700.got - 2010.06.03 16:44:36.
