data_PCOD9238867
_publ_section_title
;
Structure prediction by ZEFSAII (Michael W. Deem and Ramdas Pophale) SiO2 
 PCOD9238867
Probable space group: P 2/C
;
_chemical_formula_sum "Si O2"
_cell_formula_units_Z 26
_cell_length_a 15.000000
_cell_length_b 9.000000
_cell_length_c 21.000000
_cell_angle_alpha 90.000000
_cell_angle_beta 150.000000
_cell_angle_gamma 90.000000
_cell_volume 1417.500000
_symmetry_space_group_name_H-M "P 2/C"
_symmetry_group_IT_number 13
_symmetry_cell_setting 'monoclinic'
loop_
_space_group_symop_operation_xyz
x,y,z
-x,y,1/2-z
-x,-y,-z
x,-y,1/2+z
loop_
_atom_site_type_symbol
_atom_site_label
_atom_site_fract_x
_atom_site_fract_y
_atom_site_fract_z
Si Si1 0.571272 0.749331 0.725945
Si Si2 0.708458 0.675312 0.252299
Si Si3 0.937404 0.860782 0.002781
Si Si4 0.613684 0.401504 0.120866
Si Si5 0.580778 0.863766 0.509048
Si Si6 0.500000 0.729762 0.250000
Si Si7 0.690869 0.978410 0.447741
O O1 0.500000 0.687553 0.750000
O O2 0.526674 0.663630 0.632665
O O3 0.479429 0.911008 0.661169
O O4 0.781291 0.775130 0.867612
O O5 0.741474 0.524538 0.232465
O O6 0.604709 0.650282 0.256033
O O7 0.893058 0.758442 0.378881
O O8 0.577183 0.779552 0.128256
O O9 0.848437 0.927958 0.012192
O O10 0.000000 0.000000 0.000000
O O11 0.665100 0.257277 0.110230
O O12 0.500000 0.500000 0.000000
O O13 0.708098 0.926053 0.531535
O O14 0.500000 0.000000 0.500000
O O15 0.642544 0.837327 0.373712
#
# Coordination Sequence:
#
# PCOD9238867 Si02
#       7
#     4   4   4   4   4   2   4
#     4  10  20  35  63  89 114 153 205 249 304 363
#     4  10  22  34  58  91 121 157 195 257 314 368
#     4  11  19  34  59  92 125 141 195 266 315 352
#     4  10  22  39  59  85 123 164 205 244 309 375
#     4  10  19  36  63  82 113 164 218 241 287 372
#     4  10  16  34  54  90 118 146 210 242 304 366
#     4  10  17  33  60  94 110 154 204 256 295 357
#
# _framework density 18.342151999999999
#
# number of rings (size 3 to 8) (size 9 to 14) (size 15 to 20)
#    0.000    1.846    5.385    0.923    1.077    0.615 
#    0.000    0.769    0.000    3.692    0.000    0.000 
#    0.000    0.000    0.000    0.000    0.000    0.000 
#
# Total GULP energy -144830.462315 kJ/mol
# GULP energy per Si atom -5570.402397 kJ/mol
# Density = 1.830040 g / cm^3
# Si number density = 18.342152 Si / 1000 Ang^3
#
#
#
# Elastic Constant Matrix: (Units=GPa)
#
#
# Indices 1 2 3 4 5 6 
#
# 1 133.9107 42.7353 45.6873 0.0000 -30.6422 0.0000
# 2 42.7353 87.4948 33.6171 0.0000 -12.9137 0.0000
# 3 45.6873 33.6171 73.1759 0.0000 -1.3942 0.0000
# 4 0.0000 0.0000 0.0000 33.4659 0.0000 -22.1103
# 5 -30.6422 -12.9137 -1.3942 0.0000 36.6820 0.0000
# 6 0.0000 0.0000 0.0000 -22.1103 0.0000 44.4598
#
#
#
# Elastic Compliance Matrix: (Units=1/GPa)
#
#
# Indices 1 2 3 4 5 6 
#
# 1 0.012632 -0.002190 -0.006699 0.000000 0.009527 0.000000
# 2 -0.002190 0.015098 -0.005506 0.000000 0.003277 0.000000
# 3 -0.006699 -0.005506 0.020249 0.000000 -0.006765 0.000000
# 4 0.000000 0.000000 0.000000 0.044503 0.000000 0.022132
# 5 0.009527 0.003277 -0.006765 0.000000 0.036116 0.000000
# 6 0.000000 0.000000 0.000000 0.022132 0.000000 0.033499
#
#
# Mechanical properties :
#
#
# Convention : Reuss Voigt Hill
#
# Bulk Modulus (GPa) = 52.11535 59.85120 55.98327
# Shear Modulus (GPa) = 25.34412 34.42434 29.88423
#
# Velocity S-wave (km/s) = 3.72121 4.33689 4.04079
# Velocity P-wave (km/s) = 6.85112 7.60128 7.23592
#
# Compressibility (1/GPa) = 0.01918821
#
# Stress axis : x y z
#
# Youngs Moduli (GPa) = 79.16335 66.23335 49.38476
#
# Poissons Ratio (x) = 0.14504 0.33084
# Poissons Ratio (y) = 0.17336 0.27193
# Poissons Ratio (z) = 0.53034 0.36471
#
# Static dielectric constant tensor:
#      x y z
#    x 1.650390 0.000000 -0.009260 
#    y 0.000000 1.684570 0.000000 
#    z -0.009260 0.000000 1.614260 
# 
# From -- ./inp_files/79861.got.cif
#   From: 2010.05.17/outbox.ucp.g08.bks.cvg/sg13_40_cif.got.tgz:79861.got - 2010.06.11 12:23:55.
