data_PCOD9238346
_publ_section_title
;
Structure prediction by ZEFSAII (Michael W. Deem and Ramdas Pophale) SiO2 
 PCOD9238346
Probable space group: P 2/C
;
_chemical_formula_sum "Si O2"
_cell_formula_units_Z 16
_cell_length_a 10.613710
_cell_length_b 4.664551
_cell_length_c 12.704531
_cell_angle_alpha 90.000000
_cell_angle_beta 56.763670
_cell_angle_gamma 90.000000
_cell_volume 526.088156
_symmetry_space_group_name_H-M "P 2/C"
_symmetry_group_IT_number 13
_symmetry_cell_setting 'monoclinic'
loop_
_space_group_symop_operation_xyz
x,y,z
-x,y,1/2-z
-x,-y,-z
x,-y,1/2+z
loop_
_atom_site_type_symbol
_atom_site_label
_atom_site_fract_x
_atom_site_fract_y
_atom_site_fract_z
Si Si1 0.875974 0.612741 0.747841
Si Si2 0.588468 0.442958 0.609279
Si Si3 0.676016 0.124163 0.892010
Si Si4 0.083996 0.287235 0.002153
O O1 0.830641 0.286195 0.791424
O O2 0.905926 0.538585 0.599860
O O3 0.060744 0.694412 0.647647
O O4 0.000000 0.000000 0.500000
O O5 0.500000 0.550207 0.750000
O O6 0.471274 0.237013 0.601731
O O7 0.646742 0.713599 0.516201
O O8 0.734020 0.257113 0.573943
O O9 0.725277 0.807449 0.830395
#
# Coordination Sequence:
#
# PCOD9238346 Si02
#       4
#     4   4   4   4
#     4  12  24  48  74 106 149 194 254 312 373 452
#     4  11  25  49  75 111 157 197 253 316 387 463
#     4  11  27  47  76 111 148 204 250 314 387 452
#     4  12  27  46  75 109 145 198 256 315 377 450
#
# _framework density 30.413150999999999
#
# number of rings (size 3 to 8) (size 9 to 14) (size 15 to 20)
#    0.000    0.500    2.500    5.250    3.500    6.000 
#    0.000    8.750    0.000    0.000    0.000    0.000 
#    0.000    0.000    0.000    0.000    0.000    0.000 
#
# Total GULP energy -89442.115607 kJ/mol
# GULP energy per Si atom -5590.132225 kJ/mol
# Density = 3.034393 g / cm^3
# Si number density = 30.413151 Si / 1000 Ang^3
#
#
#
# Elastic Constant Matrix: (Units=GPa)
#
#
# Indices 1 2 3 4 5 6 
#
# 1 256.8533 77.7712 44.2265 0.0000 -21.4050 0.0000
# 2 77.7712 177.9726 25.1626 0.0000 -3.5785 0.0000
# 3 44.2265 25.1626 188.8285 0.0000 -32.5860 0.0000
# 4 0.0000 0.0000 0.0000 40.7177 0.0000 -18.6129
# 5 -21.4050 -3.5785 -32.5860 0.0000 59.3575 0.0000
# 6 0.0000 0.0000 0.0000 -18.6129 0.0000 70.1280
#
#
#
# Elastic Compliance Matrix: (Units=1/GPa)
#
#
# Indices 1 2 3 4 5 6 
#
# 1 0.004690 -0.001936 -0.000628 0.000000 0.001230 0.000000
# 2 -0.001936 0.006526 -0.000518 0.000000 -0.000589 0.000000
# 3 -0.000628 -0.000518 0.006040 0.000000 0.003058 0.000000
# 4 0.000000 0.000000 0.000000 0.027950 0.000000 0.007418
# 5 0.001230 -0.000589 0.003058 0.000000 0.018934 0.000000
# 6 0.000000 0.000000 0.000000 0.007418 0.000000 0.016229
#
#
# Mechanical properties :
#
#
# Convention : Reuss Voigt Hill
#
# Bulk Modulus (GPa) = 90.15732 101.99721 96.07727
# Shear Modulus (GPa) = 55.41385 65.80693 60.61039
#
# Velocity S-wave (km/s) = 4.27316 4.65668 4.46903
# Velocity P-wave (km/s) = 7.35222 7.90714 7.63472
#
# Compressibility (1/GPa) = 0.01109172
#
# Stress axis : x y z
#
# Youngs Moduli (GPa) = 213.21473 153.22864 165.57182
#
# Poissons Ratio (x) = 0.29664 0.10403
# Poissons Ratio (y) = 0.41277 0.08574
# Poissons Ratio (z) = 0.13397 0.07935
#
# Static dielectric constant tensor:
#      x y z
#    x 2.505580 0.000000 0.312100 
#    y 0.000000 2.209020 0.000000 
#    z 0.312100 0.000000 2.590590 
# 
# From -- ./inp_files/51962.got.cif
#   From: 2010.05.17/outbox.cif.g08.bks.cpg/sg13_26_cif.got.tgz:51962.got - 2010.06.03 16:44:36.
