data_PCOD9238333
_publ_section_title
;
Structure prediction by ZEFSAII (Michael W. Deem and Ramdas Pophale) SiO2 
 PCOD9238333
Probable space group: P 2/C
;
_chemical_formula_sum "Si O2"
_cell_formula_units_Z 16
_cell_length_a 5.548262
_cell_length_b 9.458541
_cell_length_c 12.485537
_cell_angle_alpha 90.000000
_cell_angle_beta 108.097972
_cell_angle_gamma 90.000000
_cell_volume 622.805832
_symmetry_space_group_name_H-M "P 2/C"
_symmetry_group_IT_number 13
_symmetry_cell_setting 'monoclinic'
loop_
_space_group_symop_operation_xyz
x,y,z
-x,y,1/2-z
-x,-y,-z
x,-y,1/2+z
loop_
_atom_site_type_symbol
_atom_site_label
_atom_site_fract_x
_atom_site_fract_y
_atom_site_fract_z
Si Si1 0.452609 0.710080 0.430367
Si Si2 0.264348 0.981677 0.099677
Si Si3 0.500000 0.239667 0.250000
Si Si4 0.000000 0.821650 0.250000
Si Si5 0.742457 0.540282 0.902123
O O1 0.577176 0.863889 0.441545
O O2 0.436697 0.629677 0.540613
O O3 0.609165 0.610217 0.372398
O O4 0.167969 0.728118 0.350999
O O5 0.182584 0.917397 0.203114
O O6 0.416265 0.124392 0.147603
O O7 0.000000 0.000000 0.000000
O O8 0.268468 0.355574 0.202406
O O9 0.000000 0.500000 0.000000
#
# Coordination Sequence:
#
# PCOD9238333 Si02
#       5
#     4   4   2   2   4
#     4  11  25  48  73 106 148 196 254 318 386 460
#     4  12  27  47  74 112 152 198 262 317 385 470
#     4  12  26  46  74 108 152 196 254 306 398 448
#     4  12  24  44  78  98 154 200 240 320 394 446
#     4  11  27  48  75 109 150 198 254 323 381 474
#
# _framework density 25.690190000000001
#
# number of rings (size 3 to 8) (size 9 to 14) (size 15 to 20)
#    0.000    0.500    2.500    4.500   10.500    2.000 
#    0.000    0.000    0.000    0.000    0.000    0.000 
#    0.000    0.000    0.000    0.000    0.000    0.000 
#
# Total GULP energy -89371.162141 kJ/mol
# GULP energy per Si atom -5585.697634 kJ/mol
# Density = 2.563172 g / cm^3
# Si number density = 25.690190 Si / 1000 Ang^3
#
#
#
# Elastic Constant Matrix: (Units=GPa)
#
#
# Indices 1 2 3 4 5 6 
#
# 1 84.9594 50.7802 33.9133 0.0000 16.0758 0.0000
# 2 50.7802 218.9831 56.7371 0.0000 28.0220 0.0000
# 3 33.9133 56.7371 118.1556 0.0000 25.2826 0.0000
# 4 0.0000 0.0000 0.0000 70.2232 0.0000 8.1187
# 5 16.0758 28.0220 25.2826 0.0000 51.0035 0.0000
# 6 0.0000 0.0000 0.0000 8.1187 0.0000 37.1087
#
#
#
# Elastic Compliance Matrix: (Units=1/GPa)
#
#
# Indices 1 2 3 4 5 6 
#
# 1 0.014659 -0.002474 -0.002597 0.000000 -0.001974 0.000000
# 2 -0.002474 0.005788 -0.001740 0.000000 -0.001538 0.000000
# 3 -0.002597 -0.001740 0.010812 0.000000 -0.003585 0.000000
# 4 0.000000 0.000000 0.000000 0.014610 0.000000 -0.003196
# 5 -0.001974 -0.001538 -0.003585 0.000000 0.022850 0.000000
# 6 0.000000 0.000000 0.000000 -0.003196 0.000000 0.027647
#
#
# Mechanical properties :
#
#
# Convention : Reuss Voigt Hill
#
# Bulk Modulus (GPa) = 56.70232 78.32881 67.51556
# Shear Modulus (GPa) = 43.15290 50.37824 46.76557
#
# Velocity S-wave (km/s) = 4.10291 4.43311 4.27120
# Velocity P-wave (km/s) = 6.67568 7.53388 7.11772
#
# Compressibility (1/GPa) = 0.01763596
#
# Stress axis : x y z
#
# Youngs Moduli (GPa) = 68.21673 172.77565 92.49379
#
# Poissons Ratio (x) = 0.42742 0.24023
# Poissons Ratio (y) = 0.16876 0.16096
# Poissons Ratio (z) = 0.17718 0.30067
#
# Static dielectric constant tensor:
#      x y z
#    x 2.018410 0.000000 -0.029090 
#    y 0.000000 1.988220 0.000000 
#    z -0.029090 0.000000 2.094980 
# 
# From -- ./inp_files/43260.got.cif
#   From: 2010.05.17/outbox.cif.g08.bks.cpg/sg13_22_cif.got.tgz:43260.got - 2010.06.03 16:44:36.
