data_PCOD9238034
_publ_section_title
;
Structure prediction by ZEFSAII (Michael W. Deem and Ramdas Pophale) SiO2 
 PCOD9238034
Probable space group: P 2/C
;
_chemical_formula_sum "Si O2"
_cell_formula_units_Z 16
_cell_length_a 11.674236
_cell_length_b 11.267577
_cell_length_c 8.529322
_cell_angle_alpha 90.000000
_cell_angle_beta 37.346524
_cell_angle_gamma 90.000000
_cell_volume 680.613170
_symmetry_space_group_name_H-M "P 2/C"
_symmetry_group_IT_number 13
_symmetry_cell_setting 'monoclinic'
loop_
_space_group_symop_operation_xyz
x,y,z
-x,y,1/2-z
-x,-y,-z
x,-y,1/2+z
loop_
_atom_site_type_symbol
_atom_site_label
_atom_site_fract_x
_atom_site_fract_y
_atom_site_fract_z
Si Si1 0.852539 0.047823 0.284322
Si Si2 0.943600 0.625763 0.631033
Si Si3 0.760388 0.782642 0.374960
Si Si4 0.377144 0.251705 0.134386
O O1 0.703602 0.135820 0.368860
O O2 0.000000 0.100500 0.250000
O O3 0.761398 0.921330 0.428166
O O4 0.000000 0.000000 0.000000
O O5 0.052375 0.726271 0.406462
O O6 0.000000 0.632907 0.750000
O O7 0.000000 0.500000 0.500000
O O8 0.718624 0.644530 0.860766
O O9 0.703699 0.725064 0.601834
O O10 0.598218 0.763513 0.421847
#
# Coordination Sequence:
#
# PCOD9238034 Si02
#       4
#     4   4   4   4
#     4  12  21  39  66  96 135 178 215 260 321 381
#     4  12  26  46  70  94 126 169 216 270 326 384
#     4  11  24  43  66  96 135 171 217 265 322 383
#     4  11  24  42  67  98 131 174 215 267 320 383
#
# _framework density 23.508215
#
# number of rings (size 3 to 8) (size 9 to 14) (size 15 to 20)
#    0.000    0.500    5.000    3.750    0.000    2.000 
#    0.000    0.000    0.000    0.000    0.000    0.000 
#    0.000    0.000    0.000    0.000    0.000    0.000 
#
# Total GULP energy -89323.361897 kJ/mol
# GULP energy per Si atom -5582.710119 kJ/mol
# Density = 2.345471 g / cm^3
# Si number density = 23.508215 Si / 1000 Ang^3
#
#
#
# Elastic Constant Matrix: (Units=GPa)
#
#
# Indices 1 2 3 4 5 6 
#
# 1 187.4643 25.9133 12.5964 0.0000 -32.7498 0.0000
# 2 25.9133 107.6490 -8.0446 0.0000 -6.4816 0.0000
# 3 12.5964 -8.0446 30.0147 0.0000 -5.8011 0.0000
# 4 0.0000 0.0000 0.0000 5.4879 0.0000 7.6945
# 5 -32.7498 -6.4816 -5.8011 0.0000 52.1857 0.0000
# 6 0.0000 0.0000 0.0000 7.6945 0.0000 23.8552
#
#
#
# Elastic Compliance Matrix: (Units=1/GPa)
#
#
# Indices 1 2 3 4 5 6 
#
# 1 0.006313 -0.001485 -0.002368 0.000000 0.003514 0.000000
# 2 -0.001485 0.009944 0.003420 0.000000 0.000683 0.000000
# 3 -0.002368 0.003420 0.035791 0.000000 0.002917 0.000000
# 4 0.000000 0.000000 0.000000 0.332661 0.000000 -0.107300
# 5 0.003514 0.000683 0.002917 0.000000 0.021777 0.000000
# 6 0.000000 0.000000 0.000000 -0.107300 0.000000 0.076529
#
#
# Mechanical properties :
#
#
# Convention : Reuss Voigt Hill
#
# Bulk Modulus (GPa) = 19.53796 42.89535 31.21666
# Shear Modulus (GPa) = 9.98122 35.94995 22.96559
#
# Velocity S-wave (km/s) = 2.06278 3.91481 3.12896
# Velocity P-wave (km/s) = 3.74200 6.22261 5.13437
#
# Compressibility (1/GPa) = 0.05118241
#
# Stress axis : x y z
#
# Youngs Moduli (GPa) = 158.41315 100.56653 27.93961
#
# Poissons Ratio (x) = 0.14934 0.06616
# Poissons Ratio (y) = 0.23524 -0.09556
# Poissons Ratio (z) = 0.37514 -0.34398
#
# Static dielectric constant tensor:
#      x y z
#    x 1.810840 0.000000 -0.266070 
#    y 0.000000 2.125790 0.000000 
#    z -0.266070 0.000000 6.042670 
# 
# From -- ./inp_files/11227.got.cif
#   From: 2010.05.17/outbox.cif.g08.bks.cpg/sg13_6_cif.got.tgz:11227.got - 2010.06.03 16:44:36.
