data_PCOD9238708
_publ_section_title
;
Structure prediction by ZEFSAII (Michael W. Deem and Ramdas Pophale) SiO2 
 PCOD9238708
Probable space group: P 2/C
;
_chemical_formula_sum "Si O2"
_cell_formula_units_Z 16
_cell_length_a 9.119691
_cell_length_b 4.630068
_cell_length_c 16.702496
_cell_angle_alpha 90.000000
_cell_angle_beta 56.531506
_cell_angle_gamma 90.000000
_cell_volume 588.319754
_symmetry_space_group_name_H-M "P 2/C"
_symmetry_group_IT_number 13
_symmetry_cell_setting 'monoclinic'
loop_
_space_group_symop_operation_xyz
x,y,z
-x,y,1/2-z
-x,-y,-z
x,-y,1/2+z
loop_
_atom_site_type_symbol
_atom_site_label
_atom_site_fract_x
_atom_site_fract_y
_atom_site_fract_z
Si Si1 0.095408 0.213120 0.535000
Si Si2 0.022501 0.246633 0.333956
Si Si3 0.517538 0.372494 0.082511
Si Si4 0.373406 0.883644 0.212925
O O1 0.015500 0.518688 0.395713
O O2 0.130489 0.980901 0.595429
O O3 0.189427 0.033414 0.287403
O O4 0.000000 0.000000 0.500000
O O5 0.722135 0.641048 0.546216
O O6 0.000000 0.350880 0.250000
O O7 0.393223 0.552831 0.180792
O O8 0.454428 0.048851 0.113044
O O9 0.500000 0.500000 0.000000
O O10 0.500000 0.928610 0.250000
#
# Coordination Sequence:
#
# PCOD9238708 Si02
#       4
#     4   4   4   4
#     4  12  26  45  73 111 151 200 255 318 386 460
#     4  12  25  47  74 108 150 202 256 313 381 461
#     4  12  25  47  73 105 145 195 250 310 376 453
#     4  12  26  45  71 106 145 191 247 311 376 450
#
# _framework density 27.196099
#
# number of rings (size 3 to 8) (size 9 to 14) (size 15 to 20)
#    0.000    0.000    0.000   10.500    0.000    4.000 
#    0.000    0.000    0.000    0.000    0.000    0.000 
#    0.000    0.000    0.000    0.000    0.000    0.000 
#
# Total GULP energy -89679.676364 kJ/mol
# GULP energy per Si atom -5604.979773 kJ/mol
# Density = 2.713420 g / cm^3
# Si number density = 27.196099 Si / 1000 Ang^3
#
#
#
# Elastic Constant Matrix: (Units=GPa)
#
#
# Indices 1 2 3 4 5 6 
#
# 1 156.7829 46.3273 45.8120 0.0000 -1.8889 0.0000
# 2 46.3273 176.5099 54.0616 0.0000 -8.4245 0.0000
# 3 45.8120 54.0616 110.6645 0.0000 -7.1772 0.0000
# 4 0.0000 0.0000 0.0000 74.9262 0.0000 2.8403
# 5 -1.8889 -8.4245 -7.1772 0.0000 42.0530 0.0000
# 6 0.0000 0.0000 0.0000 2.8403 0.0000 36.5938
#
#
#
# Elastic Compliance Matrix: (Units=1/GPa)
#
#
# Indices 1 2 3 4 5 6 
#
# 1 0.007468 -0.001202 -0.002526 0.000000 -0.000337 0.000000
# 2 -0.001202 0.006882 -0.002809 0.000000 0.000845 0.000000
# 3 -0.002526 -0.002809 0.011538 0.000000 0.001293 0.000000
# 4 0.000000 0.000000 0.000000 0.013386 0.000000 -0.001039
# 5 -0.000337 0.000845 0.001293 0.000000 0.024154 0.000000
# 6 0.000000 0.000000 0.000000 -0.001039 0.000000 0.027408
#
#
# Mechanical properties :
#
#
# Convention : Reuss Voigt Hill
#
# Bulk Modulus (GPa) = 78.04874 81.81767 79.93321
# Shear Modulus (GPa) = 46.21879 50.56503 48.39191
#
# Velocity S-wave (km/s) = 4.12693 4.31661 4.22283
# Velocity P-wave (km/s) = 7.17423 7.41578 7.29600
#
# Compressibility (1/GPa) = 0.01281251
#
# Stress axis : x y z
#
# Youngs Moduli (GPa) = 133.91326 145.31166 86.66896
#
# Poissons Ratio (x) = 0.17472 0.21891
# Poissons Ratio (y) = 0.16102 0.24348
# Poissons Ratio (z) = 0.33823 0.40822
#
# Static dielectric constant tensor:
#      x y z
#    x 2.123740 0.000000 -0.004190 
#    y 0.000000 2.014680 0.000000 
#    z -0.004190 0.000000 2.207580 
# 
# From -- ./inp_files/64836.got.cif
#   From: 2010.05.17/outbox.cif.g08.bks.cpg/sg13_33_cif.got.tgz:64836.got - 2010.06.03 16:44:36.
