data_PCOD9238514
_publ_section_title
;
Structure prediction by ZEFSAII (Michael W. Deem and Ramdas Pophale) SiO2 
 PCOD9238514
Probable space group: P 2/C
;
_chemical_formula_sum "Si O2"
_cell_formula_units_Z 22
_cell_length_a 21.861538
_cell_length_b 8.605771
_cell_length_c 8.573384
_cell_angle_alpha 90.000000
_cell_angle_beta 145.695558
_cell_angle_gamma 90.000000
_cell_volume 909.046551
_symmetry_space_group_name_H-M "P 2/C"
_symmetry_group_IT_number 13
_symmetry_cell_setting 'monoclinic'
loop_
_space_group_symop_operation_xyz
x,y,z
-x,y,1/2-z
-x,-y,-z
x,-y,1/2+z
loop_
_atom_site_type_symbol
_atom_site_label
_atom_site_fract_x
_atom_site_fract_y
_atom_site_fract_z
Si Si1 0.837476 0.068962 0.759095
Si Si2 0.113962 0.761947 0.462701
Si Si3 0.310588 0.569462 0.026133
Si Si4 0.713323 0.272034 0.697182
Si Si5 0.500000 0.283355 0.750000
Si Si6 0.608036 0.006905 0.127864
O O1 0.876747 0.165737 0.692006
O O2 0.821332 0.178528 0.876583
O O3 0.891655 0.910824 0.931548
O O4 0.716137 0.014017 0.456661
O O5 0.216455 0.655479 0.726404
O O6 0.000000 0.675254 0.250000
O O7 0.308254 0.385865 0.991772
O O8 0.284990 0.620200 0.147580
O O9 0.432286 0.620046 0.232820
O O10 0.624719 0.141467 0.552734
O O11 0.407418 0.167095 0.493987
O O12 0.500000 0.000000 0.000000
#
# Coordination Sequence:
#
# PCOD9238514 Si02
#       6
#     4   4   4   4   2   4
#     4  12  23  45  73 107 141 191 250 305 360 426
#     4  12  24  46  74 109 148 190 249 308 363 434
#     4  12  26  47  66 109 146 195 238 294 379 436
#     4  12  26  46  73 102 155 186 244 303 365 444
#     4  12  24  44  74 102 146 188 242 298 354 436
#     4  12  22  42  73 105 140 189 245 294 354 423
#
# _framework density 24.201180999999998
#
# number of rings (size 3 to 8) (size 9 to 14) (size 15 to 20)
#    0.000    0.000    7.273    2.727    0.000    2.909 
#    0.000    4.545    0.000    0.000    0.000    0.000 
#    0.000    0.000    0.000    0.000    0.000    0.000 
#
# Total GULP energy -123096.290383 kJ/mol
# GULP energy per Si atom -5595.285926 kJ/mol
# Density = 2.414610 g / cm^3
# Si number density = 24.201181 Si / 1000 Ang^3
#
#
#
# Elastic Constant Matrix: (Units=GPa)
#
#
# Indices 1 2 3 4 5 6 
#
# 1 129.1068 23.5101 43.2097 0.0000 6.6907 0.0000
# 2 23.5101 97.5717 16.1140 0.0000 3.2177 0.0000
# 3 43.2097 16.1140 71.6123 0.0000 13.0179 0.0000
# 4 0.0000 0.0000 0.0000 26.7500 0.0000 -19.8527
# 5 6.6907 3.2177 13.0179 0.0000 35.3799 0.0000
# 6 0.0000 0.0000 0.0000 -19.8527 0.0000 38.0638
#
#
#
# Elastic Compliance Matrix: (Units=1/GPa)
#
#
# Indices 1 2 3 4 5 6 
#
# 1 0.009904 -0.001455 -0.005715 0.000000 0.000362 0.000000
# 2 -0.001455 0.010858 -0.001539 0.000000 -0.000146 0.000000
# 3 -0.005715 -0.001539 0.018794 0.000000 -0.005694 0.000000
# 4 0.000000 0.000000 0.000000 0.060992 0.000000 0.031811
# 5 0.000362 -0.000146 -0.005694 0.000000 0.030305 0.000000
# 6 0.000000 0.000000 0.000000 0.031811 0.000000 0.042863
#
#
# Mechanical properties :
#
#
# Convention : Reuss Voigt Hill
#
# Bulk Modulus (GPa) = 45.16762 51.55094 48.35928
# Shear Modulus (GPa) = 25.18732 34.40256 29.79494
#
# Velocity S-wave (km/s) = 3.22956 3.77440 3.51256
# Velocity P-wave (km/s) = 5.71058 6.35154 6.03957
#
# Compressibility (1/GPa) = 0.02213976
#
# Stress axis : x y z
#
# Youngs Moduli (GPa) = 100.96738 92.09495 53.20966
#
# Poissons Ratio (x) = 0.13396 0.30407
# Poissons Ratio (y) = 0.14687 0.08189
# Poissons Ratio (z) = 0.57698 0.14174
#
# Static dielectric constant tensor:
#      x y z
#    x 1.977070 0.000000 -0.095200 
#    y 0.000000 1.943880 0.000000 
#    z -0.095200 0.000000 1.964510 
# 
# From -- ./inp_files/22892.got.cif
#   From: 2010.05.17/outbox.cif.g08.bks.cpg/sg13_12_cif.got.tgz:22892.got - 2010.06.03 16:44:36.
