data_PCOD9238499
_publ_section_title
;
Structure prediction by ZEFSAII (Michael W. Deem and Ramdas Pophale) SiO2 
 PCOD9238499
Probable space group: P 2/C
;
_chemical_formula_sum "Si O2"
_cell_formula_units_Z 28
_cell_length_a 27.419944
_cell_length_b 9.206659
_cell_length_c 28.657308
_cell_angle_alpha 90.000000
_cell_angle_beta 170.083261
_cell_angle_gamma 90.000000
_cell_volume 1245.890181
_symmetry_space_group_name_H-M "P 2/C"
_symmetry_group_IT_number 13
_symmetry_cell_setting 'monoclinic'
loop_
_space_group_symop_operation_xyz
x,y,z
-x,y,1/2-z
-x,-y,-z
x,-y,1/2+z
loop_
_atom_site_type_symbol
_atom_site_label
_atom_site_fract_x
_atom_site_fract_y
_atom_site_fract_z
Si Si1 0.757186 0.311517 0.601495
Si Si2 0.158761 0.826557 0.017881
Si Si3 0.751167 0.814061 0.194692
Si Si4 0.222948 0.007590 0.168176
Si Si5 0.382271 0.366398 0.519543
Si Si6 0.319571 0.865863 0.626477
Si Si7 0.295891 0.414195 0.773643
O O1 0.715469 0.294532 0.618089
O O2 0.727819 0.481674 0.563830
O O3 0.531461 0.209187 0.363057
O O4 0.061077 0.244851 0.875722
O O5 0.191862 0.874998 0.103435
O O6 0.422930 0.719208 0.260182
O O7 0.195981 0.977008 0.025259
O O8 0.871143 0.739631 0.736288
O O9 0.467337 0.054907 0.022642
O O10 0.000000 0.000000 0.500000
O O11 0.076492 0.862093 0.501001
O O12 0.296589 0.742239 0.300024
O O13 0.581167 0.406002 0.662359
O O14 0.500000 0.886474 0.750000
O O15 0.000000 0.500000 0.500000
O O16 0.500000 0.500000 0.000000
#
# Coordination Sequence:
#
# PCOD9238499 Si02
#       7
#     4   4   4   4   4   4   4
#     4  12  24  47  75 103 138 183 232 289 347 422
#     4  12  24  45  69 105 141 182 231 290 358 415
#     4  12  22  40  64  97 135 188 243 279 330 406
#     4  12  23  39  64  96 143 185 232 286 334 401
#     4  12  26  43  69 105 148 186 230 285 350 409
#     4  12  27  51  79 104 132 180 237 294 364 439
#     4  12  24  38  61  98 148 198 234 274 335 413
#
# _framework density 22.473890999999998
#
# number of rings (size 3 to 8) (size 9 to 14) (size 15 to 20)
#    0.000    0.000    4.286    6.857    2.000    0.000 
#    0.000    4.286    0.000    0.000    0.000    0.000 
#    0.000    0.000    0.000    0.000    0.000    0.000 
#
# Total GULP energy -156607.282728 kJ/mol
# GULP energy per Si atom -5593.117240 kJ/mol
# Density = 2.242274 g / cm^3
# Si number density = 22.473891 Si / 1000 Ang^3
#
#
#
# Elastic Constant Matrix: (Units=GPa)
#
#
# Indices 1 2 3 4 5 6 
#
# 1 80.8406 32.8440 20.3745 0.0000 19.8667 0.0000
# 2 32.8440 120.5929 34.1185 0.0000 12.8608 0.0000
# 3 20.3745 34.1185 148.5692 0.0000 11.4920 0.0000
# 4 0.0000 0.0000 0.0000 55.8890 0.0000 6.2033
# 5 19.8667 12.8608 11.4920 0.0000 27.5693 0.0000
# 6 0.0000 0.0000 0.0000 6.2033 0.0000 16.8607
#
#
#
# Elastic Compliance Matrix: (Units=1/GPa)
#
#
# Indices 1 2 3 4 5 6 
#
# 1 0.016288 -0.003166 -0.000737 0.000000 -0.009953 0.000000
# 2 -0.003166 0.009803 -0.001694 0.000000 -0.001585 0.000000
# 3 -0.000737 -0.001694 0.007356 0.000000 -0.001745 0.000000
# 4 0.000000 0.000000 0.000000 0.018654 0.000000 -0.006863
# 5 -0.009953 -0.001585 -0.001745 0.000000 0.044911 0.000000
# 6 0.000000 0.000000 0.000000 -0.006863 0.000000 0.061835
#
#
# Mechanical properties :
#
#
# Convention : Reuss Voigt Hill
#
# Bulk Modulus (GPa) = 44.93881 58.29741 51.61811
# Shear Modulus (GPa) = 28.17535 37.57483 32.87509
#
# Velocity S-wave (km/s) = 3.54459 4.09336 3.82882
# Velocity P-wave (km/s) = 6.06561 6.95250 6.52414
#
# Compressibility (1/GPa) = 0.02225248
#
# Stress axis : x y z
#
# Youngs Moduli (GPa) = 61.39452 102.00814 135.94342
#
# Poissons Ratio (x) = 0.32298 0.10015
# Poissons Ratio (y) = 0.19439 0.23035
# Poissons Ratio (z) = 0.04523 0.17285
#
# Static dielectric constant tensor:
#      x y z
#    x 1.874160 0.000000 -0.028930 
#    y 0.000000 1.933180 0.000000 
#    z -0.028930 0.000000 1.831060 
# 
# From -- ./inp_files/98119.got.cif
#   From: 2010.05.17/outbox.cif.g08.bks.cpg/sg13_50_cif.got.tgz:98119.got - 2010.06.03 16:44:36.
