data_PCOD9238596
_publ_section_title
;
Structure prediction by ZEFSAII (Michael W. Deem and Ramdas Pophale) SiO2 
 PCOD9238596
Probable space group: P 2/C
;
_chemical_formula_sum "Si O2"
_cell_formula_units_Z 20
_cell_length_a 20.634787
_cell_length_b 5.013630
_cell_length_c 8.752789
_cell_angle_alpha 90.000000
_cell_angle_beta 91.101064
_cell_angle_gamma 90.000000
_cell_volume 905.354224
_symmetry_space_group_name_H-M "P 2/C"
_symmetry_group_IT_number 13
_symmetry_cell_setting 'monoclinic'
loop_
_space_group_symop_operation_xyz
x,y,z
-x,y,1/2-z
-x,-y,-z
x,-y,1/2+z
loop_
_atom_site_type_symbol
_atom_site_label
_atom_site_fract_x
_atom_site_fract_y
_atom_site_fract_z
Si Si1 0.470474 0.748145 0.414651
Si Si2 0.117166 0.840876 0.661135
Si Si3 0.732173 0.842814 0.815763
Si Si4 0.681747 0.672418 0.139920
Si Si5 0.930102 0.637803 0.517060
O O1 0.500000 0.756352 0.250000
O O2 0.500000 0.500000 0.500000
O O3 0.393442 0.710463 0.404651
O O4 0.500000 0.000000 0.500000
O O5 0.191619 0.889752 0.707666
O O6 0.116722 0.602633 0.536737
O O7 0.083241 0.104801 0.590700
O O8 0.081236 0.733622 0.810726
O O9 0.702655 0.617015 0.702545
O O10 0.697344 0.119067 0.775176
O O11 0.720650 0.752435 0.989106
O O12 0.000000 0.500000 0.500000
#
# Coordination Sequence:
#
# PCOD9238596 Si02
#       5
#     4   4   4   4   4
#     4  12  24  42  64  94 133 176 219 270 325 386
#     4  12  25  46  69  99 132 172 215 269 328 386
#     4  12  24  43  68  97 131 170 218 273 325 386
#     4  12  24  42  66  98 130 173 221 270 325 386
#     4  12  26  45  69  98 132 171 215 264 323 394
#
# _framework density 22.090800999999999
#
# number of rings (size 3 to 8) (size 9 to 14) (size 15 to 20)
#    0.000    0.000    0.000   11.400    0.000    1.600 
#    0.000    0.000    0.000    0.000    0.000    0.000 
#    0.000    0.000    0.000    0.000    0.000    0.000 
#
# Total GULP energy -112082.216394 kJ/mol
# GULP energy per Si atom -5604.110820 kJ/mol
# Density = 2.204052 g / cm^3
# Si number density = 22.090801 Si / 1000 Ang^3
#
#
#
# Elastic Constant Matrix: (Units=GPa)
#
#
# Indices 1 2 3 4 5 6 
#
# 1 132.0210 43.4289 34.3404 0.0000 9.9136 0.0000
# 2 43.4289 167.4152 41.6626 0.0000 22.4556 0.0000
# 3 34.3404 41.6626 101.2602 0.0000 -4.1539 0.0000
# 4 0.0000 0.0000 0.0000 54.9892 0.0000 17.9175
# 5 9.9136 22.4556 -4.1539 0.0000 42.1749 0.0000
# 6 0.0000 0.0000 0.0000 17.9175 0.0000 35.7192
#
#
#
# Elastic Compliance Matrix: (Units=1/GPa)
#
#
# Indices 1 2 3 4 5 6 
#
# 1 0.008809 -0.001472 -0.002445 0.000000 -0.001528 0.000000
# 2 -0.001472 0.007579 -0.002782 0.000000 -0.003963 0.000000
# 3 -0.002445 -0.002782 0.011982 0.000000 0.003236 0.000000
# 4 0.000000 0.000000 0.000000 0.021738 0.000000 -0.010904
# 5 -0.001528 -0.003963 0.003236 0.000000 0.026499 0.000000
# 6 0.000000 0.000000 0.000000 -0.010904 0.000000 0.033466
#
#
# Mechanical properties :
#
#
# Convention : Reuss Voigt Hill
#
# Bulk Modulus (GPa) = 66.78395 71.06226 68.92311
# Shear Modulus (GPa) = 38.92237 45.32763 42.12500
#
# Velocity S-wave (km/s) = 4.20208 4.53468 4.37155
# Velocity P-wave (km/s) = 7.33761 7.72372 7.53314
#
# Compressibility (1/GPa) = 0.01497366
#
# Stress axis : x y z
#
# Youngs Moduli (GPa) = 113.51591 131.94637 83.45996
#
# Poissons Ratio (x) = 0.19422 0.20402
# Poissons Ratio (y) = 0.16709 0.23216
# Poissons Ratio (z) = 0.27750 0.36703
#
# Static dielectric constant tensor:
#      x y z
#    x 1.297310 0.000000 -0.328890 
#    y 0.000000 1.769080 0.000000 
#    z -0.328890 0.000000 1.561950 
# 
# From -- ./inp_files/20546.got.cif
#   From: 2010.05.17/outbox.cif.g08.bks.cpg/sg13_11_cif.got.tgz:20546.got - 2010.06.03 16:44:36.
