data_PCOD9238326
_publ_section_title
;
Structure prediction by ZEFSAII (Michael W. Deem and Ramdas Pophale) SiO2 
 PCOD9238326
Probable space group: P 2/C
;
_chemical_formula_sum "Si O2"
_cell_formula_units_Z 28
_cell_length_a 20.079020
_cell_length_b 6.743617
_cell_length_c 12.075124
_cell_angle_alpha 90.000000
_cell_angle_beta 127.071998
_cell_angle_gamma 90.000000
_cell_volume 1304.559362
_symmetry_space_group_name_H-M "P 2/C"
_symmetry_group_IT_number 13
_symmetry_cell_setting 'monoclinic'
loop_
_space_group_symop_operation_xyz
x,y,z
-x,y,1/2-z
-x,-y,-z
x,-y,1/2+z
loop_
_atom_site_type_symbol
_atom_site_label
_atom_site_fract_x
_atom_site_fract_y
_atom_site_fract_z
Si Si1 0.359968 0.802859 0.701654
Si Si2 0.796804 0.054215 0.004077
Si Si3 0.859968 0.302859 0.701654
Si Si4 0.949830 0.819642 0.504581
Si Si5 0.449830 0.319642 0.504581
Si Si6 0.500000 0.950200 0.250000
Si Si7 0.296804 0.445785 0.504077
Si Si8 0.000000 0.450200 0.250000
O O1 0.412795 0.805058 0.866167
O O2 0.336786 0.580510 0.641209
O O3 0.273776 0.920136 0.624064
O O4 0.418277 0.910847 0.668964
O O5 0.870860 0.104482 0.995310
O O6 0.750000 0.250000 0.000000
O O7 0.836786 0.919490 0.141209
O O8 0.773776 0.420136 0.624064
O O9 0.918277 0.410847 0.668964
O O10 0.912795 0.305058 0.866167
O O11 0.001899 0.689741 0.644132
O O12 0.000000 0.000000 0.500000
O O13 0.500000 0.500000 0.500000
O O14 0.501899 0.189741 0.644132
O O15 0.370860 0.395518 0.495310
#
# Coordination Sequence:
#
# PCOD9238326 Si02
#       8
#     4   4   4   4   4   2   4   2
#     4  11  26  43  74 100 140 188 236 292 361 421
#     4  11  25  48  68 103 144 185 238 296 351 433
#     4  11  26  43  74 100 140 188 236 292 361 421
#     4  12  26  43  75 102 142 189 238 293 366 422
#     4  12  26  43  75 102 142 189 238 293 366 422
#     4  12  24  48  68 106 148 180 242 306 352 434
#     4  11  25  48  68 103 144 185 238 296 351 433
#     4  12  24  48  68 106 148 180 242 306 352 434
#
# _framework density 21.463184999999999
#
# number of rings (size 3 to 8) (size 9 to 14) (size 15 to 20)
#    0.000    0.571    2.857    4.286    4.000    0.000 
#    0.000    0.000    0.000    0.000    0.000    0.000 
#    0.000    0.000    0.000    0.000    0.000    0.000 
#
# Total GULP energy -156706.853679 kJ/mol
# GULP energy per Si atom -5596.673346 kJ/mol
# Density = 2.141433 g / cm^3
# Si number density = 21.463185 Si / 1000 Ang^3
#
#
#
# Elastic Constant Matrix: (Units=GPa)
#
#
# Indices 1 2 3 4 5 6 
#
# 1 138.9821 66.0185 -5.9963 0.0000 5.5565 0.0000
# 2 66.0185 134.9552 43.6053 0.0000 -9.9394 0.0000
# 3 -5.9963 43.6053 104.7900 0.0000 -8.0947 0.0000
# 4 0.0000 0.0000 0.0000 27.5650 0.0000 -2.2616
# 5 5.5565 -9.9394 -8.0947 0.0000 28.2005 0.0000
# 6 0.0000 0.0000 0.0000 -2.2616 0.0000 50.6385
#
#
#
# Elastic Compliance Matrix: (Units=1/GPa)
#
#
# Indices 1 2 3 4 5 6 
#
# 1 0.010470 -0.006335 0.002969 0.000000 -0.003443 0.000000
# 2 -0.006335 0.012510 -0.005248 0.000000 0.004151 0.000000
# 3 0.002969 -0.005248 0.011974 0.000000 0.001002 0.000000
# 4 0.000000 0.000000 0.000000 0.036411 0.000000 0.001626
# 5 -0.003443 0.004151 0.001002 0.000000 0.037890 0.000000
# 6 0.000000 0.000000 0.000000 0.001626 0.000000 0.019820
#
#
# Mechanical properties :
#
#
# Convention : Reuss Voigt Hill
#
# Bulk Modulus (GPa) = 56.40910 65.10913 60.75911
# Shear Modulus (GPa) = 32.84914 39.62077 36.23495
#
# Velocity S-wave (km/s) = 3.91639 4.30116 4.11327
# Velocity P-wave (km/s) = 6.84030 7.42076 7.13643
#
# Compressibility (1/GPa) = 0.01772764
#
# Stress axis : x y z
#
# Youngs Moduli (GPa) = 95.51036 79.93579 83.51539
#
# Poissons Ratio (x) = 0.50638 -0.24797
# Poissons Ratio (y) = 0.60504 0.43825
# Poissons Ratio (z) = -0.28359 0.41946
#
# Static dielectric constant tensor:
#      x y z
#    x 1.900960 0.000000 0.014210 
#    y 0.000000 1.803590 0.000000 
#    z 0.014210 0.000000 1.777960 
# 
# From -- ./inp_files/40212.got.cif
#   From: 2010.05.17/outbox.cif.g08.bks.cpg/sg13_21_cif.got.tgz:40212.got - 2010.06.03 16:44:36.
