data_PCOD9238268
_publ_section_title
;
Structure prediction by ZEFSAII (Michael W. Deem and Ramdas Pophale) SiO2 
 PCOD9238268
Probable space group: P 2/C
;
_chemical_formula_sum "Si O2"
_cell_formula_units_Z 20
_cell_length_a 21.408831
_cell_length_b 5.913530
_cell_length_c 8.321592
_cell_angle_alpha 90.000000
_cell_angle_beta 42.861099
_cell_angle_gamma 90.000000
_cell_volume 716.634504
_symmetry_space_group_name_H-M "P 2/C"
_symmetry_group_IT_number 13
_symmetry_cell_setting 'monoclinic'
loop_
_space_group_symop_operation_xyz
x,y,z
-x,y,1/2-z
-x,-y,-z
x,-y,1/2+z
loop_
_atom_site_type_symbol
_atom_site_label
_atom_site_fract_x
_atom_site_fract_y
_atom_site_fract_z
Si Si1 0.906278 0.010012 0.075287
Si Si2 0.437660 0.657007 0.231873
Si Si3 0.908941 0.503303 0.060637
Si Si4 0.715598 0.335735 0.962608
Si Si5 0.280408 0.049686 0.861106
O O1 0.906691 0.254043 0.982265
O O2 0.819751 0.037713 0.361227
O O3 0.909031 0.759211 0.987347
O O4 0.000000 0.000000 0.000000
O O5 0.500000 0.772125 0.250000
O O6 0.368114 0.479130 0.441506
O O7 0.365824 0.821586 0.280434
O O8 0.500000 0.500000 0.000000
O O9 0.806653 0.519417 0.327394
O O10 0.000000 0.500000 0.000000
O O11 0.728939 0.149625 0.797458
O O12 0.692365 0.211536 0.172205
#
# Coordination Sequence:
#
# PCOD9238268 Si02
#       5
#     4   4   4   4   4
#     4   9  18  38  69 104 145 190 250 311 384 466
#     4  12  26  46  72 108 149 203 267 331 406 485
#     4   9  18  38  68 105 144 191 250 305 388 467
#     4  11  25  45  73 108 154 203 260 338 407 486
#     4  11  25  45  71 107 153 200 260 330 409 484
#
# _framework density 27.908228000000001
#
# number of rings (size 3 to 8) (size 9 to 14) (size 15 to 20)
#    0.000    1.600    4.000    0.000    2.800    1.600 
#    0.000    9.000    0.000   16.800    0.000    0.000 
#    0.000    0.000    0.000    0.000    0.000    0.000 
#
# Total GULP energy -111598.089754 kJ/mol
# GULP energy per Si atom -5579.904488 kJ/mol
# Density = 2.784471 g / cm^3
# Si number density = 27.908228 Si / 1000 Ang^3
#
#
#
# Elastic Constant Matrix: (Units=GPa)
#
#
# Indices 1 2 3 4 5 6 
#
# 1 171.6534 43.0113 58.4382 0.0000 -43.6274 0.0000
# 2 43.0113 234.3062 54.2392 0.0000 8.9717 0.0000
# 3 58.4382 54.2392 167.6469 0.0000 -23.2367 0.0000
# 4 0.0000 0.0000 0.0000 35.5309 0.0000 -13.7932
# 5 -43.6274 8.9717 -23.2367 0.0000 44.3063 0.0000
# 6 0.0000 0.0000 0.0000 -13.7932 0.0000 50.2343
#
#
#
# Elastic Compliance Matrix: (Units=1/GPa)
#
#
# Indices 1 2 3 4 5 6 
#
# 1 0.008806 -0.001608 -0.001405 0.000000 0.008260 0.000000
# 2 -0.001608 0.005052 -0.001548 0.000000 -0.003418 0.000000
# 3 -0.001405 -0.001548 0.007341 0.000000 0.002780 0.000000
# 4 0.000000 0.000000 0.000000 0.031502 0.000000 0.008650
# 5 0.008260 -0.003418 0.002780 0.000000 0.032854 0.000000
# 6 0.000000 0.000000 0.000000 0.008650 0.000000 0.022282
#
#
# Mechanical properties :
#
#
# Convention : Reuss Voigt Hill
#
# Bulk Modulus (GPa) = 82.79049 98.33155 90.56102
# Shear Modulus (GPa) = 41.32790 53.87546 47.60168
#
# Velocity S-wave (km/s) = 3.85236 4.39846 4.13443
# Velocity P-wave (km/s) = 7.03685 7.81701 7.43716
#
# Compressibility (1/GPa) = 0.01207868
#
# Stress axis : x y z
#
# Youngs Moduli (GPa) = 113.55780 197.93247 136.22702
#
# Poissons Ratio (x) = 0.31821 0.19135
# Poissons Ratio (y) = 0.18256 0.21087
# Poissons Ratio (z) = 0.15950 0.30638
#
# Static dielectric constant tensor:
#      x y z
#    x 2.110850 0.000000 0.008210 
#    y 0.000000 2.643840 0.000000 
#    z 0.008210 0.000000 2.229320 
# 
# From -- ./inp_files/42015.got.cif
#   From: 2010.05.17/outbox.cif.g08.bks.cpg/sg13_22_cif.got.tgz:42015.got - 2010.06.03 16:44:36.
