data_PCOD9238337
_publ_section_title
;
Structure prediction by ZEFSAII (Michael W. Deem and Ramdas Pophale) SiO2 
 PCOD9238337
Probable space group: P 2/C
;
_chemical_formula_sum "Si O2"
_cell_formula_units_Z 12
_cell_length_a 8.492865
_cell_length_b 4.955269
_cell_length_c 13.926058
_cell_angle_alpha 90.000000
_cell_angle_beta 51.819456
_cell_angle_gamma 90.000000
_cell_volume 460.690369
_symmetry_space_group_name_H-M "P 2/C"
_symmetry_group_IT_number 13
_symmetry_cell_setting 'monoclinic'
loop_
_space_group_symop_operation_xyz
x,y,z
-x,y,1/2-z
-x,-y,-z
x,-y,1/2+z
loop_
_atom_site_type_symbol
_atom_site_label
_atom_site_fract_x
_atom_site_fract_y
_atom_site_fract_z
Si Si1 0.301678 0.929543 0.663162
Si Si2 0.455560 0.458977 0.874587
Si Si3 0.933760 0.842663 0.930478
O O1 0.461356 0.693000 0.588843
O O2 0.192234 0.997548 0.604726
O O3 0.136972 0.792624 0.795225
O O4 0.412037 0.186877 0.665357
O O5 0.500000 0.558812 0.750000
O O6 0.221930 0.389632 0.979214
O O7 0.000000 0.000000 0.000000
#
# Coordination Sequence:
#
# PCOD9238337 Si02
#       3
#     4   4   4
#     4  11  27  48  71 110 144 189 242 300 358 431
#     4  12  25  47  74 104 150 190 239 296 365 427
#     4  11  25  48  76 106 145 192 242 298 361 431
#
# _framework density 26.047863
#
# number of rings (size 3 to 8) (size 9 to 14) (size 15 to 20)
#    0.000    0.667    3.333    3.000    0.000    9.333 
#    0.000    0.000    0.000    0.000    0.000    0.000 
#    0.000    0.000    0.000    0.000    0.000    0.000 
#
# Total GULP energy -67235.799779 kJ/mol
# GULP energy per Si atom -5602.983315 kJ/mol
# Density = 2.598858 g / cm^3
# Si number density = 26.047863 Si / 1000 Ang^3
#
#
#
# Elastic Constant Matrix: (Units=GPa)
#
#
# Indices 1 2 3 4 5 6 
#
# 1 188.0900 65.2408 54.7907 0.0000 -2.4580 0.0000
# 2 65.2408 79.9090 -7.7284 0.0000 -23.5419 0.0000
# 3 54.7907 -7.7284 171.7712 0.0000 -27.1032 0.0000
# 4 0.0000 0.0000 0.0000 26.3950 0.0000 -7.9345
# 5 -2.4580 -23.5419 -27.1032 0.0000 60.7266 0.0000
# 6 0.0000 0.0000 0.0000 -7.9345 0.0000 27.6370
#
#
#
# Elastic Compliance Matrix: (Units=1/GPa)
#
#
# Indices 1 2 3 4 5 6 
#
# 1 0.010230 -0.010486 -0.004638 0.000000 -0.005721 0.000000
# 2 -0.010486 0.025305 0.006416 0.000000 0.012249 0.000000
# 3 -0.004638 0.006416 0.008555 0.000000 0.006118 0.000000
# 4 0.000000 0.000000 0.000000 0.041465 0.000000 0.011904
# 5 -0.005721 0.012249 0.006118 0.000000 0.023715 0.000000
# 6 0.000000 0.000000 0.000000 0.011904 0.000000 0.039601
#
#
# Mechanical properties :
#
#
# Convention : Reuss Voigt Hill
#
# Bulk Modulus (GPa) = 37.48922 73.81961 55.65441
# Shear Modulus (GPa) = 28.54264 44.78286 36.66275
#
# Velocity S-wave (km/s) = 3.31384 4.15089 3.75576
# Velocity P-wave (km/s) = 5.39127 7.16761 6.34194
#
# Compressibility (1/GPa) = 0.02667433
#
# Stress axis : x y z
#
# Youngs Moduli (GPa) = 97.75208 39.51843 116.89147
#
# Poissons Ratio (x) = 0.41439 0.54209
# Poissons Ratio (y) = 1.02504 -0.74998
# Poissons Ratio (z) = 0.45333 -0.25355
#
# Static dielectric constant tensor:
#      x y z
#    x 2.073300 0.000000 0.049580 
#    y 0.000000 1.971820 0.000000 
#    z 0.049580 0.000000 2.194010 
# 
# From -- ./inp_files/44671.got.cif
#   From: 2010.05.17/outbox.cif.g08.bks.cpg/sg13_23_cif.got.tgz:44671.got - 2010.06.03 16:44:36.
