data_PCOD9238509
_publ_section_title
;
Structure prediction by ZEFSAII (Michael W. Deem and Ramdas Pophale) SiO2 
 PCOD9238509
Probable space group: P 2/C
;
_chemical_formula_sum "Si O2"
_cell_formula_units_Z 18
_cell_length_a 16.249104
_cell_length_b 5.384846
_cell_length_c 13.873385
_cell_angle_alpha 90.000000
_cell_angle_beta 142.608260
_cell_angle_gamma 90.000000
_cell_volume 737.158291
_symmetry_space_group_name_H-M "P 2/C"
_symmetry_group_IT_number 13
_symmetry_cell_setting 'monoclinic'
loop_
_space_group_symop_operation_xyz
x,y,z
-x,y,1/2-z
-x,-y,-z
x,-y,1/2+z
loop_
_atom_site_type_symbol
_atom_site_label
_atom_site_fract_x
_atom_site_fract_y
_atom_site_fract_z
Si Si1 0.228283 0.703678 0.374830
Si Si2 0.674523 0.625380 0.841314
Si Si3 0.619428 0.872389 0.173873
Si Si4 0.000000 0.039783 0.250000
Si Si5 0.028771 0.567053 0.918283
O O1 0.345022 0.640784 0.560769
O O2 0.277420 0.786269 0.315217
O O3 0.117578 0.484534 0.266142
O O4 0.131759 0.911587 0.328764
O O5 0.607171 0.384941 0.724902
O O6 0.650904 0.894192 0.772160
O O7 0.837004 0.583151 0.982567
O O8 0.500000 0.000000 0.000000
O O9 0.941256 0.168501 0.098479
O O10 0.000000 0.500000 0.000000
#
# Coordination Sequence:
#
# PCOD9238509 Si02
#       5
#     4   4   4   2   4
#     4  12  26  42  77 114 153 195 245 317 388 458
#     4  12  25  48  76 108 152 196 251 315 377 443
#     4  12  30  52  75 108 149 207 265 306 366 451
#     4  12  22  42  66 116 158 180 254 298 392 464
#     4  12  23  40  70 111 149 193 233 309 389 456
#
# _framework density 24.418095000000001
#
# number of rings (size 3 to 8) (size 9 to 14) (size 15 to 20)
#    0.000    0.000    6.667    3.333    0.000    2.667 
#    0.000    4.444    0.000    0.000    0.000    0.000 
#    0.000    0.000    0.000    0.000    0.000    0.000 
#
# Total GULP energy -100337.745291 kJ/mol
# GULP energy per Si atom -5574.319183 kJ/mol
# Density = 2.436252 g / cm^3
# Si number density = 24.418095 Si / 1000 Ang^3
#
#
#
# Elastic Constant Matrix: (Units=GPa)
#
#
# Indices 1 2 3 4 5 6 
#
# 1 88.7543 39.6447 15.2228 0.0000 -19.9432 0.0000
# 2 39.6447 151.8082 46.4358 0.0000 -15.9738 0.0000
# 3 15.2228 46.4358 103.6366 0.0000 -28.3511 0.0000
# 4 0.0000 0.0000 0.0000 64.4227 0.0000 -14.5264
# 5 -19.9432 -15.9738 -28.3511 0.0000 47.9079 0.0000
# 6 0.0000 0.0000 0.0000 -14.5264 0.0000 51.7721
#
#
#
# Elastic Compliance Matrix: (Units=1/GPa)
#
#
# Indices 1 2 3 4 5 6 
#
# 1 0.013753 -0.003318 0.000871 0.000000 0.005135 0.000000
# 2 -0.003318 0.008449 -0.003467 0.000000 -0.000616 0.000000
# 3 0.000871 -0.003467 0.012955 0.000000 0.006873 0.000000
# 4 0.000000 0.000000 0.000000 0.016571 0.000000 0.004650
# 5 0.005135 -0.000616 0.006873 0.000000 0.026873 0.000000
# 6 0.000000 0.000000 0.000000 0.004650 0.000000 0.020620
#
#
# Mechanical properties :
#
#
# Convention : Reuss Voigt Hill
#
# Bulk Modulus (GPa) = 42.86306 60.75618 51.80962
# Shear Modulus (GPa) = 42.07845 49.01358 45.54601
#
# Velocity S-wave (km/s) = 4.15571 4.48511 4.32355
# Velocity P-wave (km/s) = 6.37326 7.19425 6.79616
#
# Compressibility (1/GPa) = 0.02333011
#
# Stress axis : x y z
#
# Youngs Moduli (GPa) = 72.70916 118.35112 77.19159
#
# Poissons Ratio (x) = 0.39267 -0.06724
# Poissons Ratio (y) = 0.24124 0.26762
# Poissons Ratio (z) = -0.06333 0.41032
#
# Static dielectric constant tensor:
#      x y z
#    x 1.926570 0.000000 -0.071100 
#    y 0.000000 2.025530 0.000000 
#    z -0.071100 0.000000 2.143420 
# 
# From -- ./inp_files/48703.got.cif
#   From: 2010.05.17/outbox.cif.g08.bks.cpg/sg13_25_cif.got.tgz:48703.got - 2010.06.03 16:44:36.
