data_PCOD9238294
_publ_section_title
;
Structure prediction by ZEFSAII (Michael W. Deem and Ramdas Pophale) SiO2 
 PCOD9238294
Probable space group: P 2/C
;
_chemical_formula_sum "Si O2"
_cell_formula_units_Z 20
_cell_length_a 10.541688
_cell_length_b 4.908447
_cell_length_c 12.860544
_cell_angle_alpha 90.000000
_cell_angle_beta 89.485310
_cell_angle_gamma 90.000000
_cell_volume 665.420354
_symmetry_space_group_name_H-M "P 2/C"
_symmetry_group_IT_number 13
_symmetry_cell_setting 'monoclinic'
loop_
_space_group_symop_operation_xyz
x,y,z
-x,y,1/2-z
-x,-y,-z
x,-y,1/2+z
loop_
_atom_site_type_symbol
_atom_site_label
_atom_site_fract_x
_atom_site_fract_y
_atom_site_fract_z
Si Si1 0.619412 0.670451 0.031840
Si Si2 0.000000 0.000000 0.500000
Si Si3 0.431822 0.032685 0.156349
Si Si4 0.179328 0.784013 0.180036
Si Si5 0.000000 0.746160 0.750000
Si Si6 0.865674 0.509375 0.111688
O O1 0.720103 0.482191 0.088060
O O2 0.555193 0.905645 0.100055
O O3 0.500000 0.500000 0.000000
O O4 0.656340 0.795148 0.920254
O O5 0.879991 0.799329 0.433334
O O6 0.895695 0.209895 0.556154
O O7 0.500000 0.185751 0.250000
O O8 0.330636 0.797025 0.187340
O O9 0.121052 0.044013 0.236281
O O10 0.119642 0.544879 0.257699
O O11 0.974799 0.719110 0.613392
#
# Coordination Sequence:
#
# PCOD9238294 Si02
#       6
#     4   2   4   4   2   4
#     4  11  27  45  71 106 135 183 239 286 341 417
#     4  12  22  48  70  98 142 184 224 280 366 400
#     4  11  25  46  71  97 142 189 223 290 351 405
#     4  12  25  46  69 102 142 183 225 289 350 417
#     4  12  26  42  72 106 142 178 234 288 342 424
#     4  12  25  47  68 106 142 177 237 290 343 417
#
# _framework density 30.056187999999999
#
# number of rings (size 3 to 8) (size 9 to 14) (size 15 to 20)
#    0.000    0.400    8.000    0.000    2.800    4.800 
#    0.000    0.000    0.000    0.000    0.000    0.000 
#    0.000    0.000    0.000    0.000    0.000    0.000 
#
# Total GULP energy -111526.428051 kJ/mol
# GULP energy per Si atom -5576.321403 kJ/mol
# Density = 2.998778 g / cm^3
# Si number density = 30.056188 Si / 1000 Ang^3
#
#
#
# Elastic Constant Matrix: (Units=GPa)
#
#
# Indices 1 2 3 4 5 6 
#
# 1 165.1884 15.2396 68.9117 0.0000 41.0013 0.0000
# 2 15.2396 120.3865 -11.3251 0.0000 -2.8898 0.0000
# 3 68.9117 -11.3251 164.3185 0.0000 36.0110 0.0000
# 4 0.0000 0.0000 0.0000 28.1154 0.0000 4.8283
# 5 41.0013 -2.8898 36.0110 0.0000 78.2814 0.0000
# 6 0.0000 0.0000 0.0000 4.8283 0.0000 48.1831
#
#
#
# Elastic Compliance Matrix: (Units=1/GPa)
#
#
# Indices 1 2 3 4 5 6 
#
# 1 0.008106 -0.001365 -0.002838 0.000000 -0.002990 0.000000
# 2 -0.001365 0.008591 0.001044 0.000000 0.000552 0.000000
# 3 -0.002838 0.001044 0.007800 0.000000 -0.002063 0.000000
# 4 0.000000 0.000000 0.000000 0.036190 0.000000 -0.003627
# 5 -0.002990 0.000552 -0.002063 0.000000 0.015310 0.000000
# 6 0.000000 0.000000 0.000000 -0.003627 0.000000 0.021118
#
#
# Mechanical properties :
#
#
# Convention : Reuss Voigt Hill
#
# Bulk Modulus (GPa) = 55.01251 66.17177 60.59214
# Shear Modulus (GPa) = 45.66501 56.05381 50.85941
#
# Velocity S-wave (km/s) = 3.90208 4.32321 4.11803
# Velocity P-wave (km/s) = 6.21647 6.85449 6.54326
#
# Compressibility (1/GPa) = 0.01817768
#
# Stress axis : x y z
#
# Youngs Moduli (GPa) = 123.36794 116.40393 128.20414
#
# Poissons Ratio (x) = 0.15888 0.36386
# Poissons Ratio (y) = 0.16838 -0.13378
# Poissons Ratio (z) = 0.35014 -0.12147
#
# Static dielectric constant tensor:
#      x y z
#    x 2.538920 0.000000 -0.303170 
#    y 0.000000 2.337910 0.000000 
#    z -0.303170 0.000000 1.450040 
# 
# From -- ./inp_files/48734.got.cif
#   From: 2010.05.17/outbox.cif.g08.bks.cpg/sg13_25_cif.got.tgz:48734.got - 2010.06.03 16:44:36.
