data_PCOD9238676
_publ_section_title
;
Structure prediction by ZEFSAII (Michael W. Deem and Ramdas Pophale) SiO2 
 PCOD9238676
Probable space group: P 2/C
;
_chemical_formula_sum "Si O2"
_cell_formula_units_Z 14
_cell_length_a 7.741427
_cell_length_b 5.016369
_cell_length_c 21.628085
_cell_angle_alpha 90.000000
_cell_angle_beta 139.660837
_cell_angle_gamma 90.000000
_cell_volume 543.677683
_symmetry_space_group_name_H-M "P 2/C"
_symmetry_group_IT_number 13
_symmetry_cell_setting 'monoclinic'
loop_
_space_group_symop_operation_xyz
x,y,z
-x,y,1/2-z
-x,-y,-z
x,-y,1/2+z
loop_
_atom_site_type_symbol
_atom_site_label
_atom_site_fract_x
_atom_site_fract_y
_atom_site_fract_z
Si Si1 0.724756 0.960306 0.507155
Si Si2 0.263741 0.064663 0.223712
Si Si3 0.484925 0.544727 0.612933
Si Si4 0.000000 0.670537 0.250000
O O1 0.643322 0.740985 0.434149
O O2 0.009236 0.880794 0.611847
O O3 0.500000 0.000000 0.500000
O O4 0.714712 0.244037 0.470982
O O5 0.500000 0.929960 0.250000
O O6 0.403303 0.321044 0.293880
O O7 0.148313 0.863925 0.243285
O O8 0.772878 0.509536 0.656440
#
# Coordination Sequence:
#
# PCOD9238676 Si02
#       4
#     4   4   4   2
#     4  12  25  47  81 113 153 213 258 318 400 461
#     4  12  29  51  81 118 160 207 263 332 394 459
#     4  12  26  48  77 112 156 204 265 316 384 482
#     4  12  24  52  76 114 162 204 258 336 380 478
#
# _framework density 25.750551999999999
#
# number of rings (size 3 to 8) (size 9 to 14) (size 15 to 20)
#    0.000    0.000    5.714    3.429    4.000    3.429 
#    0.000    0.000    0.000    0.000    0.000    0.000 
#    0.000    0.000    0.000    0.000    0.000    0.000 
#
# Total GULP energy -78343.585857 kJ/mol
# GULP energy per Si atom -5595.970418 kJ/mol
# Density = 2.569194 g / cm^3
# Si number density = 25.750552 Si / 1000 Ang^3
#
#
#
# Elastic Constant Matrix: (Units=GPa)
#
#
# Indices 1 2 3 4 5 6 
#
# 1 128.8839 27.3899 40.1011 0.0000 19.2278 0.0000
# 2 27.3899 119.4999 8.3632 0.0000 -13.5731 0.0000
# 3 40.1011 8.3632 181.2921 0.0000 -4.2541 0.0000
# 4 0.0000 0.0000 0.0000 18.0369 0.0000 2.9802
# 5 19.2278 -13.5731 -4.2541 0.0000 28.8159 0.0000
# 6 0.0000 0.0000 0.0000 2.9802 0.0000 9.9308
#
#
#
# Elastic Compliance Matrix: (Units=1/GPa)
#
#
# Indices 1 2 3 4 5 6 
#
# 1 0.010522 -0.003256 -0.002386 0.000000 -0.008907 0.000000
# 2 -0.003256 0.009867 0.000427 0.000000 0.006883 0.000000
# 3 -0.002386 0.000427 0.006087 0.000000 0.002692 0.000000
# 4 0.000000 0.000000 0.000000 0.058334 0.000000 -0.017506
# 5 -0.008907 0.006883 0.002692 0.000000 0.044286 0.000000
# 6 0.000000 0.000000 0.000000 -0.017506 0.000000 0.105951
#
#
# Mechanical properties :
#
#
# Convention : Reuss Voigt Hill
#
# Bulk Modulus (GPa) = 62.32853 64.59825 63.46339
# Shear Modulus (GPa) = 19.93400 34.94482 27.43941
#
# Velocity S-wave (km/s) = 2.78532 3.68781 3.26787
# Velocity P-wave (km/s) = 5.88229 6.57829 6.24000
#
# Compressibility (1/GPa) = 0.01604402
#
# Stress axis : x y z
#
# Youngs Moduli (GPa) = 95.03624 101.35230 164.27703
#
# Poissons Ratio (x) = 0.33005 0.39201
# Poissons Ratio (y) = 0.30948 -0.07009
# Poissons Ratio (z) = 0.22678 -0.04325
#
# Static dielectric constant tensor:
#      x y z
#    x 2.113100 0.000000 -0.018680 
#    y 0.000000 2.029400 0.000000 
#    z -0.018680 0.000000 2.118100 
# 
# From -- ./inp_files/54209.got.cif
#   From: 2010.05.17/outbox.cif.g08.bks.cpg/sg13_28_cif.got.tgz:54209.got - 2010.06.03 16:44:36.
