data_PCOD9238249
_publ_section_title
;
Structure prediction by ZEFSAII (Michael W. Deem and Ramdas Pophale) SiO2 
 PCOD9238249
Probable space group: P 2/C
;
_chemical_formula_sum "Si O2"
_cell_formula_units_Z 18
_cell_length_a 10.429190
_cell_length_b 5.948305
_cell_length_c 21.389375
_cell_angle_alpha 90.000000
_cell_angle_beta 145.778396
_cell_angle_gamma 90.000000
_cell_volume 746.248561
_symmetry_space_group_name_H-M "P 2/C"
_symmetry_group_IT_number 13
_symmetry_cell_setting 'monoclinic'
loop_
_space_group_symop_operation_xyz
x,y,z
-x,y,1/2-z
-x,-y,-z
x,-y,1/2+z
loop_
_atom_site_type_symbol
_atom_site_label
_atom_site_fract_x
_atom_site_fract_y
_atom_site_fract_z
Si Si1 0.237730 0.734779 0.143370
Si Si2 0.415492 0.086966 0.397647
Si Si3 0.108801 0.424674 0.204487
Si Si4 0.000000 0.223691 0.750000
Si Si5 0.139737 0.104311 0.476693
O O1 0.500000 0.808058 0.250000
O O2 0.212346 0.533018 0.182974
O O3 0.175947 0.707987 0.045235
O O4 0.066711 0.935496 0.092413
O O5 0.204926 0.918544 0.305690
O O6 0.627597 0.031836 0.438418
O O7 0.500000 0.000000 0.500000
O O8 0.302973 0.324700 0.329648
O O9 0.950715 0.610953 0.172971
O O10 0.936216 0.229013 0.116274
#
# Coordination Sequence:
#
# PCOD9238249 Si02
#       5
#     4   4   4   2   4
#     4  11  25  44  70 103 140 183 232 288 351 421
#     4  12  26  46  70 101 142 184 232 295 357 421
#     4  12  25  44  70 100 136 183 237 288 353 428
#     4  12  26  44  68 100 134 178 232 290 352 418
#     4  11  25  46  70 103 143 183 230 291 353 417
#
# _framework density 24.120650999999999
#
# number of rings (size 3 to 8) (size 9 to 14) (size 15 to 20)
#    0.000    0.444    0.000    9.333    0.000   13.333 
#    0.000    0.000    0.000    0.000    0.000    0.000 
#    0.000    0.000    0.000    0.000    0.000    0.000 
#
# Total GULP energy -100518.420775 kJ/mol
# GULP energy per Si atom -5584.356710 kJ/mol
# Density = 2.406575 g / cm^3
# Si number density = 24.120651 Si / 1000 Ang^3
#
#
#
# Elastic Constant Matrix: (Units=GPa)
#
#
# Indices 1 2 3 4 5 6 
#
# 1 97.3075 31.9297 52.6920 0.0000 23.0873 0.0000
# 2 31.9297 73.3017 50.7089 0.0000 7.6165 0.0000
# 3 52.6920 50.7089 127.0996 0.0000 1.7051 0.0000
# 4 0.0000 0.0000 0.0000 45.9430 0.0000 -5.8454
# 5 23.0873 7.6165 1.7051 0.0000 65.9157 0.0000
# 6 0.0000 0.0000 0.0000 -5.8454 0.0000 54.4720
#
#
#
# Elastic Compliance Matrix: (Units=1/GPa)
#
#
# Indices 1 2 3 4 5 6 
#
# 1 0.015046 -0.002458 -0.005192 0.000000 -0.004851 0.000000
# 2 -0.002458 0.019507 -0.006747 0.000000 -0.001219 0.000000
# 3 -0.005192 -0.006747 0.012682 0.000000 0.002270 0.000000
# 4 0.000000 0.000000 0.000000 0.022067 0.000000 0.002368
# 5 -0.004851 -0.001219 0.002270 0.000000 0.016952 0.000000
# 6 0.000000 0.000000 0.000000 0.002368 0.000000 0.018612
#
#
# Mechanical properties :
#
#
# Convention : Reuss Voigt Hill
#
# Bulk Modulus (GPa) = 54.22926 63.15223 58.69074
# Shear Modulus (GPa) = 35.76335 44.09136 39.92735
#
# Velocity S-wave (km/s) = 3.85474 4.28009 4.07297
# Velocity P-wave (km/s) = 6.50718 7.11788 6.81937
#
# Compressibility (1/GPa) = 0.01844023
#
# Stress axis : x y z
#
# Youngs Moduli (GPa) = 66.46422 51.26268 78.85350
#
# Poissons Ratio (x) = 0.12601 0.40938
# Poissons Ratio (y) = 0.16338 0.53206
# Poissons Ratio (z) = 0.34506 0.34589
#
# Static dielectric constant tensor:
#      x y z
#    x 2.015260 0.000000 -0.067340 
#    y 0.000000 1.936940 0.000000 
#    z -0.067340 0.000000 1.967030 
# 
# From -- ./inp_files/31429.got.cif
#   From: 2010.05.17/outbox.cif.g08.bks.cpg/sg13_16_cif.got.tgz:31429.got - 2010.06.03 16:44:36.
