data_PCOD9238299
_publ_section_title
;
Structure prediction by ZEFSAII (Michael W. Deem and Ramdas Pophale) SiO2 
 PCOD9238299
Probable space group: P 2/C
;
_chemical_formula_sum "Si O2"
_cell_formula_units_Z 22
_cell_length_a 4.953488
_cell_length_b 5.488408
_cell_length_c 30.375261
_cell_angle_alpha 90.000000
_cell_angle_beta 102.030753
_cell_angle_gamma 90.000000
_cell_volume 807.666934
_symmetry_space_group_name_H-M "P 2/C"
_symmetry_group_IT_number 13
_symmetry_cell_setting 'monoclinic'
loop_
_space_group_symop_operation_xyz
x,y,z
-x,y,1/2-z
-x,-y,-z
x,-y,1/2+z
loop_
_atom_site_type_symbol
_atom_site_label
_atom_site_fract_x
_atom_site_fract_y
_atom_site_fract_z
Si Si1 0.000000 0.760063 0.750000
Si Si2 0.224979 0.760713 0.938288
Si Si3 0.910595 0.273968 0.942391
Si Si4 0.500000 0.500000 0.500000
Si Si5 0.448742 0.204613 0.651049
Si Si6 0.055114 0.068559 0.346924
Si Si7 0.500000 0.578623 0.250000
O O1 0.086822 0.902430 0.796028
O O2 0.238089 0.589375 0.741900
O O3 0.186865 0.740233 0.884545
O O4 0.149696 0.484295 0.955557
O O5 0.537005 0.733067 0.964608
O O6 0.057463 0.007073 0.944139
O O7 0.745563 0.332104 0.891443
O O8 0.687266 0.306621 0.972875
O O9 0.482468 0.293418 0.702078
O O10 0.744746 0.163191 0.639328
O O11 0.264581 0.960036 0.652247
#
# Coordination Sequence:
#
# PCOD9238299 Si02
#       7
#     2   4   4   2   4   4   2
#     4  12  24  40  72 110 152 200 260 312 392 468
#     4  11  28  49  75 114 154 204 266 327 396 475
#     4  11  28  49  75 114 154 204 266 327 396 475
#     4  12  28  46  88 100 166 200 272 324 412 456
#     4  11  25  46  73 106 154 202 259 320 391 467
#     4  11  25  46  73 106 154 202 259 320 391 467
#     4  12  24  40  72 110 152 200 260 312 392 468
#
# _framework density 27.238952000000001
#
# number of rings (size 3 to 8) (size 9 to 14) (size 15 to 20)
#    0.000    0.727    0.000    5.455   12.727    1.455 
#    0.000    0.000    0.000    0.000    0.000    0.000 
#    0.000    0.000    0.000    0.000    0.000    0.000 
#
# Total GULP energy -122637.777771 kJ/mol
# GULP energy per Si atom -5574.444444 kJ/mol
# Density = 2.717696 g / cm^3
# Si number density = 27.238952 Si / 1000 Ang^3
#
#
#
# Elastic Constant Matrix: (Units=GPa)
#
#
# Indices 1 2 3 4 5 6 
#
# 1 133.4977 60.6625 12.9780 0.0000 -4.8774 0.0000
# 2 60.6625 130.1630 57.7652 0.0000 9.5375 0.0000
# 3 12.9780 57.7652 179.5102 0.0000 25.1700 0.0000
# 4 0.0000 0.0000 0.0000 54.9371 0.0000 8.6667
# 5 -4.8774 9.5375 25.1700 0.0000 40.1493 0.0000
# 6 0.0000 0.0000 0.0000 8.6667 0.0000 51.5061
#
#
#
# Elastic Compliance Matrix: (Units=1/GPa)
#
#
# Indices 1 2 3 4 5 6 
#
# 1 0.009760 -0.004967 0.000615 0.000000 0.001980 0.000000
# 2 -0.004967 0.011495 -0.003149 0.000000 -0.001360 0.000000
# 3 0.000615 -0.003149 0.007043 0.000000 -0.003593 0.000000
# 4 0.000000 0.000000 0.000000 0.018699 0.000000 -0.003146
# 5 0.001980 -0.001360 -0.003593 0.000000 0.027723 0.000000
# 6 0.000000 0.000000 0.000000 -0.003146 0.000000 0.019945
#
#
# Mechanical properties :
#
#
# Convention : Reuss Voigt Hill
#
# Bulk Modulus (GPa) = 75.20821 78.44251 76.82536
# Shear Modulus (GPa) = 43.82162 50.10284 46.96223
#
# Velocity S-wave (km/s) = 4.01532 4.29345 4.15671
# Velocity P-wave (km/s) = 7.01196 7.31018 7.16262
#
# Compressibility (1/GPa) = 0.01329642
#
# Stress axis : x y z
#
# Youngs Moduli (GPa) = 102.45607 86.99689 141.97703
#
# Poissons Ratio (x) = 0.43210 -0.08732
# Poissons Ratio (y) = 0.50888 0.44711
# Poissons Ratio (z) = -0.06301 0.27397
#
# Static dielectric constant tensor:
#      x y z
#    x 2.325590 0.000000 0.232610 
#    y 0.000000 2.203370 0.000000 
#    z 0.232610 0.000000 2.601220 
# 
# From -- ./inp_files/94500.got.cif
#   From: 2010.05.17/outbox.cif.g08.bks.cpg/sg13_48_cif.got.tgz:94500.got - 2010.06.03 16:44:36.
