data_PCOD9238496
_publ_section_title
;
Structure prediction by ZEFSAII (Michael W. Deem and Ramdas Pophale) SiO2 
 PCOD9238496
Probable space group: P 2/C
;
_chemical_formula_sum "Si O2"
_cell_formula_units_Z 20
_cell_length_a 21.515881
_cell_length_b 5.145482
_cell_length_c 9.754541
_cell_angle_alpha 90.000000
_cell_angle_beta 44.297793
_cell_angle_gamma 90.000000
_cell_volume 754.203646
_symmetry_space_group_name_H-M "P 2/C"
_symmetry_group_IT_number 13
_symmetry_cell_setting 'monoclinic'
loop_
_space_group_symop_operation_xyz
x,y,z
-x,y,1/2-z
-x,-y,-z
x,-y,1/2+z
loop_
_atom_site_type_symbol
_atom_site_label
_atom_site_fract_x
_atom_site_fract_y
_atom_site_fract_z
Si Si1 0.583042 0.458262 0.022849
Si Si2 0.809131 0.164302 0.598010
Si Si3 0.368980 0.041087 0.195287
Si Si4 0.264839 0.319228 0.044318
Si Si5 0.102344 0.012114 0.801907
O O1 0.500000 0.519160 0.250000
O O2 0.593455 0.674860 0.887987
O O3 0.572573 0.175687 0.973064
O O4 0.673623 0.483328 0.970986
O O5 0.724054 0.976367 0.740224
O O6 0.768835 0.388074 0.559892
O O7 0.853559 0.234207 0.671757
O O8 0.879962 0.011704 0.388048
O O9 0.334854 0.917434 0.392095
O O10 0.169138 0.216357 0.246771
O O11 0.000000 0.000000 0.000000
#
# Coordination Sequence:
#
# PCOD9238496 Si02
#       5
#     4   4   4   4   4
#     4  12  22  39  62  90 126 168 218 265 318 380
#     4   8  17  35  54  93 126 169 198 265 307 384
#     4   9  22  39  57  90 125 163 212 256 326 372
#     4   8  20  36  57  89 124 171 199 272 310 380
#     4   9  15  30  61  95 124 166 209 258 315 382
#
# _framework density 26.518037
#
# number of rings (size 3 to 8) (size 9 to 14) (size 15 to 20)
#    2.400    0.000    2.000    1.200    0.000    3.200 
#    0.000    0.000    0.000    1.200   20.800    0.000 
#    0.000    0.000    0.000    0.000    0.000    0.000 
#
# Total GULP energy -111342.400846 kJ/mol
# GULP energy per Si atom -5567.120042 kJ/mol
# Density = 2.645768 g / cm^3
# Si number density = 26.518037 Si / 1000 Ang^3
#
#
#
# Elastic Constant Matrix: (Units=GPa)
#
#
# Indices 1 2 3 4 5 6 
#
# 1 104.5755 11.3422 18.3546 0.0000 -10.2010 0.0000
# 2 11.3422 107.5211 15.9441 0.0000 14.0923 0.0000
# 3 18.3546 15.9441 168.5885 0.0000 -3.6721 0.0000
# 4 0.0000 0.0000 0.0000 8.4831 0.0000 4.7419
# 5 -10.2010 14.0923 -3.6721 0.0000 52.5891 0.0000
# 6 0.0000 0.0000 0.0000 4.7419 0.0000 21.0860
#
#
#
# Elastic Compliance Matrix: (Units=1/GPa)
#
#
# Indices 1 2 3 4 5 6 
#
# 1 0.010074 -0.001214 -0.000934 0.000000 0.002214 0.000000
# 2 -0.001214 0.009946 -0.000873 0.000000 -0.002962 0.000000
# 3 -0.000934 -0.000873 0.006126 0.000000 0.000481 0.000000
# 4 0.000000 0.000000 0.000000 0.134831 0.000000 -0.030321
# 5 0.002214 -0.002962 0.000481 0.000000 0.020272 0.000000
# 6 0.000000 0.000000 0.000000 -0.030321 0.000000 0.054243
#
#
# Mechanical properties :
#
#
# Convention : Reuss Voigt Hill
#
# Bulk Modulus (GPa) = 49.74037 52.44074 51.09056
# Shear Modulus (GPa) = 20.14204 38.76791 29.45497
#
# Velocity S-wave (km/s) = 2.75900 3.82769 3.33641
# Velocity P-wave (km/s) = 5.38027 6.27322 5.84383
#
# Compressibility (1/GPa) = 0.02010439
#
# Stress axis : x y z
#
# Youngs Moduli (GPa) = 99.26471 100.54035 163.23111
#
# Poissons Ratio (x) = 0.12210 0.15241
# Poissons Ratio (y) = 0.12055 0.14249
# Poissons Ratio (z) = 0.09268 0.08777
#
# Static dielectric constant tensor:
#      x y z
#    x 2.239470 0.000000 0.151730 
#    y 0.000000 2.281100 0.000000 
#    z 0.151730 0.000000 2.153060 
# 
# From -- ./inp_files/40239.got.cif
#   From: 2010.05.17/outbox.cif.g08.bks.cpg/sg13_21_cif.got.tgz:40239.got - 2010.06.03 16:44:36.
