data_PCOD9238504
_publ_section_title
;
Structure prediction by ZEFSAII (Michael W. Deem and Ramdas Pophale) SiO2 
 PCOD9238504
Probable space group: P 2/C
;
_chemical_formula_sum "Si O2"
_cell_formula_units_Z 26
_cell_length_a 14.562230
_cell_length_b 13.773390
_cell_length_c 8.606402
_cell_angle_alpha 90.000000
_cell_angle_beta 39.338683
_cell_angle_gamma 90.000000
_cell_volume 1094.241777
_symmetry_space_group_name_H-M "P 2/C"
_symmetry_group_IT_number 13
_symmetry_cell_setting 'monoclinic'
loop_
_space_group_symop_operation_xyz
x,y,z
-x,y,1/2-z
-x,-y,-z
x,-y,1/2+z
loop_
_atom_site_type_symbol
_atom_site_label
_atom_site_fract_x
_atom_site_fract_y
_atom_site_fract_z
Si Si1 0.387308 0.190202 0.522794
Si Si2 0.787052 0.132668 0.305467
Si Si3 0.349890 0.529278 0.845309
Si Si4 0.000000 0.764304 0.750000
Si Si5 0.414042 0.303856 0.011277
Si Si6 0.672541 0.985071 0.238713
Si Si7 0.224751 0.625547 0.274165
O O1 0.479595 0.226144 0.548115
O O2 0.282353 0.106092 0.711860
O O3 0.312997 0.289018 0.570232
O O4 0.500000 0.153770 0.250000
O O5 0.717191 0.238260 0.373482
O O6 0.698571 0.059251 0.534599
O O7 0.928744 0.163297 0.215742
O O8 0.769219 0.076810 0.163846
O O9 0.500000 0.532279 0.750000
O O10 0.368827 0.612931 0.689800
O O11 0.309048 0.434149 0.797963
O O12 0.218033 0.549422 0.139824
O O13 0.103823 0.689177 0.519461
O O14 0.500000 0.340383 0.750000
O O15 0.500000 0.000000 0.500000
#
# Coordination Sequence:
#
# PCOD9238504 Si02
#       7
#     4   4   4   2   4   4   4
#     4  12  22  41  73 111 153 181 234 316 388 447
#     4  12  27  45  75 107 150 204 249 301 365 460
#     4  12  28  44  80 119 147 188 249 333 398 442
#     4  12  30  56  72  96 156 222 260 290 360 462
#     4  12  22  42  74 113 155 192 236 314 394 444
#     4  12  23  43  76 118 142 179 243 318 393 434
#     4  12  27  48  73 106 150 199 255 302 373 453
#
# _framework density 23.760746000000001
#
# number of rings (size 3 to 8) (size 9 to 14) (size 15 to 20)
#    0.000    0.000    7.692    1.846    4.308    1.846 
#    0.000    0.000    0.000    0.000    0.000    0.000 
#    0.000    0.000    0.000    0.000    0.000    0.000 
#
# Total GULP energy -145111.585492 kJ/mol
# GULP energy per Si atom -5581.214827 kJ/mol
# Density = 2.370667 g / cm^3
# Si number density = 23.760746 Si / 1000 Ang^3
#
#
#
# Elastic Constant Matrix: (Units=GPa)
#
#
# Indices 1 2 3 4 5 6 
#
# 1 97.4718 49.6912 22.6841 0.0000 6.0061 0.0000
# 2 49.6912 124.9005 17.9349 0.0000 -0.7171 0.0000
# 3 22.6841 17.9349 73.0541 0.0000 14.4775 0.0000
# 4 0.0000 0.0000 0.0000 40.2902 0.0000 11.7167
# 5 6.0061 -0.7171 14.4775 0.0000 32.4744 0.0000
# 6 0.0000 0.0000 0.0000 11.7167 0.0000 51.7032
#
#
#
# Elastic Compliance Matrix: (Units=1/GPa)
#
#
# Indices 1 2 3 4 5 6 
#
# 1 0.013522 -0.005002 -0.002691 0.000000 -0.001412 0.000000
# 2 -0.005002 0.010191 -0.001291 0.000000 0.001726 0.000000
# 3 -0.002691 -0.001291 0.016177 0.000000 -0.006743 0.000000
# 4 0.000000 0.000000 0.000000 0.026571 0.000000 -0.006021
# 5 -0.001412 0.001726 -0.006743 0.000000 0.034099 0.000000
# 6 0.000000 0.000000 0.000000 -0.006021 0.000000 0.020706
#
#
# Mechanical properties :
#
#
# Convention : Reuss Voigt Hill
#
# Bulk Modulus (GPa) = 45.61248 52.89409 49.25328
# Shear Modulus (GPa) = 34.11989 38.56797 36.34393
#
# Velocity S-wave (km/s) = 3.79354 4.03324 3.91523
# Velocity P-wave (km/s) = 6.19888 6.63316 6.41970
#
# Compressibility (1/GPa) = 0.02192382
#
# Stress axis : x y z
#
# Youngs Moduli (GPa) = 73.95102 98.12103 61.81488
#
# Poissons Ratio (x) = 0.49075 0.16636
# Poissons Ratio (y) = 0.36987 0.07980
# Poissons Ratio (z) = 0.19902 0.12667
#
# Static dielectric constant tensor:
#      x y z
#    x 1.976400 0.000000 0.012930 
#    y 0.000000 1.966410 0.000000 
#    z 0.012930 0.000000 1.958840 
# 
# From -- ./inp_files/19843.got.cif
#   From: 2010.05.17/outbox.cif.g08.bks.cpg/sg13_10_cif.got.tgz:19843.got - 2010.06.03 16:44:36.
