data_PCOD9238811
_publ_section_title
;
Structure prediction by ZEFSAII (Michael W. Deem and Ramdas Pophale) SiO2 
 PCOD9238811
Probable space group: P 2/C
;
_chemical_formula_sum "Si O2"
_cell_formula_units_Z 16
_cell_length_a 7.040035
_cell_length_b 7.034203
_cell_length_c 13.813545
_cell_angle_alpha 90.000000
_cell_angle_beta 61.444138
_cell_angle_gamma 90.000000
_cell_volume 600.846033
_symmetry_space_group_name_H-M "P 2/C"
_symmetry_group_IT_number 13
_symmetry_cell_setting 'monoclinic'
loop_
_space_group_symop_operation_xyz
x,y,z
-x,y,1/2-z
-x,-y,-z
x,-y,1/2+z
loop_
_atom_site_type_symbol
_atom_site_label
_atom_site_fract_x
_atom_site_fract_y
_atom_site_fract_z
Si Si1 0.177763 0.792656 0.770037
Si Si2 0.473679 0.772649 0.515229
Si Si3 0.064092 0.570140 0.089838
Si Si4 0.281866 0.144968 0.860487
O O1 0.367570 0.746065 0.647119
O O2 0.053433 0.601342 0.826487
O O3 0.000000 0.905866 0.750000
O O4 0.242547 0.919413 0.847889
O O5 0.318859 0.763172 0.457909
O O6 0.311955 0.359450 0.545644
O O7 0.500000 0.000000 0.500000
O O8 0.920455 0.756365 0.139332
O O9 0.000000 0.500000 0.000000
O O10 0.500000 0.190288 0.750000
#
# Coordination Sequence:
#
# PCOD9238811 Si02
#       4
#     4   4   4   4
#     4  12  29  53  86 121 170 220 285 350 429 507
#     4  12  27  55  85 122 172 225 280 353 429 509
#     4  12  31  51  84 126 170 219 286 350 424 509
#     4  12  29  53  83 117 170 223 281 347 427 504
#
# _framework density 26.62912
#
# number of rings (size 3 to 8) (size 9 to 14) (size 15 to 20)
#    0.000    0.000    2.500    4.500    7.000    5.000 
#    0.000    0.000    0.000    0.000    0.000    0.000 
#    0.000    0.000    0.000    0.000    0.000    0.000 
#
# Total GULP energy -89328.624932 kJ/mol
# GULP energy per Si atom -5583.039058 kJ/mol
# Density = 2.656851 g / cm^3
# Si number density = 26.629120 Si / 1000 Ang^3
#
#
#
# Elastic Constant Matrix: (Units=GPa)
#
#
# Indices 1 2 3 4 5 6 
#
# 1 213.0668 105.9042 70.5845 0.0000 -11.3110 0.0000
# 2 105.9042 185.3510 103.1869 0.0000 -3.5914 0.0000
# 3 70.5845 103.1869 147.7385 0.0000 1.3462 0.0000
# 4 0.0000 0.0000 0.0000 -32.6600 0.0000 49.9346
# 5 -11.3110 -3.5914 1.3462 0.0000 51.1890 0.0000
# 6 0.0000 0.0000 0.0000 49.9346 0.0000 16.5936
#
#
#
# Elastic Compliance Matrix: (Units=1/GPa)
#
#
# Indices 1 2 3 4 5 6 
#
# 1 0.006702 -0.003298 -0.000910 0.000000 0.001273 0.000000
# 2 -0.003298 0.010482 -0.005747 0.000000 0.000158 0.000000
# 3 -0.000910 -0.005747 0.011226 0.000000 -0.000900 0.000000
# 4 0.000000 0.000000 0.000000 -0.005467 0.000000 0.016451
# 5 0.001273 0.000158 -0.000900 0.000000 0.019852 0.000000
# 6 0.000000 0.000000 0.000000 0.016451 0.000000 0.010760
#
#
# Mechanical properties :
#
#
# Convention : Reuss Voigt Hill
#
# Bulk Modulus (GPa) = 117.65277 122.83414 120.24346
# Shear Modulus (GPa) = 65.53424 24.78990 45.16207
#
# Velocity S-wave (km/s) = 4.96623 3.05443 4.12268
# Velocity P-wave (km/s) = 8.78422 7.65946 8.24105
#
# Compressibility (1/GPa) = 0.00849959
#
# Stress axis : x y z
#
# Youngs Moduli (GPa) = 149.21803 95.40364 89.08256
#
# Poissons Ratio (x) = 0.31462 0.08107
# Poissons Ratio (y) = 0.49209 0.51194
# Poissons Ratio (z) = 0.13580 0.54827
#
# Static dielectric constant tensor:
#      x y z
#    x 2.589810 0.000000 -0.145010 
#    y 0.000000 2.365290 0.000000 
#    z -0.145010 0.000000 1.779250 
# 
# From -- ./inp_files/45126.got.cif
#   From: 2010.05.17/outbox.cif.g08.bks.cpg/sg13_23_cif.got.tgz:45126.got - 2010.06.03 16:44:36.
