data_PCOD9238650
_publ_section_title
;
Structure prediction by ZEFSAII (Michael W. Deem and Ramdas Pophale) SiO2 
 PCOD9238650
Probable space group: P 2/C
;
_chemical_formula_sum "Si O2"
_cell_formula_units_Z 20
_cell_length_a 10.531750
_cell_length_b 9.063456
_cell_length_c 15.728078
_cell_angle_alpha 90.000000
_cell_angle_beta 32.863919
_cell_angle_gamma 90.000000
_cell_volume 814.678617
_symmetry_space_group_name_H-M "P 2/C"
_symmetry_group_IT_number 13
_symmetry_cell_setting 'monoclinic'
loop_
_space_group_symop_operation_xyz
x,y,z
-x,y,1/2-z
-x,-y,-z
x,-y,1/2+z
loop_
_atom_site_type_symbol
_atom_site_label
_atom_site_fract_x
_atom_site_fract_y
_atom_site_fract_z
Si Si1 0.905510 0.137726 0.206980
Si Si2 0.676480 0.271642 0.573833
Si Si3 0.760195 0.801807 0.290073
Si Si4 0.883006 0.440586 0.978453
Si Si5 0.477311 0.639953 0.943062
O O1 0.708093 0.261549 0.303937
O O2 0.000000 0.152520 0.250000
O O3 0.813030 0.972089 0.251866
O O4 0.127859 0.150248 0.018203
O O5 0.500000 0.309014 0.750000
O O6 0.498347 0.222462 0.602706
O O7 0.847822 0.404172 0.448435
O O8 0.724133 0.744879 0.405527
O O9 0.938478 0.687387 0.147173
O O10 0.620573 0.391227 0.097052
O O11 0.000000 0.500000 0.000000
O O12 0.500000 0.500000 0.000000
#
# Coordination Sequence:
#
# PCOD9238650 Si02
#       5
#     4   4   4   4   4
#     4  12  26  47  81 117 159 205 265 334 402 479
#     4  12  27  50  73 111 161 204 265 329 396 484
#     4  12  26  48  81 114 156 204 266 332 405 475
#     4  12  26  48  75 109 154 207 257 328 396 467
#     4  12  24  47  83 118 151 204 266 330 391 473
#
# _framework density 24.549558000000001
#
# number of rings (size 3 to 8) (size 9 to 14) (size 15 to 20)
#    0.000    0.000    6.000    3.600    2.800    0.800 
#    0.000    1.000    0.000    0.000    0.000    0.000 
#    0.000    0.000    0.000    0.000    0.000    0.000 
#
# Total GULP energy -111416.428897 kJ/mol
# GULP energy per Si atom -5570.821445 kJ/mol
# Density = 2.449368 g / cm^3
# Si number density = 24.549558 Si / 1000 Ang^3
#
#
#
# Elastic Constant Matrix: (Units=GPa)
#
#
# Indices 1 2 3 4 5 6 
#
# 1 176.2315 68.8932 67.2338 0.0000 -42.1229 0.0000
# 2 68.8932 169.4900 100.5268 0.0000 -36.1839 0.0000
# 3 67.2338 100.5268 131.5527 0.0000 -23.9169 0.0000
# 4 0.0000 0.0000 0.0000 37.7602 0.0000 -8.8517
# 5 -42.1229 -36.1839 -23.9169 0.0000 39.9053 0.0000
# 6 0.0000 0.0000 0.0000 -8.8517 0.0000 31.3173
#
#
#
# Elastic Compliance Matrix: (Units=1/GPa)
#
#
# Indices 1 2 3 4 5 6 
#
# 1 0.008572 -0.000252 -0.002901 0.000000 0.007081 0.000000
# 2 -0.000252 0.011962 -0.007955 0.000000 0.005812 0.000000
# 3 -0.002901 -0.007955 0.014921 0.000000 -0.001333 0.000000
# 4 0.000000 0.000000 0.000000 0.028362 0.000000 0.008016
# 5 0.007081 0.005812 -0.001333 0.000000 0.037006 0.000000
# 6 0.000000 0.000000 0.000000 0.008016 0.000000 0.034197
#
#
# Mechanical properties :
#
#
# Convention : Reuss Voigt Hill
#
# Bulk Modulus (GPa) = 75.53781 105.62022 90.57902
# Shear Modulus (GPa) = 30.93130 37.83792 34.38461
#
# Velocity S-wave (km/s) = 3.55343 3.93018 3.74655
# Velocity P-wave (km/s) = 6.90450 7.98197 7.46271
#
# Compressibility (1/GPa) = 0.01323840
#
# Stress axis : x y z
#
# Youngs Moduli (GPa) = 116.65547 83.60119 67.02040
#
# Poissons Ratio (x) = 0.02106 0.19444
# Poissons Ratio (y) = 0.02938 0.53315
# Poissons Ratio (z) = 0.33844 0.66505
#
# Static dielectric constant tensor:
#      x y z
#    x 2.095350 0.000000 0.030550 
#    y 0.000000 2.058400 0.000000 
#    z 0.030550 0.000000 2.085050 
# 
# From -- ./inp_files/66239.got.cif
#   From: 2010.05.17/outbox.cif.g08.bks.cpg/sg13_34_cif.got.tgz:66239.got - 2010.06.03 16:44:36.
