data_PCOD9238298
_publ_section_title
;
Structure prediction by ZEFSAII (Michael W. Deem and Ramdas Pophale) SiO2 
 PCOD9238298
Probable space group: P 2/C
;
_chemical_formula_sum "Si O2"
_cell_formula_units_Z 26
_cell_length_a 9.131865
_cell_length_b 18.816925
_cell_length_c 9.145248
_cell_angle_alpha 90.000000
_cell_angle_beta 49.943859
_cell_angle_gamma 90.000000
_cell_volume 1202.818677
_symmetry_space_group_name_H-M "P 2/C"
_symmetry_group_IT_number 13
_symmetry_cell_setting 'monoclinic'
loop_
_space_group_symop_operation_xyz
x,y,z
-x,y,1/2-z
-x,-y,-z
x,-y,1/2+z
loop_
_atom_site_type_symbol
_atom_site_label
_atom_site_fract_x
_atom_site_fract_y
_atom_site_fract_z
Si Si1 0.143963 0.835633 0.289752
Si Si2 0.869956 0.881268 0.699260
Si Si3 0.349647 0.016997 0.721177
Si Si4 0.546643 0.788539 0.056803
Si Si5 0.500000 0.594055 0.750000
Si Si6 0.864626 0.502090 0.449418
Si Si7 0.615524 0.371463 0.518265
O O1 0.227545 0.914872 0.255528
O O2 0.327934 0.785944 0.139425
O O3 0.000000 0.830622 0.250000
O O4 0.009634 0.828800 0.519404
O O5 0.000000 0.908554 0.750000
O O6 0.787329 0.948974 0.664615
O O7 0.684988 0.840014 0.879132
O O8 0.500000 0.032165 0.750000
O O9 0.500000 0.000000 0.500000
O O10 0.500000 0.814705 0.250000
O O11 0.649869 0.712806 0.004545
O O12 0.682959 0.546327 0.609066
O O13 0.467955 0.623201 0.598363
O O14 0.786871 0.428483 0.427339
O O15 0.000000 0.542390 0.250000
O O16 0.000000 0.500000 0.500000
O O17 0.500000 0.384855 0.750000
#
# Coordination Sequence:
#
# PCOD9238298 Si02
#       7
#     4   4   4   4   2   4   4
#     4  12  25  44  68 100 136 179 238 296 355 425
#     4  12  24  42  69  96 129 183 234 285 360 422
#     4  12  23  41  68  96 136 177 225 304 366 410
#     4  11  25  49  68  97 145 186 232 292 349 436
#     4  12  24  48  72 110 150 188 236 312 356 428
#     4  12  23  43  75 109 145 187 241 298 362 431
#     4  11  25  46  73 105 150 193 239 297 367 432
#
# _framework density 21.615894000000001
#
# number of rings (size 3 to 8) (size 9 to 14) (size 15 to 20)
#    0.000    0.308    5.385    4.615    0.000    1.846 
#    0.000    3.846    0.000    0.000    0.000    0.000 
#    0.000    0.000    0.000    0.000    0.000    0.000 
#
# Total GULP energy -144764.266940 kJ/mol
# GULP energy per Si atom -5567.856421 kJ/mol
# Density = 2.156670 g / cm^3
# Si number density = 21.615894 Si / 1000 Ang^3
#
#
#
# Elastic Constant Matrix: (Units=GPa)
#
#
# Indices 1 2 3 4 5 6 
#
# 1 124.3208 9.1264 16.1639 0.0000 4.9631 0.0000
# 2 9.1264 69.7858 13.3930 0.0000 -4.4787 0.0000
# 3 16.1639 13.3930 125.0781 0.0000 -10.9910 0.0000
# 4 0.0000 0.0000 0.0000 15.9788 0.0000 6.2095
# 5 4.9631 -4.4787 -10.9910 0.0000 47.3692 0.0000
# 6 0.0000 0.0000 0.0000 6.2095 0.0000 19.2828
#
#
#
# Elastic Compliance Matrix: (Units=1/GPa)
#
#
# Indices 1 2 3 4 5 6 
#
# 1 0.008302 -0.000957 -0.001077 0.000000 -0.001210 0.000000
# 2 -0.000957 0.014791 -0.001356 0.000000 0.001184 0.000000
# 3 -0.001077 -0.001356 0.008450 0.000000 0.001945 0.000000
# 4 0.000000 0.000000 0.000000 0.071535 0.000000 -0.023036
# 5 -0.001210 0.001184 0.001945 0.000000 0.021801 0.000000
# 6 0.000000 0.000000 0.000000 -0.023036 0.000000 0.059278
#
#
# Mechanical properties :
#
#
# Convention : Reuss Voigt Hill
#
# Bulk Modulus (GPa) = 40.38083 44.06125 42.22104
# Shear Modulus (GPa) = 25.10147 35.22625 30.16386
#
# Velocity S-wave (km/s) = 3.41141 4.04127 3.73962
# Velocity P-wave (km/s) = 5.85138 6.49644 6.18233
#
# Compressibility (1/GPa) = 0.02476423
#
# Stress axis : x y z
#
# Youngs Moduli (GPa) = 120.44914 67.60898 118.33896
#
# Poissons Ratio (x) = 0.06469 0.12743
# Poissons Ratio (y) = 0.11524 0.16048
# Poissons Ratio (z) = 0.12970 0.09168
#
# Static dielectric constant tensor:
#      x y z
#    x 2.601070 0.000000 0.232700 
#    y 0.000000 1.775470 0.000000 
#    z 0.232700 0.000000 1.898060 
# 
# From -- ./inp_files/13628.got.cif
#   From: 2010.05.17/outbox.cif.g08.bks.cpg/sg13_7_cif.got.tgz:13628.got - 2010.06.03 16:44:36.
