data_PCOD9238873
_publ_section_title
;
Structure prediction by ZEFSAII (Michael W. Deem and Ramdas Pophale) SiO2 
 PCOD9238873
Probable space group: P 2/C
;
_chemical_formula_sum "Si O2"
_cell_formula_units_Z 30
_cell_length_a 24.000000
_cell_length_b 9.000000
_cell_length_c 15.000000
_cell_angle_alpha 90.000000
_cell_angle_beta 150.000000
_cell_angle_gamma 90.000000
_cell_volume 1620.000000
_symmetry_space_group_name_H-M "P 2/C"
_symmetry_group_IT_number 13
_symmetry_cell_setting 'monoclinic'
loop_
_space_group_symop_operation_xyz
x,y,z
-x,y,1/2-z
-x,-y,-z
x,-y,1/2+z
loop_
_atom_site_type_symbol
_atom_site_label
_atom_site_fract_x
_atom_site_fract_y
_atom_site_fract_z
Si Si1 0.869919 0.639098 0.565220
Si Si2 0.056827 0.265316 0.022282
Si Si3 0.180442 0.687044 0.208582
Si Si4 0.771927 0.019675 0.270627
Si Si5 0.764171 0.569007 0.599528
Si Si6 0.000000 0.203956 0.750000
Si Si7 0.368438 0.141107 0.574774
Si Si8 0.198704 0.978333 0.987583
O O1 0.831405 0.622864 0.408930
O O2 0.810947 0.549867 0.563907
O O3 0.851938 0.813059 0.568127
O O4 0.000000 0.610460 0.750000
O O5 0.045097 0.295190 0.898861
O O6 0.939499 0.292065 0.908791
O O7 0.143163 0.356375 0.204943
O O8 0.110550 0.099479 0.092039
O O9 0.226459 0.851295 0.258891
O O10 0.254948 0.585282 0.376317
O O11 0.751062 0.022646 0.347025
O O12 0.679840 0.106563 0.089112
O O13 0.663918 0.686699 0.452114
O O14 0.903539 0.096999 0.660514
O O15 0.500000 0.114602 0.750000
O O16 0.291787 0.044497 0.539020
#
# Coordination Sequence:
#
# PCOD9238873 Si02
#       8
#     4   4   4   4   4   2   4   4
#     4  10  18  30  51  73 109 147 178 202 259 331
#     4  10  19  30  49  80 113 146 172 210 264 328
#     4  11  20  33  53  77 112 147 177 222 265 329
#     4   9  20  34  54  80 107 138 183 223 271 321
#     4  10  22  36  50  79 110 144 186 219 272 322
#     4  10  18  30  52  84 118 142 170 222 270 322
#     4  10  21  39  60  77 104 144 189 233 272 318
#     4   9  18  32  53  83 111 142 174 217 275 330
#
# _framework density 18.518519000000001
#
# number of rings (size 3 to 8) (size 9 to 14) (size 15 to 20)
#    0.000    2.133    2.000    1.600    0.000    1.600 
#    0.000    2.000    0.000    7.200    0.000    0.000 
#    0.000    0.000    0.000    0.000    0.000    0.000 
#
# Total GULP energy -167209.271205 kJ/mol
# GULP energy per Si atom -5573.642374 kJ/mol
# Density = 1.847637 g / cm^3
# Si number density = 18.518519 Si / 1000 Ang^3
#
#
#
# Elastic Constant Matrix: (Units=GPa)
#
#
# Indices 1 2 3 4 5 6 
#
# 1 106.8603 22.1465 37.1888 0.0000 -12.1919 0.0000
# 2 22.1465 45.5057 9.4941 0.0000 -8.0307 0.0000
# 3 37.1888 9.4941 59.0051 0.0000 1.4718 0.0000
# 4 0.0000 0.0000 0.0000 20.6882 0.0000 -13.1802
# 5 -12.1919 -8.0307 1.4718 0.0000 34.7486 0.0000
# 6 0.0000 0.0000 0.0000 -13.1802 0.0000 22.1752
#
#
#
# Elastic Compliance Matrix: (Units=1/GPa)
#
#
# Indices 1 2 3 4 5 6 
#
# 1 0.013438 -0.004171 -0.007900 0.000000 0.004086 0.000000
# 2 -0.004171 0.025099 -0.001520 0.000000 0.004402 0.000000
# 3 -0.007900 -0.001520 0.022273 0.000000 -0.004066 0.000000
# 4 0.000000 0.000000 0.000000 0.077795 0.000000 0.046239
# 5 0.004086 0.004402 -0.004066 0.000000 0.031401 0.000000
# 6 0.000000 0.000000 0.000000 0.046239 0.000000 0.072579
#
#
# Mechanical properties :
#
#
# Convention : Reuss Voigt Hill
#
# Bulk Modulus (GPa) = 29.73668 38.78111 34.25890
# Shear Modulus (GPa) = 17.79518 25.02516 21.41017
#
# Velocity S-wave (km/s) = 3.10327 3.68007 3.40391
# Velocity P-wave (km/s) = 5.37894 6.24856 5.82999
#
# Compressibility (1/GPa) = 0.03362850
#
# Stress axis : x y z
#
# Youngs Moduli (GPa) = 74.41649 39.84247 44.89763
#
# Poissons Ratio (x) = 0.16617 0.35470
# Poissons Ratio (y) = 0.31036 0.06823
# Poissons Ratio (z) = 0.58791 0.06055
#
# Static dielectric constant tensor:
#      x y z
#    x 1.639500 0.000000 -0.024840 
#    y 0.000000 1.707440 0.000000 
#    z -0.024840 0.000000 1.639060 
# 
# From -- ./inp_files/58713.got.cif
#   From: 2010.05.17/outbox.ucp.g08.bks.cvg/sg13_30_cif.got.tgz:58713.got - 2010.06.11 12:23:55.
