data_PCOD9238143
_publ_section_title
;
Structure prediction by ZEFSAII (Michael W. Deem and Ramdas Pophale) SiO2 
 PCOD9238143
Probable space group: P 2/C
;
_chemical_formula_sum "Si O2"
_cell_formula_units_Z 16
_cell_length_a 7.643352
_cell_length_b 6.166238
_cell_length_c 14.558619
_cell_angle_alpha 90.000000
_cell_angle_beta 115.441790
_cell_angle_gamma 90.000000
_cell_volume 619.616182
_symmetry_space_group_name_H-M "P 2/C"
_symmetry_group_IT_number 13
_symmetry_cell_setting 'monoclinic'
loop_
_space_group_symop_operation_xyz
x,y,z
-x,y,1/2-z
-x,-y,-z
x,-y,1/2+z
loop_
_atom_site_type_symbol
_atom_site_label
_atom_site_fract_x
_atom_site_fract_y
_atom_site_fract_z
Si Si1 0.873745 0.700906 0.007825
Si Si2 0.769892 0.707995 0.690357
Si Si3 0.192404 0.939576 0.161031
Si Si4 0.500000 0.500000 0.000000
Si Si5 0.500000 0.611001 0.250000
O O1 0.849759 0.868376 0.918889
O O2 0.658583 0.652872 0.989298
O O3 0.994187 0.805980 0.118484
O O4 0.000000 0.500000 0.000000
O O5 0.744104 0.942540 0.731346
O O6 0.682564 0.671954 0.570925
O O7 0.638153 0.533719 0.717559
O O8 0.000000 0.661998 0.750000
O O9 0.356081 0.771909 0.164415
#
# Coordination Sequence:
#
# PCOD9238143 Si02
#       5
#     4   4   4   2   2
#     4  11  24  47  74 105 145 190 247 315 379 449
#     4  12  27  47  72 109 154 197 250 314 379 450
#     4  11  24  45  74 105 145 194 249 312 378 444
#     4  12  24  44  74 104 142 196 246 298 372 448
#     4  12  24  46  72  98 142 196 244 304 370 438
#
# _framework density 25.822437999999998
#
# number of rings (size 3 to 8) (size 9 to 14) (size 15 to 20)
#    0.000    0.500    0.000    9.750    0.000    5.000 
#    0.000   23.750    0.000    0.000    0.000    0.000 
#    0.000    0.000    0.000    0.000    0.000    0.000 
#
# Total GULP energy -89163.154830 kJ/mol
# GULP energy per Si atom -5572.697177 kJ/mol
# Density = 2.576367 g / cm^3
# Si number density = 25.822438 Si / 1000 Ang^3
#
#
#
# Elastic Constant Matrix: (Units=GPa)
#
#
# Indices 1 2 3 4 5 6 
#
# 1 165.4271 51.9188 23.0301 0.0000 59.0133 0.0000
# 2 51.9188 103.4815 36.1021 0.0000 13.4371 0.0000
# 3 23.0301 36.1021 100.7795 0.0000 31.8433 0.0000
# 4 0.0000 0.0000 0.0000 34.0949 0.0000 147.5418
# 5 59.0133 13.4371 31.8433 0.0000 52.7625 0.0000
# 6 0.0000 0.0000 0.0000 147.5418 0.0000 -411.5152
#
#
#
# Elastic Compliance Matrix: (Units=1/GPa)
#
#
# Indices 1 2 3 4 5 6 
#
# 1 0.012706 -0.005789 0.003947 0.000000 -0.015119 0.000000
# 2 -0.005789 0.013693 -0.005593 0.000000 0.006362 0.000000
# 3 0.003947 -0.005593 0.014789 0.000000 -0.011916 0.000000
# 4 0.000000 0.000000 0.000000 0.011495 0.000000 0.004121
# 5 -0.015119 0.006362 -0.011916 0.000000 0.041434 0.000000
# 6 0.000000 0.000000 0.000000 0.004121 0.000000 -0.000952
#
#
# Mechanical properties :
#
#
# Convention : Reuss Voigt Hill
#
# Bulk Modulus (GPa) = 37.99451 65.75447 51.87449
# Shear Modulus (GPa) = 42.80614 -47.68908 -2.44147
#
# Velocity S-wave (km/s) = 4.07592 -4.30211 -0.97341
# Velocity P-wave (km/s) = 6.07425 0.91750 4.34386
#
# Compressibility (1/GPa) = 0.02631959
#
# Stress axis : x y z
#
# Youngs Moduli (GPa) = 78.70580 73.03112 67.61666
#
# Poissons Ratio (x) = 0.42274 -0.26690
# Poissons Ratio (y) = 0.45559 0.37816
# Poissons Ratio (z) = -0.31067 0.40844
#
# Static dielectric constant tensor:
#      x y z
#    x 1.981390 0.000000 -0.077910 
#    y 0.000000 2.075660 0.000000 
#    z -0.077910 0.000000 2.375040 
# 
# From -- ./inp_files/62570.got.cif
#   From: 2010.05.17/outbox.cif.g08.bks.cpg/sg13_32_cif.got.tgz:62570.got - 2010.06.03 16:44:36.
