data_PCOD9238279
_publ_section_title
;
Structure prediction by ZEFSAII (Michael W. Deem and Ramdas Pophale) SiO2 
 PCOD9238279
Probable space group: P 2/C
;
_chemical_formula_sum "Si O2"
_cell_formula_units_Z 12
_cell_length_a 4.914737
_cell_length_b 5.853238
_cell_length_c 19.253396
_cell_angle_alpha 90.000000
_cell_angle_beta 61.607819
_cell_angle_gamma 90.000000
_cell_volume 487.242376
_symmetry_space_group_name_H-M "P 2/C"
_symmetry_group_IT_number 13
_symmetry_cell_setting 'monoclinic'
loop_
_space_group_symop_operation_xyz
x,y,z
-x,y,1/2-z
-x,-y,-z
x,-y,1/2+z
loop_
_atom_site_type_symbol
_atom_site_label
_atom_site_fract_x
_atom_site_fract_y
_atom_site_fract_z
Si Si1 0.889238 0.330169 0.452044
Si Si2 0.734093 0.967357 0.166015
Si Si3 0.657496 0.708579 0.386508
O O1 0.800811 0.467123 0.392631
O O2 0.570152 0.233064 0.521692
O O3 0.000000 0.500000 0.500000
O O4 0.155096 0.148356 0.404725
O O5 0.500000 0.070480 0.250000
O O6 0.556182 0.750693 0.154039
O O7 0.056671 0.878304 0.156685
#
# Coordination Sequence:
#
# PCOD9238279 Si02
#       3
#     4   4   4
#     4  11  25  45  78 104 138 190 247 291 347 434
#     4  12  27  46  68 105 150 185 233 302 366 420
#     4  11  25  46  73 102 138 190 240 291 353 431
#
# _framework density 24.628399000000002
#
# number of rings (size 3 to 8) (size 9 to 14) (size 15 to 20)
#    0.000    0.667    3.333    3.000    9.333    1.333 
#    6.000    0.000    0.000    0.000    0.000    0.000 
#    0.000    0.000    0.000    0.000    0.000    0.000 
#
# Total GULP energy -67106.214071 kJ/mol
# GULP energy per Si atom -5592.184506 kJ/mol
# Density = 2.457234 g / cm^3
# Si number density = 24.628399 Si / 1000 Ang^3
#
#
#
# Elastic Constant Matrix: (Units=GPa)
#
#
# Indices 1 2 3 4 5 6 
#
# 1 122.0935 24.4915 29.4256 0.0000 -19.6160 0.0000
# 2 24.4915 34.2168 16.6555 0.0000 -10.7595 0.0000
# 3 29.4256 16.6555 110.3633 0.0000 -44.2195 0.0000
# 4 0.0000 0.0000 0.0000 5.4984 0.0000 -14.3778
# 5 -19.6160 -10.7595 -44.2195 0.0000 43.8283 0.0000
# 6 0.0000 0.0000 0.0000 -14.3778 0.0000 25.1944
#
#
#
# Elastic Compliance Matrix: (Units=1/GPa)
#
#
# Indices 1 2 3 4 5 6 
#
# 1 0.009951 -0.006031 -0.000926 0.000000 0.002039 0.000000
# 2 -0.006031 0.035847 -0.002278 0.000000 0.003802 0.000000
# 3 -0.000926 -0.002278 0.015546 0.000000 0.014711 0.000000
# 4 0.000000 0.000000 0.000000 -0.369461 0.000000 -0.210842
# 5 0.002039 0.003802 0.014711 0.000000 0.039504 0.000000
# 6 0.000000 0.000000 0.000000 -0.210842 0.000000 -0.080631
#
#
# Mechanical properties :
#
#
# Convention : Reuss Voigt Hill
#
# Bulk Modulus (GPa) = 23.32472 45.31321 34.31896
# Shear Modulus (GPa) = -15.79868 27.97761 6.08946
#
# Velocity S-wave (km/s) = -2.53550 3.37410 1.57414
# Velocity P-wave (km/s) = 0.95893 5.79811 4.15558
#
# Compressibility (1/GPa) = 0.04287298
#
# Stress axis : x y z
#
# Youngs Moduli (GPa) = 100.49289 27.89655 64.32508
#
# Poissons Ratio (x) = 0.16824 0.05958
# Poissons Ratio (y) = 0.60605 0.14656
# Poissons Ratio (z) = 0.09307 0.06356
#
# Static dielectric constant tensor:
#      x y z
#    x 1.927510 0.000000 0.028850 
#    y 0.000000 1.992950 0.000000 
#    z 0.028850 0.000000 1.959060 
# 
# From -- ./inp_files/42917.got.cif
#   From: 2010.05.17/outbox.cif.g08.bks.cpg/sg13_22_cif.got.tgz:42917.got - 2010.06.03 16:44:36.
