data_PCOD9238812
_publ_section_title
;
Structure prediction by ZEFSAII (Michael W. Deem and Ramdas Pophale) SiO2 
 PCOD9238812
Probable space group: P 2/C
;
_chemical_formula_sum "Si O2"
_cell_formula_units_Z 18
_cell_length_a 11.121929
_cell_length_b 7.097885
_cell_length_c 10.436667
_cell_angle_alpha 90.000000
_cell_angle_beta 127.946985
_cell_angle_gamma 90.000000
_cell_volume 649.705743
_symmetry_space_group_name_H-M "P 2/C"
_symmetry_group_IT_number 13
_symmetry_cell_setting 'monoclinic'
loop_
_space_group_symop_operation_xyz
x,y,z
-x,y,1/2-z
-x,-y,-z
x,-y,1/2+z
loop_
_atom_site_type_symbol
_atom_site_label
_atom_site_fract_x
_atom_site_fract_y
_atom_site_fract_z
Si Si1 0.401062 0.149879 0.854528
Si Si2 0.831023 0.544801 0.836963
Si Si3 0.500000 0.139075 0.250000
Si Si4 0.897467 0.961884 0.810551
Si Si5 0.361836 0.502100 0.039307
O O1 0.512990 0.332642 0.904805
O O2 0.377495 0.020207 0.708863
O O3 0.227407 0.124417 0.790532
O O4 0.500000 0.000000 0.000000
O O5 0.821365 0.765767 0.801780
O O6 0.759457 0.485583 0.653849
O O7 0.727092 0.470036 0.885576
O O8 0.000000 0.500000 0.000000
O O9 0.561080 0.295543 0.391298
O O10 0.000000 0.938936 0.750000
O O11 0.000000 0.000000 0.000000
#
# Coordination Sequence:
#
# PCOD9238812 Si02
#       5
#     4   4   2   4   4
#     4  12  28  53  89 129 183 242 313 385 473 568
#     4  12  28  55  89 138 192 249 316 391 486 579
#     4  12  28  48  86 136 172 238 314 388 470 546
#     4  12  30  58  89 133 185 244 315 392 480 569
#     4  12  27  55  88 137 189 247 320 396 472 579
#
# _framework density 27.704847999999998
#
# number of rings (size 3 to 8) (size 9 to 14) (size 15 to 20)
#    0.000    0.000    4.444    2.667    3.111   12.444 
#    0.000    0.000    0.000    0.000    0.000    0.000 
#    0.000    0.000    0.000    0.000    0.000    0.000 
#
# Total GULP energy -100495.193516 kJ/mol
# GULP energy per Si atom -5583.066306 kJ/mol
# Density = 2.764179 g / cm^3
# Si number density = 27.704848 Si / 1000 Ang^3
#
#
#
# Elastic Constant Matrix: (Units=GPa)
#
#
# Indices 1 2 3 4 5 6 
#
# 1 131.1225 21.1980 58.7016 0.0000 0.1826 0.0000
# 2 21.1980 237.4586 67.2505 0.0000 24.7605 0.0000
# 3 58.7016 67.2505 252.0088 0.0000 7.7019 0.0000
# 4 0.0000 0.0000 0.0000 45.2489 0.0000 8.7171
# 5 0.1826 24.7605 7.7019 0.0000 56.8234 0.0000
# 6 0.0000 0.0000 0.0000 8.7171 0.0000 48.4849
#
#
#
# Elastic Compliance Matrix: (Units=1/GPa)
#
#
# Indices 1 2 3 4 5 6 
#
# 1 0.008531 -0.000251 -0.001931 0.000000 0.000343 0.000000
# 2 -0.000251 0.004760 -0.001153 0.000000 -0.001917 0.000000
# 3 -0.001931 -0.001153 0.004730 0.000000 -0.000132 0.000000
# 4 0.000000 0.000000 0.000000 0.022893 0.000000 -0.004116
# 5 0.000343 -0.001917 -0.000132 0.000000 0.018451 0.000000
# 6 0.000000 0.000000 0.000000 -0.004116 0.000000 0.021365
#
#
# Mechanical properties :
#
#
# Convention : Reuss Voigt Hill
#
# Bulk Modulus (GPa) = 88.09495 101.65445 94.87470
# Shear Modulus (GPa) = 54.83521 61.67409 58.25465
#
# Velocity S-wave (km/s) = 4.45372 4.72329 4.59048
# Velocity P-wave (km/s) = 7.63637 8.15583 7.90037
#
# Compressibility (1/GPa) = 0.01135139
#
# Stress axis : x y z
#
# Youngs Moduli (GPa) = 117.22149 210.07683 211.43094
#
# Poissons Ratio (x) = 0.05264 0.40822
# Poissons Ratio (y) = 0.02937 0.24385
# Poissons Ratio (z) = 0.22633 0.24229
#
# Static dielectric constant tensor:
#      x y z
#    x 2.680140 0.000000 -0.337170 
#    y 0.000000 2.320970 0.000000 
#    z -0.337170 0.000000 2.389710 
# 
# From -- ./inp_files/32757.got.cif
#   From: 2010.05.17/outbox.cif.g08.bks.cpg/sg13_17_cif.got.tgz:32757.got - 2010.06.03 16:44:36.
