data_PCOD9238700
_publ_section_title
;
Structure prediction by ZEFSAII (Michael W. Deem and Ramdas Pophale) SiO2 
 PCOD9238700
Probable space group: P 2/C
;
_chemical_formula_sum "Si O2"
_cell_formula_units_Z 28
_cell_length_a 19.120283
_cell_length_b 4.765952
_cell_length_c 15.170365
_cell_angle_alpha 90.000000
_cell_angle_beta 50.088980
_cell_angle_gamma 90.000000
_cell_volume 1060.373880
_symmetry_space_group_name_H-M "P 2/C"
_symmetry_group_IT_number 13
_symmetry_cell_setting 'monoclinic'
loop_
_space_group_symop_operation_xyz
x,y,z
-x,y,1/2-z
-x,-y,-z
x,-y,1/2+z
loop_
_atom_site_type_symbol
_atom_site_label
_atom_site_fract_x
_atom_site_fract_y
_atom_site_fract_z
Si Si1 0.834186 0.295982 0.553692
Si Si2 0.750864 0.505415 0.442147
Si Si3 0.101373 0.606143 0.826361
Si Si4 0.641469 0.900496 0.281431
Si Si5 0.009129 0.098671 0.638533
Si Si6 0.468894 0.372234 0.181696
Si Si7 0.637455 0.011278 0.486525
O O1 0.804870 0.453604 0.487924
O O2 0.877104 0.490879 0.594810
O O3 0.740652 0.193572 0.673381
O O4 0.898782 0.039316 0.471967
O O5 0.814202 0.429896 0.307881
O O6 0.720474 0.822607 0.453991
O O7 0.659435 0.312879 0.510298
O O8 0.069867 0.925933 0.848299
O O9 0.017766 0.421012 0.854907
O O10 0.572750 0.633825 0.337421
O O11 0.641321 0.035022 0.378162
O O12 0.610883 0.144075 0.239575
O O13 0.000000 0.042738 0.750000
O O14 0.500000 0.486363 0.250000
O O15 0.546678 0.167732 0.079660
#
# Coordination Sequence:
#
# PCOD9238700 Si02
#       7
#     4   4   4   4   4   4   4
#     4  12  28  47  78 106 151 188 254 296 376 439
#     4  12  26  47  75 109 144 195 240 311 359 437
#     4  12  27  50  73 107 148 190 245 306 368 439
#     4  12  26  44  73 108 142 198 239 305 367 431
#     4  12  27  49  76 106 147 194 242 305 373 441
#     4  12  25  46  71 106 149 191 248 296 365 440
#     4  12  25  48  73 105 150 190 249 298 369 435
#
# _framework density 26.405778000000002
#
# number of rings (size 3 to 8) (size 9 to 14) (size 15 to 20)
#    0.000    0.000    2.857    6.857    0.000    2.286 
#    0.000    0.000    0.000    0.000    0.000    0.000 
#    0.000    0.000    0.000    0.000    0.000    0.000 
#
# Total GULP energy -157289.994555 kJ/mol
# GULP energy per Si atom -5617.499806 kJ/mol
# Density = 2.634568 g / cm^3
# Si number density = 26.405778 Si / 1000 Ang^3
#
#
#
# Elastic Constant Matrix: (Units=GPa)
#
#
# Indices 1 2 3 4 5 6 
#
# 1 115.5262 23.8256 50.0960 0.0000 21.2860 0.0000
# 2 23.8256 110.2090 7.5587 0.0000 9.2183 0.0000
# 3 50.0960 7.5587 124.6032 0.0000 10.5079 0.0000
# 4 0.0000 0.0000 0.0000 32.8286 0.0000 1.1903
# 5 21.2860 9.2183 10.5079 0.0000 40.3781 0.0000
# 6 0.0000 0.0000 0.0000 1.1903 0.0000 23.9078
#
#
#
# Elastic Compliance Matrix: (Units=1/GPa)
#
#
# Indices 1 2 3 4 5 6 
#
# 1 0.011722 -0.001856 -0.004207 0.000000 -0.004661 0.000000
# 2 -0.001856 0.009563 0.000274 0.000000 -0.001276 0.000000
# 3 -0.004207 0.000274 0.009732 0.000000 -0.000377 0.000000
# 4 0.000000 0.000000 0.000000 0.030516 0.000000 -0.001519
# 5 -0.004661 -0.001276 -0.000377 0.000000 0.027613 0.000000
# 6 0.000000 0.000000 0.000000 -0.001519 0.000000 0.041903
#
#
# Mechanical properties :
#
#
# Convention : Reuss Voigt Hill
#
# Bulk Modulus (GPa) = 51.44449 57.03324 54.23886
# Shear Modulus (GPa) = 33.53307 37.34676 35.43992
#
# Velocity S-wave (km/s) = 3.56745 3.76485 3.66748
# Velocity P-wave (km/s) = 6.04099 6.36745 6.20637
#
# Compressibility (1/GPa) = 0.01943843
#
# Stress axis : x y z
#
# Youngs Moduli (GPa) = 85.31067 104.57162 102.75246
#
# Poissons Ratio (x) = 0.19405 0.43229
# Poissons Ratio (y) = 0.15831 -0.02811
# Poissons Ratio (z) = 0.35891 -0.02861
#
# Static dielectric constant tensor:
#      x y z
#    x 2.078780 0.000000 -0.063110 
#    y 0.000000 1.979170 0.000000 
#    z -0.063110 0.000000 2.021310 
# 
# From -- ./inp_files/54583.got.cif
#   From: 2010.05.17/outbox.cif.g08.bks.cpg/sg13_28_cif.got.tgz:54583.got - 2010.06.03 16:44:36.
