data_PCOD9238095
_publ_section_title
;
Structure prediction by ZEFSAII (Michael W. Deem and Ramdas Pophale) SiO2 
 PCOD9238095
Probable space group: P 2/C
;
_chemical_formula_sum "Si O2"
_cell_formula_units_Z 20
_cell_length_a 11.360025
_cell_length_b 5.943134
_cell_length_c 12.974059
_cell_angle_alpha 90.000000
_cell_angle_beta 63.556029
_cell_angle_gamma 90.000000
_cell_volume 784.283984
_symmetry_space_group_name_H-M "P 2/C"
_symmetry_group_IT_number 13
_symmetry_cell_setting 'monoclinic'
loop_
_space_group_symop_operation_xyz
x,y,z
-x,y,1/2-z
-x,-y,-z
x,-y,1/2+z
loop_
_atom_site_type_symbol
_atom_site_label
_atom_site_fract_x
_atom_site_fract_y
_atom_site_fract_z
Si Si1 0.787498 0.622334 0.796115
Si Si2 0.939329 0.007497 0.659225
Si Si3 0.630298 0.054364 0.510888
Si Si4 0.164532 0.675719 0.034751
Si Si5 0.282799 0.321468 0.840110
O O1 0.722016 0.806684 0.895838
O O2 0.849072 0.438714 0.848075
O O3 0.682002 0.497394 0.763735
O O4 0.896082 0.746731 0.683865
O O5 0.804382 0.132107 0.681833
O O6 0.000000 0.036000 0.750000
O O7 0.051712 0.143391 0.553079
O O8 0.617437 0.204331 0.619548
O O9 0.500000 0.000000 0.500000
O O10 0.703456 0.825419 0.513592
O O11 0.186488 0.467475 0.950726
#
# Coordination Sequence:
#
# PCOD9238095 Si02
#       5
#     4   4   4   4   4
#     4  11  24  44  71 106 142 185 235 288 358 420
#     4  12  23  42  72 103 147 182 229 292 352 428
#     4  11  26  50  71  99 143 186 242 296 342 417
#     4  11  25  45  70 104 144 184 231 295 353 420
#     4  11  25  43  71 106 138 189 235 286 364 417
#
# _framework density 25.500971
#
# number of rings (size 3 to 8) (size 9 to 14) (size 15 to 20)
#    0.000    0.800    4.000    1.800    2.800    6.400 
#    0.000   15.000    0.000    0.000    0.000    0.000 
#    0.000    0.000    0.000    0.000    0.000    0.000 
#
# Total GULP energy -111855.756355 kJ/mol
# GULP energy per Si atom -5592.787818 kJ/mol
# Density = 2.544293 g / cm^3
# Si number density = 25.500971 Si / 1000 Ang^3
#
#
#
# Elastic Constant Matrix: (Units=GPa)
#
#
# Indices 1 2 3 4 5 6 
#
# 1 97.5583 44.8651 13.2008 0.0000 32.6668 0.0000
# 2 44.8651 140.4878 49.8304 0.0000 24.0441 0.0000
# 3 13.2008 49.8304 105.2501 0.0000 29.0931 0.0000
# 4 0.0000 0.0000 0.0000 59.3318 0.0000 28.3579
# 5 32.6668 24.0441 29.0931 0.0000 42.2386 0.0000
# 6 0.0000 0.0000 0.0000 28.3579 0.0000 37.7487
#
#
#
# Elastic Compliance Matrix: (Units=1/GPa)
#
#
# Indices 1 2 3 4 5 6 
#
# 1 0.015767 -0.004142 0.003338 0.000000 -0.012135 0.000000
# 2 -0.004142 0.009875 -0.004307 0.000000 0.000549 0.000000
# 3 0.003338 -0.004307 0.013782 0.000000 -0.009622 0.000000
# 4 0.000000 0.000000 0.000000 0.026296 0.000000 -0.019754
# 5 -0.012135 0.000549 -0.009622 0.000000 0.039375 0.000000
# 6 0.000000 0.000000 0.000000 -0.019754 0.000000 0.041331
#
#
# Mechanical properties :
#
#
# Convention : Reuss Voigt Hill
#
# Bulk Modulus (GPa) = 34.24692 62.12097 48.18395
# Shear Modulus (GPa) = 30.05132 43.55715 36.80424
#
# Velocity S-wave (km/s) = 3.43656 4.13735 3.80313
# Velocity P-wave (km/s) = 5.40420 6.87289 6.18232
#
# Compressibility (1/GPa) = 0.02919971
#
# Stress axis : x y z
#
# Youngs Moduli (GPa) = 63.42395 101.26867 72.56050
#
# Poissons Ratio (x) = 0.41948 -0.24221
# Poissons Ratio (y) = 0.26272 0.31255
# Poissons Ratio (z) = -0.21171 0.43621
#
# Static dielectric constant tensor:
#      x y z
#    x 1.974750 0.000000 -0.046560 
#    y 0.000000 1.948050 0.000000 
#    z -0.046560 0.000000 2.141940 
# 
# From -- ./inp_files/48929.got.cif
#   From: 2010.05.17/outbox.cif.g08.bks.cpg/sg13_25_cif.got.tgz:48929.got - 2010.06.03 16:44:36.
