data_PCOD9238833
_publ_section_title
;
Structure prediction by ZEFSAII (Michael W. Deem and Ramdas Pophale) SiO2 
 PCOD9238833
Probable space group: P 2/C
;
_chemical_formula_sum "Si O2"
_cell_formula_units_Z 22
_cell_length_a 18.526232
_cell_length_b 5.642309
_cell_length_c 8.129261
_cell_angle_alpha 90.000000
_cell_angle_beta 83.121154
_cell_angle_gamma 90.000000
_cell_volume 843.640681
_symmetry_space_group_name_H-M "P 2/C"
_symmetry_group_IT_number 13
_symmetry_cell_setting 'monoclinic'
loop_
_space_group_symop_operation_xyz
x,y,z
-x,y,1/2-z
-x,-y,-z
x,-y,1/2+z
loop_
_atom_site_type_symbol
_atom_site_label
_atom_site_fract_x
_atom_site_fract_y
_atom_site_fract_z
Si Si1 0.426536 0.013911 0.666199
Si Si2 0.000000 0.838802 0.750000
Si Si3 0.795877 0.884611 0.330861
Si Si4 0.899450 0.840945 0.041960
Si Si5 0.575766 0.485200 0.332089
Si Si6 0.700754 0.773759 0.649615
O O1 0.500000 0.012988 0.750000
O O2 0.574121 0.236224 0.428902
O O3 0.421163 0.264436 0.579619
O O4 0.358960 0.982368 0.808162
O O5 0.051600 0.700798 0.605434
O O6 0.951495 0.010532 0.648713
O O7 0.836069 0.735169 0.176220
O O8 0.761176 0.124176 0.260331
O O9 0.856534 0.971776 0.441560
O O10 0.736829 0.759247 0.461885
O O11 0.500000 0.487916 0.250000
O O12 0.651215 0.450478 0.211403
#
# Coordination Sequence:
#
# PCOD9238833 Si02
#       6
#     4   2   4   4   4   4
#     4   8  15  30  51  74 101 138 191 241 284 332
#     4   8  12  22  40  70 102 146 180 222 264 314
#     4   9  16  27  41  66  99 146 180 222 271 334
#     4   8  14  23  41  66 104 144 182 220 266 320
#     4   8  15  30  51  74 101 138 191 241 284 332
#     4   9  17  29  47  67  99 140 182 226 283 335
#
# _framework density 26.077452000000001
#
# number of rings (size 3 to 8) (size 9 to 14) (size 15 to 20)
#    1.091    2.545    0.000    0.000    0.000    0.000 
#    0.000    5.455    0.000    4.364    0.000    0.000 
#    0.000    0.000    0.000 1512.000    0.000    0.000 
#
# Total GULP energy -122553.224782 kJ/mol
# GULP energy per Si atom -5570.601126 kJ/mol
# Density = 2.601810 g / cm^3
# Si number density = 26.077452 Si / 1000 Ang^3
#
#
#
# Elastic Constant Matrix: (Units=GPa)
#
#
# Indices 1 2 3 4 5 6 
#
# 1 137.3866 7.3567 68.2586 0.0000 -1.9165 0.0000
# 2 7.3567 160.7797 23.2248 0.0000 5.2465 0.0000
# 3 68.2586 23.2248 192.7635 0.0000 -59.4755 0.0000
# 4 0.0000 0.0000 0.0000 11.8546 0.0000 3.0694
# 5 -1.9165 5.2465 -59.4755 0.0000 77.4119 0.0000
# 6 0.0000 0.0000 0.0000 3.0694 0.0000 1.4086
#
#
#
# Elastic Compliance Matrix: (Units=1/GPa)
#
#
# Indices 1 2 3 4 5 6 
#
# 1 0.009358 0.000295 -0.004304 0.000000 -0.003095 0.000000
# 2 0.000295 0.006445 -0.001328 0.000000 -0.001450 0.000000
# 3 -0.004304 -0.001328 0.009000 0.000000 0.006898 0.000000
# 4 0.000000 0.000000 0.000000 0.193573 0.000000 -0.421815
# 5 -0.003095 -0.001450 0.006898 0.000000 0.018240 0.000000
# 6 0.000000 0.000000 0.000000 -0.421815 0.000000 1.629121
#
#
# Mechanical properties :
#
#
# Convention : Reuss Voigt Hill
#
# Bulk Modulus (GPa) = 70.78139 76.51222 73.64680
# Shear Modulus (GPa) = 2.65799 44.27432 23.46616
#
# Velocity S-wave (km/s) = 1.01068 4.12491 3.00303
# Velocity P-wave (km/s) = 5.34450 7.21738 6.35036
#
# Compressibility (1/GPa) = 0.01412801
#
# Stress axis : x y z
#
# Youngs Moduli (GPa) = 106.85653 155.14941 111.10628
#
# Poissons Ratio (x) = -0.04570 0.47824
# Poissons Ratio (y) = -0.03148 0.14758
# Poissons Ratio (z) = 0.45995 0.20608
#
# Static dielectric constant tensor:
#      x y z
#    x 2.115960 0.000000 -0.086950 
#    y 0.000000 1.994320 0.000000 
#    z -0.086950 0.000000 2.080440 
# 
# From -- ./inp_files/20780.got.cif
#   From: 2010.05.17/outbox.cif.g08.bks.cpg/sg13_11_cif.got.tgz:20780.got - 2010.06.03 16:44:36.
