data_PCOD9238613
_publ_section_title
;
Structure prediction by ZEFSAII (Michael W. Deem and Ramdas Pophale) SiO2 
 PCOD9238613
Probable space group: P 2/C
;
_chemical_formula_sum "Si O2"
_cell_formula_units_Z 20
_cell_length_a 6.617356
_cell_length_b 11.019143
_cell_length_c 12.599015
_cell_angle_alpha 90.000000
_cell_angle_beta 64.589053
_cell_angle_gamma 90.000000
_cell_volume 829.809648
_symmetry_space_group_name_H-M "P 2/C"
_symmetry_group_IT_number 13
_symmetry_cell_setting 'monoclinic'
loop_
_space_group_symop_operation_xyz
x,y,z
-x,y,1/2-z
-x,-y,-z
x,-y,1/2+z
loop_
_atom_site_type_symbol
_atom_site_label
_atom_site_fract_x
_atom_site_fract_y
_atom_site_fract_z
Si Si1 0.500000 0.565159 0.250000
Si Si2 0.983272 0.347786 0.625011
Si Si3 0.226106 0.572943 0.632904
Si Si4 0.837082 0.902226 0.482303
Si Si5 0.000000 0.032590 0.250000
Si Si6 0.600005 0.803768 0.833574
O O1 0.279427 0.636402 0.337480
O O2 0.598250 0.493179 0.328854
O O3 0.000000 0.327137 0.750000
O O4 0.133072 0.469908 0.574119
O O5 0.074728 0.235756 0.537677
O O6 0.333430 0.705107 0.592011
O O7 0.000000 0.601291 0.750000
O O8 0.857326 0.947245 0.357705
O O9 0.413769 0.105246 0.419510
O O10 0.000000 0.000000 0.500000
O O11 0.184414 0.123177 0.255527
O O12 0.500000 0.743036 0.750000
#
# Coordination Sequence:
#
# PCOD9238613 Si02
#       6
#     2   4   4   4   2   4
#     4   8  16  34  66  94 130 178 210 282 338 410
#     4   9  20  40  66  97 138 177 228 281 347 414
#     4   9  18  37  68  98 133 178 225 289 352 398
#     4  12  26  46  71 102 139 193 235 284 356 416
#     4  12  26  50  66  98 142 184 238 294 344 426
#     4  12  24  43  72 101 141 182 235 295 350 423
#
# _framework density 24.101913
#
# number of rings (size 3 to 8) (size 9 to 14) (size 15 to 20)
#    0.000    2.000    5.000    0.600    0.000    2.400 
#    7.200    1.000    0.000    0.000    0.000    0.000 
#    0.000    0.000    0.000    0.000    0.000    0.000 
#
# Total GULP energy -111630.966896 kJ/mol
# GULP energy per Si atom -5581.548345 kJ/mol
# Density = 2.404706 g / cm^3
# Si number density = 24.101913 Si / 1000 Ang^3
#
#
#
# Elastic Constant Matrix: (Units=GPa)
#
#
# Indices 1 2 3 4 5 6 
#
# 1 158.2386 54.2700 39.1960 0.0000 -30.8626 0.0000
# 2 54.2700 129.7462 25.8806 0.0000 -15.8626 0.0000
# 3 39.1960 25.8806 59.0932 0.0000 -17.4012 0.0000
# 4 0.0000 0.0000 0.0000 33.7269 0.0000 0.4487
# 5 -30.8626 -15.8626 -17.4012 0.0000 37.8403 0.0000
# 6 0.0000 0.0000 0.0000 0.4487 0.0000 8.0172
#
#
#
# Elastic Compliance Matrix: (Units=1/GPa)
#
#
# Indices 1 2 3 4 5 6 
#
# 1 0.008937 -0.002476 -0.003473 0.000000 0.004654 0.000000
# 2 -0.002476 0.009282 -0.002165 0.000000 0.000876 0.000000
# 3 -0.003473 -0.002165 0.022060 0.000000 0.006405 0.000000
# 4 0.000000 0.000000 0.000000 0.029672 0.000000 -0.001661
# 5 0.004654 0.000876 0.006405 0.000000 0.033535 0.000000
# 6 0.000000 0.000000 0.000000 -0.001661 0.000000 0.124825
#
#
# Mechanical properties :
#
#
# Convention : Reuss Voigt Hill
#
# Bulk Modulus (GPa) = 41.57819 65.08569 53.33194
# Shear Modulus (GPa) = 19.79764 31.09897 25.44831
#
# Velocity S-wave (km/s) = 2.86914 3.59599 3.25293
# Velocity P-wave (km/s) = 5.31643 6.65616 6.02366
#
# Compressibility (1/GPa) = 0.02405107
#
# Stress axis : x y z
#
# Youngs Moduli (GPa) = 111.89774 107.73492 45.33112
#
# Poissons Ratio (x) = 0.26679 0.15742
# Poissons Ratio (y) = 0.27710 0.09813
# Poissons Ratio (z) = 0.38859 0.23322
#
# Static dielectric constant tensor:
#      x y z
#    x 1.949070 0.000000 0.057650 
#    y 0.000000 1.945500 0.000000 
#    z 0.057650 0.000000 2.057240 
# 
# From -- ./inp_files/60837.got.cif
#   From: 2010.05.17/outbox.cif.g08.bks.cpg/sg13_31_cif.got.tgz:60837.got - 2010.06.03 16:44:36.
