data_PCOD9238967
_publ_section_title
;
Structure prediction by ZEFSAII (Michael W. Deem and Ramdas Pophale) SiO2 
 PCOD9238967
Probable space group: P 2/C
;
_chemical_formula_sum "Si O2"
_cell_formula_units_Z 32
_cell_length_a 15.000000
_cell_length_b 9.000000
_cell_length_c 24.000000
_cell_angle_alpha 90.000000
_cell_angle_beta 30.000000
_cell_angle_gamma 90.000000
_cell_volume 1620.000000
_symmetry_space_group_name_H-M "P 2/C"
_symmetry_group_IT_number 13
_symmetry_cell_setting 'monoclinic'
loop_
_space_group_symop_operation_xyz
x,y,z
-x,y,1/2-z
-x,-y,-z
x,-y,1/2+z
loop_
_atom_site_type_symbol
_atom_site_label
_atom_site_fract_x
_atom_site_fract_y
_atom_site_fract_z
Si Si1 0.020626 0.307747 0.046805
Si Si2 0.114541 0.705628 0.243040
Si Si3 0.813481 0.627241 0.833727
Si Si4 0.017959 0.652980 0.061268
Si Si5 0.439143 0.400799 0.347262
Si Si6 0.559200 0.087745 0.912477
Si Si7 0.663249 0.678718 0.034063
Si Si8 0.687263 0.205721 0.291856
O O1 0.959640 0.480158 0.087231
O O2 0.866303 0.214016 0.158860
O O3 0.189221 0.290035 0.997629
O O4 0.034983 0.281129 0.971692
O O5 0.142160 0.530825 0.217523
O O6 0.300622 0.790657 0.142356
O O7 0.000000 0.756069 0.250000
O O8 0.046581 0.719871 0.344322
O O9 0.713093 0.716159 0.839026
O O10 0.000000 0.705886 0.750000
O O11 0.727178 0.600203 0.941456
O O12 0.231333 0.642145 0.953857
O O13 0.500000 0.407548 0.250000
O O14 0.460910 0.560380 0.366453
O O15 0.540346 0.286040 0.332770
O O16 0.418565 0.173858 0.949297
O O17 0.644395 0.963278 0.827640
O O18 0.500000 0.000000 0.000000
#
# Coordination Sequence:
#
# PCOD9238967 Si02
#       8
#     4   4   4   4   4   4   4   4
#     4  10  20  40  70  97 127 169 217 281 331 409
#     4  11  24  42  67  96 130 171 223 284 335 395
#     4  11  20  38  68  99 123 163 225 282 337 384
#     4  10  21  40  69 103 123 162 225 276 346 388
#     4  11  23  41  72 103 130 166 217 287 339 391
#     4  12  29  42  59  98 139 184 222 269 336 405
#     4  11  24  40  67 100 131 171 224 277 336 390
#     4  12  23  42  65  93 138 174 218 269 341 401
#
# _framework density 19.753086
#
# number of rings (size 3 to 8) (size 9 to 14) (size 15 to 20)
#    0.000    1.000    5.000    3.000    3.500    2.500 
#    0.000    2.500    0.000    0.000    0.000    0.000 
#    0.000    0.000    0.000    0.000    0.000    0.000 
#
# Total GULP energy -178368.693621 kJ/mol
# GULP energy per Si atom -5574.021676 kJ/mol
# Density = 1.970813 g / cm^3
# Si number density = 19.753086 Si / 1000 Ang^3
#
#
#
# Elastic Constant Matrix: (Units=GPa)
#
#
# Indices 1 2 3 4 5 6 
#
# 1 182.9257 32.8292 35.5304 0.0000 26.4837 0.0000
# 2 32.8292 36.7545 10.5930 0.0000 -8.3460 0.0000
# 3 35.5304 10.5930 62.0676 0.0000 18.9286 0.0000
# 4 0.0000 0.0000 0.0000 -6.4285 0.0000 35.6411
# 5 26.4837 -8.3460 18.9286 0.0000 35.3403 0.0000
# 6 0.0000 0.0000 0.0000 35.6411 0.0000 -17.9690
#
#
#
# Elastic Compliance Matrix: (Units=1/GPa)
#
#
# Indices 1 2 3 4 5 6 
#
# 1 0.008422 -0.009108 -0.000820 0.000000 -0.008023 0.000000
# 2 -0.009108 0.042730 -0.008651 0.000000 0.021550 0.000000
# 3 -0.000820 -0.008651 0.022103 0.000000 -0.013267 0.000000
# 4 0.000000 0.000000 0.000000 0.015561 0.000000 0.030864
# 5 -0.008023 0.021550 -0.013267 0.000000 0.046504 0.000000
# 6 0.000000 0.000000 0.000000 0.030864 0.000000 0.005567
#
#
# Mechanical properties :
#
#
# Convention : Reuss Voigt Hill
#
# Bulk Modulus (GPa) = 27.70276 48.85034 38.27655
# Shear Modulus (GPa) = 26.30500 15.70826 21.00663
#
# Velocity S-wave (km/s) = 3.65319 2.82304 3.26461
# Velocity P-wave (km/s) = 5.64353 5.95065 5.79912
#
# Compressibility (1/GPa) = 0.03609748
#
# Stress axis : x y z
#
# Youngs Moduli (GPa) = 118.73342 23.40277 45.24211
#
# Poissons Ratio (x) = 0.21316 0.03709
# Poissons Ratio (y) = 1.08147 0.39138
# Poissons Ratio (z) = 0.09734 0.20245
#
# Static dielectric constant tensor:
#      x y z
#    x 1.704490 0.000000 -0.029120 
#    y 0.000000 1.746330 0.000000 
#    z -0.029120 0.000000 1.790910 
# 
# From -- ./inp_files/87392.got.cif
#   From: 2010.05.17/outbox.ucp.g08.bks.cvg/sg13_44_cif.got.tgz:87392.got - 2010.06.11 12:23:55.
