data_PCOD9238997
_publ_section_title
;
Structure prediction by ZEFSAII (Michael W. Deem and Ramdas Pophale) SiO2 
 PCOD9238997
Probable space group: P 2/C
;
_chemical_formula_sum "Si O2"
_cell_formula_units_Z 26
_cell_length_a 24.000000
_cell_length_b 9.000000
_cell_length_c 18.000000
_cell_angle_alpha 90.000000
_cell_angle_beta 20.000000
_cell_angle_gamma 90.000000
_cell_volume 1329.774317
_symmetry_space_group_name_H-M "P 2/C"
_symmetry_group_IT_number 13
_symmetry_cell_setting 'monoclinic'
loop_
_space_group_symop_operation_xyz
x,y,z
-x,y,1/2-z
-x,-y,-z
x,-y,1/2+z
loop_
_atom_site_type_symbol
_atom_site_label
_atom_site_fract_x
_atom_site_fract_y
_atom_site_fract_z
Si Si1 0.612005 0.852302 0.492214
Si Si2 0.500000 0.381580 0.250000
Si Si3 0.000000 0.698900 0.750000
Si Si4 0.118965 0.128077 0.244389
Si Si5 0.416193 0.284495 0.101806
Si Si6 0.500000 0.929570 0.250000
Si Si7 0.650097 0.549047 0.203806
Si Si8 0.864009 0.089814 0.115867
O O1 0.615866 0.723459 0.551683
O O2 0.532339 0.791719 0.517133
O O3 0.499556 0.972145 0.675514
O O4 0.768718 0.944496 0.268308
O O5 0.592670 0.479717 0.196506
O O6 0.970335 0.791180 0.711348
O O7 0.167570 0.608834 0.531059
O O8 0.098296 0.182745 0.355886
O O9 0.315497 0.136790 0.983687
O O10 0.021442 0.969205 0.373701
O O11 0.352773 0.427324 0.226572
O O12 0.266111 0.179755 0.268728
O O13 0.519410 0.330525 0.899146
#
# Coordination Sequence:
#
# PCOD9238997 Si02
#       8
#     4   2   2   4   4   2   4   4
#     4   9  18  36  65  95 121 156 200 258 315 367
#     4   9  20  41  64  88 125 164 207 258 300 377
#     4  12  26  40  58  94 126 166 214 268 292 372
#     4  10  24  39  60  94 128 157 208 258 318 370
#     4  10  21  40  67  89 124 168 210 249 299 385
#     4   9  20  37  60  94 121 166 191 250 340 359
#     4  10  24  42  61  92 123 175 215 241 305 364
#     4  10  21  40  63  99 122 160 201 258 323 370
#
# _framework density 19.55219
#
# number of rings (size 3 to 8) (size 9 to 14) (size 15 to 20)
#    0.000    2.154    0.000    1.385    8.615    0.000 
#   13.846    0.769    0.000    0.000    0.000    0.000 
#    0.000    0.000    0.000    0.000    0.000    0.000 
#
# Total GULP energy -144738.114728 kJ/mol
# GULP energy per Si atom -5566.850566 kJ/mol
# Density = 1.950769 g / cm^3
# Si number density = 19.552190 Si / 1000 Ang^3
#
#
#
# Elastic Constant Matrix: (Units=GPa)
#
#
# Indices 1 2 3 4 5 6 
#
# 1 139.0720 48.0264 38.0284 0.0000 -4.7588 0.0000
# 2 48.0264 56.0095 36.2963 0.0000 -12.4922 0.0000
# 3 38.0284 36.2963 104.5887 0.0000 -12.7843 0.0000
# 4 0.0000 0.0000 0.0000 18.9106 0.0000 -2.6668
# 5 -4.7588 -12.4922 -12.7843 0.0000 26.0158 0.0000
# 6 0.0000 0.0000 0.0000 -2.6668 0.0000 29.3194
#
#
#
# Elastic Compliance Matrix: (Units=1/GPa)
#
#
# Indices 1 2 3 4 5 6 
#
# 1 0.010466 -0.008934 -0.001059 0.000000 -0.002896 0.000000
# 2 -0.008934 0.032160 -0.006622 0.000000 0.010554 0.000000
# 3 -0.001059 -0.006622 0.012588 0.000000 0.002812 0.000000
# 4 0.000000 0.000000 0.000000 0.053568 0.000000 0.004872
# 5 -0.002896 0.010554 0.002812 0.000000 0.044358 0.000000
# 6 0.000000 0.000000 0.000000 0.004872 0.000000 0.034550
#
#
# Mechanical properties :
#
#
# Convention : Reuss Voigt Hill
#
# Bulk Modulus (GPa) = 45.48774 60.48583 52.98678
# Shear Modulus (GPa) = 21.90578 26.67042 24.28810
#
# Velocity S-wave (km/s) = 3.35083 3.69733 3.52834
# Velocity P-wave (km/s) = 6.18757 7.01639 6.61497
#
# Compressibility (1/GPa) = 0.02198395
#
# Stress axis : x y z
#
# Youngs Moduli (GPa) = 95.54510 31.09420 79.43886
#
# Poissons Ratio (x) = 0.27780 0.08413
# Poissons Ratio (y) = 0.85361 0.52607
# Poissons Ratio (z) = 0.10119 0.20592
#
# Static dielectric constant tensor:
#      x y z
#    x 1.681850 0.000000 -0.006380 
#    y 0.000000 1.774280 0.000000 
#    z -0.006380 0.000000 1.689900 
# 
# From -- ./inp_files/71294.got.cif
#   From: 2010.05.17/outbox.ucp.g08.bks.cvg/sg13_36_cif.got.tgz:71294.got - 2010.06.11 12:23:55.
