data_PCOD9238289
_publ_section_title
;
Structure prediction by ZEFSAII (Michael W. Deem and Ramdas Pophale) SiO2 
 PCOD9238289
Probable space group: P 2/C
;
_chemical_formula_sum "Si O2"
_cell_formula_units_Z 16
_cell_length_a 9.654205
_cell_length_b 7.188982
_cell_length_c 15.309982
_cell_angle_alpha 90.000000
_cell_angle_beta 142.167705
_cell_angle_gamma 90.000000
_cell_volume 651.731350
_symmetry_space_group_name_H-M "P 2/C"
_symmetry_group_IT_number 13
_symmetry_cell_setting 'monoclinic'
loop_
_space_group_symop_operation_xyz
x,y,z
-x,y,1/2-z
-x,-y,-z
x,-y,1/2+z
loop_
_atom_site_type_symbol
_atom_site_label
_atom_site_fract_x
_atom_site_fract_y
_atom_site_fract_z
Si Si1 0.887734 0.675615 0.285544
Si Si2 0.741874 0.190544 0.392676
Si Si3 0.034599 0.259570 0.171975
Si Si4 0.569679 0.797961 0.378138
O O1 0.064353 0.714155 0.452405
O O2 0.834660 0.454732 0.256633
O O3 0.000000 0.722418 0.250000
O O4 0.655170 0.786772 0.178222
O O5 0.500000 0.285747 0.250000
O O6 0.143532 0.848701 0.644863
O O7 0.664070 0.004696 0.405275
O O8 0.000000 0.169244 0.250000
O O9 0.778737 0.312171 0.019957
O O10 0.500000 0.719880 0.250000
#
# Coordination Sequence:
#
# PCOD9238289 Si02
#       4
#     4   4   4   4
#     4  11  27  45  72 109 139 183 236 285 352 420
#     4  11  26  45  70 103 143 186 231 287 348 413
#     4  11  26  45  73 106 141 181 236 289 352 411
#     4  11  25  46  70 101 143 185 236 282 345 421
#
# _framework density 24.549990999999999
#
# number of rings (size 3 to 8) (size 9 to 14) (size 15 to 20)
#    0.000    1.000    2.500    1.500   10.500    4.000 
#    0.000    0.000    0.000    0.000    0.000    0.000 
#    0.000    0.000    0.000    0.000    0.000    0.000 
#
# Total GULP energy -89470.435637 kJ/mol
# GULP energy per Si atom -5591.902227 kJ/mol
# Density = 2.449411 g / cm^3
# Si number density = 24.549991 Si / 1000 Ang^3
#
#
#
# Elastic Constant Matrix: (Units=GPa)
#
#
# Indices 1 2 3 4 5 6 
#
# 1 201.0688 17.1819 17.2900 0.0000 14.9941 0.0000
# 2 17.1819 98.4381 -29.6893 0.0000 8.5856 0.0000
# 3 17.2900 -29.6893 67.9123 0.0000 15.2102 0.0000
# 4 0.0000 0.0000 0.0000 42.6126 0.0000 10.7359
# 5 14.9941 8.5856 15.2102 0.0000 50.5310 0.0000
# 6 0.0000 0.0000 0.0000 10.7359 0.0000 -11.3791
#
#
#
# Elastic Compliance Matrix: (Units=1/GPa)
#
#
# Indices 1 2 3 4 5 6 
#
# 1 0.005305 -0.001393 -0.001780 0.000000 -0.000802 0.000000
# 2 -0.001393 0.012783 0.006795 0.000000 -0.003804 0.000000
# 3 -0.001780 0.006795 0.019611 0.000000 -0.006529 0.000000
# 4 0.000000 0.000000 0.000000 0.018960 0.000000 0.017889
# 5 -0.000802 -0.003804 -0.006529 0.000000 0.022639 0.000000
# 6 0.000000 0.000000 0.000000 0.017889 0.000000 -0.071003
#
#
# Mechanical properties :
#
#
# Convention : Reuss Voigt Hill
#
# Bulk Modulus (GPa) = 22.25044 41.88717 32.06880
# Shear Modulus (GPa) = 311.85104 40.52868 176.18986
#
# Velocity S-wave (km/s) = 11.28285 4.06749 8.48078
# Velocity P-wave (km/s) = 13.37236 6.25766 10.43979
#
# Compressibility (1/GPa) = 0.04494293
#
# Stress axis : x y z
#
# Youngs Moduli (GPa) = 188.49019 78.22920 50.99188
#
# Poissons Ratio (x) = 0.10897 0.09077
# Poissons Ratio (y) = 0.26256 -0.34649
# Poissons Ratio (z) = 0.33553 -0.53156
#
# Static dielectric constant tensor:
#      x y z
#    x 1.925440 0.000000 -0.011310 
#    y 0.000000 2.004810 0.000000 
#    z -0.011310 0.000000 1.919100 
# 
# From -- ./inp_files/66193.got.cif
#   From: 2010.05.17/outbox.cif.g08.bks.cpg/sg13_34_cif.got.tgz:66193.got - 2010.06.03 16:44:36.
