data_PCOD9238157
_publ_section_title
;
Structure prediction by ZEFSAII (Michael W. Deem and Ramdas Pophale) SiO2 
 PCOD9238157
Probable space group: P 2/C
;
_chemical_formula_sum "Si O2"
_cell_formula_units_Z 30
_cell_length_a 20.653936
_cell_length_b 11.271112
_cell_length_c 11.657006
_cell_angle_alpha 90.000000
_cell_angle_beta 31.177358
_cell_angle_gamma 90.000000
_cell_volume 1404.835606
_symmetry_space_group_name_H-M "P 2/C"
_symmetry_group_IT_number 13
_symmetry_cell_setting 'monoclinic'
loop_
_space_group_symop_operation_xyz
x,y,z
-x,y,1/2-z
-x,-y,-z
x,-y,1/2+z
loop_
_atom_site_type_symbol
_atom_site_label
_atom_site_fract_x
_atom_site_fract_y
_atom_site_fract_z
Si Si1 0.992711 0.788352 0.887967
Si Si2 0.267917 0.811789 0.535587
Si Si3 0.414719 0.886183 0.095385
Si Si4 0.631768 0.270327 0.173605
Si Si5 0.500000 0.471621 0.250000
Si Si6 0.319923 0.629887 0.652364
Si Si7 0.780126 0.923520 0.307482
Si Si8 0.068039 0.476413 0.021539
O O1 0.914840 0.666127 0.001765
O O2 0.000000 0.840467 0.750000
O O3 0.133398 0.756782 0.708911
O O4 0.921345 0.881921 0.073924
O O5 0.362353 0.820214 0.286550
O O6 0.321106 0.735806 0.558560
O O7 0.238235 0.946918 0.614053
O O8 0.297245 0.921359 0.194598
O O9 0.500614 0.796689 0.893557
O O10 0.500000 0.000000 0.000000
O O11 0.607695 0.386409 0.134876
O O12 0.679489 0.313460 0.223690
O O13 0.719951 0.174678 0.981175
O O14 0.440739 0.550418 0.440320
O O15 0.196055 0.550010 0.826637
O O16 0.000000 0.503331 0.250000
O O17 0.000000 0.500000 0.000000
#
# Coordination Sequence:
#
# PCOD9238157 Si02
#       8
#     4   4   4   4   2   4   4   4
#     4  11  24  46  71 100 137 186 240 294 366 430
#     4  12  26  45  71 105 144 186 239 300 360 434
#     4  12  24  45  72 102 143 189 237 288 359 441
#     4  12  26  45  72 108 140 193 237 299 364 433
#     4  12  26  48  70 106 148 186 244 296 368 432
#     4  12  28  45  73 106 149 188 245 305 364 432
#     4  12  25  45  73 103 142 187 239 300 361 439
#     4  11  26  47  74 105 141 193 246 301 367 441
#
# _framework density 21.354811000000002
#
# number of rings (size 3 to 8) (size 9 to 14) (size 15 to 20)
#    0.000    0.267    5.333    3.200    3.733    1.067 
#    0.000    0.667    0.000    0.000    0.000    0.000 
#    0.000    0.000    0.000    0.000    0.000    0.000 
#
# Total GULP energy -167822.349657 kJ/mol
# GULP energy per Si atom -5594.078322 kJ/mol
# Density = 2.130621 g / cm^3
# Si number density = 21.354811 Si / 1000 Ang^3
#
#
#
# Elastic Constant Matrix: (Units=GPa)
#
#
# Indices 1 2 3 4 5 6 
#
# 1 73.9602 3.4738 2.1696 0.0000 16.1745 0.0000
# 2 3.4738 92.6625 36.8699 0.0000 17.2354 0.0000
# 3 2.1696 36.8699 94.7349 0.0000 19.6243 0.0000
# 4 0.0000 0.0000 0.0000 7.8409 0.0000 3.7430
# 5 16.1745 17.2354 19.6243 0.0000 34.7031 0.0000
# 6 0.0000 0.0000 0.0000 3.7430 0.0000 29.4822
#
#
#
# Elastic Compliance Matrix: (Units=1/GPa)
#
#
# Indices 1 2 3 4 5 6 
#
# 1 0.015205 0.000464 0.001118 0.000000 -0.007949 0.000000
# 2 0.000464 0.013293 -0.004272 0.000000 -0.004402 0.000000
# 3 0.001118 -0.004272 0.013435 0.000000 -0.005997 0.000000
# 4 0.000000 0.000000 0.000000 0.135764 0.000000 -0.017236
# 5 -0.007949 -0.004402 -0.005997 0.000000 0.038098 0.000000
# 6 0.000000 0.000000 0.000000 -0.017236 0.000000 0.036107
#
#
# Mechanical properties :
#
#
# Convention : Reuss Voigt Hill
#
# Bulk Modulus (GPa) = 27.35844 38.48713 32.92278
# Shear Modulus (GPa) = 18.55511 28.99485 23.77498
#
# Velocity S-wave (km/s) = 2.95090 3.68879 3.34028
# Velocity P-wave (km/s) = 4.94465 6.01703 5.50701
#
# Compressibility (1/GPa) = 0.03655180
#
# Stress axis : x y z
#
# Youngs Moduli (GPa) = 65.76946 75.22635 74.43188
#
# Poissons Ratio (x) = -0.03488 -0.08321
# Poissons Ratio (y) = -0.03050 0.31799
# Poissons Ratio (z) = -0.07353 0.32139
#
# Static dielectric constant tensor:
#      x y z
#    x 1.786280 0.000000 -0.012210 
#    y 0.000000 1.755010 0.000000 
#    z -0.012210 0.000000 1.753400 
# 
# From -- ./inp_files/40869.got.cif
#   From: 2010.05.17/outbox.cif.g08.bks.cpg/sg13_21_cif.got.tgz:40869.got - 2010.06.03 16:44:36.
