data_PCOD9238978
_publ_section_title
;
Structure prediction by ZEFSAII (Michael W. Deem and Ramdas Pophale) SiO2 
 PCOD9238978
Probable space group: P 2/C
;
_chemical_formula_sum "Si O2"
_cell_formula_units_Z 32
_cell_length_a 12.000000
_cell_length_b 9.000000
_cell_length_c 30.000000
_cell_angle_alpha 90.000000
_cell_angle_beta 150.000000
_cell_angle_gamma 90.000000
_cell_volume 1620.000000
_symmetry_space_group_name_H-M "P 2/C"
_symmetry_group_IT_number 13
_symmetry_cell_setting 'monoclinic'
loop_
_space_group_symop_operation_xyz
x,y,z
-x,y,1/2-z
-x,-y,-z
x,-y,1/2+z
loop_
_atom_site_type_symbol
_atom_site_label
_atom_site_fract_x
_atom_site_fract_y
_atom_site_fract_z
Si Si1 0.846484 0.428789 0.408163
Si Si2 0.494530 0.590781 0.855992
Si Si3 0.026875 0.442625 0.708134
Si Si4 0.881640 0.068597 0.568275
Si Si5 0.742118 0.092810 0.356781
Si Si6 0.851720 0.574463 0.055699
Si Si7 0.535763 0.948042 0.875809
Si Si8 0.941964 0.914903 0.279448
O O1 0.606526 0.450393 0.347483
O O2 0.860201 0.251411 0.406238
O O3 0.000000 0.500000 0.500000
O O4 0.930485 0.505082 0.392456
O O5 0.256131 0.518254 0.774029
O O6 0.489583 0.770394 0.857382
O O7 0.644890 0.538608 0.950796
O O8 0.047414 0.263872 0.716525
O O9 0.000000 0.492579 0.750000
O O10 0.849444 0.474730 0.606827
O O11 0.896158 0.028182 0.625293
O O12 0.876722 0.247384 0.563280
O O13 0.668493 0.014724 0.466798
O O14 0.099874 0.005754 0.619270
O O15 0.500000 0.116976 0.250000
O O16 0.691304 0.019781 0.387073
O O17 0.305439 0.033796 0.794107
O O18 0.000000 0.968409 0.250000
#
# Coordination Sequence:
#
# PCOD9238978 Si02
#       8
#     4   4   4   4   4   4   4   4
#     4   9  20  36  55  84 115 144 178 224 275 334
#     4   9  20  37  55  81 111 141 183 227 280 333
#     4  10  22  37  55  78 108 146 188 232 279 329
#     4  10  21  39  58  84 116 151 188 232 289 340
#     4  11  21  35  59  88 118 149 187 234 281 337
#     4   9  20  37  57  80 112 147 182 230 280 337
#     4  10  21  37  58  81 114 148 182 234 284 338
#     4  10  22  40  57  81 113 147 193 239 282 339
#
# _framework density 19.753086
#
# number of rings (size 3 to 8) (size 9 to 14) (size 15 to 20)
#    0.000    2.250    1.250    1.125    3.500    4.500 
#    0.000    0.000    0.000    0.000    0.000    0.000 
#    0.000    0.000    0.000    0.000    0.000    0.000 
#
# Total GULP energy -178409.664710 kJ/mol
# GULP energy per Si atom -5575.302022 kJ/mol
# Density = 1.970813 g / cm^3
# Si number density = 19.753086 Si / 1000 Ang^3
#
#
#
# Elastic Constant Matrix: (Units=GPa)
#
#
# Indices 1 2 3 4 5 6 
#
# 1 58.2690 -7.4337 1.6220 0.0000 -32.5881 0.0000
# 2 -7.4337 -10.5125 2.0178 0.0000 -6.1305 0.0000
# 3 1.6220 2.0178 71.3422 0.0000 -30.1873 0.0000
# 4 0.0000 0.0000 0.0000 26.8516 0.0000 3.7355
# 5 -32.5881 -6.1305 -30.1873 0.0000 35.5080 0.0000
# 6 0.0000 0.0000 0.0000 3.7355 0.0000 18.2380
#
#
#
# Elastic Compliance Matrix: (Units=1/GPa)
#
#
# Indices 1 2 3 4 5 6 
#
# 1 0.031008 -0.039131 0.014970 0.000000 0.034428 0.000000
# 2 -0.039131 -0.035405 -0.024820 0.000000 -0.063127 0.000000
# 3 0.014970 -0.024820 0.028705 0.000000 0.033857 0.000000
# 4 0.000000 0.000000 0.000000 0.038334 0.000000 -0.007852
# 5 0.034428 -0.063127 0.033857 0.000000 0.077645 0.000000
# 6 0.000000 0.000000 0.000000 -0.007852 0.000000 0.056439
#
#
# Mechanical properties :
#
#
# Convention : Reuss Voigt Hill
#
# Bulk Modulus (GPa) = -13.57685 12.39008 -0.59338
# Shear Modulus (GPa) = 18.50923 24.31236 21.41080
#
# Velocity S-wave (km/s) = 3.06442 3.51210 3.29587
# Velocity P-wave (km/s) = 2.37332 4.76787 3.76598
#
# Compressibility (1/GPa) = -0.07365480
#
# Stress axis : x y z
#
# Youngs Moduli (GPa) = 32.25000 -28.24473 34.83766
#
# Poissons Ratio (x) = -1.10524 -0.52151
# Poissons Ratio (y) = 1.26197 0.86467
# Poissons Ratio (z) = -0.48277 -0.70103
#
# Static dielectric constant tensor:
#      x y z
#    x 1.728110 0.000000 -0.044760 
#    y 0.000000 1.667370 0.000000 
#    z -0.044760 0.000000 1.716530 
# 
# From -- ./inp_files/96728.got.cif
#   From: 2010.05.17/outbox.ucp.g08.bks.cvg/sg13_49_cif.got.tgz:96728.got - 2010.06.11 12:23:55.
