data_PCOD9238277
_publ_section_title
;
Structure prediction by ZEFSAII (Michael W. Deem and Ramdas Pophale) SiO2 
 PCOD9238277
Probable space group: P 2/C
;
_chemical_formula_sum "Si O2"
_cell_formula_units_Z 12
_cell_length_a 5.463550
_cell_length_b 4.955855
_cell_length_c 18.028889
_cell_angle_alpha 90.000000
_cell_angle_beta 63.611614
_cell_angle_gamma 90.000000
_cell_volume 437.294931
_symmetry_space_group_name_H-M "P 2/C"
_symmetry_group_IT_number 13
_symmetry_cell_setting 'monoclinic'
loop_
_space_group_symop_operation_xyz
x,y,z
-x,y,1/2-z
-x,-y,-z
x,-y,1/2+z
loop_
_atom_site_type_symbol
_atom_site_label
_atom_site_fract_x
_atom_site_fract_y
_atom_site_fract_z
Si Si1 0.132077 0.549611 0.628543
Si Si2 0.207866 0.956195 0.323475
Si Si3 0.635911 0.793041 0.041529
O O1 0.183673 0.597238 0.533823
O O2 0.411406 0.399570 0.611817
O O3 0.891023 0.344865 0.680095
O O4 0.032235 0.840509 0.667690
O O5 0.500000 0.023676 0.250000
O O6 0.229930 0.958088 0.410111
O O7 0.500000 0.000000 0.000000
#
# Coordination Sequence:
#
# PCOD9238277 Si02
#       3
#     4   4   4
#     4  11  25  46  71 100 138 182 235 284 341 423
#     4  12  27  46  68 104 146 181 226 291 357 411
#     4  11  25  45  75 102 132 187 240 284 340 414
#
# _framework density 27.441435999999999
#
# number of rings (size 3 to 8) (size 9 to 14) (size 15 to 20)
#    0.000    0.667    3.333    3.000    9.333    1.333 
#    6.000    0.000    0.000    0.000    0.000    0.000 
#    0.000    0.000    0.000    0.000    0.000    0.000 
#
# Total GULP energy -67250.915031 kJ/mol
# GULP energy per Si atom -5604.242919 kJ/mol
# Density = 2.737898 g / cm^3
# Si number density = 27.441436 Si / 1000 Ang^3
#
#
#
# Elastic Constant Matrix: (Units=GPa)
#
#
# Indices 1 2 3 4 5 6 
#
# 1 57.5440 17.6034 18.6531 0.0000 19.2456 0.0000
# 2 17.6034 142.4785 16.9785 0.0000 -12.6702 0.0000
# 3 18.6531 16.9785 152.9449 0.0000 -16.9493 0.0000
# 4 0.0000 0.0000 0.0000 24.3853 0.0000 -30.6555
# 5 19.2456 -12.6702 -16.9493 0.0000 62.0405 0.0000
# 6 0.0000 0.0000 0.0000 -30.6555 0.0000 36.9771
#
#
#
# Elastic Compliance Matrix: (Units=1/GPa)
#
#
# Indices 1 2 3 4 5 6 
#
# 1 0.022214 -0.003101 -0.003299 0.000000 -0.008425 0.000000
# 2 -0.003101 0.007645 -0.000197 0.000000 0.002469 0.000000
# 3 -0.003299 -0.000197 0.007292 0.000000 0.002975 0.000000
# 4 0.000000 0.000000 0.000000 -0.971417 0.000000 -0.805345
# 5 -0.008425 0.002469 0.002975 0.000000 0.020049 0.000000
# 6 0.000000 0.000000 0.000000 -0.805345 0.000000 -0.640620
#
#
# Mechanical properties :
#
#
# Convention : Reuss Voigt Hill
#
# Bulk Modulus (GPa) = 41.73929 51.04860 46.39395
# Shear Modulus (GPa) = -3.26018 44.66274 20.70128
#
# Velocity S-wave (km/s) = -1.09116 4.03869 2.74958
# Velocity P-wave (km/s) = 3.69538 6.35540 5.19841
#
# Compressibility (1/GPa) = 0.02395824
#
# Stress axis : x y z
#
# Youngs Moduli (GPa) = 45.01732 130.80883 137.13330
#
# Poissons Ratio (x) = 0.40560 0.45236
# Poissons Ratio (y) = 0.13958 0.02699
# Poissons Ratio (z) = 0.14850 0.02575
#
# Static dielectric constant tensor:
#      x y z
#    x 2.182610 0.000000 -0.059470 
#    y 0.000000 2.063650 0.000000 
#    z -0.059470 0.000000 2.218090 
# 
# From -- ./inp_files/60034.got.cif
#   From: 2010.05.17/outbox.cif.g08.bks.cpg/sg13_31_cif.got.tgz:60034.got - 2010.06.03 16:44:36.
