data_PCOD9238864
_publ_section_title
;
Structure prediction by ZEFSAII (Michael W. Deem and Ramdas Pophale) SiO2 
 PCOD9238864
Probable space group: P 2/C
;
_chemical_formula_sum "Si O2"
_cell_formula_units_Z 16
_cell_length_a 16.899198
_cell_length_b 6.353166
_cell_length_c 13.418176
_cell_angle_alpha 90.000000
_cell_angle_beta 153.045912
_cell_angle_gamma 90.000000
_cell_volume 652.999528
_symmetry_space_group_name_H-M "P 2/C"
_symmetry_group_IT_number 13
_symmetry_cell_setting 'monoclinic'
loop_
_space_group_symop_operation_xyz
x,y,z
-x,y,1/2-z
-x,-y,-z
x,-y,1/2+z
loop_
_atom_site_type_symbol
_atom_site_label
_atom_site_fract_x
_atom_site_fract_y
_atom_site_fract_z
Si Si1 0.394512 0.055757 0.762333
Si Si2 0.350789 0.671913 0.839998
Si Si3 0.879482 0.286228 0.899002
Si Si4 0.130554 0.996424 0.802989
O O1 0.266999 0.171339 0.697535
O O2 0.369712 0.810838 0.762126
O O3 0.307860 0.069938 0.557665
O O4 0.579073 0.162015 0.998491
O O5 0.174102 0.533153 0.653433
O O6 0.500000 0.500000 0.000000
O O7 0.862723 0.188799 0.768805
O O8 0.047089 0.194238 0.145633
O O9 0.000000 0.045243 0.750000
#
# Coordination Sequence:
#
# PCOD9238864 Si02
#       4
#     4   4   4   4
#     4   9  18  36  58  86 123 159 203 262 312 366
#     4   9  18  36  59  83 118 159 203 258 316 373
#     4   9  18  36  59  85 117 160 209 258 313 370
#     4   9  18  36  58  84 125 165 205 258 307 365
#
# _framework density 24.502317000000001
#
# number of rings (size 3 to 8) (size 9 to 14) (size 15 to 20)
#    0.000    3.000    0.000    0.000    0.000    0.000 
#    0.000   51.250    0.000    0.000    0.000    0.000 
#    0.000    0.000    0.000    0.000    0.000    0.000 
#
# Total GULP energy -89224.325610 kJ/mol
# GULP energy per Si atom -5576.520351 kJ/mol
# Density = 2.444655 g / cm^3
# Si number density = 24.502317 Si / 1000 Ang^3
#
#
#
# Elastic Constant Matrix: (Units=GPa)
#
#
# Indices 1 2 3 4 5 6 
#
# 1 108.0145 40.6625 40.4750 0.0000 -39.8912 0.0000
# 2 40.6625 167.1652 62.1163 0.0000 -3.6020 0.0000
# 3 40.4750 62.1163 206.1389 0.0000 -8.2654 0.0000
# 4 0.0000 0.0000 0.0000 35.4448 0.0000 22.7285
# 5 -39.8912 -3.6020 -8.2654 0.0000 45.9829 0.0000
# 6 0.0000 0.0000 0.0000 22.7285 0.0000 37.5428
#
#
#
# Elastic Compliance Matrix: (Units=1/GPa)
#
#
# Indices 1 2 3 4 5 6 
#
# 1 0.015903 -0.002950 -0.001702 0.000000 0.013259 0.000000
# 2 -0.002950 0.007285 -0.001708 0.000000 -0.002296 0.000000
# 3 -0.001702 -0.001708 0.005676 0.000000 -0.000590 0.000000
# 4 0.000000 0.000000 0.000000 0.046115 0.000000 -0.027918
# 5 0.013259 -0.002296 -0.000590 0.000000 0.032964 0.000000
# 6 0.000000 0.000000 0.000000 -0.027918 0.000000 0.043538
#
#
# Mechanical properties :
#
#
# Convention : Reuss Voigt Hill
#
# Bulk Modulus (GPa) = 61.94188 85.31402 73.62795
# Shear Modulus (GPa) = 29.48396 46.33174 37.90785
#
# Velocity S-wave (km/s) = 3.47264 4.35318 3.93760
# Velocity P-wave (km/s) = 6.43536 7.75637 7.12654
#
# Compressibility (1/GPa) = 0.01614417
#
# Stress axis : x y z
#
# Youngs Moduli (GPa) = 62.87995 137.26929 176.17203
#
# Poissons Ratio (x) = 0.40499 0.29983
# Poissons Ratio (y) = 0.18552 0.30089
# Poissons Ratio (z) = 0.10702 0.23445
#
# Static dielectric constant tensor:
#      x y z
#    x 2.083980 0.000000 0.140180 
#    y 0.000000 1.982730 0.000000 
#    z 0.140180 0.000000 2.016550 
# 
# From -- ./inp_files/56302.got.cif
#   From: 2010.05.17/outbox.cif.g08.bks.cpg/sg13_29_cif.got.tgz:56302.got - 2010.06.03 16:44:36.
