data_PCOD9238464
_publ_section_title
;
Structure prediction by ZEFSAII (Michael W. Deem and Ramdas Pophale) SiO2 
 PCOD9238464
Probable space group: P 2/C
;
_chemical_formula_sum "Si O2"
_cell_formula_units_Z 26
_cell_length_a 12.028957
_cell_length_b 6.463536
_cell_length_c 17.816657
_cell_angle_alpha 90.000000
_cell_angle_beta 54.612189
_cell_angle_gamma 90.000000
_cell_volume 1129.316596
_symmetry_space_group_name_H-M "P 2/C"
_symmetry_group_IT_number 13
_symmetry_cell_setting 'monoclinic'
loop_
_space_group_symop_operation_xyz
x,y,z
-x,y,1/2-z
-x,-y,-z
x,-y,1/2+z
loop_
_atom_site_type_symbol
_atom_site_label
_atom_site_fract_x
_atom_site_fract_y
_atom_site_fract_z
Si Si1 0.108574 0.847228 0.076296
Si Si2 0.000000 0.015014 0.250000
Si Si3 0.198643 0.730717 0.744917
Si Si4 0.124332 0.410754 0.900869
Si Si5 0.578119 0.076700 0.894440
Si Si6 0.312118 0.796334 0.445022
Si Si7 0.721140 0.462355 0.920229
O O1 0.205034 0.649222 0.038954
O O2 0.959130 0.774343 0.108699
O O3 0.109311 0.879815 0.166089
O O4 0.193018 0.034731 0.008457
O O5 0.058357 0.143665 0.295520
O O6 0.187401 0.585915 0.821644
O O7 0.190272 0.582621 0.675775
O O8 0.317065 0.900884 0.679907
O O9 0.249280 0.322572 0.899523
O O10 0.000000 0.500000 0.000000
O O11 0.460609 0.103943 0.877627
O O12 0.638588 0.296918 0.901341
O O13 0.500000 0.000000 0.000000
O O14 0.340093 0.652065 0.507262
#
# Coordination Sequence:
#
# PCOD9238464 Si02
#       7
#     4   2   4   4   4   4   4
#     4  12  23  43  76 108 145 191 248 318 377 453
#     4  12  20  44  72 108 140 174 254 320 372 428
#     4  12  26  44  75 113 145 194 255 321 378 455
#     4  12  27  48  75 106 157 204 247 311 395 472
#     4  12  24  46  79 110 145 193 259 319 373 457
#     4  12  25  46  75 109 150 204 247 310 397 462
#     4  12  21  45  76 110 139 195 255 312 374 447
#
# _framework density 23.022772
#
# number of rings (size 3 to 8) (size 9 to 14) (size 15 to 20)
#    0.000    0.000    7.692    3.692    0.000    0.000 
#    0.000    0.769    6.769    0.000    0.000    0.000 
#    0.000    0.000    0.000    0.000    0.000    0.000 
#
# Total GULP energy -144758.028357 kJ/mol
# GULP energy per Si atom -5567.616475 kJ/mol
# Density = 2.297037 g / cm^3
# Si number density = 23.022772 Si / 1000 Ang^3
#
#
#
# Elastic Constant Matrix: (Units=GPa)
#
#
# Indices 1 2 3 4 5 6 
#
# 1 167.8117 65.5962 40.6913 0.0000 -3.5549 0.0000
# 2 65.5962 122.5490 48.6009 0.0000 1.7016 0.0000
# 3 40.6913 48.6009 74.1303 0.0000 0.4102 0.0000
# 4 0.0000 0.0000 0.0000 31.1393 0.0000 3.1246
# 5 -3.5549 1.7016 0.4102 0.0000 26.4556 0.0000
# 6 0.0000 0.0000 0.0000 3.1246 0.0000 30.8183
#
#
#
# Elastic Compliance Matrix: (Units=1/GPa)
#
#
# Indices 1 2 3 4 5 6 
#
# 1 0.007810 -0.003372 -0.002083 0.000000 0.001299 0.000000
# 2 -0.003372 0.012493 -0.006333 0.000000 -0.001158 0.000000
# 3 -0.002083 -0.006333 0.018786 0.000000 -0.000164 0.000000
# 4 0.000000 0.000000 0.000000 0.032444 0.000000 -0.003289
# 5 0.001299 -0.001158 -0.000164 0.000000 0.038051 0.000000
# 6 0.000000 0.000000 0.000000 -0.003289 0.000000 0.032782
#
#
# Mechanical properties :
#
#
# Convention : Reuss Voigt Hill
#
# Bulk Modulus (GPa) = 64.46660 74.91867 69.69263
# Shear Modulus (GPa) = 29.22056 31.65614 30.43835
#
# Velocity S-wave (km/s) = 3.56645 3.71211 3.64001
# Velocity P-wave (km/s) = 6.70980 7.14036 6.92843
#
# Compressibility (1/GPa) = 0.01551191
#
# Stress axis : x y z
#
# Youngs Moduli (GPa) = 128.04261 80.04727 53.23068
#
# Poissons Ratio (x) = 0.26993 0.11090
# Poissons Ratio (y) = 0.43178 0.33710
# Poissons Ratio (z) = 0.26675 0.50693
#
# Static dielectric constant tensor:
#      x y z
#    x 1.921630 0.000000 0.025930 
#    y 0.000000 2.147770 0.000000 
#    z 0.025930 0.000000 1.609090 
# 
# From -- ./inp_files/77429.got.cif
#   From: 2010.05.17/outbox.cif.g08.bks.cpg/sg13_39_cif.got.tgz:77429.got - 2010.06.03 16:44:36.
