data_PCOD9238685
_publ_section_title
;
Structure prediction by ZEFSAII (Michael W. Deem and Ramdas Pophale) SiO2 
 PCOD9238685
Probable space group: P 2/C
;
_chemical_formula_sum "Si O2"
_cell_formula_units_Z 12
_cell_length_a 21.221333
_cell_length_b 4.830322
_cell_length_c 27.969976
_cell_angle_alpha 90.000000
_cell_angle_beta 10.261166
_cell_angle_gamma 90.000000
_cell_volume 510.729406
_symmetry_space_group_name_H-M "P 2/C"
_symmetry_group_IT_number 13
_symmetry_cell_setting 'monoclinic'
loop_
_space_group_symop_operation_xyz
x,y,z
-x,y,1/2-z
-x,-y,-z
x,-y,1/2+z
loop_
_atom_site_type_symbol
_atom_site_label
_atom_site_fract_x
_atom_site_fract_y
_atom_site_fract_z
Si Si1 0.267755 0.413484 0.341103
Si Si2 0.749308 0.933229 0.979066
Si Si3 0.222397 0.756354 0.205053
O O1 0.481814 0.159707 0.158385
O O2 0.000000 0.500000 0.500000
O O3 0.048446 0.299699 0.549669
O O4 0.521641 0.670247 0.166828
O O5 0.000000 0.823832 0.750000
O O6 0.970255 0.124567 0.850901
O O7 0.500000 0.500000 0.000000
O O8 0.500000 0.000000 0.000000
#
# Coordination Sequence:
#
# PCOD9238685 Si02
#       3
#     4   4   4
#     4  12  25  45  71 104 143 190 240 299 363 434
#     4  12  25  45  71 104 142 188 241 298 361 434
#     4  12  25  44  69 102 142 188 236 295 361 430
#
# _framework density 23.495806000000002
#
# number of rings (size 3 to 8) (size 9 to 14) (size 15 to 20)
#    0.000    0.000    0.000   11.000    0.000    2.667 
#    0.000    0.000    0.000    0.000    0.000    0.000 
#    0.000    0.000    0.000    0.000    0.000    0.000 
#
# Total GULP energy -67038.077437 kJ/mol
# GULP energy per Si atom -5586.506453 kJ/mol
# Density = 2.344233 g / cm^3
# Si number density = 23.495806 Si / 1000 Ang^3
#
#
#
# Elastic Constant Matrix: (Units=GPa)
#
#
# Indices 1 2 3 4 5 6 
#
# 1 103.9402 20.3739 54.1233 -0.0006 13.1216 0.0007
# 2 20.3739 191.1778 68.9981 -0.0001 -4.6008 0.0001
# 3 54.1233 68.9981 148.2538 -0.0003 9.5228 0.0002
# 4 -0.0006 -0.0001 -0.0003 84.2312 0.0003 -3.7947
# 5 13.1216 -4.6008 9.5228 0.0003 33.2337 -0.0004
# 6 0.0007 0.0001 0.0002 -3.7947 -0.0004 21.1258
#
#
#
# Elastic Compliance Matrix: (Units=1/GPa)
#
#
# Indices 1 2 3 4 5 6 
#
# 1 0.012300 0.000168 -0.004338 0.000000 -0.003590 0.000000
# 2 0.000168 0.006389 -0.003146 0.000000 0.001719 0.000000
# 3 -0.004338 -0.003146 0.009893 0.000000 -0.001557 0.000000
# 4 0.000000 0.000000 0.000000 0.011969 0.000000 0.002150
# 5 -0.003590 0.001719 -0.001557 0.000000 0.032192 0.000001
# 6 0.000000 0.000000 0.000000 0.002150 0.000001 0.047722
#
#
# Mechanical properties :
#
#
# Convention : Reuss Voigt Hill
#
# Bulk Modulus (GPa) = 71.67555 81.15140 76.41347
# Shear Modulus (GPa) = 35.77916 47.70990 41.74453
#
# Velocity S-wave (km/s) = 3.90653 4.51107 4.21964
# Velocity P-wave (km/s) = 7.13581 7.85791 7.50555
#
# Compressibility (1/GPa) = 0.01395176
#
# Stress axis : x y z
#
# Youngs Moduli (GPa) = 81.30025 156.50805 101.08168
#
# Poissons Ratio (x) = -0.02637 0.43852
# Poissons Ratio (y) = -0.01370 0.31797
# Poissons Ratio (z) = 0.35270 0.49232
#
# Static dielectric constant tensor:
#      x y z
#    x 1.883310 0.000000 -0.003770 
#    y 0.000000 1.833140 0.000000 
#    z -0.003770 0.000000 1.873520 
# 
# From -- ./inp_files/26980.got.cif
#   From: 2010.05.17/outbox.cif.g08.bks.cpg/sg13_14_cif.got.tgz:26980.got - 2010.06.03 16:44:36.
