data_PCOD9238256
_publ_section_title
;
Structure prediction by ZEFSAII (Michael W. Deem and Ramdas Pophale) SiO2 
 PCOD9238256
Probable space group: P 2/C
;
_chemical_formula_sum "Si O2"
_cell_formula_units_Z 16
_cell_length_a 9.638299
_cell_length_b 8.130432
_cell_length_c 17.153340
_cell_angle_alpha 90.000000
_cell_angle_beta 31.686474
_cell_angle_gamma 90.000000
_cell_volume 706.067070
_symmetry_space_group_name_H-M "P 2/C"
_symmetry_group_IT_number 13
_symmetry_cell_setting 'monoclinic'
loop_
_space_group_symop_operation_xyz
x,y,z
-x,y,1/2-z
-x,-y,-z
x,-y,1/2+z
loop_
_atom_site_type_symbol
_atom_site_label
_atom_site_fract_x
_atom_site_fract_y
_atom_site_fract_z
Si Si1 0.089626 0.810825 0.099091
Si Si2 0.589784 0.326331 0.919521
Si Si3 0.950394 0.806512 0.862648
Si Si4 0.203333 0.356707 0.386675
O O1 0.332733 0.781838 0.041872
O O2 0.856444 0.687230 0.239847
O O3 0.007402 0.999049 0.148909
O O4 0.165147 0.774038 0.974587
O O5 0.500000 0.500000 0.000000
O O6 0.353930 0.248851 0.981575
O O7 0.000000 0.756740 0.750000
O O8 0.135836 0.718531 0.835614
O O9 0.500000 0.419612 0.250000
O O10 0.000000 0.500000 0.500000
#
# Coordination Sequence:
#
# PCOD9238256 Si02
#       4
#     4   4   4   4
#     4  11  26  48  74 111 150 198 252 308 386 453
#     4  11  25  44  77 112 150 193 252 311 380 449
#     4  12  26  47  78 107 151 197 252 313 377 460
#     4  12  30  50  75 110 153 200 254 313 383 448
#
# _framework density 22.660734999999999
#
# number of rings (size 3 to 8) (size 9 to 14) (size 15 to 20)
#    0.000    0.500    2.500    4.500   17.500    0.000 
#    0.000    0.000    0.000    0.000    0.000    0.000 
#    0.000    0.000    0.000    0.000    0.000    0.000 
#
# Total GULP energy -89595.832599 kJ/mol
# GULP energy per Si atom -5599.739537 kJ/mol
# Density = 2.260916 g / cm^3
# Si number density = 22.660735 Si / 1000 Ang^3
#
#
#
# Elastic Constant Matrix: (Units=GPa)
#
#
# Indices 1 2 3 4 5 6 
#
# 1 151.6420 31.7042 49.4342 0.0000 -5.4633 0.0000
# 2 31.7042 115.2961 30.3384 0.0000 -10.6653 0.0000
# 3 49.4342 30.3384 112.6916 0.0000 -17.0265 0.0000
# 4 0.0000 0.0000 0.0000 24.1459 0.0000 -3.0746
# 5 -5.4633 -10.6653 -17.0265 0.0000 49.5860 0.0000
# 6 0.0000 0.0000 0.0000 -3.0746 0.0000 28.4453
#
#
#
# Elastic Compliance Matrix: (Units=1/GPa)
#
#
# Indices 1 2 3 4 5 6 
#
# 1 0.007899 -0.001386 -0.003170 0.000000 -0.000516 0.000000
# 2 -0.001386 0.009647 -0.001792 0.000000 0.001307 0.000000
# 3 -0.003170 -0.001792 0.011218 0.000000 0.003117 0.000000
# 4 0.000000 0.000000 0.000000 0.041993 0.000000 0.004539
# 5 -0.000516 0.001307 0.003117 0.000000 0.021462 0.000000
# 6 0.000000 0.000000 0.000000 0.004539 0.000000 0.035646
#
#
# Mechanical properties :
#
#
# Convention : Reuss Voigt Hill
#
# Bulk Modulus (GPa) = 62.23319 66.95372 64.59346
# Shear Modulus (GPa) = 34.26661 38.31229 36.28945
#
# Velocity S-wave (km/s) = 3.89287 4.11626 4.00612
# Velocity P-wave (km/s) = 6.90858 7.22508 7.06860
#
# Compressibility (1/GPa) = 0.01606860
#
# Stress axis : x y z
#
# Youngs Moduli (GPa) = 126.59866 103.66212 89.14496
#
# Poissons Ratio (x) = 0.14364 0.28259
# Poissons Ratio (y) = 0.17543 0.15972
# Poissons Ratio (z) = 0.40131 0.18573
#
# Static dielectric constant tensor:
#      x y z
#    x 1.802470 0.000000 0.011350 
#    y 0.000000 1.813060 0.000000 
#    z 0.011350 0.000000 1.925570 
# 
# From -- ./inp_files/63627.got.cif
#   From: 2010.05.17/outbox.cif.g08.bks.cpg/sg13_32_cif.got.tgz:63627.got - 2010.06.03 16:44:36.
