data_PCOD9238224
_publ_section_title
;
Structure prediction by ZEFSAII (Michael W. Deem and Ramdas Pophale) SiO2 
 PCOD9238224
Probable space group: P 2/C
;
_chemical_formula_sum "Si O2"
_cell_formula_units_Z 16
_cell_length_a 6.196640
_cell_length_b 10.258969
_cell_length_c 10.952934
_cell_angle_alpha 90.000000
_cell_angle_beta 75.012085
_cell_angle_gamma 90.000000
_cell_volume 672.602949
_symmetry_space_group_name_H-M "P 2/C"
_symmetry_group_IT_number 13
_symmetry_cell_setting 'monoclinic'
loop_
_space_group_symop_operation_xyz
x,y,z
-x,y,1/2-z
-x,-y,-z
x,-y,1/2+z
loop_
_atom_site_type_symbol
_atom_site_label
_atom_site_fract_x
_atom_site_fract_y
_atom_site_fract_z
Si Si1 0.735799 0.454721 0.904251
Si Si2 0.500000 0.260476 0.250000
Si Si3 0.500000 0.699912 0.250000
Si Si4 0.958279 0.696978 0.575348
Si Si5 0.630580 0.137217 0.487345
O O1 0.685469 0.397692 0.778148
O O2 0.880135 0.581634 0.907776
O O3 0.500000 0.500000 0.000000
O O4 0.861198 0.338165 0.956954
O O5 0.257873 0.319081 0.308886
O O6 0.539357 0.193082 0.373722
O O7 0.432080 0.787594 0.377014
O O8 0.099885 0.832027 0.559359
O O9 0.500000 0.000000 0.500000
#
# Coordination Sequence:
#
# PCOD9238224 Si02
#       5
#     4   2   2   4   4
#     4  11  24  49  79 124 171 204 273 348 417 503
#     4  12  25  53  76 118 162 218 276 324 418 486
#     4  12  25  53  78 126 160 212 282 338 426 490
#     4  11  25  50  80 121 165 221 266 344 424 494
#     4  12  28  52  81 115 164 218 283 343 410 496
#
# _framework density 23.788181000000002
#
# number of rings (size 3 to 8) (size 9 to 14) (size 15 to 20)
#    0.000    0.500    5.000    1.500    0.000    8.000 
#    4.500    2.500    0.000    0.000    0.000    0.000 
#    0.000    0.000    0.000    0.000    0.000    0.000 
#
# Total GULP energy -89248.786560 kJ/mol
# GULP energy per Si atom -5578.049160 kJ/mol
# Density = 2.373404 g / cm^3
# Si number density = 23.788181 Si / 1000 Ang^3
#
#
#
# Elastic Constant Matrix: (Units=GPa)
#
#
# Indices 1 2 3 4 5 6 
#
# 1 201.7768 85.9835 80.3535 0.0000 -1.8547 0.0000
# 2 85.9835 119.4527 55.8531 0.0000 -3.1369 0.0000
# 3 80.3535 55.8531 158.7888 0.0000 21.4229 0.0000
# 4 0.0000 0.0000 0.0000 27.2684 0.0000 8.2253
# 5 -1.8547 -3.1369 21.4229 0.0000 82.2819 0.0000
# 6 0.0000 0.0000 0.0000 8.2253 0.0000 31.7523
#
#
#
# Elastic Compliance Matrix: (Units=1/GPa)
#
#
# Indices 1 2 3 4 5 6 
#
# 1 0.007862 -0.004477 -0.002492 0.000000 0.000655 0.000000
# 2 -0.004477 0.012715 -0.002341 0.000000 0.000993 0.000000
# 3 -0.002492 -0.002341 0.008708 0.000000 -0.002413 0.000000
# 4 0.000000 0.000000 0.000000 0.039781 0.000000 -0.010305
# 5 0.000655 0.000993 -0.002413 0.000000 0.012834 0.000000
# 6 0.000000 0.000000 0.000000 -0.010305 0.000000 0.034163
#
#
# Mechanical properties :
#
#
# Convention : Reuss Voigt Hill
#
# Bulk Modulus (GPa) = 93.76811 102.71094 98.23953
# Shear Modulus (GPa) = 36.16958 45.44906 40.80932
#
# Velocity S-wave (km/s) = 3.90357 4.37575 4.14639
# Velocity P-wave (km/s) = 7.73438 8.29462 8.01939
#
# Compressibility (1/GPa) = 0.01066461
#
# Stress axis : x y z
#
# Youngs Moduli (GPa) = 127.19082 78.65013 114.83974
#
# Poissons Ratio (x) = 0.35210 0.28622
# Poissons Ratio (y) = 0.56940 0.26883
# Poissons Ratio (z) = 0.31700 0.18411
#
# Static dielectric constant tensor:
#      x y z
#    x 2.328100 0.000000 -0.155820 
#    y 0.000000 1.965740 0.000000 
#    z -0.155820 0.000000 2.040070 
# 
# From -- ./inp_files/25375.got.cif
#   From: 2010.05.17/outbox.cif.g08.bks.cpg/sg13_13_cif.got.tgz:25375.got - 2010.06.03 16:44:36.
