data_PCOD9238001
_publ_section_title
;
Structure prediction by ZEFSAII (Michael W. Deem and Ramdas Pophale) SiO2 
 PCOD9238001
Probable space group: P 2/C
;
_chemical_formula_sum "Si O2"
_cell_formula_units_Z 22
_cell_length_a 13.820853
_cell_length_b 6.860128
_cell_length_c 10.265073
_cell_angle_alpha 90.000000
_cell_angle_beta 101.813353
_cell_angle_gamma 90.000000
_cell_volume 952.646579
_symmetry_space_group_name_H-M "P 2/C"
_symmetry_group_IT_number 13
_symmetry_cell_setting 'monoclinic'
loop_
_space_group_symop_operation_xyz
x,y,z
-x,y,1/2-z
-x,-y,-z
x,-y,1/2+z
loop_
_atom_site_type_symbol
_atom_site_label
_atom_site_fract_x
_atom_site_fract_y
_atom_site_fract_z
Si Si1 0.596489 0.791701 0.838797
Si Si2 0.643317 0.878423 0.134500
Si Si3 0.815422 0.845623 0.618909
Si Si4 0.064075 0.328730 0.578734
Si Si5 0.000000 0.974034 0.250000
Si Si6 0.260028 0.491193 0.245480
O O1 0.500000 0.691119 0.750000
O O2 0.689852 0.646259 0.850319
O O3 0.612340 0.976281 0.744118
O O4 0.579919 0.848132 0.985030
O O5 0.670037 0.671786 0.204019
O O6 0.742677 0.973621 0.101542
O O7 0.873638 0.797803 0.505534
O O8 0.752478 0.657121 0.638409
O O9 0.903626 0.895352 0.743343
O O10 0.150388 0.427245 0.688246
O O11 0.000000 0.500000 0.500000
O O12 0.992156 0.177483 0.629942
#
# Coordination Sequence:
#
# PCOD9238001 Si02
#       6
#     4   4   4   4   2   4
#     4  11  26  45  74 106 137 180 234 292 356 423
#     4  11  24  46  72  99 142 182 229 290 355 422
#     4  11  24  40  62  94 131 177 225 276 339 406
#     4  12  24  40  66  95 136 182 229 282 338 411
#     4  12  24  40  62  94 134 180 228 284 332 400
#     4  11  24  44  67 100 137 182 228 282 349 412
#
# _framework density 23.093558000000002
#
# number of rings (size 3 to 8) (size 9 to 14) (size 15 to 20)
#    0.000    0.727    1.818    5.455    5.091    2.909 
#    0.000    0.000    0.000    0.000    0.000    0.000 
#    0.000    0.000    0.000    0.000    0.000    0.000 
#
# Total GULP energy -122928.353293 kJ/mol
# GULP energy per Si atom -5587.652422 kJ/mol
# Density = 2.304100 g / cm^3
# Si number density = 23.093558 Si / 1000 Ang^3
#
#
#
# Elastic Constant Matrix: (Units=GPa)
#
#
# Indices 1 2 3 4 5 6 
#
# 1 37.5995 11.8183 -18.7250 0.0000 1.8265 0.0000
# 2 11.8183 120.0751 27.6091 0.0000 -12.2047 0.0000
# 3 -18.7250 27.6091 62.9153 0.0000 0.3391 0.0000
# 4 0.0000 0.0000 0.0000 28.7792 0.0000 -0.3861
# 5 1.8265 -12.2047 0.3391 0.0000 41.4669 0.0000
# 6 0.0000 0.0000 0.0000 -0.3861 0.0000 27.0559
#
#
#
# Elastic Compliance Matrix: (Units=1/GPa)
#
#
# Indices 1 2 3 4 5 6 
#
# 1 0.035889 -0.007093 0.013814 0.000000 -0.003781 0.000000
# 2 -0.007093 0.010992 -0.006954 0.000000 0.003604 0.000000
# 3 0.013814 -0.006954 0.023073 0.000000 -0.002844 0.000000
# 4 0.000000 0.000000 0.000000 0.034754 0.000000 0.000496
# 5 -0.003781 0.003604 -0.002844 0.000000 0.025366 0.000000
# 6 0.000000 0.000000 0.000000 0.000496 0.000000 0.036968
#
#
# Mechanical properties :
#
#
# Convention : Reuss Voigt Hill
#
# Bulk Modulus (GPa) = 14.39092 29.11052 21.75072
# Shear Modulus (GPa) = 26.22343 32.78623 29.50483
#
# Velocity S-wave (km/s) = 3.37342 3.77200 3.57826
# Velocity P-wave (km/s) = 4.62800 5.62169 5.14887
#
# Compressibility (1/GPa) = 0.06948828
#
# Stress axis : x y z
#
# Youngs Moduli (GPa) = 27.86363 90.97903 43.34109
#
# Poissons Ratio (x) = 0.64532 -0.59873
# Poissons Ratio (y) = 0.19764 0.30139
# Poissons Ratio (z) = -0.38492 0.63266
#
# Static dielectric constant tensor:
#      x y z
#    x 1.845520 0.000000 0.019780 
#    y 0.000000 1.878790 0.000000 
#    z 0.019780 0.000000 1.948280 
# 
# From -- ./inp_files/35348.got.cif
#   From: 2010.05.17/outbox.cif.g08.bks.cpg/sg13_18_cif.got.tgz:35348.got - 2010.06.03 16:44:36.
