data_PCOD9238732
_publ_section_title
;
Structure prediction by ZEFSAII (Michael W. Deem and Ramdas Pophale) SiO2 
 PCOD9238732
Probable space group: P 2/C
;
_chemical_formula_sum "Si O2"
_cell_formula_units_Z 22
_cell_length_a 13.480865
_cell_length_b 7.767061
_cell_length_c 17.565440
_cell_angle_alpha 90.000000
_cell_angle_beta 27.656760
_cell_angle_gamma 90.000000
_cell_volume 853.717258
_symmetry_space_group_name_H-M "P 2/C"
_symmetry_group_IT_number 13
_symmetry_cell_setting 'monoclinic'
loop_
_space_group_symop_operation_xyz
x,y,z
-x,y,1/2-z
-x,-y,-z
x,-y,1/2+z
loop_
_atom_site_type_symbol
_atom_site_label
_atom_site_fract_x
_atom_site_fract_y
_atom_site_fract_z
Si Si1 0.295806 0.761918 0.761915
Si Si2 0.646256 0.379370 0.803731
Si Si3 0.126471 0.646581 0.038354
Si Si4 0.382644 0.073881 0.978880
Si Si5 0.000000 0.110701 0.750000
Si Si6 0.184139 0.265191 0.974773
O O1 0.402892 0.581381 0.663034
O O2 0.278804 0.125378 0.967551
O O3 0.434059 0.931547 0.654860
O O4 0.252468 0.724451 0.881168
O O5 0.877149 0.361228 0.684972
O O6 0.685669 0.305216 0.691126
O O7 0.189952 0.549067 0.512099
O O8 0.135985 0.769540 0.102789
O O9 0.057686 0.772877 0.887796
O O10 0.475392 0.247490 0.952435
O O11 0.182657 0.005181 0.163136
#
# Coordination Sequence:
#
# PCOD9238732 Si02
#       6
#     4   4   4   4   2   4
#     4   9  22  46  75 100 131 175 233 290 334 391
#     4   9  21  44  73 102 126 178 229 291 335 391
#     4   9  22  47  70  95 144 175 228 279 342 403
#     4  12  26  41  68 105 138 173 233 272 348 400
#     4  12  30  40  60 106 140 194 212 276 342 408
#     4   9  21  44  73 104 131 173 231 292 333 389
#
# _framework density 25.769656000000001
#
# number of rings (size 3 to 8) (size 9 to 14) (size 15 to 20)
#    0.000    2.182    0.000    2.727   10.182    2.909 
#    0.000    1.818    0.000    0.000    0.000    0.000 
#    0.000    0.000    0.000    0.000    0.000    0.000 
#
# Total GULP energy -123330.718681 kJ/mol
# GULP energy per Si atom -5605.941758 kJ/mol
# Density = 2.571100 g / cm^3
# Si number density = 25.769656 Si / 1000 Ang^3
#
#
#
# Elastic Constant Matrix: (Units=GPa)
#
#
# Indices 1 2 3 4 5 6 
#
# 1 89.3185 59.7669 30.2921 0.0000 -17.0702 0.0000
# 2 59.7669 165.7778 77.8617 0.0000 -10.5180 0.0000
# 3 30.2921 77.8617 82.6690 0.0000 -22.9331 0.0000
# 4 0.0000 0.0000 0.0000 31.4867 0.0000 -20.5109
# 5 -17.0702 -10.5180 -22.9331 0.0000 38.9719 0.0000
# 6 0.0000 0.0000 0.0000 -20.5109 0.0000 46.7242
#
#
#
# Elastic Compliance Matrix: (Units=1/GPa)
#
#
# Indices 1 2 3 4 5 6 
#
# 1 0.015939 -0.006144 0.001700 0.000000 0.006324 0.000000
# 2 -0.006144 0.013645 -0.012339 0.000000 -0.006270 0.000000
# 3 0.001700 -0.012339 0.026744 0.000000 0.013152 0.000000
# 4 0.000000 0.000000 0.000000 0.044478 0.000000 0.019525
# 5 0.006324 -0.006270 0.013152 0.000000 0.034477 0.000000
# 6 0.000000 0.000000 0.000000 0.019525 0.000000 0.029973
#
#
# Mechanical properties :
#
#
# Convention : Reuss Voigt Hill
#
# Bulk Modulus (GPa) = 43.93326 74.84520 59.38923
# Shear Modulus (GPa) = 24.22381 34.75953 29.49167
#
# Velocity S-wave (km/s) = 3.06929 3.67666 3.38662
# Velocity P-wave (km/s) = 5.44483 6.86518 6.19584
#
# Compressibility (1/GPa) = 0.02276180
#
# Stress axis : x y z
#
# Youngs Moduli (GPa) = 62.73983 73.28768 37.39201
#
# Poissons Ratio (x) = 0.45026 -0.06358
# Poissons Ratio (y) = 0.38546 0.46140
# Poissons Ratio (z) = -0.10668 0.90433
#
# Static dielectric constant tensor:
#      x y z
#    x 2.055660 0.000000 -0.004110 
#    y 0.000000 2.002320 0.000000 
#    z -0.004110 0.000000 2.015890 
# 
# From -- ./inp_files/67926.got.cif
#   From: 2010.05.17/outbox.cif.g08.bks.cpg/sg13_34_cif.got.tgz:67926.got - 2010.06.03 16:44:36.
