data_PCOD9238976
_publ_section_title
;
Structure prediction by ZEFSAII (Michael W. Deem and Ramdas Pophale) SiO2 
 PCOD9238976
Probable space group: P 2/C
;
_chemical_formula_sum "Si O2"
_cell_formula_units_Z 30
_cell_length_a 24.000000
_cell_length_b 12.000000
_cell_length_c 30.000000
_cell_angle_alpha 90.000000
_cell_angle_beta 10.000000
_cell_angle_gamma 90.000000
_cell_volume 1500.320255
_symmetry_space_group_name_H-M "P 2/C"
_symmetry_group_IT_number 13
_symmetry_cell_setting 'monoclinic'
loop_
_space_group_symop_operation_xyz
x,y,z
-x,y,1/2-z
-x,-y,-z
x,-y,1/2+z
loop_
_atom_site_type_symbol
_atom_site_label
_atom_site_fract_x
_atom_site_fract_y
_atom_site_fract_z
Si Si1 0.172576 0.611478 0.926637
Si Si2 0.753036 0.364676 0.843455
Si Si3 0.595461 0.058590 0.488872
Si Si4 0.762771 0.752664 0.181748
Si Si5 0.322418 0.788727 0.933920
Si Si6 0.000000 0.032883 0.750000
Si Si7 0.652749 0.545257 0.000490
Si Si8 0.745187 0.166082 0.278339
O O1 0.431573 0.701088 0.739219
O O2 0.374114 0.505888 0.751527
O O3 0.926765 0.592430 0.161290
O O4 0.999755 0.668697 0.020970
O O5 0.009930 0.283337 0.666024
O O6 0.661442 0.466789 0.948881
O O7 0.466560 0.279786 0.056107
O O8 0.317611 0.143684 0.722778
O O9 0.772685 0.116638 0.306961
O O10 0.818968 0.039229 0.355566
O O11 0.449162 0.936864 0.591832
O O12 0.446858 0.674741 0.426097
O O13 0.935613 0.801840 0.001320
O O14 0.500000 0.835063 0.750000
O O15 0.233681 0.884615 0.038402
O O16 0.000000 0.534407 0.750000
#
# Coordination Sequence:
#
# PCOD9238976 Si02
#       8
#     4   4   4   4   4   2   4   4
#     4  11  22  40  68 100 128 169 228 279 338 384
#     4  11  21  41  69 102 132 166 225 291 337 392
#     4  11  26  43  68  97 137 180 228 269 341 402
#     4  12  26  43  66  98 134 180 223 272 334 410
#     4  10  21  36  66 101 128 167 226 287 332 390
#     4  12  22  40  66  94 134 186 218 278 340 406
#     4  12  26  43  68  96 137 180 223 275 338 402
#     4  11  23  45  71 100 134 175 225 286 333 400
#
# _framework density 19.995730999999999
#
# number of rings (size 3 to 8) (size 9 to 14) (size 15 to 20)
#    0.000    0.800    5.333    2.400    0.933    2.667 
#    0.000    0.000    0.000    0.000    0.000    0.000 
#    0.000    0.000    0.000    0.000    0.000    0.000 
#
# Total GULP energy -167696.845341 kJ/mol
# GULP energy per Si atom -5589.894845 kJ/mol
# Density = 1.995022 g / cm^3
# Si number density = 19.995731 Si / 1000 Ang^3
#
#
#
# Elastic Constant Matrix: (Units=GPa)
#
#
# Indices 1 2 3 4 5 6 
#
# 1 115.4896 29.3892 33.0890 0.0000 15.2650 0.0000
# 2 29.3892 76.0773 21.9448 0.0000 18.0524 0.0000
# 3 33.0890 21.9448 50.2010 0.0000 28.6795 0.0000
# 4 0.0000 0.0000 0.0000 21.2471 0.0000 2.6109
# 5 15.2650 18.0524 28.6795 0.0000 40.9609 0.0000
# 6 0.0000 0.0000 0.0000 2.6109 0.0000 25.4665
#
#
#
# Elastic Compliance Matrix: (Units=1/GPa)
#
#
# Indices 1 2 3 4 5 6 
#
# 1 0.011193 -0.002700 -0.007490 0.000000 0.002263 0.000000
# 2 -0.002700 0.015978 -0.002928 0.000000 -0.003986 0.000000
# 3 -0.007490 -0.002928 0.039675 0.000000 -0.023697 0.000000
# 4 0.000000 0.000000 0.000000 0.047666 0.000000 -0.004887
# 5 0.002263 -0.003986 -0.023697 0.000000 0.041919 0.000000
# 6 0.000000 0.000000 0.000000 -0.004887 0.000000 0.039768
#
#
# Mechanical properties :
#
#
# Convention : Reuss Voigt Hill
#
# Bulk Modulus (GPa) = 24.62488 45.62378 35.12433
# Shear Modulus (GPa) = 21.18904 28.02456 24.60680
#
# Velocity S-wave (km/s) = 3.25880 3.74776 3.51180
# Velocity P-wave (km/s) = 5.14796 6.44933 5.83504
#
# Compressibility (1/GPa) = 0.04060933
#
# Stress axis : x y z
#
# Youngs Moduli (GPa) = 89.34315 62.58627 25.20493
#
# Poissons Ratio (x) = 0.16901 0.18878
# Poissons Ratio (y) = 0.24126 0.07379
# Poissons Ratio (z) = 0.66918 0.18324
#
# Static dielectric constant tensor:
#      x y z
#    x 1.734240 0.000000 -0.010590 
#    y 0.000000 1.682160 0.000000 
#    z -0.010590 0.000000 1.725100 
# 
# From -- ./inp_files/97734.got.cif
#   From: 2010.05.17/outbox.ucp.g08.bks.cvg/sg13_49_cif.got.tgz:97734.got - 2010.06.11 12:23:55.
