data_PCOD9238940
_publ_section_title
;
Structure prediction by ZEFSAII (Michael W. Deem and Ramdas Pophale) SiO2 
 PCOD9238940
Probable space group: P 2/C
;
_chemical_formula_sum "Si O2"
_cell_formula_units_Z 28
_cell_length_a 9.000000
_cell_length_b 9.000000
_cell_length_c 27.000000
_cell_angle_alpha 90.000000
_cell_angle_beta 140.000000
_cell_angle_gamma 90.000000
_cell_volume 1405.776502
_symmetry_space_group_name_H-M "P 2/C"
_symmetry_group_IT_number 13
_symmetry_cell_setting 'monoclinic'
loop_
_space_group_symop_operation_xyz
x,y,z
-x,y,1/2-z
-x,-y,-z
x,-y,1/2+z
loop_
_atom_site_type_symbol
_atom_site_label
_atom_site_fract_x
_atom_site_fract_y
_atom_site_fract_z
Si Si1 0.481141 0.228209 0.055684
Si Si2 0.996310 0.920112 0.084814
Si Si3 0.829687 0.510585 0.524290
Si Si4 0.257265 0.689096 0.094603
Si Si5 0.243892 0.861222 0.783777
Si Si6 0.660301 0.154711 0.746514
Si Si7 0.039186 0.773638 0.877033
O O1 0.562216 0.215504 0.133461
O O2 0.713178 0.188495 0.085037
O O3 0.270956 0.118276 0.990686
O O4 0.370287 0.389943 0.017012
O O5 0.140373 0.849772 0.076027
O O6 0.098487 0.836579 0.160917
O O7 0.018681 0.095436 0.099058
O O8 0.733825 0.627009 0.458597
O O9 0.915788 0.612022 0.590539
O O10 0.061030 0.421053 0.566942
O O11 0.509805 0.708410 0.185435
O O12 0.000000 0.865991 0.750000
O O13 0.172303 0.777760 0.715425
O O14 0.311358 0.029466 0.787508
O O15 0.500000 0.093855 0.750000
#
# Coordination Sequence:
#
# PCOD9238940 Si02
#       7
#     4   4   4   4   4   4   4
#     4  10  20  38  58  86 119 150 192 243 289 351
#     4   9  19  36  60  85 112 146 196 243 290 337
#     4  10  21  38  56  87 115 157 194 231 294 357
#     4   9  20  39  56  81 123 146 191 241 288 348
#     4   9  20  38  59  86 120 148 193 244 296 342
#     4   9  18  38  58  85 114 149 195 241 290 341
#     4  10  20  37  62  85 112 154 199 238 291 348
#
# _framework density 19.917818
#
# number of rings (size 3 to 8) (size 9 to 14) (size 15 to 20)
#    0.000    2.571    0.000    0.857    2.000    0.571 
#   30.857    0.000    0.000    0.000    0.000    0.000 
#    0.000    0.000    0.000    0.000    0.000    0.000 
#
# Total GULP energy -155884.259614 kJ/mol
# GULP energy per Si atom -5567.294986 kJ/mol
# Density = 1.987248 g / cm^3
# Si number density = 19.917818 Si / 1000 Ang^3
#
#
#
# Elastic Constant Matrix: (Units=GPa)
#
#
# Indices 1 2 3 4 5 6 
#
# 1 0.3394 2.6904 2.6559 0.0000 -0.3064 0.0000
# 2 2.6904 71.5756 41.6658 0.0000 -12.0347 0.0000
# 3 2.6559 41.6658 131.0494 0.0000 16.8357 0.0000
# 4 0.0000 0.0000 0.0000 39.9654 0.0000 -2.5186
# 5 -0.3064 -12.0347 16.8357 0.0000 18.5044 0.0000
# 6 0.0000 0.0000 0.0000 -2.5186 0.0000 21.2691
#
#
#
# Elastic Compliance Matrix: (Units=1/GPa)
#
#
# Indices 1 2 3 4 5 6 
#
# 1 4.418538 -0.128349 -0.053694 0.000000 0.038552 0.000000
# 2 -0.128349 0.028836 -0.009855 0.000000 0.025595 0.000000
# 3 -0.053694 -0.009855 0.014483 0.000000 -0.020475 0.000000
# 4 0.000000 0.000000 0.000000 0.025210 0.000000 0.002985
# 5 0.038552 0.025595 -0.020475 0.000000 0.089955 0.000000
# 6 0.000000 0.000000 0.000000 0.002985 0.000000 0.047370
#
#
# Mechanical properties :
#
#
# Convention : Reuss Voigt Hill
#
# Bulk Modulus (GPa) = 0.24521 32.99875 16.62198
# Shear Modulus (GPa) = 0.78523 26.34459 13.56491
#
# Velocity S-wave (km/s) = 0.62856 3.64079 2.61251
# Velocity P-wave (km/s) = 0.80633 5.85468 4.17896
#
# Compressibility (1/GPa) = 4.07806110
#
# Stress axis : x y z
#
# Youngs Moduli (GPa) = 0.22632 34.67865 69.04796
#
# Poissons Ratio (x) = 4.45097 3.70746
# Poissons Ratio (y) = 0.02905 0.68048
# Poissons Ratio (z) = 0.01215 0.34176
#
# Static dielectric constant tensor:
#      x y z
#    x 1.749390 0.000000 -0.033560 
#    y 0.000000 1.695180 0.000000 
#    z -0.033560 0.000000 1.744220 
# 
# From -- ./inp_files/91489.got.cif
#   From: 2010.05.17/outbox.ucp.g08.bks.cvg/sg13_46_cif.got.tgz:91489.got - 2010.06.11 12:23:55.
