data_PCOD9238895
_publ_section_title
;
Structure prediction by ZEFSAII (Michael W. Deem and Ramdas Pophale) SiO2 
 PCOD9238895
Probable space group: P 2/C
;
_chemical_formula_sum "Si O2"
_cell_formula_units_Z 32
_cell_length_a 30.000000
_cell_length_b 9.000000
_cell_length_c 12.000000
_cell_angle_alpha 90.000000
_cell_angle_beta 30.000000
_cell_angle_gamma 90.000000
_cell_volume 1620.000000
_symmetry_space_group_name_H-M "P 2/C"
_symmetry_group_IT_number 13
_symmetry_cell_setting 'monoclinic'
loop_
_space_group_symop_operation_xyz
x,y,z
-x,y,1/2-z
-x,-y,-z
x,-y,1/2+z
loop_
_atom_site_type_symbol
_atom_site_label
_atom_site_fract_x
_atom_site_fract_y
_atom_site_fract_z
Si Si1 0.361310 0.247997 0.279361
Si Si2 0.259696 0.576141 0.804840
Si Si3 0.572971 0.453860 0.170390
Si Si4 0.011517 0.890588 0.586908
Si Si5 0.535553 0.798552 0.293309
Si Si6 0.201018 0.119391 0.762483
Si Si7 0.745786 0.797683 0.884357
Si Si8 0.166131 0.287780 0.066846
O O1 0.306576 0.313598 0.292305
O O2 0.396400 0.378349 0.283119
O O3 0.289968 0.156425 0.502875
O O4 0.452087 0.162543 0.052036
O O5 0.340651 0.470728 0.592850
O O6 0.235533 0.665929 0.744798
O O7 0.184340 0.464400 0.013225
O O8 0.500000 0.375943 0.250000
O O9 0.536668 0.617856 0.279402
O O10 0.114357 0.839815 0.375169
O O11 0.000000 0.935720 0.750000
O O12 0.937426 0.765321 0.718078
O O13 0.000000 0.000000 0.500000
O O14 0.500000 0.855161 0.250000
O O15 0.637911 0.828295 0.108654
O O16 0.202440 0.942059 0.771970
O O17 0.202841 0.202337 0.877116
O O18 0.783586 0.761208 0.926872
#
# Coordination Sequence:
#
# PCOD9238895 Si02
#       8
#     4   4   4   4   4   4   4   4
#     4  12  22  37  64  92 139 179 232 278 346 402
#     4  11  22  40  67  97 134 181 225 293 334 405
#     4  10  19  34  57  92 127 176 236 269 338 398
#     4  10  22  47  76 101 137 176 230 285 352 429
#     4  10  20  37  58  94 132 185 226 282 330 402
#     4  11  26  43  69 102 133 183 222 285 354 422
#     4  11  24  41  69  97 142 179 235 273 347 411
#     4  11  24  44  72 102 135 173 240 289 343 414
#
# _framework density 19.753086
#
# number of rings (size 3 to 8) (size 9 to 14) (size 15 to 20)
#    0.000    1.250    6.250    1.875    3.500    0.500 
#    0.000    1.250    2.750    0.000    0.000    0.000 
#    0.000    0.000    0.000    0.000    0.000    0.000 
#
# Total GULP energy -178187.793119 kJ/mol
# GULP energy per Si atom -5568.368535 kJ/mol
# Density = 1.970813 g / cm^3
# Si number density = 19.753086 Si / 1000 Ang^3
#
#
#
# Elastic Constant Matrix: (Units=GPa)
#
#
# Indices 1 2 3 4 5 6 
#
# 1 169.4409 36.3385 21.8085 0.0000 -11.7237 0.0000
# 2 36.3385 54.0111 24.3546 0.0000 -10.3565 0.0000
# 3 21.8085 24.3546 77.7348 0.0000 -22.4176 0.0000
# 4 0.0000 0.0000 0.0000 31.8271 0.0000 -3.2292
# 5 -11.7237 -10.3565 -22.4176 0.0000 36.5082 0.0000
# 6 0.0000 0.0000 0.0000 -3.2292 0.0000 26.8464
#
#
#
# Elastic Compliance Matrix: (Units=1/GPa)
#
#
# Indices 1 2 3 4 5 6 
#
# 1 0.006936 -0.004357 -0.000358 0.000000 0.000771 0.000000
# 2 -0.004357 0.024471 -0.005889 0.000000 0.001927 0.000000
# 3 -0.000358 -0.005889 0.017371 0.000000 0.008881 0.000000
# 4 0.000000 0.000000 0.000000 0.031808 0.000000 0.003826
# 5 0.000771 0.001927 0.008881 0.000000 0.033639 0.000000
# 6 0.000000 0.000000 0.000000 0.003826 0.000000 0.037709
#
#
# Mechanical properties :
#
#
# Convention : Reuss Voigt Hill
#
# Bulk Modulus (GPa) = 36.27228 51.79889 44.03559
# Shear Modulus (GPa) = 27.42268 33.61534 30.51901
#
# Velocity S-wave (km/s) = 3.73000 4.12973 3.93494
# Velocity P-wave (km/s) = 6.07891 7.00141 6.55641
#
# Compressibility (1/GPa) = 0.02756926
#
# Stress axis : x y z
#
# Youngs Moduli (GPa) = 144.18342 40.86512 57.56746
#
# Poissons Ratio (x) = 0.17804 0.02063
# Poissons Ratio (y) = 0.62818 0.33901
# Poissons Ratio (z) = 0.05167 0.24065
#
# Static dielectric constant tensor:
#      x y z
#    x 1.702900 0.000000 0.025110 
#    y 0.000000 1.718540 0.000000 
#    z 0.025110 0.000000 1.768500 
# 
# From -- ./inp_files/42757.got.cif
#   From: 2010.05.17/outbox.ucp.g08.bks.cvg/sg13_22_cif.got.tgz:42757.got - 2010.06.11 12:23:55.
