data_PCOD9238744
_publ_section_title
;
Structure prediction by ZEFSAII (Michael W. Deem and Ramdas Pophale) SiO2 
 PCOD9238744
Probable space group: P 2/C
;
_chemical_formula_sum "Si O2"
_cell_formula_units_Z 16
_cell_length_a 11.855262
_cell_length_b 10.876618
_cell_length_c 9.051521
_cell_angle_alpha 90.000000
_cell_angle_beta 144.579134
_cell_angle_gamma 90.000000
_cell_volume 676.454325
_symmetry_space_group_name_H-M "P 2/C"
_symmetry_group_IT_number 13
_symmetry_cell_setting 'monoclinic'
loop_
_space_group_symop_operation_xyz
x,y,z
-x,y,1/2-z
-x,-y,-z
x,-y,1/2+z
loop_
_atom_site_type_symbol
_atom_site_label
_atom_site_fract_x
_atom_site_fract_y
_atom_site_fract_z
Si Si1 0.164900 0.603693 0.688192
Si Si2 0.000000 0.994649 0.250000
Si Si3 0.500000 0.352375 0.750000
Si Si4 0.848350 0.768412 0.442236
Si Si5 0.728458 0.236854 0.485170
O O1 0.214408 0.668640 0.584797
O O2 0.000000 0.500000 0.500000
O O3 0.058642 0.702683 0.678933
O O4 0.362784 0.571758 0.989571
O O5 0.086418 0.090715 0.463117
O O6 0.176431 0.897648 0.429691
O O7 0.349659 0.269990 0.684829
O O8 0.801333 0.728423 0.224427
O O9 0.500000 0.227426 0.250000
#
# Coordination Sequence:
#
# PCOD9238744 Si02
#       5
#     4   2   2   4   4
#     4  12  28  55  81 115 166 213 278 344 407 487
#     4  12  26  46  82 118 170 212 272 340 396 492
#     4  12  26  50  84 116 156 220 276 328 416 486
#     4  12  26  49  76 119 162 216 267 337 407 473
#     4  12  27  48  83 116 161 216 273 330 414 480
#
# _framework density 23.652743000000001
#
# number of rings (size 3 to 8) (size 9 to 14) (size 15 to 20)
#    0.000    0.000    7.500    0.750    1.750    6.000 
#    4.500    0.000    0.000    0.000    0.000    0.000 
#    0.000    0.000    0.000    0.000    0.000    0.000 
#
# Total GULP energy -89217.845704 kJ/mol
# GULP energy per Si atom -5576.115357 kJ/mol
# Density = 2.359891 g / cm^3
# Si number density = 23.652743 Si / 1000 Ang^3
#
#
#
# Elastic Constant Matrix: (Units=GPa)
#
#
# Indices 1 2 3 4 5 6 
#
# 1 184.4893 73.8987 79.7581 0.0000 11.2759 0.0000
# 2 73.8987 140.5293 56.3121 0.0000 19.0742 0.0000
# 3 79.7581 56.3121 206.7640 0.0000 21.9715 0.0000
# 4 0.0000 0.0000 0.0000 23.3771 0.0000 8.6032
# 5 11.2759 19.0742 21.9715 0.0000 50.7040 0.0000
# 6 0.0000 0.0000 0.0000 8.6032 0.0000 -51.8599
#
#
#
# Elastic Compliance Matrix: (Units=1/GPa)
#
#
# Indices 1 2 3 4 5 6 
#
# 1 0.007586 -0.003206 -0.002098 0.000000 0.000429 0.000000
# 2 -0.003206 0.009576 -0.001115 0.000000 -0.002406 0.000000
# 3 -0.002098 -0.001115 0.006138 0.000000 -0.001774 0.000000
# 4 0.000000 0.000000 0.000000 0.040316 0.000000 0.006688
# 5 0.000429 -0.002406 -0.001774 0.000000 0.021301 0.000000
# 6 0.000000 0.000000 0.000000 0.006688 0.000000 -0.018173
#
#
# Mechanical properties :
#
#
# Convention : Reuss Voigt Hill
#
# Bulk Modulus (GPa) = 95.61124 105.74672 100.67898
# Shear Modulus (GPa) = 60.19100 25.89849 43.04475
#
# Velocity S-wave (km/s) = 5.05005 3.31259 4.27061
# Velocity P-wave (km/s) = 8.63219 7.70948 8.18385
#
# Compressibility (1/GPa) = 0.01045902
#
# Stress axis : x y z
#
# Youngs Moduli (GPa) = 131.82734 104.43294 162.91567
#
# Poissons Ratio (x) = 0.33484 0.34187
# Poissons Ratio (y) = 0.42268 0.18172
# Poissons Ratio (z) = 0.27663 0.11649
#
# Static dielectric constant tensor:
#      x y z
#    x 1.820160 0.000000 -0.077480 
#    y 0.000000 2.026790 0.000000 
#    z -0.077480 0.000000 2.074670 
# 
# From -- ./inp_files/15714.got.cif
#   From: 2010.05.17/outbox.cif.g08.bks.cpg/sg13_8_cif.got.tgz:15714.got - 2010.06.03 16:44:36.
