data_PCOD9238710
_publ_section_title
;
Structure prediction by ZEFSAII (Michael W. Deem and Ramdas Pophale) SiO2 
 PCOD9238710
Probable space group: P 2/C
;
_chemical_formula_sum "Si O2"
_cell_formula_units_Z 16
_cell_length_a 21.014624
_cell_length_b 4.796931
_cell_length_c 8.457367
_cell_angle_alpha 90.000000
_cell_angle_beta 129.954731
_cell_angle_gamma 90.000000
_cell_volume 653.524586
_symmetry_space_group_name_H-M "P 2/C"
_symmetry_group_IT_number 13
_symmetry_cell_setting 'monoclinic'
loop_
_space_group_symop_operation_xyz
x,y,z
-x,y,1/2-z
-x,-y,-z
x,-y,1/2+z
loop_
_atom_site_type_symbol
_atom_site_label
_atom_site_fract_x
_atom_site_fract_y
_atom_site_fract_z
Si Si1 0.593826 0.104318 0.657454
Si Si2 0.906836 0.885604 0.547869
Si Si3 0.844779 0.596350 0.763630
Si Si4 0.658054 0.388498 0.442923
O O1 0.620977 0.243030 0.537659
O O2 0.605798 0.342577 0.808070
O O3 0.500000 0.000000 0.500000
O O4 0.651072 0.842382 0.794237
O O5 0.862054 0.733560 0.621968
O O6 0.904482 0.662625 0.400813
O O7 0.000000 0.948522 0.750000
O O8 0.861045 0.161856 0.417147
O O9 0.751849 0.481580 0.620600
#
# Coordination Sequence:
#
# PCOD9238710 Si02
#       4
#     4   4   4   4
#     4  12  27  50  76 108 146 191 242 303 366 437
#     4  12  25  47  74 108 147 194 245 301 362 432
#     4  12  26  46  73 108 147 193 243 302 363 431
#     4  12  27  49  75 110 147 192 244 302 365 434
#
# _framework density 24.482631000000001
#
# number of rings (size 3 to 8) (size 9 to 14) (size 15 to 20)
#    0.000    0.000    0.000    9.750    0.000    6.000 
#    0.000    0.000    0.000    0.000    0.000    0.000 
#    0.000    0.000    0.000    0.000    0.000    0.000 
#
# Total GULP energy -89949.624704 kJ/mol
# GULP energy per Si atom -5621.851544 kJ/mol
# Density = 2.442691 g / cm^3
# Si number density = 24.482631 Si / 1000 Ang^3
#
#
#
# Elastic Constant Matrix: (Units=GPa)
#
#
# Indices 1 2 3 4 5 6 
#
# 1 75.9250 17.8092 24.9185 0.0000 10.1320 0.0000
# 2 17.8092 177.0221 85.7121 0.0000 12.6107 0.0000
# 3 24.9185 85.7121 137.0780 0.0000 14.7328 0.0000
# 4 0.0000 0.0000 0.0000 45.5503 0.0000 -6.2217
# 5 10.1320 12.6107 14.7328 0.0000 24.2014 0.0000
# 6 0.0000 0.0000 0.0000 -6.2217 0.0000 39.5006
#
#
#
# Elastic Compliance Matrix: (Units=1/GPa)
#
#
# Indices 1 2 3 4 5 6 
#
# 1 0.014508 -0.000131 -0.002044 0.000000 -0.004761 0.000000
# 2 -0.000131 0.008137 -0.004937 0.000000 -0.001180 0.000000
# 3 -0.002044 -0.004937 0.011112 0.000000 -0.003337 0.000000
# 4 0.000000 0.000000 0.000000 0.022436 0.000000 0.003534
# 5 -0.004761 -0.001180 -0.003337 0.000000 0.045959 0.000000
# 6 0.000000 0.000000 0.000000 0.003534 0.000000 0.025873
#
#
# Mechanical properties :
#
#
# Convention : Reuss Voigt Hill
#
# Bulk Modulus (GPa) = 51.19442 71.87830 61.53636
# Shear Modulus (GPa) = 33.61128 39.28948 36.45038
#
# Velocity S-wave (km/s) = 3.70924 4.01033 3.86272
# Velocity P-wave (km/s) = 6.26901 7.13206 6.71442
#
# Compressibility (1/GPa) = 0.01953338
#
# Stress axis : x y z
#
# Youngs Moduli (GPa) = 68.92882 122.89954 89.98988
#
# Poissons Ratio (x) = 0.01607 0.18392
# Poissons Ratio (y) = 0.00902 0.44430
# Poissons Ratio (z) = 0.14087 0.60678
#
# Static dielectric constant tensor:
#      x y z
#    x 1.988840 0.000000 -0.072480 
#    y 0.000000 1.914960 0.000000 
#    z -0.072480 0.000000 1.936620 
# 
# From -- ./inp_files/23706.got.cif
#   From: 2010.05.17/outbox.cif.g08.bks.cpg/sg13_12_cif.got.tgz:23706.got - 2010.06.03 16:44:36.
