data_PCOD9238525
_publ_section_title
;
Structure prediction by ZEFSAII (Michael W. Deem and Ramdas Pophale) SiO2 
 PCOD9238525
Probable space group: P 2/C
;
_chemical_formula_sum "Si O2"
_cell_formula_units_Z 30
_cell_length_a 21.728920
_cell_length_b 5.202548
_cell_length_c 24.904723
_cell_angle_alpha 90.000000
_cell_angle_beta 27.798205
_cell_angle_gamma 90.000000
_cell_volume 1312.974366
_symmetry_space_group_name_H-M "P 2/C"
_symmetry_group_IT_number 13
_symmetry_cell_setting 'monoclinic'
loop_
_space_group_symop_operation_xyz
x,y,z
-x,y,1/2-z
-x,-y,-z
x,-y,1/2+z
loop_
_atom_site_type_symbol
_atom_site_label
_atom_site_fract_x
_atom_site_fract_y
_atom_site_fract_z
Si Si1 0.270558 0.165071 0.957960
Si Si2 0.394988 0.403851 0.538090
Si Si3 0.658870 0.119294 0.202852
Si Si4 0.572354 0.096892 0.559498
Si Si5 0.500000 0.453348 0.250000
Si Si6 0.114584 0.776066 0.273423
Si Si7 0.978779 0.717491 0.705427
Si Si8 0.946127 0.250969 0.011344
O O1 0.317879 0.054668 0.978584
O O2 0.376818 0.380353 0.862853
O O3 0.283760 0.974657 0.898191
O O4 0.124648 0.271700 0.068835
O O5 0.500000 0.500000 0.500000
O O6 0.388179 0.640043 0.501009
O O7 0.261077 0.324311 0.672529
O O8 0.431072 0.144355 0.478165
O O9 0.544811 0.304302 0.268697
O O10 0.574905 0.905482 0.300105
O O11 0.786164 0.236688 0.133796
O O12 0.071917 0.571801 0.260832
O O13 0.013197 0.749188 0.400783
O O14 0.108817 0.068411 0.257019
O O15 0.000000 0.795700 0.750000
O O16 0.000000 0.500000 0.000000
O O17 0.000000 0.000000 0.000000
#
# Coordination Sequence:
#
# PCOD9238525 Si02
#       8
#     4   4   4   4   2   4   4   4
#     4  12  24  43  72 113 150 185 235 307 391 450
#     4  12  29  49  73 101 144 198 253 307 357 439
#     4  12  26  45  74 115 150 194 246 319 392 456
#     4  12  26  46  74 109 143 193 243 306 377 451
#     4  12  22  44  74 112 160 184 234 312 396 456
#     4  12  26  51  70 107 146 188 251 306 361 440
#     4  12  26  45  76 106 148 194 234 298 371 459
#     4  12  30  49  78 106 148 204 257 314 378 460
#
# _framework density 22.848882
#
# number of rings (size 3 to 8) (size 9 to 14) (size 15 to 20)
#    0.000    0.000    4.000    5.600    5.600    0.000 
#    0.000    0.000    0.000    0.000    0.000    0.000 
#    0.000    0.000    0.000    0.000    0.000    0.000 
#
# Total GULP energy -167858.263840 kJ/mol
# GULP energy per Si atom -5595.275461 kJ/mol
# Density = 2.279688 g / cm^3
# Si number density = 22.848882 Si / 1000 Ang^3
#
#
#
# Elastic Constant Matrix: (Units=GPa)
#
#
# Indices 1 2 3 4 5 6 
#
# 1 54.3322 27.6089 18.8183 0.0000 -21.2623 0.0000
# 2 27.6089 103.4923 13.8787 0.0000 -3.1162 0.0000
# 3 18.8183 13.8787 90.1187 0.0000 -21.0069 0.0000
# 4 0.0000 0.0000 0.0000 49.8777 0.0000 8.7574
# 5 -21.2623 -3.1162 -21.0069 0.0000 45.2179 0.0000
# 6 0.0000 0.0000 0.0000 8.7574 0.0000 27.8315
#
#
#
# Elastic Compliance Matrix: (Units=1/GPa)
#
#
# Indices 1 2 3 4 5 6 
#
# 1 0.026816 -0.006551 -0.001970 0.000000 0.011243 0.000000
# 2 -0.006551 0.011467 -0.001045 0.000000 -0.002776 0.000000
# 3 -0.001970 -0.001045 0.012825 0.000000 0.004960 0.000000
# 4 0.000000 0.000000 0.000000 0.021221 0.000000 -0.006678
# 5 0.011243 -0.002776 0.004960 0.000000 0.029515 0.000000
# 6 0.000000 0.000000 0.000000 -0.006678 0.000000 0.038032
#
#
# Mechanical properties :
#
#
# Convention : Reuss Voigt Hill
#
# Bulk Modulus (GPa) = 31.27371 40.95054 36.11213
# Shear Modulus (GPa) = 29.46954 37.09457 33.28205
#
# Velocity S-wave (km/s) = 3.59522 4.03361 3.82070
# Velocity P-wave (km/s) = 5.56336 6.29719 5.94162
#
# Compressibility (1/GPa) = 0.03197574
#
# Stress axis : x y z
#
# Youngs Moduli (GPa) = 37.29064 87.20849 77.97320
#
# Poissons Ratio (x) = 0.57132 0.15361
# Poissons Ratio (y) = 0.24430 0.08148
# Poissons Ratio (z) = 0.07346 0.09113
#
# Static dielectric constant tensor:
#      x y z
#    x 1.746450 0.000000 0.227740 
#    y 0.000000 1.877450 0.000000 
#    z 0.227740 0.000000 1.631170 
# 
# From -- ./inp_files/88348.got.cif
#   From: 2010.05.17/outbox.cif.g08.bks.cpg/sg13_45_cif.got.tgz:88348.got - 2010.06.03 16:44:36.
