data_PCOD9238111
_publ_section_title
;
Structure prediction by ZEFSAII (Michael W. Deem and Ramdas Pophale) SiO2 
 PCOD9238111
Probable space group: P 2/C
;
_chemical_formula_sum "Si O2"
_cell_formula_units_Z 22
_cell_length_a 5.180671
_cell_length_b 5.720467
_cell_length_c 28.871264
_cell_angle_alpha 90.000000
_cell_angle_beta 94.899336
_cell_angle_gamma 90.000000
_cell_volume 852.498458
_symmetry_space_group_name_H-M "P 2/C"
_symmetry_group_IT_number 13
_symmetry_cell_setting 'monoclinic'
loop_
_space_group_symop_operation_xyz
x,y,z
-x,y,1/2-z
-x,-y,-z
x,-y,1/2+z
loop_
_atom_site_type_symbol
_atom_site_label
_atom_site_fract_x
_atom_site_fract_y
_atom_site_fract_z
Si Si1 0.466819 0.428759 0.071149
Si Si2 0.500000 0.436268 0.250000
Si Si3 0.034756 0.834305 0.956761
Si Si4 0.525439 0.823125 0.833081
Si Si5 0.803262 0.180446 0.613241
Si Si6 0.880502 0.206058 0.799177
O O1 0.611870 0.677182 0.076590
O O2 0.678289 0.270472 0.047129
O O3 0.438084 0.357702 0.124671
O O4 0.182522 0.370171 0.046968
O O5 0.336351 0.604512 0.215307
O O6 0.631547 0.275445 0.213291
O O7 0.006760 0.015701 0.913507
O O8 0.000000 0.000000 0.000000
O O9 0.369118 0.022185 0.856594
O O10 0.770659 0.957157 0.814890
O O11 0.962194 0.316392 0.655004
O O12 0.000000 0.177224 0.750000
#
# Coordination Sequence:
#
# PCOD9238111 Si02
#       6
#     4   2   4   4   4   4
#     4  11  25  45  78 107 149 197 245 307 385 455
#     4  12  26  40  68 100 142 192 256 304 384 444
#     4  11  26  48  76 115 152 192 251 318 387 460
#     4  11  24  45  64 100 145 189 249 310 367 454
#     4  11  26  46  74 103 149 198 252 312 386 463
#     4  12  24  42  66 100 143 194 252 313 379 457
#
# _framework density 25.806495000000002
#
# number of rings (size 3 to 8) (size 9 to 14) (size 15 to 20)
#    0.000    0.727    1.818    5.455    5.091    3.636 
#    0.000    1.818    0.000    0.000    0.000    0.000 
#    0.000    0.000    0.000    0.000    0.000    0.000 
#
# Total GULP energy -123042.897711 kJ/mol
# GULP energy per Si atom -5592.858987 kJ/mol
# Density = 2.574776 g / cm^3
# Si number density = 25.806495 Si / 1000 Ang^3
#
#
#
# Elastic Constant Matrix: (Units=GPa)
#
#
# Indices 1 2 3 4 5 6 
#
# 1 104.9836 9.7559 31.1243 0.0000 -6.9422 0.0000
# 2 9.7559 48.4624 0.5256 0.0000 -6.5150 0.0000
# 3 31.1243 0.5256 91.2069 0.0000 -30.5857 0.0000
# 4 0.0000 0.0000 0.0000 18.0258 0.0000 -22.8685
# 5 -6.9422 -6.5150 -30.5857 0.0000 42.3236 0.0000
# 6 0.0000 0.0000 0.0000 -22.8685 0.0000 17.8473
#
#
#
# Elastic Compliance Matrix: (Units=1/GPa)
#
#
# Indices 1 2 3 4 5 6 
#
# 1 0.010899 -0.002371 -0.004261 0.000000 -0.001657 0.000000
# 2 -0.002371 0.021699 0.002209 0.000000 0.004548 0.000000
# 3 -0.004261 0.002209 0.016215 0.000000 0.011359 0.000000
# 4 0.000000 0.000000 0.000000 -0.088681 0.000000 -0.113630
# 5 -0.001657 0.004548 0.011359 0.000000 0.032264 0.000000
# 6 0.000000 0.000000 0.000000 -0.113630 0.000000 -0.089568
#
#
# Mechanical properties :
#
#
# Convention : Reuss Voigt Hill
#
# Bulk Modulus (GPa) = 25.02043 36.38494 30.70268
# Shear Modulus (GPa) = -66.66355 29.18917 -18.73719
#
# Velocity S-wave (km/s) = -5.08804 3.36680 -2.69748
# Velocity P-wave (km/s) = 4.98007 5.40773 1.49037
#
# Compressibility (1/GPa) = 0.03996735
#
# Stress axis : x y z
#
# Youngs Moduli (GPa) = 91.74837 46.08468 61.67284
#
# Poissons Ratio (x) = 0.10925 0.26280
# Poissons Ratio (y) = 0.21750 -0.13623
# Poissons Ratio (z) = 0.39096 -0.10180
#
# Static dielectric constant tensor:
#      x y z
#    x 2.271770 0.000000 0.116170 
#    y 0.000000 2.109130 0.000000 
#    z 0.116170 0.000000 2.120440 
# 
# From -- ./inp_files/94618.got.cif
#   From: 2010.05.17/outbox.cif.g08.bks.cpg/sg13_48_cif.got.tgz:94618.got - 2010.06.03 16:44:36.
