data_PCOD9238705
_publ_section_title
;
Structure prediction by ZEFSAII (Michael W. Deem and Ramdas Pophale) SiO2 
 PCOD9238705
Probable space group: P 2/C
;
_chemical_formula_sum "Si O2"
_cell_formula_units_Z 14
_cell_length_a 17.308116
_cell_length_b 7.196799
_cell_length_c 8.869519
_cell_angle_alpha 90.000000
_cell_angle_beta 150.702358
_cell_angle_gamma 90.000000
_cell_volume 540.637019
_symmetry_space_group_name_H-M "P 2/C"
_symmetry_group_IT_number 13
_symmetry_cell_setting 'monoclinic'
loop_
_space_group_symop_operation_xyz
x,y,z
-x,y,1/2-z
-x,-y,-z
x,-y,1/2+z
loop_
_atom_site_type_symbol
_atom_site_label
_atom_site_fract_x
_atom_site_fract_y
_atom_site_fract_z
Si Si1 0.845324 0.346793 0.658940
Si Si2 0.216805 0.696601 0.103884
Si Si3 0.000000 0.048393 0.750000
Si Si4 0.526700 0.202531 0.973997
O O1 0.885465 0.551971 0.668663
O O2 0.781173 0.354909 0.717958
O O3 0.980146 0.192166 0.855709
O O4 0.699395 0.277277 0.307231
O O5 0.387842 0.685360 0.319994
O O6 0.144903 0.904289 0.983715
O O7 0.500000 0.198382 0.750000
O O8 0.500000 0.000000 0.000000
#
# Coordination Sequence:
#
# PCOD9238705 Si02
#       4
#     4   4   2   4
#     4  12  27  48  75 108 147 192 243 299 361 429
#     4  12  27  48  75 108 147 192 243 299 361 429
#     4  12  28  46  76 104 150 194 248 292 366 424
#     4  12  25  46  77 109 143 187 240 300 363 428
#
# _framework density 25.895378000000001
#
# number of rings (size 3 to 8) (size 9 to 14) (size 15 to 20)
#    0.000    0.000    2.857    6.857    0.000    9.143 
#    0.000    0.000    0.000    0.000    0.000    0.000 
#    0.000    0.000    0.000    0.000    0.000    0.000 
#
# Total GULP energy -78530.674672 kJ/mol
# GULP energy per Si atom -5609.333905 kJ/mol
# Density = 2.583644 g / cm^3
# Si number density = 25.895378 Si / 1000 Ang^3
#
#
#
# Elastic Constant Matrix: (Units=GPa)
#
#
# Indices 1 2 3 4 5 6 
#
# 1 228.9793 67.7223 54.6428 0.0000 -32.0653 0.0000
# 2 67.7223 183.8103 26.2760 0.0000 -15.7293 0.0000
# 3 54.6428 26.2760 81.8792 0.0000 -10.2340 0.0000
# 4 0.0000 0.0000 0.0000 34.4680 0.0000 -2.6466
# 5 -32.0653 -15.7293 -10.2340 0.0000 70.3681 0.0000
# 6 0.0000 0.0000 0.0000 -2.6466 0.0000 47.0514
#
#
#
# Elastic Compliance Matrix: (Units=1/GPa)
#
#
# Indices 1 2 3 4 5 6 
#
# 1 0.005839 -0.001539 -0.003171 0.000000 0.001855 0.000000
# 2 -0.001539 0.006182 -0.000888 0.000000 0.000551 0.000000
# 3 -0.003171 -0.000888 0.014675 0.000000 0.000491 0.000000
# 4 0.000000 0.000000 0.000000 0.029138 0.000000 0.001639
# 5 0.001855 0.000551 0.000491 0.000000 0.015251 0.000000
# 6 0.000000 0.000000 0.000000 0.001639 0.000000 0.021346
#
#
# Mechanical properties :
#
#
# Convention : Reuss Voigt Hill
#
# Bulk Modulus (GPa) = 64.51359 87.99455 76.25407
# Shear Modulus (GPa) = 45.95885 53.44602 49.70243
#
# Velocity S-wave (km/s) = 4.21740 4.54797 4.38580
# Velocity P-wave (km/s) = 6.97728 7.85068 7.42683
#
# Compressibility (1/GPa) = 0.01550061
#
# Stress axis : x y z
#
# Youngs Moduli (GPa) = 171.26370 161.77148 68.14129
#
# Poissons Ratio (x) = 0.24900 0.21606
# Poissons Ratio (y) = 0.26361 0.06048
# Poissons Ratio (z) = 0.54304 0.14359
#
# Static dielectric constant tensor:
#      x y z
#    x 1.976850 0.000000 0.070820 
#    y 0.000000 2.064110 0.000000 
#    z 0.070820 0.000000 2.149510 
# 
# From -- ./inp_files/17665.got.cif
#   From: 2010.05.17/outbox.cif.g08.bks.cpg/sg13_9_cif.got.tgz:17665.got - 2010.06.03 16:44:36.
