data_PCOD9238683
_publ_section_title
;
Structure prediction by ZEFSAII (Michael W. Deem and Ramdas Pophale) SiO2 
 PCOD9238683
Probable space group: P 2/C
;
_chemical_formula_sum "Si O2"
_cell_formula_units_Z 16
_cell_length_a 8.057193
_cell_length_b 17.996003
_cell_length_c 8.617263
_cell_angle_alpha 90.000000
_cell_angle_beta 146.527079
_cell_angle_gamma 90.000000
_cell_volume 689.141498
_symmetry_space_group_name_H-M "P 2/C"
_symmetry_group_IT_number 13
_symmetry_cell_setting 'monoclinic'
loop_
_space_group_symop_operation_xyz
x,y,z
-x,y,1/2-z
-x,-y,-z
x,-y,1/2+z
loop_
_atom_site_type_symbol
_atom_site_label
_atom_site_fract_x
_atom_site_fract_y
_atom_site_fract_z
Si Si1 0.685625 0.440931 0.048444
Si Si2 0.680093 0.061443 0.546951
Si Si3 0.232662 0.301469 0.165337
Si Si4 0.637037 0.211913 0.684473
O O1 0.772546 0.371169 0.222844
O O2 0.000000 0.478631 0.250000
O O3 0.500000 0.419046 0.750000
O O4 0.500000 0.500000 0.000000
O O5 0.744778 0.132651 0.706152
O O6 0.000000 0.028392 0.750000
O O7 0.500000 0.000000 0.500000
O O8 0.500000 0.082516 0.250000
O O9 0.500000 0.316848 0.250000
O O10 0.356177 0.232333 0.358163
O O11 0.897107 0.274525 0.858478
O O12 0.500000 0.211514 0.750000
#
# Coordination Sequence:
#
# PCOD9238683 Si02
#       4
#     4   4   4   4
#     4  12  26  46  71 104 141 184 233 289 349 415
#     4  12  26  46  71 104 141 184 233 289 349 415
#     4  12  25  44  69 100 138 182 229 283 344 411
#     4  12  25  44  69 100 138 182 229 283 344 411
#
# _framework density 23.217293999999999
#
# number of rings (size 3 to 8) (size 9 to 14) (size 15 to 20)
#    0.000    0.000    0.000   12.000    0.000    4.000 
#    0.000    0.000    0.000    0.000    0.000    0.000 
#    0.000    0.000    0.000    0.000    0.000    0.000 
#
# Total GULP energy -89599.883524 kJ/mol
# GULP energy per Si atom -5599.992720 kJ/mol
# Density = 2.316445 g / cm^3
# Si number density = 23.217294 Si / 1000 Ang^3
#
#
#
# Elastic Constant Matrix: (Units=GPa)
#
#
# Indices 1 2 3 4 5 6 
#
# 1 179.6590 43.0208 45.7586 0.0000 22.3480 0.0000
# 2 43.0208 109.7690 12.7492 0.0000 6.9451 0.0000
# 3 45.7586 12.7492 106.9257 0.0000 10.6946 0.0000
# 4 0.0000 0.0000 0.0000 26.8764 0.0000 15.8155
# 5 22.3480 6.9451 10.6946 0.0000 44.7148 0.0000
# 6 0.0000 0.0000 0.0000 15.8155 0.0000 23.6420
#
#
#
# Elastic Compliance Matrix: (Units=1/GPa)
#
#
# Indices 1 2 3 4 5 6 
#
# 1 0.007078 -0.002321 -0.002494 0.000000 -0.002581 0.000000
# 2 -0.002321 0.010062 -0.000170 0.000000 -0.000362 0.000000
# 3 -0.002494 -0.000170 0.010565 0.000000 -0.001254 0.000000
# 4 0.000000 0.000000 0.000000 0.061363 0.000000 -0.041049
# 5 -0.002581 -0.000362 -0.001254 0.000000 0.024010 0.000000
# 6 0.000000 0.000000 0.000000 -0.041049 0.000000 0.069757
#
#
# Mechanical properties :
#
#
# Convention : Reuss Voigt Hill
#
# Bulk Modulus (GPa) = 56.38629 66.60121 61.49375
# Shear Modulus (GPa) = 25.16119 38.70166 31.93142
#
# Velocity S-wave (km/s) = 3.29557 4.08724 3.71257
# Velocity P-wave (km/s) = 6.23058 7.14299 6.70233
#
# Compressibility (1/GPa) = 0.01773481
#
# Stress axis : x y z
#
# Youngs Moduli (GPa) = 141.27911 99.37960 94.64851
#
# Poissons Ratio (x) = 0.23067 0.23608
# Poissons Ratio (y) = 0.32793 0.01611
# Poissons Ratio (z) = 0.35238 0.01692
#
# Static dielectric constant tensor:
#      x y z
#    x 1.898370 0.000000 -0.011570 
#    y 0.000000 1.815420 0.000000 
#    z -0.011570 0.000000 1.846370 
# 
# From -- ./inp_files/12936.got.cif
#   From: 2010.05.17/outbox.cif.g08.bks.cpg/sg13_7_cif.got.tgz:12936.got - 2010.06.03 16:44:36.
