data_PCOD9238865
_publ_section_title
;
Structure prediction by ZEFSAII (Michael W. Deem and Ramdas Pophale) SiO2 
 PCOD9238865
Probable space group: P 2/C
;
_chemical_formula_sum "Si O2"
_cell_formula_units_Z 28
_cell_length_a 15.000000
_cell_length_b 9.000000
_cell_length_c 18.000000
_cell_angle_alpha 90.000000
_cell_angle_beta 40.000000
_cell_angle_gamma 90.000000
_cell_volume 1561.973892
_symmetry_space_group_name_H-M "P 2/C"
_symmetry_group_IT_number 13
_symmetry_cell_setting 'monoclinic'
loop_
_space_group_symop_operation_xyz
x,y,z
-x,y,1/2-z
-x,-y,-z
x,-y,1/2+z
loop_
_atom_site_type_symbol
_atom_site_label
_atom_site_fract_x
_atom_site_fract_y
_atom_site_fract_z
Si Si1 0.777236 0.162802 0.380753
Si Si2 0.000000 0.913251 0.250000
Si Si3 0.000000 0.421324 0.250000
Si Si4 0.104574 0.208119 0.943740
Si Si5 0.950749 0.670989 0.404398
Si Si6 0.183615 0.098248 0.312074
Si Si7 0.355973 0.147829 0.883451
Si Si8 0.338256 0.201408 0.354350
O O1 0.869188 0.312301 0.322324
O O2 0.753744 0.119101 0.309670
O O3 0.658170 0.178766 0.519213
O O4 0.872810 0.024277 0.345106
O O5 0.006796 0.806706 0.317079
O O6 0.973925 0.525743 0.338835
O O7 0.231725 0.233649 0.919185
O O8 0.039944 0.322053 0.924198
O O9 0.160786 0.068477 0.858474
O O10 0.972557 0.162934 0.079125
O O11 0.786991 0.705744 0.526070
O O12 0.283426 0.182350 0.305546
O O13 0.500000 0.184634 0.750000
O O14 0.338132 0.968392 0.885814
O O15 0.500000 0.253473 0.250000
#
# Coordination Sequence:
#
# PCOD9238865 Si02
#       8
#     4   2   2   4   4   4   4   4
#     4  11  19  35  51  80 109 143 176 231 266 323
#     4  10  16  28  56  78  98 136 174 222 278 292
#     4  10  24  32  54  84 114 136 192 222 270 310
#     4   9  16  31  53  82 107 136 185 224 267 323
#     4  10  18  34  53  81 106 142 180 228 260 315
#     4   9  17  29  56  83 104 140 180 227 273 314
#     4  10  20  34  55  83 112 140 176 227 280 328
#     4   9  18  34  55  84 113 139 177 223 273 327
#
# _framework density 17.926036
#
# number of rings (size 3 to 8) (size 9 to 14) (size 15 to 20)
#    0.000    2.286    2.857    2.571    0.000    0.000 
#    0.000   16.429    0.000    1.714    0.000    0.000 
#    0.000    0.000    0.000    0.000    0.000    0.000 
#
# Total GULP energy -155979.749717 kJ/mol
# GULP energy per Si atom -5570.705347 kJ/mol
# Density = 1.788524 g / cm^3
# Si number density = 17.926036 Si / 1000 Ang^3
#
#
#
# Elastic Constant Matrix: (Units=GPa)
#
#
# Indices 1 2 3 4 5 6 
#
# 1 73.9775 3.3189 50.4693 0.0000 6.6516 0.0000
# 2 3.3189 51.3372 15.2834 0.0000 4.9254 0.0000
# 3 50.4693 15.2834 146.6278 0.0000 11.7591 0.0000
# 4 0.0000 0.0000 0.0000 20.0265 0.0000 2.9213
# 5 6.6516 4.9254 11.7591 0.0000 40.2857 0.0000
# 6 0.0000 0.0000 0.0000 2.9213 0.0000 12.0575
#
#
#
# Elastic Compliance Matrix: (Units=1/GPa)
#
#
# Indices 1 2 3 4 5 6 
#
# 1 0.017750 0.000786 -0.006091 0.000000 -0.001249 0.000000
# 2 0.000786 0.020279 -0.002227 0.000000 -0.001959 0.000000
# 3 -0.006091 -0.002227 0.009263 0.000000 -0.001426 0.000000
# 4 0.000000 0.000000 0.000000 0.051763 0.000000 -0.012541
# 5 -0.001249 -0.001959 -0.001426 0.000000 0.025685 0.000000
# 6 0.000000 0.000000 0.000000 -0.012541 0.000000 0.085974
#
#
# Mechanical properties :
#
#
# Convention : Reuss Voigt Hill
#
# Bulk Modulus (GPa) = 31.02973 45.56509 38.29741
# Shear Modulus (GPa) = 21.13958 27.99864 24.56911
#
# Velocity S-wave (km/s) = 3.43777 3.95637 3.70615
# Velocity P-wave (km/s) = 5.75371 6.80765 6.30275
#
# Compressibility (1/GPa) = 0.03222716
#
# Stress axis : x y z
#
# Youngs Moduli (GPa) = 56.33675 49.31149 107.95463
#
# Poissons Ratio (x) = -0.03875 0.65760
# Poissons Ratio (y) = -0.04427 0.24043
# Poissons Ratio (z) = 0.34317 0.10982
#
# Static dielectric constant tensor:
#      x y z
#    x 1.653220 0.000000 0.015260 
#    y 0.000000 1.619750 0.000000 
#    z 0.015260 0.000000 1.614790 
# 
# From -- ./inp_files/68221.got.cif
#   From: 2010.05.17/outbox.ucp.g08.bks.cvg/sg13_35_cif.got.tgz:68221.got - 2010.06.11 12:23:55.
