data_PCOD9238413
_publ_section_title
;
Structure prediction by ZEFSAII (Michael W. Deem and Ramdas Pophale) SiO2 
 PCOD9238413
Probable space group: P 2/C
;
_chemical_formula_sum "Si O2"
_cell_formula_units_Z 16
_cell_length_a 19.071912
_cell_length_b 7.717623
_cell_length_c 8.788425
_cell_angle_alpha 90.000000
_cell_angle_beta 28.492047
_cell_angle_gamma 90.000000
_cell_volume 617.078906
_symmetry_space_group_name_H-M "P 2/C"
_symmetry_group_IT_number 13
_symmetry_cell_setting 'monoclinic'
loop_
_space_group_symop_operation_xyz
x,y,z
-x,y,1/2-z
-x,-y,-z
x,-y,1/2+z
loop_
_atom_site_type_symbol
_atom_site_label
_atom_site_fract_x
_atom_site_fract_y
_atom_site_fract_z
Si Si1 0.530593 0.183630 0.868492
Si Si2 0.810385 0.694259 0.724643
Si Si3 0.904642 0.168149 0.725107
Si Si4 0.350490 0.663777 0.944615
O O1 0.500000 0.173752 0.750000
O O2 0.702340 0.222372 0.555410
O O3 0.426243 0.332355 0.133869
O O4 0.500000 0.000000 0.000000
O O5 0.971062 0.683405 0.491816
O O6 0.829711 0.185595 0.036380
O O7 0.729522 0.511095 0.850605
O O8 0.782857 0.202370 0.828553
O O9 0.000000 0.000000 0.500000
O O10 0.500000 0.709740 0.750000
#
# Coordination Sequence:
#
# PCOD9238413 Si02
#       4
#     4   4   4   4
#     4  12  25  47  77 118 165 216 274 340 418 493
#     4  11  26  48  82 117 162 214 281 339 416 496
#     4  11  26  54  82 115 168 219 273 341 417 505
#     4  12  27  51  84 122 165 217 278 350 423 498
#
# _framework density 25.928615000000001
#
# number of rings (size 3 to 8) (size 9 to 14) (size 15 to 20)
#    0.000    0.500    2.500    4.500    3.500    0.000 
#    4.500    1.250    0.000    0.000    0.000    0.000 
#    0.000    0.000    0.000    0.000    0.000    0.000 
#
# Total GULP energy -89384.078680 kJ/mol
# GULP energy per Si atom -5586.504918 kJ/mol
# Density = 2.586960 g / cm^3
# Si number density = 25.928615 Si / 1000 Ang^3
#
#
#
# Elastic Constant Matrix: (Units=GPa)
#
#
# Indices 1 2 3 4 5 6 
#
# 1 141.6368 52.5213 42.7171 0.0000 -38.6315 0.0000
# 2 52.5213 146.0934 58.8770 0.0000 -0.9683 0.0000
# 3 42.7171 58.8770 173.5457 0.0000 -27.1150 0.0000
# 4 0.0000 0.0000 0.0000 63.8252 0.0000 -2.0145
# 5 -38.6315 -0.9683 -27.1150 0.0000 61.5552 0.0000
# 6 0.0000 0.0000 0.0000 -2.0145 0.0000 34.0465
#
#
#
# Elastic Compliance Matrix: (Units=1/GPa)
#
#
# Indices 1 2 3 4 5 6 
#
# 1 0.010125 -0.003454 -0.000361 0.000000 0.006141 0.000000
# 2 -0.003454 0.009182 -0.002772 0.000000 -0.003244 0.000000
# 3 -0.000361 -0.002772 0.007248 0.000000 0.002923 0.000000
# 4 0.000000 0.000000 0.000000 0.015697 0.000000 0.000929
# 5 0.006141 -0.003244 0.002923 0.000000 0.021336 0.000000
# 6 0.000000 0.000000 0.000000 0.000929 0.000000 0.029427
#
#
# Mechanical properties :
#
#
# Convention : Reuss Voigt Hill
#
# Bulk Modulus (GPa) = 74.72826 85.50074 80.11450
# Shear Modulus (GPa) = 45.18818 52.36274 48.77546
#
# Velocity S-wave (km/s) = 4.17920 4.49876 4.34192
# Velocity P-wave (km/s) = 7.22295 7.74804 7.49010
#
# Compressibility (1/GPa) = 0.01338182
#
# Stress axis : x y z
#
# Youngs Moduli (GPa) = 98.76719 108.90683 137.96833
#
# Poissons Ratio (x) = 0.37614 0.04980
# Poissons Ratio (y) = 0.34112 0.38243
# Poissons Ratio (z) = 0.03565 0.30188
#
# Static dielectric constant tensor:
#      x y z
#    x 2.193010 0.000000 -0.002170 
#    y 0.000000 2.084370 0.000000 
#    z -0.002170 0.000000 2.125880 
# 
# From -- ./inp_files/21020.got.cif
#   From: 2010.05.17/outbox.cif.g08.bks.cpg/sg13_11_cif.got.tgz:21020.got - 2010.06.03 16:44:36.
