data_PCOD9238039
_publ_section_title
;
Structure prediction by ZEFSAII (Michael W. Deem and Ramdas Pophale) SiO2 
 PCOD9238039
Probable space group: P 2/C
;
_chemical_formula_sum "Si O2"
_cell_formula_units_Z 20
_cell_length_a 10.775713
_cell_length_b 6.728540
_cell_length_c 23.944777
_cell_angle_alpha 90.000000
_cell_angle_beta 151.027634
_cell_angle_gamma 90.000000
_cell_volume 840.951183
_symmetry_space_group_name_H-M "P 2/C"
_symmetry_group_IT_number 13
_symmetry_cell_setting 'monoclinic'
loop_
_space_group_symop_operation_xyz
x,y,z
-x,y,1/2-z
-x,-y,-z
x,-y,1/2+z
loop_
_atom_site_type_symbol
_atom_site_label
_atom_site_fract_x
_atom_site_fract_y
_atom_site_fract_z
Si Si1 0.485489 0.405802 0.640931
Si Si2 0.992927 0.418437 0.180640
Si Si3 0.161816 0.272908 0.958717
Si Si4 0.245373 0.910415 0.130440
Si Si5 0.399542 0.895814 0.016054
O O1 0.736050 0.543492 0.742834
O O2 0.255077 0.556482 0.536385
O O3 0.369657 0.263598 0.642121
O O4 0.547825 0.265327 0.611486
O O5 0.000000 0.400752 0.250000
O O6 0.836004 0.615948 0.100082
O O7 0.855434 0.224604 0.101833
O O8 0.888828 0.185623 0.868104
O O9 0.346502 0.085296 0.033738
O O10 0.500000 0.033386 0.250000
O O11 0.000000 0.000000 0.000000
O O12 0.500000 0.000000 0.000000
#
# Coordination Sequence:
#
# PCOD9238039 Si02
#       5
#     4   4   4   4   4
#     4  11  24  45  72 104 147 195 252 306 376 460
#     4  11  24  42  69 104 142 197 248 305 376 458
#     4  11  24  45  70 104 148 197 248 312 378 448
#     4  12  25  49  77 112 153 201 255 318 384 454
#     4  11  24  43  69 104 147 191 247 311 373 447
#
# _framework density 23.782592000000001
#
# number of rings (size 3 to 8) (size 9 to 14) (size 15 to 20)
#    0.000    0.800    4.000    3.000    0.000    8.800 
#    0.000    0.000    0.000    0.000    0.000    0.000 
#    0.000    0.000    0.000    0.000    0.000    0.000 
#
# Total GULP energy -111615.946617 kJ/mol
# GULP energy per Si atom -5580.797331 kJ/mol
# Density = 2.372846 g / cm^3
# Si number density = 23.782592 Si / 1000 Ang^3
#
#
#
# Elastic Constant Matrix: (Units=GPa)
#
#
# Indices 1 2 3 4 5 6 
#
# 1 69.1230 16.8345 -6.6060 0.0000 3.6355 0.0000
# 2 16.8345 95.7400 35.5119 0.0000 3.3453 0.0000
# 3 -6.6060 35.5119 94.8486 0.0000 5.9813 0.0000
# 4 0.0000 0.0000 0.0000 30.6757 0.0000 5.5401
# 5 3.6355 3.3453 5.9813 0.0000 35.4549 0.0000
# 6 0.0000 0.0000 0.0000 5.5401 0.0000 33.8089
#
#
#
# Elastic Compliance Matrix: (Units=1/GPa)
#
#
# Indices 1 2 3 4 5 6 
#
# 1 0.015691 -0.003652 0.002567 0.000000 -0.001697 0.000000
# 2 -0.003652 0.012985 -0.005117 0.000000 0.000013 0.000000
# 3 0.002567 -0.005117 0.012760 0.000000 -0.001933 0.000000
# 4 0.000000 0.000000 0.000000 0.033593 0.000000 -0.005505
# 5 -0.001697 0.000013 -0.001933 0.000000 0.028704 0.000000
# 6 0.000000 0.000000 0.000000 -0.005505 0.000000 0.030480
#
#
# Mechanical properties :
#
#
# Convention : Reuss Voigt Hill
#
# Bulk Modulus (GPa) = 34.44442 39.02138 36.73290
# Shear Modulus (GPa) = 31.99132 34.25264 33.12198
#
# Velocity S-wave (km/s) = 3.67162 3.79917 3.73594
# Velocity P-wave (km/s) = 5.69990 5.97395 5.83853
#
# Compressibility (1/GPa) = 0.02903227
#
# Stress axis : x y z
#
# Youngs Moduli (GPa) = 63.73085 77.01478 78.37290
#
# Poissons Ratio (x) = 0.28125 -0.20120
# Poissons Ratio (y) = 0.23274 0.40100
# Poissons Ratio (z) = -0.16361 0.39406
#
# Static dielectric constant tensor:
#      x y z
#    x 1.945580 0.000000 -0.027020 
#    y 0.000000 1.865480 0.000000 
#    z -0.027020 0.000000 2.052030 
# 
# From -- ./inp_files/42069.got.cif
#   From: 2010.05.17/outbox.cif.g08.bks.cpg/sg13_22_cif.got.tgz:42069.got - 2010.06.03 16:44:36.
