data_PCOD9238851
_publ_section_title
;
Structure prediction by ZEFSAII (Michael W. Deem and Ramdas Pophale) SiO2 
 PCOD9238851
Probable space group: P 2/C
;
_chemical_formula_sum "Si O2"
_cell_formula_units_Z 20
_cell_length_a 11.890990
_cell_length_b 9.435862
_cell_length_c 8.537823
_cell_angle_alpha 90.000000
_cell_angle_beta 122.922830
_cell_angle_gamma 90.000000
_cell_volume 804.113675
_symmetry_space_group_name_H-M "P 2/C"
_symmetry_group_IT_number 13
_symmetry_cell_setting 'monoclinic'
loop_
_space_group_symop_operation_xyz
x,y,z
-x,y,1/2-z
-x,-y,-z
x,-y,1/2+z
loop_
_atom_site_type_symbol
_atom_site_label
_atom_site_fract_x
_atom_site_fract_y
_atom_site_fract_z
Si Si1 0.100643 0.379795 0.508040
Si Si2 0.761869 0.445950 0.600836
Si Si3 0.080451 0.815316 0.457496
Si Si4 0.651801 0.142928 0.164970
Si Si5 0.500000 0.379059 0.250000
Si Si6 0.500000 0.090136 0.750000
O O1 0.231149 0.406147 0.713775
O O2 0.150282 0.415170 0.373268
O O3 0.000000 0.500000 0.500000
O O4 0.033572 0.235937 0.508332
O O5 0.842566 0.317828 0.572946
O O6 0.611716 0.460464 0.431192
O O7 0.196651 0.873591 0.657462
O O8 0.000000 0.886302 0.250000
O O9 0.583564 0.277236 0.197635
O O10 0.582767 0.006545 0.192047
O O11 0.611134 0.157364 0.951450
#
# Coordination Sequence:
#
# PCOD9238851 Si02
#       6
#     4   4   4   4   2   2
#     4   9  16  29  47  66  93 132 172 204 244 291
#     4   9  17  29  46  68  96 133 170 206 247 288
#     4   8  15  29  50  71  96 134 169 204 251 300
#     4   9  17  33  53  74 101 130 166 207 256 310
#     4   9  18  32  48  69 100 136 168 205 250 297
#     4   9  18  32  54  77  98 130 164 209 262 307
#
# _framework density 24.872105999999999
#
# number of rings (size 3 to 8) (size 9 to 14) (size 15 to 20)
#    0.000    3.200    0.000    1.800    0.000    0.800 
#    0.000    9.000    0.000    4.800    0.000    0.000 
#    0.000    0.000    0.000    0.000    0.000    0.400 
#
# Total GULP energy -111517.028629 kJ/mol
# GULP energy per Si atom -5575.851431 kJ/mol
# Density = 2.481550 g / cm^3
# Si number density = 24.872106 Si / 1000 Ang^3
#
#
#
# Elastic Constant Matrix: (Units=GPa)
#
#
# Indices 1 2 3 4 5 6 
#
# 1 61.2749 9.3311 65.7958 0.0000 10.2451 0.0000
# 2 9.3311 18.1914 23.5888 0.0000 -0.1956 0.0000
# 3 65.7958 23.5888 255.4639 0.0000 16.8843 0.0000
# 4 0.0000 0.0000 0.0000 27.2415 0.0000 -5.2242
# 5 10.2451 -0.1956 16.8843 0.0000 49.0352 0.0000
# 6 0.0000 0.0000 0.0000 -5.2242 0.0000 63.6867
#
#
#
# Elastic Compliance Matrix: (Units=1/GPa)
#
#
# Indices 1 2 3 4 5 6 
#
# 1 0.023338 -0.005080 -0.005340 0.000000 -0.003058 0.000000
# 2 -0.005080 0.063805 -0.004779 0.000000 0.002961 0.000000
# 3 -0.005340 -0.004779 0.005790 0.000000 -0.000897 0.000000
# 4 0.000000 0.000000 0.000000 0.037295 0.000000 0.003059
# 5 -0.003058 0.002961 -0.000897 0.000000 0.021353 0.000000
# 6 0.000000 0.000000 0.000000 0.003059 0.000000 0.015953
#
#
# Mechanical properties :
#
#
# Convention : Reuss Voigt Hill
#
# Bulk Modulus (GPa) = 15.99060 59.15130 37.57095
# Shear Modulus (GPa) = 22.85416 43.74032 33.29724
#
# Velocity S-wave (km/s) = 3.03457 4.19813 3.66285
# Velocity P-wave (km/s) = 4.32681 6.87989 5.74692
#
# Compressibility (1/GPa) = 0.06253675
#
# Stress axis : x y z
#
# Youngs Moduli (GPa) = 42.84769 15.67265 172.70271
#
# Poissons Ratio (x) = 0.07962 0.92219
# Poissons Ratio (y) = 0.21767 0.82534
# Poissons Ratio (z) = 0.22880 0.07490
#
# Static dielectric constant tensor:
#      x y z
#    x 1.983550 0.000000 -0.074810 
#    y 0.000000 2.005370 0.000000 
#    z -0.074810 0.000000 2.266070 
# 
# From -- ./inp_files/11709.got.cif
#   From: 2010.05.17/outbox.cif.g08.bks.cpg/sg13_6_cif.got.tgz:11709.got - 2010.06.03 16:44:36.
