data_PCOD9238597
_publ_section_title
;
Structure prediction by ZEFSAII (Michael W. Deem and Ramdas Pophale) SiO2 
 PCOD9238597
Probable space group: P 2/C
;
_chemical_formula_sum "Si O2"
_cell_formula_units_Z 18
_cell_length_a 10.651375
_cell_length_b 12.780040
_cell_length_c 5.514215
_cell_angle_alpha 90.000000
_cell_angle_beta 98.569913
_cell_angle_gamma 90.000000
_cell_volume 742.241635
_symmetry_space_group_name_H-M "P 2/C"
_symmetry_group_IT_number 13
_symmetry_cell_setting 'monoclinic'
loop_
_space_group_symop_operation_xyz
x,y,z
-x,y,1/2-z
-x,-y,-z
x,-y,1/2+z
loop_
_atom_site_type_symbol
_atom_site_label
_atom_site_fract_x
_atom_site_fract_y
_atom_site_fract_z
Si Si1 0.500000 0.256227 0.250000
Si Si2 0.500000 0.624131 0.250000
Si Si3 0.000000 0.274154 0.750000
Si Si4 0.647445 0.944266 0.675365
Si Si5 0.201645 0.439911 0.602907
Si Si6 0.082727 0.101525 0.084665
O O1 0.529181 0.319139 0.501183
O O2 0.392690 0.174917 0.303259
O O3 0.642892 0.577948 0.343355
O O4 0.097910 0.348022 0.627593
O O5 0.898855 0.187241 0.615307
O O6 0.797064 0.941462 0.742491
O O7 0.610014 0.993215 0.408546
O O8 0.177971 0.482768 0.324981
O O9 0.000000 0.167147 0.250000
O O10 0.000000 0.000000 0.000000
#
# Coordination Sequence:
#
# PCOD9238597 Si02
#       6
#     2   2   2   4   4   4
#     4  12  26  42  70 106 138 182 248 293 354 427
#     4  12  26  48  76 104 138 186 232 299 368 439
#     4  12  28  44  76 108 146 190 238 304 356 422
#     4  12  24  42  64  95 145 194 237 291 346 408
#     4  12  28  52  77 108 143 186 240 303 369 432
#     4  12  24  42  67 102 147 194 238 283 346 427
#
# _framework density 24.250864
#
# number of rings (size 3 to 8) (size 9 to 14) (size 15 to 20)
#    0.000    0.000    3.333    6.000    6.222    0.000 
#    0.000    0.000    0.000    0.000    0.000    0.000 
#    0.000    0.000    0.000    0.000    0.000    0.000 
#
# Total GULP energy -100262.413597 kJ/mol
# GULP energy per Si atom -5570.134089 kJ/mol
# Density = 2.419567 g / cm^3
# Si number density = 24.250864 Si / 1000 Ang^3
#
#
#
# Elastic Constant Matrix: (Units=GPa)
#
#
# Indices 1 2 3 4 5 6 
#
# 1 108.3462 13.3093 3.5241 0.0000 1.9234 0.0000
# 2 13.3093 74.2005 23.3781 0.0000 -7.2999 0.0000
# 3 3.5241 23.3781 122.8710 0.0000 -2.9291 0.0000
# 4 0.0000 0.0000 0.0000 31.1370 0.0000 -31.4069
# 5 1.9234 -7.2999 -2.9291 0.0000 45.4099 0.0000
# 6 0.0000 0.0000 0.0000 -31.4069 0.0000 12.4473
#
#
#
# Elastic Compliance Matrix: (Units=1/GPa)
#
#
# Indices 1 2 3 4 5 6 
#
# 1 0.009459 -0.001780 0.000051 0.000000 -0.000683 0.000000
# 2 -0.001780 0.014880 -0.002726 0.000000 0.002292 0.000000
# 3 0.000051 -0.002726 0.008659 0.000000 0.000118 0.000000
# 4 0.000000 0.000000 0.000000 -0.020786 0.000000 -0.052448
# 5 -0.000683 0.002292 0.000118 0.000000 0.022427 0.000000
# 6 0.000000 0.000000 0.000000 -0.052448 0.000000 -0.051997
#
#
# Mechanical properties :
#
#
# Convention : Reuss Voigt Hill
#
# Bulk Modulus (GPa) = 41.51282 42.87120 42.19201
# Shear Modulus (GPa) = -11898.41117 35.47924 -5931.46597
#
# Velocity S-wave (km/s) = -70.12159 3.82908 -49.50947
# Velocity P-wave (km/s) = 80.86344 6.10457 57.01592
#
# Compressibility (1/GPa) = 0.02408894
#
# Stress axis : x y z
#
# Youngs Moduli (GPa) = 105.72167 67.20224 115.49288
#
# Poissons Ratio (x) = 0.11962 -0.00590
# Poissons Ratio (y) = 0.18818 0.31478
# Poissons Ratio (z) = -0.00540 0.18316
#
# Static dielectric constant tensor:
#      x y z
#    x 2.136820 0.000000 0.160160 
#    y 0.000000 1.903650 0.000000 
#    z 0.160160 0.000000 0.444460 
# 
# From -- ./inp_files/3071.got.cif
#   From: 2010.05.17/outbox.cif.g08.bks.cpg/sg13_2_cif.got.tgz:3071.got - 2010.06.03 16:44:36.
