data_PCOD9238759
_publ_section_title
;
Structure prediction by ZEFSAII (Michael W. Deem and Ramdas Pophale) SiO2 
 PCOD9238759
Probable space group: P 2/C
;
_chemical_formula_sum "Si O2"
_cell_formula_units_Z 16
_cell_length_a 9.789926
_cell_length_b 5.966402
_cell_length_c 10.471159
_cell_angle_alpha 90.000000
_cell_angle_beta 67.698137
_cell_angle_gamma 90.000000
_cell_volume 565.875732
_symmetry_space_group_name_H-M "P 2/C"
_symmetry_group_IT_number 13
_symmetry_cell_setting 'monoclinic'
loop_
_space_group_symop_operation_xyz
x,y,z
-x,y,1/2-z
-x,-y,-z
x,-y,1/2+z
loop_
_atom_site_type_symbol
_atom_site_label
_atom_site_fract_x
_atom_site_fract_y
_atom_site_fract_z
Si Si1 0.000000 0.000000 0.000000
Si Si2 0.500000 0.519342 0.750000
Si Si3 0.287048 0.091434 0.276408
Si Si4 0.094539 0.423954 0.589750
Si Si5 0.634118 0.767993 0.019346
O O1 0.893366 0.160962 0.946025
O O2 0.112072 0.939773 0.840606
O O3 0.644643 0.674726 0.697985
O O4 0.501090 0.381389 0.881094
O O5 0.334792 0.904681 0.361720
O O6 0.364526 0.085370 0.109385
O O7 0.229741 0.595390 0.550062
O O8 0.000000 0.448990 0.750000
O O9 0.000000 0.500000 0.500000
#
# Coordination Sequence:
#
# PCOD9238759 Si02
#       5
#     2   2   4   4   4
#     4  12  26  48  82 120 162 216 286 352 416 506
#     4  12  28  54  80 122 174 234 284 352 430 510
#     4  12  29  50  85 125 169 228 289 355 422 517
#     4  12  27  50  82 120 165 214 276 359 426 499
#     4  12  29  52  85 121 174 225 286 351 429 512
#
# _framework density 28.274757999999999
#
# number of rings (size 3 to 8) (size 9 to 14) (size 15 to 20)
#    0.000    0.000    5.000    3.000    3.500    7.000 
#    0.000    0.000    0.000    0.000    0.000    0.000 
#    0.000    0.000    0.000    0.000    0.000    0.000 
#
# Total GULP energy -89108.211476 kJ/mol
# GULP energy per Si atom -5569.263217 kJ/mol
# Density = 2.821040 g / cm^3
# Si number density = 28.274758 Si / 1000 Ang^3
#
#
#
# Elastic Constant Matrix: (Units=GPa)
#
#
# Indices 1 2 3 4 5 6 
#
# 1 71.9611 43.0615 45.0516 0.0000 -2.2747 0.0000
# 2 43.0615 120.9480 91.7884 0.0000 -8.9776 0.0000
# 3 45.0516 91.7884 294.1172 0.0000 -1.9815 0.0000
# 4 0.0000 0.0000 0.0000 75.4174 0.0000 -7.2919
# 5 -2.2747 -8.9776 -1.9815 0.0000 61.9804 0.0000
# 6 0.0000 0.0000 0.0000 -7.2919 0.0000 58.6132
#
#
#
# Elastic Compliance Matrix: (Units=1/GPa)
#
#
# Indices 1 2 3 4 5 6 
#
# 1 0.017876 -0.005634 -0.000981 0.000000 -0.000191 0.000000
# 2 -0.005634 0.012744 -0.003104 0.000000 0.001540 0.000000
# 3 -0.000981 -0.003104 0.004517 0.000000 -0.000341 0.000000
# 4 0.000000 0.000000 0.000000 0.013421 0.000000 0.001670
# 5 -0.000191 0.001540 -0.000341 0.000000 0.016339 0.000000
# 6 0.000000 0.000000 0.000000 0.001670 0.000000 0.017269
#
#
# Mechanical properties :
#
#
# Convention : Reuss Voigt Hill
#
# Bulk Modulus (GPa) = 63.70052 94.09214 78.89633
# Shear Modulus (GPa) = 46.80080 59.67720 53.23900
#
# Velocity S-wave (km/s) = 4.07285 4.59913 4.34397
# Velocity P-wave (km/s) = 6.68547 7.84555 7.28863
#
# Compressibility (1/GPa) = 0.01569846
#
# Stress axis : x y z
#
# Youngs Moduli (GPa) = 55.94083 78.47063 221.40562
#
# Poissons Ratio (x) = 0.44211 0.21724
# Poissons Ratio (y) = 0.31517 0.68717
# Poissons Ratio (z) = 0.05489 0.24355
#
# Static dielectric constant tensor:
#      x y z
#    x 2.209590 0.000000 -0.083510 
#    y 0.000000 1.505050 0.000000 
#    z -0.083510 0.000000 2.333960 
# 
# From -- ./inp_files/31242.got.cif
#   From: 2010.05.17/outbox.cif.g08.bks.cpg/sg13_16_cif.got.tgz:31242.got - 2010.06.03 16:44:36.
