data_PCOD9238574
_publ_section_title
;
Structure prediction by ZEFSAII (Michael W. Deem and Ramdas Pophale) SiO2 
 PCOD9238574
Probable space group: P 2/C
;
_chemical_formula_sum "Si O2"
_cell_formula_units_Z 28
_cell_length_a 22.038405
_cell_length_b 7.558204
_cell_length_c 9.591953
_cell_angle_alpha 90.000000
_cell_angle_beta 45.270800
_cell_angle_gamma 90.000000
_cell_volume 1135.099078
_symmetry_space_group_name_H-M "P 2/C"
_symmetry_group_IT_number 13
_symmetry_cell_setting 'monoclinic'
loop_
_space_group_symop_operation_xyz
x,y,z
-x,y,1/2-z
-x,-y,-z
x,-y,1/2+z
loop_
_atom_site_type_symbol
_atom_site_label
_atom_site_fract_x
_atom_site_fract_y
_atom_site_fract_z
Si Si1 0.588530 0.106078 0.351611
Si Si2 0.218167 0.468526 0.860910
Si Si3 0.137407 0.967363 0.773712
Si Si4 0.673525 0.166779 0.513288
Si Si5 0.951929 0.364899 0.975032
Si Si6 0.330310 0.421682 0.419941
Si Si7 0.098814 0.822545 0.579012
O O1 0.620812 0.139232 0.456279
O O2 0.594839 0.288423 0.249847
O O3 0.500000 0.000000 0.500000
O O4 0.648837 0.971006 0.172356
O O5 0.287082 0.387238 0.640829
O O6 0.263470 0.593139 0.899826
O O7 0.142891 0.560076 0.897767
O O8 0.164703 0.320875 0.030171
O O9 0.227753 0.883407 0.669873
O O10 0.122611 0.991915 0.633519
O O11 0.063326 0.829701 0.938332
O O12 0.124060 0.144473 0.880421
O O13 0.653803 0.366782 0.596069
O O14 0.000000 0.357543 0.750000
O O15 0.000000 0.500000 0.000000
O O16 0.000000 0.777825 0.750000
#
# Coordination Sequence:
#
# PCOD9238574 Si02
#       7
#     4   4   4   4   4   4   4
#     4  12  29  52  82 122 157 196 250 328 406 486
#     4  12  23  45  69 108 147 204 266 316 384 468
#     4  12  24  44  65 103 144 203 263 314 382 458
#     4  12  26  50  82 116 156 205 266 319 395 485
#     4  12  24  40  65  97 146 198 258 327 380 443
#     4  12  25  49  80 113 157 202 261 320 394 484
#     4  12  25  40  64 103 155 205 263 334 387 440
#
# _framework density 24.667449000000001
#
# number of rings (size 3 to 8) (size 9 to 14) (size 15 to 20)
#    0.000    0.000    4.286    6.000    2.000    2.857 
#    0.000    1.429    0.000    0.000    0.000    0.000 
#    0.000    0.000    0.000    0.000    0.000    0.000 
#
# Total GULP energy -156775.846919 kJ/mol
# GULP energy per Si atom -5599.137390 kJ/mol
# Density = 2.461131 g / cm^3
# Si number density = 24.667449 Si / 1000 Ang^3
#
#
#
# Elastic Constant Matrix: (Units=GPa)
#
#
# Indices 1 2 3 4 5 6 
#
# 1 95.9989 16.1219 34.4429 0.0000 7.2783 0.0000
# 2 16.1219 108.5670 25.8251 0.0000 -10.8945 0.0000
# 3 34.4429 25.8251 97.0080 0.0000 -0.8855 0.0000
# 4 0.0000 0.0000 0.0000 57.2281 0.0000 -2.5096
# 5 7.2783 -10.8945 -0.8855 0.0000 31.3179 0.0000
# 6 0.0000 0.0000 0.0000 -2.5096 0.0000 34.8987
#
#
#
# Elastic Compliance Matrix: (Units=1/GPa)
#
#
# Indices 1 2 3 4 5 6 
#
# 1 0.012346 -0.001201 -0.004095 0.000000 -0.003403 0.000000
# 2 -0.001201 0.010314 -0.002285 0.000000 0.003802 0.000000
# 3 -0.004095 -0.002285 0.012375 0.000000 0.000507 0.000000
# 4 0.000000 0.000000 0.000000 0.017529 0.000000 0.001261
# 5 -0.003403 0.003802 0.000507 0.000000 0.034058 0.000000
# 6 0.000000 0.000000 0.000000 0.001261 0.000000 0.028745
#
#
# Mechanical properties :
#
#
# Convention : Reuss Voigt Hill
#
# Bulk Modulus (GPa) = 50.31578 50.48376 50.39977
# Shear Modulus (GPa) = 36.45569 39.70122 38.07845
#
# Velocity S-wave (km/s) = 3.84850 4.01616 3.93322
# Velocity P-wave (km/s) = 6.33955 6.48199 6.41116
#
# Compressibility (1/GPa) = 0.01987448
#
# Stress axis : x y z
#
# Youngs Moduli (GPa) = 81.00111 96.95315 80.80719
#
# Poissons Ratio (x) = 0.11641 0.33088
# Poissons Ratio (y) = 0.09726 0.18463
# Poissons Ratio (z) = 0.33168 0.22152
#
# Static dielectric constant tensor:
#      x y z
#    x 1.960140 0.000000 0.064230 
#    y 0.000000 2.032690 0.000000 
#    z 0.064230 0.000000 2.115520 
# 
# From -- ./inp_files/22964.got.cif
#   From: 2010.05.17/outbox.cif.g08.bks.cpg/sg13_12_cif.got.tgz:22964.got - 2010.06.03 16:44:36.
