data_PCOD9238074
_publ_section_title
;
Structure prediction by ZEFSAII (Michael W. Deem and Ramdas Pophale) SiO2 
 PCOD9238074
Probable space group: P 2/C
;
_chemical_formula_sum "Si O2"
_cell_formula_units_Z 16
_cell_length_a 5.588698
_cell_length_b 26.892399
_cell_length_c 5.589094
_cell_angle_alpha 90.000000
_cell_angle_beta 51.630496
_cell_angle_gamma 90.000000
_cell_volume 658.583635
_symmetry_space_group_name_H-M "P 2/C"
_symmetry_group_IT_number 13
_symmetry_cell_setting 'monoclinic'
loop_
_space_group_symop_operation_xyz
x,y,z
-x,y,1/2-z
-x,-y,-z
x,-y,1/2+z
loop_
_atom_site_type_symbol
_atom_site_label
_atom_site_fract_x
_atom_site_fract_y
_atom_site_fract_z
Si Si1 0.000000 0.469695 0.250000
Si Si2 0.500000 0.902005 0.750000
Si Si3 0.500000 0.726949 0.750000
Si Si4 0.500000 0.401381 0.750000
Si Si5 0.000000 0.659184 0.250000
Si Si6 0.673973 0.185523 0.423985
Si Si7 0.000000 0.969747 0.250000
O O1 0.698929 0.435569 0.449230
O O2 0.000000 0.500000 0.500000
O O3 0.269126 0.861202 0.784477
O O4 0.694903 0.936340 0.454281
O O5 0.534519 0.767758 0.519146
O O6 0.795492 0.692570 0.555108
O O7 0.750287 0.370975 0.748948
O O8 0.000000 0.209288 0.250000
O O9 0.500000 0.161768 0.750000
O O10 0.000000 0.000000 0.500000
#
# Coordination Sequence:
#
# PCOD9238074 Si02
#       7
#     2   2   2   2   2   4   2
#     4  12  27  52  86 116 158 206 270 340 393 466
#     4  11  26  46  70 106 140 188 242 314 372 441
#     4  11  26  44  69 110 140 206 251 304 378 447
#     4  12  28  50  77 120 156 210 259 318 404 464
#     4  12  27  47  76 106 166 200 254 315 383 482
#     4  11  24  43  74 101 142 187 255 308 369 446
#     4  12  28  47  74 104 146 190 242 301 386 470
#
# _framework density 24.294557000000001
#
# number of rings (size 3 to 8) (size 9 to 14) (size 15 to 20)
#    0.000    0.500    0.000    6.750   10.500    6.000 
#    0.000    0.000    0.000    0.000    0.000    0.000 
#    0.000    0.000    0.000    0.000    0.000    0.000 
#
# Total GULP energy -89354.488751 kJ/mol
# GULP energy per Si atom -5584.655547 kJ/mol
# Density = 2.423926 g / cm^3
# Si number density = 24.294557 Si / 1000 Ang^3
#
#
#
# Elastic Constant Matrix: (Units=GPa)
#
#
# Indices 1 2 3 4 5 6 
#
# 1 114.2033 76.3521 41.7645 0.0000 -5.2516 0.0000
# 2 76.3521 157.4115 79.6220 0.0000 -1.9405 0.0000
# 3 41.7645 79.6220 144.4679 0.0000 -12.8889 0.0000
# 4 0.0000 0.0000 0.0000 49.9947 0.0000 -27.9231
# 5 -5.2516 -1.9405 -12.8889 0.0000 45.2915 0.0000
# 6 0.0000 0.0000 0.0000 -27.9231 0.0000 3.3326
#
#
#
# Elastic Compliance Matrix: (Units=1/GPa)
#
#
# Indices 1 2 3 4 5 6 
#
# 1 0.013035 -0.006177 -0.000259 0.000000 0.001173 0.000000
# 2 -0.006177 0.011783 -0.004850 0.000000 -0.001592 0.000000
# 3 -0.000259 -0.004850 0.009900 0.000000 0.002579 0.000000
# 4 0.000000 0.000000 0.000000 -0.005436 0.000000 -0.045545
# 5 0.001173 -0.001592 0.002579 0.000000 0.022881 0.000000
# 6 0.000000 0.000000 0.000000 -0.045545 0.000000 -0.081546
#
#
# Mechanical properties :
#
#
# Convention : Reuss Voigt Hill
#
# Bulk Modulus (GPa) = 82.33954 90.17334 86.25644
# Shear Modulus (GPa) = -1809.71119 34.28002 -887.71558
#
# Velocity S-wave (km/s) = -27.32254 3.76043 -19.13610
# Velocity P-wave (km/s) = 31.00638 7.48677 21.27609
#
# Compressibility (1/GPa) = 0.01214483
#
# Stress axis : x y z
#
# Youngs Moduli (GPa) = 76.71847 84.87149 101.00864
#
# Poissons Ratio (x) = 0.52424 0.02619
# Poissons Ratio (y) = 0.47388 0.48991
# Poissons Ratio (z) = 0.01989 0.41164
#
# Static dielectric constant tensor:
#      x y z
#    x 2.274850 0.000000 0.284790 
#    y 0.000000 1.877980 0.000000 
#    z 0.284790 0.000000 1.815830 
# 
# From -- ./inp_files/577.got.cif
#   From: 2010.05.17/outbox.cif.g08.bks.cpg/sg13_1_cif.got.tgz:577.got - 2010.06.03 16:44:36.
