data_PCOD9238545
_publ_section_title
;
Structure prediction by ZEFSAII (Michael W. Deem and Ramdas Pophale) SiO2 
 PCOD9238545
Probable space group: P 2/C
;
_chemical_formula_sum "Si O2"
_cell_formula_units_Z 20
_cell_length_a 12.735600
_cell_length_b 4.944568
_cell_length_c 19.969681
_cell_angle_alpha 90.000000
_cell_angle_beta 44.822273
_cell_angle_gamma 90.000000
_cell_volume 886.446560
_symmetry_space_group_name_H-M "P 2/C"
_symmetry_group_IT_number 13
_symmetry_cell_setting 'monoclinic'
loop_
_space_group_symop_operation_xyz
x,y,z
-x,y,1/2-z
-x,-y,-z
x,-y,1/2+z
loop_
_atom_site_type_symbol
_atom_site_label
_atom_site_fract_x
_atom_site_fract_y
_atom_site_fract_z
Si Si1 0.779496 0.526936 0.458192
Si Si2 0.499235 0.463999 0.325361
Si Si3 0.969202 0.747734 0.063382
Si Si4 0.318630 0.013942 0.079709
Si Si5 0.314693 0.057077 0.727716
O O1 0.664363 0.571430 0.571481
O O2 0.932429 0.648760 0.417505
O O3 0.753027 0.225700 0.440978
O O4 0.729773 0.718899 0.420976
O O5 0.500000 0.574913 0.250000
O O6 0.579511 0.686961 0.334512
O O7 0.589190 0.184560 0.284200
O O8 0.810696 0.825487 0.166991
O O9 0.000000 0.500000 0.000000
O O10 0.000000 0.000000 0.000000
O O11 0.260751 0.060941 0.181152
O O12 0.500000 0.000000 0.000000
#
# Coordination Sequence:
#
# PCOD9238545 Si02
#       5
#     4   4   4   4   4
#     4  12  24  43  72 101 138 188 231 295 364 426
#     4  12  23  40  68 102 132 180 240 285 350 428
#     4  12  27  49  68 100 147 190 237 297 360 434
#     4  12  23  44  71 105 141 175 238 300 355 427
#     4  12  25  43  69  99 140 182 228 297 354 418
#
# _framework density 22.561992
#
# number of rings (size 3 to 8) (size 9 to 14) (size 15 to 20)
#    0.000    0.000    4.000    7.200    0.000    0.800 
#    0.000    2.000    0.000    0.000    0.000    0.000 
#    0.000    0.000    0.000    0.000    0.000    0.000 
#
# Total GULP energy -111716.197356 kJ/mol
# GULP energy per Si atom -5585.809868 kJ/mol
# Density = 2.251064 g / cm^3
# Si number density = 22.561992 Si / 1000 Ang^3
#
#
#
# Elastic Constant Matrix: (Units=GPa)
#
#
# Indices 1 2 3 4 5 6 
#
# 1 17.2246 16.5926 -12.2264 0.0000 5.2154 0.0000
# 2 16.5926 128.6078 14.7377 0.0000 -9.7532 0.0000
# 3 -12.2264 14.7377 82.5221 0.0000 5.5476 0.0000
# 4 0.0000 0.0000 0.0000 30.2217 0.0000 10.0102
# 5 5.2154 -9.7532 5.5476 0.0000 37.5846 0.0000
# 6 0.0000 0.0000 0.0000 10.0102 0.0000 35.4956
#
#
#
# Elastic Compliance Matrix: (Units=1/GPa)
#
#
# Indices 1 2 3 4 5 6 
#
# 1 0.090851 -0.015172 0.017455 0.000000 -0.019120 0.000000
# 2 -0.015172 0.010672 -0.004526 0.000000 0.005543 0.000000
# 3 0.017455 -0.004526 0.015912 0.000000 -0.005945 0.000000
# 4 0.000000 0.000000 0.000000 0.036498 0.000000 -0.010293
# 5 -0.019120 0.005543 -0.005945 0.000000 0.031576 0.000000
# 6 0.000000 0.000000 0.000000 -0.010293 0.000000 0.031075
#
#
# Mechanical properties :
#
#
# Convention : Reuss Voigt Hill
#
# Bulk Modulus (GPa) = 8.85348 29.61803 19.23575
# Shear Modulus (GPa) = 19.32594 34.61042 26.96818
#
# Velocity S-wave (km/s) = 2.92990 3.92090 3.46105
# Velocity P-wave (km/s) = 3.92152 5.80119 4.95137
#
# Compressibility (1/GPa) = 0.11294994
#
# Stress axis : x y z
#
# Youngs Moduli (GPa) = 11.00703 93.70294 62.84488
#
# Poissons Ratio (x) = 1.42163 -1.09698
# Poissons Ratio (y) = 0.16699 0.28446
# Poissons Ratio (z) = -0.19213 0.42413
#
# Static dielectric constant tensor:
#      x y z
#    x 2.105680 0.000000 0.348360 
#    y 0.000000 1.779900 0.000000 
#    z 0.348360 0.000000 2.428060 
# 
# From -- ./inp_files/65253.got.cif
#   From: 2010.05.17/outbox.cif.g08.bks.cpg/sg13_33_cif.got.tgz:65253.got - 2010.06.03 16:44:36.
