data_PCOD9238882
_publ_section_title
;
Structure prediction by ZEFSAII (Michael W. Deem and Ramdas Pophale) SiO2 
 PCOD9238882
Probable space group: P 2/C
;
_chemical_formula_sum "Si O2"
_cell_formula_units_Z 26
_cell_length_a 30.000000
_cell_length_b 9.000000
_cell_length_c 30.000000
_cell_angle_alpha 90.000000
_cell_angle_beta 170.000000
_cell_angle_gamma 90.000000
_cell_volume 1406.550239
_symmetry_space_group_name_H-M "P 2/C"
_symmetry_group_IT_number 13
_symmetry_cell_setting 'monoclinic'
loop_
_space_group_symop_operation_xyz
x,y,z
-x,y,1/2-z
-x,-y,-z
x,-y,1/2+z
loop_
_atom_site_type_symbol
_atom_site_label
_atom_site_fract_x
_atom_site_fract_y
_atom_site_fract_z
Si Si1 0.000000 0.089604 0.750000
Si Si2 0.753721 0.689941 0.080225
Si Si3 0.269080 0.332622 0.427753
Si Si4 0.772698 0.821637 0.898258
Si Si5 0.726616 0.637433 0.769009
Si Si6 0.231448 0.125513 0.553515
Si Si7 0.780285 0.560483 0.722172
O O1 0.168021 0.205094 0.885117
O O2 0.823102 0.979894 0.544492
O O3 0.742609 0.506863 0.065430
O O4 0.974962 0.739075 0.333344
O O5 0.476617 0.745755 0.824279
O O6 0.512549 0.231421 0.686122
O O7 0.262398 0.355029 0.366956
O O8 0.011177 0.238547 0.184505
O O9 0.751367 0.781955 0.824830
O O10 0.775861 0.996130 0.915279
O O11 0.761200 0.654794 0.749597
O O12 0.448574 0.561145 0.501474
O O13 0.945352 0.523161 0.002835
#
# Coordination Sequence:
#
# PCOD9238882 Si02
#       7
#     2   4   4   4   4   4   4
#     4  10  26  50  60  94 112 174 204 264 314 404
#     4  11  23  40  71  85 123 152 229 253 303 370
#     4  12  22  42  62 102 120 170 196 274 310 376
#     4  11  20  41  62  95 120 180 201 255 299 392
#     4  10  18  35  61  94 127 169 211 259 291 361
#     4  11  26  40  66  85 138 156 204 253 345 368
#     4  10  20  33  62  95 130 159 216 260 296 355
#
# _framework density 18.484942
#
# number of rings (size 3 to 8) (size 9 to 14) (size 15 to 20)
#    0.000    1.231    3.077    3.692    0.000    6.154 
#    0.000    4.615    0.000    0.000    0.000    0.000 
#    0.000    0.000    0.000    0.000    0.000    0.000 
#
# Total GULP energy -145003.949465 kJ/mol
# GULP energy per Si atom -5577.074979 kJ/mol
# Density = 1.844287 g / cm^3
# Si number density = 18.484942 Si / 1000 Ang^3
#
#
#
# Elastic Constant Matrix: (Units=GPa)
#
#
# Indices 1 2 3 4 5 6 
#
# 1 107.1542 31.0959 10.6103 0.0000 -20.0354 0.0000
# 2 31.0959 146.6955 45.3781 0.0000 -3.5405 0.0000
# 3 10.6103 45.3781 142.6057 0.0000 -5.5841 0.0000
# 4 0.0000 0.0000 0.0000 43.8492 0.0000 -8.5032
# 5 -20.0354 -3.5405 -5.5841 0.0000 32.0183 0.0000
# 6 0.0000 0.0000 0.0000 -8.5032 0.0000 45.6906
#
#
#
# Elastic Compliance Matrix: (Units=1/GPa)
#
#
# Indices 1 2 3 4 5 6 
#
# 1 0.011249 -0.002267 0.000151 0.000000 0.006815 0.000000
# 2 -0.002267 0.008024 -0.002422 0.000000 -0.000954 0.000000
# 3 0.000151 -0.002422 0.007818 0.000000 0.001190 0.000000
# 4 0.000000 0.000000 0.000000 0.023659 0.000000 0.004403
# 5 0.006815 -0.000954 0.001190 0.000000 0.035599 0.000000
# 6 0.000000 0.000000 0.000000 0.004403 0.000000 0.022706
#
#
# Mechanical properties :
#
#
# Convention : Reuss Voigt Hill
#
# Bulk Modulus (GPa) = 55.50528 63.40265 59.45396
# Shear Modulus (GPa) = 40.27853 44.93637 42.60745
#
# Velocity S-wave (km/s) = 4.67303 4.93584 4.80623
# Velocity P-wave (km/s) = 7.69472 8.17664 7.93934
#
# Compressibility (1/GPa) = 0.01801631
#
# Stress axis : x y z
#
# Youngs Moduli (GPa) = 88.89299 124.63374 127.90442
#
# Poissons Ratio (x) = 0.28253 -0.01934
# Poissons Ratio (y) = 0.20151 0.30976
# Poissons Ratio (z) = -0.01344 0.30184
#
# Static dielectric constant tensor:
#      x y z
#    x 1.702620 0.000000 0.006720 
#    y 0.000000 1.626870 0.000000 
#    z 0.006720 0.000000 1.642580 
# 
# From -- ./inp_files/98007.got.cif
#   From: 2010.05.17/outbox.ucp.g08.bks.cvg/sg13_50_cif.got.tgz:98007.got - 2010.06.11 12:23:55.
