data_PCOD9238658
_publ_section_title
;
Structure prediction by ZEFSAII (Michael W. Deem and Ramdas Pophale) SiO2 
 PCOD9238658
Probable space group: P 2/C
;
_chemical_formula_sum "Si O2"
_cell_formula_units_Z 14
_cell_length_a 5.430616
_cell_length_b 4.995002
_cell_length_c 18.663234
_cell_angle_alpha 90.000000
_cell_angle_beta 94.137815
_cell_angle_gamma 90.000000
_cell_volume 504.938102
_symmetry_space_group_name_H-M "P 2/C"
_symmetry_group_IT_number 13
_symmetry_cell_setting 'monoclinic'
loop_
_space_group_symop_operation_xyz
x,y,z
-x,y,1/2-z
-x,-y,-z
x,-y,1/2+z
loop_
_atom_site_type_symbol
_atom_site_label
_atom_site_fract_x
_atom_site_fract_y
_atom_site_fract_z
Si Si1 0.708485 0.416620 0.060016
Si Si2 0.375928 0.263416 0.178376
Si Si3 0.000000 0.667597 0.250000
Si Si4 0.981080 0.090916 0.604280
O O1 0.573555 0.418243 0.134465
O O2 0.500000 0.500000 0.000000
O O3 0.064053 0.375833 0.932844
O O4 0.812440 0.117751 0.057965
O O5 0.500000 0.131220 0.250000
O O6 0.185557 0.475088 0.209838
O O7 0.242448 0.051700 0.123201
O O8 0.100580 0.859938 0.314918
#
# Coordination Sequence:
#
# PCOD9238658 Si02
#       4
#     4   4   2   4
#     4  12  29  51  76 110 156 207 256 316 392 460
#     4  12  25  49  80 110 157 203 254 331 391 450
#     4  12  24  48  74 118 146 194 268 318 380 462
#     4  12  26  50  72 116 147 196 267 311 381 475
#
# _framework density 27.726168999999999
#
# number of rings (size 3 to 8) (size 9 to 14) (size 15 to 20)
#    0.000    0.000    5.714    3.429    4.000    3.429 
#    5.143    0.000    0.000    0.000    0.000    0.000 
#    0.000    0.000    0.000    0.000    0.000    0.000 
#
# Total GULP energy -78531.498690 kJ/mol
# GULP energy per Si atom -5609.392764 kJ/mol
# Density = 2.766306 g / cm^3
# Si number density = 27.726169 Si / 1000 Ang^3
#
#
#
# Elastic Constant Matrix: (Units=GPa)
#
#
# Indices 1 2 3 4 5 6 
#
# 1 80.5498 31.7137 24.9237 0.0000 16.1319 0.0000
# 2 31.7137 143.1806 29.5130 0.0000 7.3211 0.0000
# 3 24.9237 29.5130 133.9730 0.0000 22.4859 0.0000
# 4 0.0000 0.0000 0.0000 54.3600 0.0000 8.9665
# 5 16.1319 7.3211 22.4859 0.0000 77.7110 0.0000
# 6 0.0000 0.0000 0.0000 8.9665 0.0000 43.4307
#
#
#
# Elastic Compliance Matrix: (Units=1/GPa)
#
#
# Indices 1 2 3 4 5 6 
#
# 1 0.014473 -0.002738 -0.001712 0.000000 -0.002251 0.000000
# 2 -0.002738 0.007838 -0.001250 0.000000 0.000191 0.000000
# 3 -0.001712 -0.001250 0.008386 0.000000 -0.001953 0.000000
# 4 0.000000 0.000000 0.000000 0.019044 0.000000 -0.003932
# 5 -0.002251 0.000191 -0.001953 0.000000 0.013883 0.000000
# 6 0.000000 0.000000 0.000000 -0.003932 0.000000 0.023837
#
#
# Mechanical properties :
#
#
# Convention : Reuss Voigt Hill
#
# Bulk Modulus (GPa) = 51.81505 58.88934 55.35220
# Shear Modulus (GPa) = 47.48700 53.20389 50.34544
#
# Velocity S-wave (km/s) = 4.14298 4.38528 4.26585
# Velocity P-wave (km/s) = 6.45093 6.85031 6.65361
#
# Compressibility (1/GPa) = 0.01929941
#
# Stress axis : x y z
#
# Youngs Moduli (GPa) = 69.09398 127.57772 119.25044
#
# Poissons Ratio (x) = 0.34928 0.20410
# Poissons Ratio (y) = 0.18916 0.14901
# Poissons Ratio (z) = 0.11826 0.15941
#
# Static dielectric constant tensor:
#      x y z
#    x 2.183400 0.000000 0.025820 
#    y 0.000000 2.103350 0.000000 
#    z 0.025820 0.000000 2.137510 
# 
# From -- ./inp_files/60130.got.cif
#   From: 2010.05.17/outbox.cif.g08.bks.cpg/sg13_31_cif.got.tgz:60130.got - 2010.06.03 16:44:36.
