data_PCOD9238532
_publ_section_title
;
Structure prediction by ZEFSAII (Michael W. Deem and Ramdas Pophale) SiO2 
 PCOD9238532
Probable space group: P 2/C
;
_chemical_formula_sum "Si O2"
_cell_formula_units_Z 16
_cell_length_a 11.614632
_cell_length_b 13.122497
_cell_length_c 12.421496
_cell_angle_alpha 90.000000
_cell_angle_beta 156.005916
_cell_angle_gamma 90.000000
_cell_volume 769.854066
_symmetry_space_group_name_H-M "P 2/C"
_symmetry_group_IT_number 13
_symmetry_cell_setting 'monoclinic'
loop_
_space_group_symop_operation_xyz
x,y,z
-x,y,1/2-z
-x,-y,-z
x,-y,1/2+z
loop_
_atom_site_type_symbol
_atom_site_label
_atom_site_fract_x
_atom_site_fract_y
_atom_site_fract_z
Si Si1 0.821889 0.397126 0.822107
Si Si2 0.753885 0.926580 0.744189
Si Si3 0.590291 0.712884 0.702529
Si Si4 0.500000 0.333107 0.750000
Si Si5 0.000000 0.187975 0.250000
O O1 0.621637 0.358633 0.550969
O O2 0.606363 0.393958 0.738058
O O3 0.000000 0.500000 0.000000
O O4 0.085238 0.319791 0.041892
O O5 0.611848 0.832664 0.689439
O O6 0.883045 0.877654 0.747376
O O7 0.500000 0.000000 0.500000
O O8 0.000000 0.000000 0.000000
O O9 0.500000 0.701179 0.750000
O O10 0.245691 0.261006 0.499880
#
# Coordination Sequence:
#
# PCOD9238532 Si02
#       5
#     4   4   4   2   2
#     4  12  26  48  77 106 141 196 246 303 375 442
#     4  12  26  44  71 106 142 197 244 296 368 438
#     4  12  27  50  70 108 154 189 240 311 375 443
#     4  12  22  48  74 102 144 188 252 308 362 432
#     4  12  24  46  72 100 148 192 250 310 352 438
#
# _framework density 20.783158
#
# number of rings (size 3 to 8) (size 9 to 14) (size 15 to 20)
#    0.000    0.000    5.000    4.500    5.250    0.000 
#    4.500    0.000    0.000    0.000    0.000    0.000 
#    0.000    0.000    0.000    0.000    0.000    0.000 
#
# Total GULP energy -89244.447439 kJ/mol
# GULP energy per Si atom -5577.777965 kJ/mol
# Density = 2.073585 g / cm^3
# Si number density = 20.783158 Si / 1000 Ang^3
#
#
#
# Elastic Constant Matrix: (Units=GPa)
#
#
# Indices 1 2 3 4 5 6 
#
# 1 177.9370 69.0751 51.9256 0.0000 -9.9418 0.0000
# 2 69.0751 101.7615 49.1513 0.0000 -11.6642 0.0000
# 3 51.9256 49.1513 179.8626 0.0000 0.9136 0.0000
# 4 0.0000 0.0000 0.0000 41.2326 0.0000 23.3895
# 5 -9.9418 -11.6642 0.9136 0.0000 38.0598 0.0000
# 6 0.0000 0.0000 0.0000 23.3895 0.0000 32.1480
#
#
#
# Elastic Compliance Matrix: (Units=1/GPa)
#
#
# Indices 1 2 3 4 5 6 
#
# 1 0.007774 -0.004750 -0.000949 0.000000 0.000598 0.000000
# 2 -0.004750 0.014723 -0.002669 0.000000 0.003335 0.000000
# 3 -0.000949 -0.002669 0.006569 0.000000 -0.001224 0.000000
# 4 0.000000 0.000000 0.000000 0.041296 0.000000 -0.030045
# 5 0.000598 0.003335 -0.001224 0.000000 0.027482 0.000000
# 6 0.000000 0.000000 0.000000 -0.030045 0.000000 0.052966
#
#
# Mechanical properties :
#
#
# Convention : Reuss Voigt Hill
#
# Bulk Modulus (GPa) = 81.10520 88.87391 84.98956
# Shear Modulus (GPa) = 29.12784 41.58201 35.35493
#
# Velocity S-wave (km/s) = 3.74774 4.47783 4.12895
# Velocity P-wave (km/s) = 7.60504 8.34206 7.98206
#
# Compressibility (1/GPa) = 0.01232967
#
# Stress axis : x y z
#
# Youngs Moduli (GPa) = 128.62676 67.92255 152.22021
#
# Poissons Ratio (x) = 0.32264 0.14452
# Poissons Ratio (y) = 0.61100 0.40626
# Poissons Ratio (z) = 0.12212 0.18128
#
# Static dielectric constant tensor:
#      x y z
#    x 1.690070 0.000000 -0.053740 
#    y 0.000000 1.765670 0.000000 
#    z -0.053740 0.000000 1.763490 
# 
# From -- ./inp_files/34499.got.cif
#   From: 2010.05.17/outbox.cif.g08.bks.cpg/sg13_18_cif.got.tgz:34499.got - 2010.06.03 16:44:36.
