data_PCOD9238088
_publ_section_title
;
Structure prediction by ZEFSAII (Michael W. Deem and Ramdas Pophale) SiO2 
 PCOD9238088
Probable space group: P 2/C
;
_chemical_formula_sum "Si O2"
_cell_formula_units_Z 20
_cell_length_a 11.349086
_cell_length_b 10.349783
_cell_length_c 14.270097
_cell_angle_alpha 90.000000
_cell_angle_beta 31.142613
_cell_angle_gamma 90.000000
_cell_volume 866.866860
_symmetry_space_group_name_H-M "P 2/C"
_symmetry_group_IT_number 13
_symmetry_cell_setting 'monoclinic'
loop_
_space_group_symop_operation_xyz
x,y,z
-x,y,1/2-z
-x,-y,-z
x,-y,1/2+z
loop_
_atom_site_type_symbol
_atom_site_label
_atom_site_fract_x
_atom_site_fract_y
_atom_site_fract_z
Si Si1 0.708340 0.458901 0.922897
Si Si2 0.645172 0.829159 0.416532
Si Si3 0.889889 0.445713 0.478128
Si Si4 0.141325 0.907022 0.736495
Si Si5 0.259091 0.842503 0.369336
O O1 0.736900 0.304591 0.893704
O O2 0.697013 0.490463 0.041170
O O3 0.903456 0.535421 0.734512
O O4 0.500000 0.500000 0.000000
O O5 0.370686 0.836107 0.614202
O O6 0.702964 0.839333 0.267166
O O7 0.760845 0.960053 0.374868
O O8 0.802912 0.303258 0.558550
O O9 0.000000 0.500000 0.500000
O O10 0.000000 0.838240 0.750000
O O11 0.954813 0.922229 0.944750
O O12 0.500000 0.883269 0.250000
#
# Coordination Sequence:
#
# PCOD9238088 Si02
#       5
#     4   4   4   4   4
#     4  11  24  44  69  99 141 183 230 291 357 419
#     4  11  24  45  69 100 140 185 232 297 355 423
#     4  11  25  40  67 103 135 180 233 289 356 419
#     4  11  25  42  70 102 134 185 239 290 358 425
#     4  12  23  43  69  96 139 186 233 288 357 432
#
# _framework density 23.071594000000001
#
# number of rings (size 3 to 8) (size 9 to 14) (size 15 to 20)
#    0.000    0.800    4.000    3.000    5.600    0.000 
#    0.000    0.000    0.000    1.200    0.000    0.000 
#    0.000    0.000    0.000    0.000    0.000    0.000 
#
# Total GULP energy -111630.562079 kJ/mol
# GULP energy per Si atom -5581.528104 kJ/mol
# Density = 2.301908 g / cm^3
# Si number density = 23.071594 Si / 1000 Ang^3
#
#
#
# Elastic Constant Matrix: (Units=GPa)
#
#
# Indices 1 2 3 4 5 6 
#
# 1 161.7523 15.7201 41.9564 0.0000 8.3681 0.0000
# 2 15.7201 82.4022 10.8349 0.0000 -7.0824 0.0000
# 3 41.9564 10.8349 153.6170 0.0000 -13.1933 0.0000
# 4 0.0000 0.0000 0.0000 10.8907 0.0000 8.4599
# 5 8.3681 -7.0824 -13.1933 0.0000 41.6085 0.0000
# 6 0.0000 0.0000 0.0000 8.4599 0.0000 8.4095
#
#
#
# Elastic Compliance Matrix: (Units=1/GPa)
#
#
# Indices 1 2 3 4 5 6 
#
# 1 0.006939 -0.001254 -0.001999 0.000000 -0.002243 0.000000
# 2 -0.001254 0.012618 -0.000351 0.000000 0.002289 0.000000
# 3 -0.001999 -0.000351 0.007309 0.000000 0.002660 0.000000
# 4 0.000000 0.000000 0.000000 0.420142 0.000000 -0.422659
# 5 -0.002243 0.002289 0.002660 0.000000 0.025718 0.000000
# 6 0.000000 0.000000 0.000000 -0.422659 0.000000 0.544106
#
#
# Mechanical properties :
#
#
# Convention : Reuss Voigt Hill
#
# Bulk Modulus (GPa) = 50.87141 59.42161 55.14651
# Shear Modulus (GPa) = 4.85159 34.13239 19.49199
#
# Velocity S-wave (km/s) = 1.45169 3.85049 2.90978
# Velocity P-wave (km/s) = 4.99070 6.75126 5.93661
#
# Compressibility (1/GPa) = 0.01965741
#
# Stress axis : x y z
#
# Youngs Moduli (GPa) = 144.11794 79.25436 136.81833
#
# Poissons Ratio (x) = 0.09935 0.27355
# Poissons Ratio (y) = 0.18067 0.04802
# Poissons Ratio (z) = 0.28814 0.02782
#
# Static dielectric constant tensor:
#      x y z
#    x 2.035990 0.000000 -0.095140 
#    y 0.000000 1.877640 0.000000 
#    z -0.095140 0.000000 1.912810 
# 
# From -- ./inp_files/50981.got.cif
#   From: 2010.05.17/outbox.cif.g08.bks.cpg/sg13_26_cif.got.tgz:50981.got - 2010.06.03 16:44:36.
