data_PCOD9238008
_publ_section_title
;
Structure prediction by ZEFSAII (Michael W. Deem and Ramdas Pophale) SiO2 
 PCOD9238008
Probable space group: P 2/C
;
_chemical_formula_sum "Si O2"
_cell_formula_units_Z 20
_cell_length_a 10.596570
_cell_length_b 5.177235
_cell_length_c 18.344212
_cell_angle_alpha 90.000000
_cell_angle_beta 127.702169
_cell_angle_gamma 90.000000
_cell_volume 796.248705
_symmetry_space_group_name_H-M "P 2/C"
_symmetry_group_IT_number 13
_symmetry_cell_setting 'monoclinic'
loop_
_space_group_symop_operation_xyz
x,y,z
-x,y,1/2-z
-x,-y,-z
x,-y,1/2+z
loop_
_atom_site_type_symbol
_atom_site_label
_atom_site_fract_x
_atom_site_fract_y
_atom_site_fract_z
Si Si1 0.638788 0.111892 0.751648
Si Si2 0.512353 0.807440 0.935180
Si Si3 0.126955 0.323504 0.931213
Si Si4 0.071499 0.187252 0.131756
Si Si5 0.206216 0.499800 0.302533
O O1 0.500000 0.240799 0.750000
O O2 0.752297 0.311432 0.749687
O O3 0.757104 0.915112 0.836263
O O4 0.542732 0.961237 0.655681
O O5 0.375687 0.593257 0.894225
O O6 0.686970 0.691513 0.984584
O O7 0.500000 0.000000 0.000000
O O8 0.047945 0.049728 0.918977
O O9 0.124146 0.369966 0.842675
O O10 0.024939 0.560151 0.927980
O O11 0.120063 0.258406 0.232819
#
# Coordination Sequence:
#
# PCOD9238008 Si02
#       5
#     4   4   4   4   4
#     4  11  26  49  70 100 147 197 238 279 358 454
#     4  11  24  43  71 110 141 186 240 300 357 414
#     4  12  24  40  71 109 140 169 239 314 352 402
#     4  11  26  42  69 106 139 185 236 295 358 415
#     4  11  24  40  73 103 143 189 235 287 361 423
#
# _framework density 25.117781000000001
#
# number of rings (size 3 to 8) (size 9 to 14) (size 15 to 20)
#    0.000    0.800    4.000    2.400    8.400    3.200 
#    0.000    2.000    0.000    0.000    0.000    0.000 
#    0.000    0.000    0.000    0.000    0.000    0.000 
#
# Total GULP energy -111909.647955 kJ/mol
# GULP energy per Si atom -5595.482398 kJ/mol
# Density = 2.506061 g / cm^3
# Si number density = 25.117781 Si / 1000 Ang^3
#
#
#
# Elastic Constant Matrix: (Units=GPa)
#
#
# Indices 1 2 3 4 5 6 
#
# 1 109.0154 37.6466 6.6976 0.0000 6.2747 0.0000
# 2 37.6466 147.5238 36.0801 0.0000 18.7596 0.0000
# 3 6.6976 36.0801 100.5670 0.0000 37.7076 0.0000
# 4 0.0000 0.0000 0.0000 34.3663 0.0000 29.2450
# 5 6.2747 18.7596 37.7076 0.0000 31.9355 0.0000
# 6 0.0000 0.0000 0.0000 29.2450 0.0000 22.9367
#
#
#
# Elastic Compliance Matrix: (Units=1/GPa)
#
#
# Indices 1 2 3 4 5 6 
#
# 1 0.010100 -0.002591 0.000772 0.000000 -0.001374 0.000000
# 2 -0.002591 0.008181 -0.002066 0.000000 -0.001857 0.000000
# 3 0.000772 -0.002066 0.018366 0.000000 -0.020624 0.000000
# 4 0.000000 0.000000 0.000000 -0.342237 0.000000 0.436363
# 5 -0.001374 -0.001857 -0.020624 0.000000 0.057025 0.000000
# 6 0.000000 0.000000 0.000000 0.436363 0.000000 -0.512778
#
#
# Mechanical properties :
#
#
# Convention : Reuss Voigt Hill
#
# Bulk Modulus (GPa) = 34.63055 57.55054 46.09054
# Shear Modulus (GPa) = -6.72092 36.29316 14.78612
#
# Velocity S-wave (km/s) = -1.63755 3.80533 2.42889
# Velocity P-wave (km/s) = 3.20028 6.50149 5.12402
#
# Compressibility (1/GPa) = 0.02887624
#
# Stress axis : x y z
#
# Youngs Moduli (GPa) = 99.01411 122.22855 54.44706
#
# Poissons Ratio (x) = 0.31675 -0.04205
# Poissons Ratio (y) = 0.25659 0.11251
# Poissons Ratio (z) = -0.07647 0.25257
#
# Static dielectric constant tensor:
#      x y z
#    x 2.035100 0.000000 0.026920 
#    y 0.000000 2.014260 0.000000 
#    z 0.026920 0.000000 2.040130 
# 
# From -- ./inp_files/85652.got.cif
#   From: 2010.05.17/outbox.cif.g08.bks.cpg/sg13_43_cif.got.tgz:85652.got - 2010.06.03 16:44:36.
