data_PCOD9238007
_publ_section_title
;
Structure prediction by ZEFSAII (Michael W. Deem and Ramdas Pophale) SiO2 
 PCOD9238007
Probable space group: P 2/C
;
_chemical_formula_sum "Si O2"
_cell_formula_units_Z 16
_cell_length_a 6.652566
_cell_length_b 21.457842
_cell_length_c 7.423156
_cell_angle_alpha 90.000000
_cell_angle_beta 138.795829
_cell_angle_gamma 90.000000
_cell_volume 698.040544
_symmetry_space_group_name_H-M "P 2/C"
_symmetry_group_IT_number 13
_symmetry_cell_setting 'monoclinic'
loop_
_space_group_symop_operation_xyz
x,y,z
-x,y,1/2-z
-x,-y,-z
x,-y,1/2+z
loop_
_atom_site_type_symbol
_atom_site_label
_atom_site_fract_x
_atom_site_fract_y
_atom_site_fract_z
Si Si1 0.000000 0.163601 0.250000
Si Si2 0.858954 0.934106 0.965351
Si Si3 0.500000 0.471214 0.750000
Si Si4 0.000000 0.565700 0.250000
Si Si5 0.925837 0.360073 0.985839
Si Si6 0.500000 0.248972 0.750000
O O1 0.939264 0.118561 0.376326
O O2 0.296890 0.206078 0.484201
O O3 0.500000 0.941941 0.750000
O O4 0.000000 0.915882 0.250000
O O5 0.000000 0.000000 0.000000
O O6 0.716202 0.421127 0.790564
O O7 0.259129 0.511689 0.480338
O O8 0.159455 0.620792 0.492819
O O9 0.743979 0.296909 0.829445
O O10 0.000000 0.362829 0.250000
#
# Coordination Sequence:
#
# PCOD9238007 Si02
#       6
#     2   4   2   2   4   2
#     4  12  26  49  74  99 154 188 244 292 346 426
#     4  12  26  46  78 118 151 190 236 293 364 422
#     4  11  24  40  66  98 130 167 222 290 372 425
#     4  12  26  39  66 101 126 170 226 294 358 432
#     4  11  25  45  66  93 136 175 231 289 353 422
#     4  11  26  48  68  96 136 199 230 290 348 409
#
# _framework density 22.921303000000002
#
# number of rings (size 3 to 8) (size 9 to 14) (size 15 to 20)
#    0.000    0.500    3.750    3.750    8.750    0.000 
#    6.750    0.000    0.000    0.000    0.000    0.000 
#    0.000    0.000    0.000    0.000    0.000    0.000 
#
# Total GULP energy -89123.460986 kJ/mol
# GULP energy per Si atom -5570.216312 kJ/mol
# Density = 2.286913 g / cm^3
# Si number density = 22.921303 Si / 1000 Ang^3
#
#
#
# Elastic Constant Matrix: (Units=GPa)
#
#
# Indices 1 2 3 4 5 6 
#
# 1 67.6569 64.5707 81.5518 0.0000 -19.2600 0.0000
# 2 64.5707 199.8884 96.9503 0.0000 -18.7259 0.0000
# 3 81.5518 96.9503 216.8738 0.0000 -2.3706 0.0000
# 4 0.0000 0.0000 0.0000 47.7894 0.0000 10.9974
# 5 -19.2600 -18.7259 -2.3706 0.0000 41.8305 0.0000
# 6 0.0000 0.0000 0.0000 10.9974 0.0000 7.2597
#
#
#
# Elastic Compliance Matrix: (Units=1/GPa)
#
#
# Indices 1 2 3 4 5 6 
#
# 1 0.038253 -0.005222 -0.011891 0.000000 0.014601 0.000000
# 2 -0.005222 0.007421 -0.001344 0.000000 0.000841 0.000000
# 3 -0.011891 -0.001344 0.009623 0.000000 -0.005531 0.000000
# 4 0.000000 0.000000 0.000000 0.032123 0.000000 -0.048662
# 5 0.014601 0.000841 -0.005531 0.000000 0.030692 0.000000
# 6 0.000000 0.000000 0.000000 -0.048662 0.000000 0.211462
#
#
# Mechanical properties :
#
#
# Convention : Reuss Voigt Hill
#
# Bulk Modulus (GPa) = 54.39873 107.84052 81.11963
# Shear Modulus (GPa) = 13.41866 35.46566 24.44216
#
# Velocity S-wave (km/s) = 2.42218 3.93781 3.26905
# Velocity P-wave (km/s) = 5.62200 8.23562 7.05097
#
# Compressibility (1/GPa) = 0.01838278
#
# Stress axis : x y z
#
# Youngs Moduli (GPa) = 26.14141 134.76034 103.92069
#
# Poissons Ratio (x) = 0.70374 1.23567
# Poissons Ratio (y) = 0.13651 0.13971
# Poissons Ratio (z) = 0.31083 0.18117
#
# Static dielectric constant tensor:
#      x y z
#    x 1.510160 0.000000 -0.006990 
#    y 0.000000 1.796220 0.000000 
#    z -0.006990 0.000000 1.856060 
# 
# From -- ./inp_files/13258.got.cif
#   From: 2010.05.17/outbox.cif.g08.bks.cpg/sg13_7_cif.got.tgz:13258.got - 2010.06.03 16:44:36.
