data_PCOD9238955
_publ_section_title
;
Structure prediction by ZEFSAII (Michael W. Deem and Ramdas Pophale) SiO2 
 PCOD9238955
Probable space group: P 2/C
;
_chemical_formula_sum "Si O2"
_cell_formula_units_Z 28
_cell_length_a 30.000000
_cell_length_b 9.000000
_cell_length_c 30.000000
_cell_angle_alpha 90.000000
_cell_angle_beta 170.000000
_cell_angle_gamma 90.000000
_cell_volume 1406.550239
_symmetry_space_group_name_H-M "P 2/C"
_symmetry_group_IT_number 13
_symmetry_cell_setting 'monoclinic'
loop_
_space_group_symop_operation_xyz
x,y,z
-x,y,1/2-z
-x,-y,-z
x,-y,1/2+z
loop_
_atom_site_type_symbol
_atom_site_label
_atom_site_fract_x
_atom_site_fract_y
_atom_site_fract_z
Si Si1 0.522836 0.937273 0.128345
Si Si2 0.178422 0.116686 0.735519
Si Si3 0.154675 0.165534 0.002758
Si Si4 0.940638 0.201823 0.977834
Si Si5 0.191098 0.659449 0.802471
Si Si6 0.662876 0.493114 0.815249
Si Si7 0.500000 0.444953 0.250000
Si Si8 0.000000 0.760794 0.250000
O O1 0.699650 0.826063 0.273519
O O2 0.660709 0.023590 0.304769
O O3 0.283471 0.829683 0.906204
O O4 0.457329 0.072043 0.029246
O O5 0.139496 0.218535 0.653153
O O6 0.034378 0.161720 0.639777
O O7 0.085817 0.955246 0.626920
O O8 0.038406 0.159858 0.837216
O O9 0.288717 0.328220 0.138206
O O10 0.116636 0.324149 0.176392
O O11 0.930548 0.592944 0.568130
O O12 0.431076 0.557227 0.054166
O O13 0.573216 0.463502 0.777858
O O14 0.745281 0.341125 0.503197
#
# Coordination Sequence:
#
# PCOD9238955 Si02
#       8
#     4   4   4   4   4   4   2   2
#     4  10  20  38  67  94 129 169 216 265 321 377
#     4   9  19  34  65  92 129 165 227 254 314 390
#     4  10  23  39  65 100 124 169 215 274 319 386
#     4   9  18  38  59  95 124 181 210 260 309 396
#     4  11  22  40  66  92 131 171 204 264 324 379
#     4  11  23  41  68  93 126 166 219 264 322 384
#     4  10  22  42  68  94 118 172 220 258 310 400
#     4  10  22  40  68  96 128 156 212 272 330 368
#
# _framework density 19.906860999999999
#
# number of rings (size 3 to 8) (size 9 to 14) (size 15 to 20)
#    0.000    2.000    1.429    2.143    6.000    1.143 
#    0.000    1.429    9.429    0.000    0.000    0.000 
#    0.000    0.000    0.000    0.000    0.000    0.000 
#
# Total GULP energy -155927.425580 kJ/mol
# GULP energy per Si atom -5568.836628 kJ/mol
# Density = 1.986155 g / cm^3
# Si number density = 19.906861 Si / 1000 Ang^3
#
#
#
# Elastic Constant Matrix: (Units=GPa)
#
#
# Indices 1 2 3 4 5 6 
#
# 1 131.2168 30.7898 38.9382 0.0000 -33.7809 0.0000
# 2 30.7898 49.1894 23.0673 0.0000 -4.6095 0.0000
# 3 38.9382 23.0673 121.2292 0.0000 -15.9080 0.0000
# 4 0.0000 0.0000 0.0000 34.3922 0.0000 -3.5277
# 5 -33.7809 -4.6095 -15.9080 0.0000 35.6968 0.0000
# 6 0.0000 0.0000 0.0000 -3.5277 0.0000 35.6731
#
#
#
# Elastic Compliance Matrix: (Units=1/GPa)
#
#
# Indices 1 2 3 4 5 6 
#
# 1 0.011991 -0.005906 -0.001422 0.000000 0.009951 0.000000
# 2 -0.005906 0.025268 -0.003416 0.000000 -0.003849 0.000000
# 3 -0.001422 -0.003416 0.009688 0.000000 0.002531 0.000000
# 4 0.000000 0.000000 0.000000 0.029374 0.000000 0.002905
# 5 0.009951 -0.003849 0.002531 0.000000 0.038061 0.000000
# 6 0.000000 0.000000 0.000000 0.002905 0.000000 0.028320
#
#
# Mechanical properties :
#
#
# Convention : Reuss Voigt Hill
#
# Bulk Modulus (GPa) = 39.28013 54.13624 46.70818
# Shear Modulus (GPa) = 28.95620 35.07508 32.01564
#
# Velocity S-wave (km/s) = 3.81804 4.20212 4.01468
# Velocity P-wave (km/s) = 6.26190 7.12724 6.70854
#
# Compressibility (1/GPa) = 0.02545816
#
# Stress axis : x y z
#
# Youngs Moduli (GPa) = 83.39935 39.57608 103.22541
#
# Poissons Ratio (x) = 0.23374 0.14676
# Poissons Ratio (y) = 0.49257 0.35261
# Poissons Ratio (z) = 0.11857 0.13519
#
# Static dielectric constant tensor:
#      x y z
#    x 1.737130 0.000000 0.007990 
#    y 0.000000 1.722150 0.000000 
#    z 0.007990 0.000000 1.814480 
# 
# From -- ./inp_files/98134.got.cif
#   From: 2010.05.17/outbox.ucp.g08.bks.cvg/sg13_50_cif.got.tgz:98134.got - 2010.06.11 12:23:55.
