data_PCOD9238422
_publ_section_title
;
Structure prediction by ZEFSAII (Michael W. Deem and Ramdas Pophale) SiO2 
 PCOD9238422
Probable space group: P 2/C
;
_chemical_formula_sum "Si O2"
_cell_formula_units_Z 14
_cell_length_a 8.088039
_cell_length_b 7.667027
_cell_length_c 8.208834
_cell_angle_alpha 90.000000
_cell_angle_beta 94.520670
_cell_angle_gamma 90.000000
_cell_volume 507.456116
_symmetry_space_group_name_H-M "P 2/C"
_symmetry_group_IT_number 13
_symmetry_cell_setting 'monoclinic'
loop_
_space_group_symop_operation_xyz
x,y,z
-x,y,1/2-z
-x,-y,-z
x,-y,1/2+z
loop_
_atom_site_type_symbol
_atom_site_label
_atom_site_fract_x
_atom_site_fract_y
_atom_site_fract_z
Si Si1 0.374159 0.331127 0.393184
Si Si2 0.500000 0.224789 0.750000
Si Si3 0.820265 0.020580 0.655347
Si Si4 0.114736 0.627500 0.409149
O O1 0.500000 0.311225 0.250000
O O2 0.460426 0.325199 0.577699
O O3 0.262405 0.502995 0.362778
O O4 0.249000 0.167491 0.394661
O O5 0.664467 0.106362 0.739809
O O6 0.838164 0.179842 0.522412
O O7 0.000000 0.994113 0.750000
O O8 0.000000 0.674831 0.250000
O O9 0.000000 0.500000 0.500000
#
# Coordination Sequence:
#
# PCOD9238422 Si02
#       4
#     4   2   4   4
#     4  12  28  50  84 118 160 218 268 332 420 479
#     4  12  28  52  74 126 162 202 280 332 396 498
#     4  11  26  50  81 116 164 207 273 342 395 491
#     4  11  27  50  79 120 157 214 276 328 412 490
#
# _framework density 27.588592999999999
#
# number of rings (size 3 to 8) (size 9 to 14) (size 15 to 20)
#    0.000    0.571    1.429    5.143    6.000    5.714 
#    0.000    1.429    0.000    0.000    0.000    0.000 
#    0.000    0.000    0.000    0.000    0.000    0.000 
#
# Total GULP energy -78367.742148 kJ/mol
# GULP energy per Si atom -5597.695868 kJ/mol
# Density = 2.752580 g / cm^3
# Si number density = 27.588593 Si / 1000 Ang^3
#
#
#
# Elastic Constant Matrix: (Units=GPa)
#
#
# Indices 1 2 3 4 5 6 
#
# 1 234.0668 92.3411 73.0211 0.0000 6.1514 0.0000
# 2 92.3411 236.2420 50.4496 0.0000 13.3116 0.0000
# 3 73.0211 50.4496 146.4095 0.0000 10.2816 0.0000
# 4 0.0000 0.0000 0.0000 -9.9661 0.0000 93.5543
# 5 6.1514 13.3116 10.2816 0.0000 43.6849 0.0000
# 6 0.0000 0.0000 0.0000 93.5543 0.0000 -89.9734
#
#
#
# Elastic Compliance Matrix: (Units=1/GPa)
#
#
# Indices 1 2 3 4 5 6 
#
# 1 0.005652 -0.001747 -0.002235 0.000000 0.000262 0.000000
# 2 -0.001747 0.005156 -0.000826 0.000000 -0.001131 0.000000
# 3 -0.002235 -0.000826 0.008328 0.000000 -0.001393 0.000000
# 4 0.000000 0.000000 0.000000 0.011453 0.000000 0.011909
# 5 0.000262 -0.001131 -0.001393 0.000000 0.023527 0.000000
# 6 0.000000 0.000000 0.000000 0.011909 0.000000 0.001269
#
#
# Mechanical properties :
#
#
# Convention : Reuss Voigt Hill
#
# Bulk Modulus (GPa) = 105.05281 116.48244 110.76762
# Shear Modulus (GPa) = 73.34300 15.47618 44.40959
#
# Velocity S-wave (km/s) = 5.16161 2.37104 4.01647
# Velocity P-wave (km/s) = 8.58394 7.05752 7.85788
#
# Compressibility (1/GPa) = 0.00951902
#
# Stress axis : x y z
#
# Youngs Moduli (GPa) = 176.93504 193.95808 120.08311
#
# Poissons Ratio (x) = 0.33876 0.26844
# Poissons Ratio (y) = 0.30903 0.09920
# Poissons Ratio (z) = 0.39552 0.16022
#
# Static dielectric constant tensor:
#      x y z
#    x 2.173430 0.000000 -0.101520 
#    y 0.000000 2.204090 0.000000 
#    z -0.101520 0.000000 2.217490 
# 
# From -- ./inp_files/10771.got.cif
#   From: 2010.05.17/outbox.cif.g08.bks.cpg/sg13_6_cif.got.tgz:10771.got - 2010.06.03 16:44:36.
