data_PCOD9238010
_publ_section_title
;
Structure prediction by ZEFSAII (Michael W. Deem and Ramdas Pophale) SiO2 
 PCOD9238010
Probable space group: P 2/C
;
_chemical_formula_sum "Si O2"
_cell_formula_units_Z 16
_cell_length_a 15.487241
_cell_length_b 4.855342
_cell_length_c 8.060405
_cell_angle_alpha 90.000000
_cell_angle_beta 76.606484
_cell_angle_gamma 90.000000
_cell_volume 589.624125
_symmetry_space_group_name_H-M "P 2/C"
_symmetry_group_IT_number 13
_symmetry_cell_setting 'monoclinic'
loop_
_space_group_symop_operation_xyz
x,y,z
-x,y,1/2-z
-x,-y,-z
x,-y,1/2+z
loop_
_atom_site_type_symbol
_atom_site_label
_atom_site_fract_x
_atom_site_fract_y
_atom_site_fract_z
Si Si1 0.937912 0.313939 0.144710
Si Si2 0.686347 0.368864 0.729974
Si Si3 0.813933 0.317060 0.935415
Si Si4 0.567058 0.751051 0.990169
O O1 0.879233 0.518098 0.284172
O O2 0.000000 0.155939 0.250000
O O3 0.872549 0.154917 0.046402
O O4 0.000000 0.500000 0.000000
O O5 0.734908 0.199132 0.855416
O O6 0.761757 0.462925 0.569748
O O7 0.642696 0.645133 0.828034
O O8 0.612894 0.226519 0.649595
O O9 0.500000 0.500000 0.000000
O O10 0.500000 0.000000 0.000000
#
# Coordination Sequence:
#
# PCOD9238010 Si02
#       4
#     4   4   4   4
#     4   8  12  19  39  74 116 166 210 260 313 378
#     4   9  19  35  55  79 115 170 214 270 331 392
#     4   8  14  27  45  72 116 168 212 260 322 388
#     4  11  24  41  62  89 120 162 217 274 329 390
#
# _framework density 27.135933000000001
#
# number of rings (size 3 to 8) (size 9 to 14) (size 15 to 20)
#    0.000    3.000    0.000    0.750    0.000    4.000 
#    0.000    3.750    0.000    0.000    0.000    0.000 
#    0.000    0.000    0.000 7722.000    0.000    0.000 
#
# Total GULP energy -89387.171460 kJ/mol
# GULP energy per Si atom -5586.698216 kJ/mol
# Density = 2.707417 g / cm^3
# Si number density = 27.135933 Si / 1000 Ang^3
#
#
#
# Elastic Constant Matrix: (Units=GPa)
#
#
# Indices 1 2 3 4 5 6 
#
# 1 190.3899 55.8084 121.4409 0.0000 68.9684 0.0000
# 2 55.8084 109.9852 41.9900 0.0000 3.0028 0.0000
# 3 121.4409 41.9900 184.2751 0.0000 35.5821 0.0000
# 4 0.0000 0.0000 0.0000 18.0957 0.0000 -11.1644
# 5 68.9684 3.0028 35.5821 0.0000 122.2301 0.0000
# 6 0.0000 0.0000 0.0000 -11.1644 0.0000 21.3527
#
#
#
# Elastic Compliance Matrix: (Units=1/GPa)
#
#
# Indices 1 2 3 4 5 6 
#
# 1 0.012001 -0.003612 -0.006141 0.000000 -0.004895 0.000000
# 2 -0.003612 0.011068 -0.000512 0.000000 0.001915 0.000000
# 3 -0.006141 -0.000512 0.009450 0.000000 0.000727 0.000000
# 4 0.000000 0.000000 0.000000 0.081577 0.000000 0.042653
# 5 -0.004895 0.001915 0.000727 0.000000 0.010685 0.000000
# 6 0.000000 0.000000 0.000000 0.042653 0.000000 0.069134
#
#
# Mechanical properties :
#
#
# Convention : Reuss Voigt Hill
#
# Bulk Modulus (GPa) = 83.39702 102.56985 92.98343
# Shear Modulus (GPa) = 22.88949 50.02975 36.45962
#
# Velocity S-wave (km/s) = 2.90748 4.29846 3.66948
# Velocity P-wave (km/s) = 6.48622 7.90672 7.23143
#
# Compressibility (1/GPa) = 0.01199084
#
# Stress axis : x y z
#
# Youngs Moduli (GPa) = 83.32364 90.35257 105.82080
#
# Poissons Ratio (x) = 0.32632 0.64984
# Poissons Ratio (y) = 0.30093 0.05414
# Poissons Ratio (z) = 0.51169 0.04622
#
# Static dielectric constant tensor:
#      x y z
#    x 2.238900 0.000000 0.042990 
#    y 0.000000 2.347960 0.000000 
#    z 0.042990 0.000000 2.125740 
# 
# From -- ./inp_files/20349.got.cif
#   From: 2010.05.17/outbox.cif.g08.bks.cpg/sg13_11_cif.got.tgz:20349.got - 2010.06.03 16:44:36.
