data_PCOD9238248
_publ_section_title
;
Structure prediction by ZEFSAII (Michael W. Deem and Ramdas Pophale) SiO2 
 PCOD9238248
Probable space group: P 2/C
;
_chemical_formula_sum "Si O2"
_cell_formula_units_Z 24
_cell_length_a 12.248087
_cell_length_b 4.919349
_cell_length_c 16.178281
_cell_angle_alpha 90.000000
_cell_angle_beta 120.638275
_cell_angle_gamma 90.000000
_cell_volume 838.705658
_symmetry_space_group_name_H-M "P 2/C"
_symmetry_group_IT_number 13
_symmetry_cell_setting 'monoclinic'
loop_
_space_group_symop_operation_xyz
x,y,z
-x,y,1/2-z
-x,-y,-z
x,-y,1/2+z
loop_
_atom_site_type_symbol
_atom_site_label
_atom_site_fract_x
_atom_site_fract_y
_atom_site_fract_z
Si Si1 0.629034 0.695629 0.774297
Si Si2 0.450737 0.571411 0.093872
Si Si3 0.954610 0.580255 0.347115
Si Si4 0.677769 0.066683 0.519536
Si Si5 0.884261 0.198209 0.984977
Si Si6 0.829896 0.915986 0.740757
O O1 0.627666 0.489472 0.851224
O O2 0.379985 0.635033 0.505597
O O3 0.588413 0.524558 0.677048
O O4 0.739945 0.889433 0.787346
O O5 0.500000 0.137063 0.250000
O O6 0.435991 0.864657 0.050125
O O7 0.871277 0.614584 0.398587
O O8 0.885177 0.385182 0.255854
O O9 0.074728 0.415776 0.427959
O O10 0.944774 0.879569 0.306237
O O11 0.778391 0.992462 0.485264
O O12 0.748250 0.005010 0.631641
O O13 0.000000 0.000000 0.000000
#
# Coordination Sequence:
#
# PCOD9238248 Si02
#       6
#     4   4   4   4   4   4
#     4   8  22  43  68  98 125 178 220 270 319 392
#     4   9  23  42  65  96 132 172 222 265 323 395
#     4  11  25  44  68  93 130 173 221 270 318 394
#     4  12  25  41  67  98 136 173 213 275 331 389
#     4  11  25  45  69  96 125 177 230 267 325 388
#     4  12  24  44  65  99 136 169 213 270 336 383
#
# _framework density 28.615523
#
# number of rings (size 3 to 8) (size 9 to 14) (size 15 to 20)
#    1.000    0.333    1.667    3.000    4.667    6.000 
#    3.000    0.000    0.000    0.000    0.000    0.000 
#    0.000    0.000    0.000    0.000    0.000    0.000 
#
# Total GULP energy -134386.247888 kJ/mol
# GULP energy per Si atom -5599.426995 kJ/mol
# Density = 2.855039 g / cm^3
# Si number density = 28.615523 Si / 1000 Ang^3
#
#
#
# Elastic Constant Matrix: (Units=GPa)
#
#
# Indices 1 2 3 4 5 6 
#
# 1 108.0009 0.5590 -21.7549 0.0000 -26.9752 0.0000
# 2 0.5590 123.7820 28.4788 0.0000 7.2905 0.0000
# 3 -21.7549 28.4788 170.1633 0.0000 -26.9546 0.0000
# 4 0.0000 0.0000 0.0000 42.4063 0.0000 11.6905
# 5 -26.9752 7.2905 -26.9546 0.0000 37.1695 0.0000
# 6 0.0000 0.0000 0.0000 11.6905 0.0000 23.8950
#
#
#
# Elastic Compliance Matrix: (Units=1/GPa)
#
#
# Indices 1 2 3 4 5 6 
#
# 1 0.013316 -0.001753 0.004046 0.000000 0.012941 0.000000
# 2 -0.001753 0.008943 -0.002486 0.000000 -0.004829 0.000000
# 3 0.004046 -0.002486 0.008306 0.000000 0.009447 0.000000
# 4 0.000000 0.000000 0.000000 0.027258 0.000000 -0.013336
# 5 0.012941 -0.004829 0.009447 0.000000 0.044094 0.000000
# 6 0.000000 0.000000 0.000000 -0.013336 0.000000 0.048374
#
#
# Mechanical properties :
#
#
# Convention : Reuss Voigt Hill
#
# Bulk Modulus (GPa) = 33.13619 46.27911 39.70765
# Shear Modulus (GPa) = 31.10676 47.00506 39.05591
#
# Velocity S-wave (km/s) = 3.30063 4.05735 3.69840
# Velocity P-wave (km/s) = 5.11180 6.17716 5.66956
#
# Compressibility (1/GPa) = 0.03017849
#
# Stress axis : x y z
#
# Youngs Moduli (GPa) = 75.10040 111.81964 120.38802
#
# Poissons Ratio (x) = 0.19604 -0.48706
# Poissons Ratio (y) = 0.13166 0.29926
# Poissons Ratio (z) = -0.30383 0.27796
#
# Static dielectric constant tensor:
#      x y z
#    x 2.345610 0.000000 0.026650 
#    y 0.000000 2.162490 0.000000 
#    z 0.026650 0.000000 2.291910 
# 
# From -- ./inp_files/52359.got.cif
#   From: 2010.05.17/outbox.cif.g08.bks.cpg/sg13_27_cif.got.tgz:52359.got - 2010.06.03 16:44:36.
