data_PCOD9238643
_publ_section_title
;
Structure prediction by ZEFSAII (Michael W. Deem and Ramdas Pophale) SiO2 
 PCOD9238643
Probable space group: P 2/C
;
_chemical_formula_sum "Si O2"
_cell_formula_units_Z 24
_cell_length_a 14.393560
_cell_length_b 6.367600
_cell_length_c 13.633391
_cell_angle_alpha 90.000000
_cell_angle_beta 53.615830
_cell_angle_gamma 90.000000
_cell_volume 1005.946550
_symmetry_space_group_name_H-M "P 2/C"
_symmetry_group_IT_number 13
_symmetry_cell_setting 'monoclinic'
loop_
_space_group_symop_operation_xyz
x,y,z
-x,y,1/2-z
-x,-y,-z
x,-y,1/2+z
loop_
_atom_site_type_symbol
_atom_site_label
_atom_site_fract_x
_atom_site_fract_y
_atom_site_fract_z
Si Si1 0.689795 0.047658 0.550675
Si Si2 0.500000 0.365663 0.750000
Si Si3 0.000000 0.593856 0.750000
Si Si4 0.810902 0.573188 0.240655
Si Si5 0.072218 0.816648 0.503982
Si Si6 0.339785 0.282211 0.288370
Si Si7 0.367708 0.052309 0.615218
O O1 0.590725 0.215910 0.638929
O O2 0.803962 0.104637 0.536770
O O3 0.705608 0.058084 0.424526
O O4 0.665970 0.803997 0.596605
O O5 0.569172 0.529836 0.774005
O O6 0.883419 0.466293 0.794683
O O7 0.019035 0.721355 0.636926
O O8 0.899201 0.669300 0.106024
O O9 0.766319 0.371493 0.207456
O O10 0.700494 0.727286 0.329041
O O11 0.000000 0.000000 0.500000
O O12 0.368112 0.065858 0.217459
O O13 0.500000 0.000000 0.500000
#
# Coordination Sequence:
#
# PCOD9238643 Si02
#       7
#     4   2   2   4   4   4   4
#     4  12  26  46  77 109 151 200 251 313 389 450
#     4  12  24  46  76 112 150 200 252 312 380 466
#     4  12  30  48  82 116 148 220 262 320 402 452
#     4  12  28  51  77 115 155 197 264 320 385 469
#     4  12  28  51  79 112 157 201 263 327 388 466
#     4  12  24  47  74 108 155 196 246 312 377 455
#     4  12  27  46  75 115 152 202 252 313 385 459
#
# _framework density 23.858125000000001
#
# number of rings (size 3 to 8) (size 9 to 14) (size 15 to 20)
#    0.000    0.000    3.333    6.000    7.000    5.333 
#    0.000    0.000    0.000    0.000    0.000    0.000 
#    0.000    0.000    0.000    0.000    0.000    0.000 
#
# Total GULP energy -133966.910624 kJ/mol
# GULP energy per Si atom -5581.954609 kJ/mol
# Density = 2.380382 g / cm^3
# Si number density = 23.858125 Si / 1000 Ang^3
#
#
#
# Elastic Constant Matrix: (Units=GPa)
#
#
# Indices 1 2 3 4 5 6 
#
# 1 147.1789 52.8046 26.2336 0.0000 15.1253 0.0000
# 2 52.8046 96.4211 36.6595 0.0000 -4.7252 0.0000
# 3 26.2336 36.6595 97.4066 0.0000 5.3156 0.0000
# 4 0.0000 0.0000 0.0000 35.9627 0.0000 -1.3704
# 5 15.1253 -4.7252 5.3156 0.0000 44.1014 0.0000
# 6 0.0000 0.0000 0.0000 -1.3704 0.0000 54.1223
#
#
#
# Elastic Compliance Matrix: (Units=1/GPa)
#
#
# Indices 1 2 3 4 5 6 
#
# 1 0.009011 -0.004973 -0.000360 0.000000 -0.003580 0.000000
# 2 -0.004973 0.015001 -0.004517 0.000000 0.003857 0.000000
# 3 -0.000360 -0.004517 0.012163 0.000000 -0.001827 0.000000
# 4 0.000000 0.000000 0.000000 0.027833 0.000000 0.000705
# 5 -0.003580 0.003857 -0.001827 0.000000 0.024536 0.000000
# 6 0.000000 0.000000 0.000000 0.000705 0.000000 0.018495
#
#
# Mechanical properties :
#
#
# Convention : Reuss Voigt Hill
#
# Bulk Modulus (GPa) = 60.69846 63.60022 62.14934
# Shear Modulus (GPa) = 37.81277 41.85788 39.83533
#
# Velocity S-wave (km/s) = 3.98540 4.19316 4.09060
# Velocity P-wave (km/s) = 6.83188 7.08230 6.95822
#
# Compressibility (1/GPa) = 0.01647488
#
# Stress axis : x y z
#
# Youngs Moduli (GPa) = 110.97775 66.66130 82.21840
#
# Poissons Ratio (x) = 0.33154 0.02957
# Poissons Ratio (y) = 0.55194 0.37137
# Poissons Ratio (z) = 0.03991 0.30110
#
# Static dielectric constant tensor:
#      x y z
#    x 1.930450 0.000000 -0.051660 
#    y 0.000000 1.998410 0.000000 
#    z -0.051660 0.000000 2.042630 
# 
# From -- ./inp_files/52153.got.cif
#   From: 2010.05.17/outbox.cif.g08.bks.cpg/sg13_27_cif.got.tgz:52153.got - 2010.06.03 16:44:36.
