data_PCOD9238568
_publ_section_title
;
Structure prediction by ZEFSAII (Michael W. Deem and Ramdas Pophale) SiO2 
 PCOD9238568
Probable space group: P 2/C
;
_chemical_formula_sum "Si O2"
_cell_formula_units_Z 16
_cell_length_a 10.652472
_cell_length_b 4.886619
_cell_length_c 17.371414
_cell_angle_alpha 90.000000
_cell_angle_beta 135.806368
_cell_angle_gamma 90.000000
_cell_volume 630.347522
_symmetry_space_group_name_H-M "P 2/C"
_symmetry_group_IT_number 13
_symmetry_cell_setting 'monoclinic'
loop_
_space_group_symop_operation_xyz
x,y,z
-x,y,1/2-z
-x,-y,-z
x,-y,1/2+z
loop_
_atom_site_type_symbol
_atom_site_label
_atom_site_fract_x
_atom_site_fract_y
_atom_site_fract_z
Si Si1 0.833394 0.916638 0.321627
Si Si2 0.705301 0.557910 0.856252
Si Si3 0.543310 0.234723 0.571242
Si Si4 0.242647 0.032119 0.982893
O O1 0.835268 0.698407 0.392951
O O2 0.715158 0.767685 0.204954
O O3 0.032206 0.996983 0.380319
O O4 0.745098 0.196287 0.311730
O O5 0.500000 0.483432 0.750000
O O6 0.734369 0.722061 0.948280
O O7 0.500000 0.500000 0.500000
O O8 0.646247 0.052027 0.548636
O O9 0.380512 0.208794 0.564533
#
# Coordination Sequence:
#
# PCOD9238568 Si02
#       4
#     4   4   4   4
#     4  12  23  44  68  99 134 182 223 283 336 418
#     4  12  24  42  67  97 138 176 231 277 345 397
#     4   8  20  42  71  95 142 169 232 278 345 406
#     4   9  21  42  68 100 134 179 226 279 346 401
#
# _framework density 25.382826999999999
#
# number of rings (size 3 to 8) (size 9 to 14) (size 15 to 20)
#    1.500    0.000    2.500    3.000    0.000    0.000 
#    0.000   12.500    0.000    0.000    0.000    0.000 
#    0.000    0.000    0.000    0.000    0.000    0.000 
#
# Total GULP energy -89216.431954 kJ/mol
# GULP energy per Si atom -5576.026997 kJ/mol
# Density = 2.532505 g / cm^3
# Si number density = 25.382827 Si / 1000 Ang^3
#
#
#
# Elastic Constant Matrix: (Units=GPa)
#
#
# Indices 1 2 3 4 5 6 
#
# 1 196.2804 25.9397 64.3728 0.0000 41.6853 0.0000
# 2 25.9397 110.1576 8.9103 0.0000 18.3386 0.0000
# 3 64.3728 8.9103 122.9671 0.0000 28.8010 0.0000
# 4 0.0000 0.0000 0.0000 50.1809 0.0000 -26.0879
# 5 41.6853 18.3386 28.8010 0.0000 54.3842 0.0000
# 6 0.0000 0.0000 0.0000 -26.0879 0.0000 59.7389
#
#
#
# Elastic Compliance Matrix: (Units=1/GPa)
#
#
# Indices 1 2 3 4 5 6 
#
# 1 0.006836 -0.000802 -0.002690 0.000000 -0.003544 0.000000
# 2 -0.000802 0.009712 0.000387 0.000000 -0.002865 0.000000
# 3 -0.002690 0.000387 0.010343 0.000000 -0.003546 0.000000
# 4 0.000000 0.000000 0.000000 0.025781 0.000000 0.011259
# 5 -0.003544 -0.002865 -0.003546 0.000000 0.023949 0.000000
# 6 0.000000 0.000000 0.000000 0.011259 0.000000 0.021656
#
#
# Mechanical properties :
#
#
# Convention : Reuss Voigt Hill
#
# Bulk Modulus (GPa) = 48.35298 69.76118 59.05708
# Shear Modulus (GPa) = 44.89103 54.87296 49.88199
#
# Velocity S-wave (km/s) = 4.20999 4.65458 4.43785
# Velocity P-wave (km/s) = 6.53627 7.51199 7.04105
#
# Compressibility (1/GPa) = 0.02068125
#
# Stress axis : x y z
#
# Youngs Moduli (GPa) = 146.28860 102.96057 96.68314
#
# Poissons Ratio (x) = 0.08257 0.26010
# Poissons Ratio (y) = 0.11732 -0.03744
# Poissons Ratio (z) = 0.39355 -0.03987
#
# Static dielectric constant tensor:
#      x y z
#    x 2.051150 0.000000 0.062530 
#    y 0.000000 0.468610 0.000000 
#    z 0.062530 0.000000 1.351980 
# 
# From -- ./inp_files/51954.got.cif
#   From: 2010.05.17/outbox.cif.g08.bks.cpg/sg13_26_cif.got.tgz:51954.got - 2010.06.03 16:44:36.
