data_PCOD9238036
_publ_section_title
;
Structure prediction by ZEFSAII (Michael W. Deem and Ramdas Pophale) SiO2 
 PCOD9238036
Probable space group: P 2/C
;
_chemical_formula_sum "Si O2"
_cell_formula_units_Z 22
_cell_length_a 12.419164
_cell_length_b 6.528327
_cell_length_c 13.376691
_cell_angle_alpha 90.000000
_cell_angle_beta 104.921948
_cell_angle_gamma 90.000000
_cell_volume 1047.960295
_symmetry_space_group_name_H-M "P 2/C"
_symmetry_group_IT_number 13
_symmetry_cell_setting 'monoclinic'
loop_
_space_group_symop_operation_xyz
x,y,z
-x,y,1/2-z
-x,-y,-z
x,-y,1/2+z
loop_
_atom_site_type_symbol
_atom_site_label
_atom_site_fract_x
_atom_site_fract_y
_atom_site_fract_z
Si Si1 0.500000 0.017329 0.250000
Si Si2 0.314483 0.182370 0.838490
Si Si3 0.889306 0.136337 0.977377
Si Si4 0.117735 0.147349 0.297199
Si Si5 0.181239 0.510932 0.173659
Si Si6 0.693459 0.803068 0.928133
O O1 0.415266 0.148052 0.162624
O O2 0.574635 0.884254 0.192404
O O3 0.262873 0.377570 0.770896
O O4 0.222385 0.001210 0.806179
O O5 0.331324 0.215561 0.960351
O O6 0.892282 0.316210 0.897301
O O7 0.782270 0.989346 0.935264
O O8 0.878072 0.219288 0.087303
O O9 0.000000 0.000000 0.000000
O O10 0.119955 0.334578 0.220807
O O11 0.000000 0.034971 0.250000
O O12 0.249422 0.398574 0.102552
#
# Coordination Sequence:
#
# PCOD9238036 Si02
#       6
#     2   4   4   4   4   4
#     4  12  22  50  70  96 142 186 230 290 348 416
#     4  11  25  45  69 100 138 185 230 286 353 410
#     4  11  24  44  69 100 144 184 229 286 354 412
#     4  11  24  42  68 101 137 182 228 286 347 415
#     4  12  22  44  67 105 136 177 236 285 348 410
#     4  11  25  44  69 102 138 184 233 288 347 416
#
# _framework density 20.993162000000002
#
# number of rings (size 3 to 8) (size 9 to 14) (size 15 to 20)
#    0.000    0.727    3.636    3.818    0.000    7.273 
#    0.000    1.818    0.000    0.000    0.000    0.000 
#    0.000    0.000    0.000    0.000    0.000    0.000 
#
# Total GULP energy -123135.349851 kJ/mol
# GULP energy per Si atom -5597.061357 kJ/mol
# Density = 2.094538 g / cm^3
# Si number density = 20.993162 Si / 1000 Ang^3
#
#
#
# Elastic Constant Matrix: (Units=GPa)
#
#
# Indices 1 2 3 4 5 6 
#
# 1 125.9463 45.5610 60.6150 0.0000 -0.3811 0.0000
# 2 45.5610 86.7448 59.5331 0.0000 -5.9333 0.0000
# 3 60.6150 59.5331 184.4640 0.0000 -13.5593 0.0000
# 4 0.0000 0.0000 0.0000 39.7225 0.0000 2.0207
# 5 -0.3811 -5.9333 -13.5593 0.0000 46.0120 0.0000
# 6 0.0000 0.0000 0.0000 2.0207 0.0000 7.8313
#
#
#
# Elastic Compliance Matrix: (Units=1/GPa)
#
#
# Indices 1 2 3 4 5 6 
#
# 1 0.010468 -0.004055 -0.002211 0.000000 -0.001088 0.000000
# 2 -0.004055 0.016391 -0.003889 0.000000 0.000934 0.000000
# 3 -0.002211 -0.003889 0.007527 0.000000 0.001699 0.000000
# 4 0.000000 0.000000 0.000000 0.025509 0.000000 -0.006582
# 5 -0.001088 0.000934 0.001699 0.000000 0.022345 0.000000
# 6 0.000000 0.000000 0.000000 -0.006582 0.000000 0.129390
#
#
# Mechanical properties :
#
#
# Convention : Reuss Voigt Hill
#
# Bulk Modulus (GPa) = 71.04045 80.95260 75.99652
# Shear Modulus (GPa) = 21.12983 34.14290 27.63637
#
# Velocity S-wave (km/s) = 3.17600 4.03722 3.63222
# Velocity P-wave (km/s) = 6.88204 7.77028 7.33961
#
# Compressibility (1/GPa) = 0.01407649
#
# Stress axis : x y z
#
# Youngs Moduli (GPa) = 95.53353 61.01079 132.84625
#
# Poissons Ratio (x) = 0.24739 0.29371
# Poissons Ratio (y) = 0.38738 0.51660
# Poissons Ratio (z) = 0.21122 0.23725
#
# Static dielectric constant tensor:
#      x y z
#    x 1.742410 0.000000 -0.005300 
#    y 0.000000 1.743820 0.000000 
#    z -0.005300 0.000000 1.760170 
# 
# From -- ./inp_files/48997.got.cif
#   From: 2010.05.17/outbox.cif.g08.bks.cpg/sg13_25_cif.got.tgz:48997.got - 2010.06.03 16:44:36.
