data_PCOD9238670
_publ_section_title
;
Structure prediction by ZEFSAII (Michael W. Deem and Ramdas Pophale) SiO2 
 PCOD9238670
Probable space group: P 2/C
;
_chemical_formula_sum "Si O2"
_cell_formula_units_Z 20
_cell_length_a 19.947698
_cell_length_b 5.200633
_cell_length_c 14.668259
_cell_angle_alpha 90.000000
_cell_angle_beta 30.666177
_cell_angle_gamma 90.000000
_cell_volume 776.117980
_symmetry_space_group_name_H-M "P 2/C"
_symmetry_group_IT_number 13
_symmetry_cell_setting 'monoclinic'
loop_
_space_group_symop_operation_xyz
x,y,z
-x,y,1/2-z
-x,-y,-z
x,-y,1/2+z
loop_
_atom_site_type_symbol
_atom_site_label
_atom_site_fract_x
_atom_site_fract_y
_atom_site_fract_z
Si Si1 0.417835 0.390469 0.440506
Si Si2 0.994304 0.626315 0.602996
Si Si3 0.769637 0.112257 0.586575
Si Si4 0.733712 0.115975 0.422058
Si Si5 0.500000 0.000000 0.000000
Si Si6 0.000000 0.259847 0.750000
O O1 0.500000 0.404046 0.250000
O O2 0.355583 0.675433 0.528621
O O3 0.493148 0.260771 0.436677
O O4 0.310037 0.171204 0.546206
O O5 0.887966 0.853119 0.721710
O O6 0.000000 0.500000 0.500000
O O7 0.139550 0.682875 0.468615
O O8 0.938099 0.439301 0.745639
O O9 0.712795 0.179408 0.553436
O O10 0.649532 0.050160 0.791209
O O11 0.882184 0.902375 0.431541
#
# Coordination Sequence:
#
# PCOD9238670 Si02
#       6
#     4   4   4   4   2   2
#     4  12  28  50  79 114 164 212 266 337 404 484
#     4  12  27  46  81 117 155 209 274 341 406 486
#     4  12  26  50  79 115 161 216 269 337 411 492
#     4  12  25  52  79 116 159 212 266 337 405 474
#     4  12  30  52  78 122 158 224 272 336 410 508
#     4  12  24  50  78 112 160 212 264 344 406 478
#
# _framework density 25.769280999999999
#
# number of rings (size 3 to 8) (size 9 to 14) (size 15 to 20)
#    0.000    0.000    6.000    3.000    2.800    1.600 
#    0.000    0.000    0.000    0.000    0.000    0.000 
#    0.000    0.000    0.000    0.000    0.000    0.000 
#
# Total GULP energy -111632.066404 kJ/mol
# GULP energy per Si atom -5581.603320 kJ/mol
# Density = 2.571063 g / cm^3
# Si number density = 25.769281 Si / 1000 Ang^3
#
#
#
# Elastic Constant Matrix: (Units=GPa)
#
#
# Indices 1 2 3 4 5 6 
#
# 1 59.0325 -12.7287 -3.6186 0.0000 9.8404 0.0000
# 2 -12.7287 62.8913 20.0775 0.0000 -10.1738 0.0000
# 3 -3.6186 20.0775 163.1620 0.0000 5.2494 0.0000
# 4 0.0000 0.0000 0.0000 24.3644 0.0000 -32.4420
# 5 9.8404 -10.1738 5.2494 0.0000 28.2263 0.0000
# 6 0.0000 0.0000 0.0000 -32.4420 0.0000 21.0530
#
#
#
# Elastic Compliance Matrix: (Units=1/GPa)
#
#
# Indices 1 2 3 4 5 6 
#
# 1 0.018467 0.002772 0.000245 0.000000 -0.005484 0.000000
# 2 0.002772 0.018194 -0.002371 0.000000 0.006033 0.000000
# 3 0.000245 -0.002371 0.006495 0.000000 -0.002148 0.000000
# 4 0.000000 0.000000 0.000000 -0.039020 0.000000 -0.060129
# 5 -0.005484 0.006033 -0.002148 0.000000 0.039914 0.000000
# 6 0.000000 0.000000 0.000000 -0.060129 0.000000 -0.045158
#
#
# Mechanical properties :
#
#
# Convention : Reuss Voigt Hill
#
# Bulk Modulus (GPa) = 22.49838 32.50513 27.50176
# Shear Modulus (GPa) = 402.68222 33.48579 218.08400
#
# Velocity S-wave (km/s) = 12.51414 3.60869 9.20941
# Velocity P-wave (km/s) = 14.74973 5.47767 11.12563
#
# Compressibility (1/GPa) = 0.04444764
#
# Stress axis : x y z
#
# Youngs Moduli (GPa) = 54.15125 54.96178 153.95900
#
# Poissons Ratio (x) = -0.15236 -0.03770
# Poissons Ratio (y) = -0.15012 0.36511
# Poissons Ratio (z) = -0.01326 0.13034
#
# Static dielectric constant tensor:
#      x y z
#    x 2.159860 0.000000 -0.016920 
#    y 0.000000 2.108250 0.000000 
#    z -0.016920 0.000000 1.957790 
# 
# From -- ./inp_files/56423.got.cif
#   From: 2010.05.17/outbox.cif.g08.bks.cpg/sg13_29_cif.got.tgz:56423.got - 2010.06.03 16:44:36.
