data_PCOD9238511
_publ_section_title
;
Structure prediction by ZEFSAII (Michael W. Deem and Ramdas Pophale) SiO2 
 PCOD9238511
Probable space group: P 2/C
;
_chemical_formula_sum "Si O2"
_cell_formula_units_Z 16
_cell_length_a 4.806776
_cell_length_b 9.567635
_cell_length_c 16.387578
_cell_angle_alpha 90.000000
_cell_angle_beta 105.529939
_cell_angle_gamma 90.000000
_cell_volume 726.140689
_symmetry_space_group_name_H-M "P 2/C"
_symmetry_group_IT_number 13
_symmetry_cell_setting 'monoclinic'
loop_
_space_group_symop_operation_xyz
x,y,z
-x,y,1/2-z
-x,-y,-z
x,-y,1/2+z
loop_
_atom_site_type_symbol
_atom_site_label
_atom_site_fract_x
_atom_site_fract_y
_atom_site_fract_z
Si Si1 0.122385 0.378296 0.068090
Si Si2 0.054594 0.864176 0.449886
Si Si3 0.732261 0.459150 0.168153
Si Si4 0.435300 0.781001 0.341392
O O1 0.394604 0.420039 0.146339
O O2 0.845994 0.362369 0.103647
O O3 0.000000 0.500000 0.000000
O O4 0.209400 0.247873 0.020115
O O5 0.748432 0.794071 0.405520
O O6 0.227646 0.882218 0.378319
O O7 0.000000 0.000000 0.500000
O O8 0.704985 0.627748 0.156570
O O9 0.000000 0.441899 0.250000
O O10 0.500000 0.804386 0.250000
#
# Coordination Sequence:
#
# PCOD9238511 Si02
#       4
#     4   4   4   4
#     4  12  22  42  68 101 137 170 225 285 339 393
#     4  12  26  44  68 103 136 185 232 275 338 417
#     4  12  23  40  68 105 135 174 227 287 345 396
#     4  12  23  43  70 100 134 176 234 284 340 409
#
# _framework density 22.034296999999999
#
# number of rings (size 3 to 8) (size 9 to 14) (size 15 to 20)
#    0.000    0.000    5.000    7.500    0.000    0.000 
#    0.000    5.000    0.000    3.000    0.000    0.000 
#    0.000    0.000    0.000    0.000    0.000    0.000 
#
# Total GULP energy -89153.382727 kJ/mol
# GULP energy per Si atom -5572.086420 kJ/mol
# Density = 2.198415 g / cm^3
# Si number density = 22.034297 Si / 1000 Ang^3
#
#
#
# Elastic Constant Matrix: (Units=GPa)
#
#
# Indices 1 2 3 4 5 6 
#
# 1 145.3327 12.5464 57.7409 0.0000 -6.9714 0.0000
# 2 12.5464 70.9105 56.3160 0.0000 -5.3282 0.0000
# 3 57.7409 56.3160 115.0196 0.0000 3.6261 0.0000
# 4 0.0000 0.0000 0.0000 16.5864 0.0000 -4.7712
# 5 -6.9714 -5.3282 3.6261 0.0000 63.3965 0.0000
# 6 0.0000 0.0000 0.0000 -4.7712 0.0000 23.1268
#
#
#
# Elastic Compliance Matrix: (Units=1/GPa)
#
#
# Indices 1 2 3 4 5 6 
#
# 1 0.009212 0.003619 -0.006449 0.000000 0.001686 0.000000
# 2 0.003619 0.024929 -0.014127 0.000000 0.003301 0.000000
# 3 -0.006449 -0.014127 0.018942 0.000000 -0.002980 0.000000
# 4 0.000000 0.000000 0.000000 0.064094 0.000000 0.013223
# 5 0.001686 0.003301 -0.002980 0.000000 0.016407 0.000000
# 6 0.000000 0.000000 0.000000 0.013223 0.000000 0.045968
#
#
# Mechanical properties :
#
#
# Convention : Reuss Voigt Hill
#
# Bulk Modulus (GPa) = 52.16774 64.94104 58.55439
# Shear Modulus (GPa) = 22.74221 34.26592 28.50407
#
# Velocity S-wave (km/s) = 3.21616 3.94778 3.60060
# Velocity P-wave (km/s) = 6.12525 7.09342 6.62704
#
# Compressibility (1/GPa) = 0.01916893
#
# Stress axis : x y z
#
# Youngs Moduli (GPa) = 108.55967 40.11374 52.79181
#
# Poissons Ratio (x) = -0.14516 0.34047
# Poissons Ratio (y) = -0.39285 0.74577
# Poissons Ratio (z) = 0.70013 0.56667
#
# Static dielectric constant tensor:
#      x y z
#    x 1.787260 0.000000 0.012630 
#    y 0.000000 1.765630 0.000000 
#    z 0.012630 0.000000 1.696080 
# 
# From -- ./inp_files/43268.got.cif
#   From: 2010.05.17/outbox.cif.g08.bks.cpg/sg13_22_cif.got.tgz:43268.got - 2010.06.03 16:44:36.
