data_PCOD9238306
_publ_section_title
;
Structure prediction by ZEFSAII (Michael W. Deem and Ramdas Pophale) SiO2 
 PCOD9238306
Probable space group: P 2/C
;
_chemical_formula_sum "Si O2"
_cell_formula_units_Z 24
_cell_length_a 10.332041
_cell_length_b 5.970889
_cell_length_c 18.771750
_cell_angle_alpha 90.000000
_cell_angle_beta 67.956776
_cell_angle_gamma 90.000000
_cell_volume 1073.404038
_symmetry_space_group_name_H-M "P 2/C"
_symmetry_group_IT_number 13
_symmetry_cell_setting 'monoclinic'
loop_
_space_group_symop_operation_xyz
x,y,z
-x,y,1/2-z
-x,-y,-z
x,-y,1/2+z
loop_
_atom_site_type_symbol
_atom_site_label
_atom_site_fract_x
_atom_site_fract_y
_atom_site_fract_z
Si Si1 0.721821 0.887840 0.667186
Si Si2 0.490501 0.748336 0.463893
Si Si3 0.687764 0.759734 0.290125
Si Si4 0.000000 0.646012 0.250000
Si Si5 0.185216 0.248994 0.958412
Si Si6 0.031611 0.400536 0.383095
Si Si7 0.500000 0.593995 0.750000
O O1 0.657287 0.045658 0.740266
O O2 0.795026 0.017306 0.587610
O O3 0.849392 0.753994 0.674273
O O4 0.592523 0.730966 0.673844
O O5 0.500000 0.500000 0.500000
O O6 0.614566 0.771845 0.380978
O O7 0.341780 0.719241 0.454495
O O8 0.500000 0.000000 0.500000
O O9 0.854937 0.762899 0.260585
O O10 0.615500 0.547342 0.267655
O O11 0.039217 0.515577 0.169512
O O12 0.118362 0.425840 0.915740
O O13 0.079212 0.267120 0.046208
#
# Coordination Sequence:
#
# PCOD9238306 Si02
#       7
#     4   4   4   2   4   4   2
#     4  12  23  44  77 108 139 205 263 317 388 483
#     4  12  30  50  76 113 158 208 264 331 398 477
#     4  12  27  47  75 108 153 198 261 322 399 464
#     4  12  24  50  72 116 152 202 252 336 394 472
#     4  11  25  49  73 112 149 210 259 322 404 475
#     4  11  25  46  76 104 161 196 259 330 399 478
#     4  12  24  46  76 104 150 196 258 332 384 474
#
# _framework density 22.358775000000001
#
# number of rings (size 3 to 8) (size 9 to 14) (size 15 to 20)
#    0.000    0.333    3.333    5.000    7.000    3.333 
#    0.000    0.000    0.000    0.000    0.000    0.000 
#    0.000    0.000    0.000    0.000    0.000    0.000 
#
# Total GULP energy -133835.021483 kJ/mol
# GULP energy per Si atom -5576.459228 kJ/mol
# Density = 2.230789 g / cm^3
# Si number density = 22.358775 Si / 1000 Ang^3
#
#
#
# Elastic Constant Matrix: (Units=GPa)
#
#
# Indices 1 2 3 4 5 6 
#
# 1 115.8914 26.5973 7.9056 0.0000 -6.1449 0.0000
# 2 26.5973 77.4386 35.9804 0.0000 -5.0738 0.0000
# 3 7.9056 35.9804 118.6168 0.0000 -21.4885 0.0000
# 4 0.0000 0.0000 0.0000 53.7214 0.0000 -17.4024
# 5 -6.1449 -5.0738 -21.4885 0.0000 45.1902 0.0000
# 6 0.0000 0.0000 0.0000 -17.4024 0.0000 20.1640
#
#
#
# Elastic Compliance Matrix: (Units=1/GPa)
#
#
# Indices 1 2 3 4 5 6 
#
# 1 0.009443 -0.003461 0.000638 0.000000 0.001199 0.000000
# 2 -0.003461 0.016312 -0.004892 0.000000 -0.000966 0.000000
# 3 0.000638 -0.004892 0.010711 0.000000 0.004631 0.000000
# 4 0.000000 0.000000 0.000000 0.025838 0.000000 0.022299
# 5 0.001199 -0.000966 0.004631 0.000000 0.024385 0.000000
# 6 0.000000 0.000000 0.000000 0.022299 0.000000 0.068839
#
#
# Mechanical properties :
#
#
# Convention : Reuss Voigt Hill
#
# Bulk Modulus (GPa) = 47.54047 50.32370 48.93208
# Shear Modulus (GPa) = 28.09447 39.91269 34.00358
#
# Velocity S-wave (km/s) = 3.54860 4.22963 3.90399
# Velocity P-wave (km/s) = 6.17242 6.81243 6.50031
#
# Compressibility (1/GPa) = 0.02103471
#
# Stress axis : x y z
#
# Youngs Moduli (GPa) = 105.89673 61.30442 93.36327
#
# Poissons Ratio (x) = 0.21218 -0.05953
# Poissons Ratio (y) = 0.36652 0.45675
# Poissons Ratio (z) = -0.06753 0.29991
#
# Static dielectric constant tensor:
#      x y z
#    x 1.807970 0.000000 0.068310 
#    y 0.000000 1.975440 0.000000 
#    z 0.068310 0.000000 1.851020 
# 
# From -- ./inp_files/65330.got.cif
#   From: 2010.05.17/outbox.cif.g08.bks.cpg/sg13_33_cif.got.tgz:65330.got - 2010.06.03 16:44:36.
