data_PCOD9238187
_publ_section_title
;
Structure prediction by ZEFSAII (Michael W. Deem and Ramdas Pophale) SiO2 
 PCOD9238187
Probable space group: P 2/C
;
_chemical_formula_sum "Si O2"
_cell_formula_units_Z 28
_cell_length_a 9.496735
_cell_length_b 5.168430
_cell_length_c 26.793150
_cell_angle_alpha 90.000000
_cell_angle_beta 62.211781
_cell_angle_gamma 90.000000
_cell_volume 1163.433054
_symmetry_space_group_name_H-M "P 2/C"
_symmetry_group_IT_number 13
_symmetry_cell_setting 'monoclinic'
loop_
_space_group_symop_operation_xyz
x,y,z
-x,y,1/2-z
-x,-y,-z
x,-y,1/2+z
loop_
_atom_site_type_symbol
_atom_site_label
_atom_site_fract_x
_atom_site_fract_y
_atom_site_fract_z
Si Si1 0.500000 0.624744 0.250000
Si Si2 0.599406 0.050387 0.161914
Si Si3 0.217435 0.628346 0.784415
Si Si4 0.684600 0.959539 0.360033
Si Si5 0.907576 0.049141 0.565122
Si Si6 0.010273 0.540802 0.598299
Si Si7 0.000000 0.979000 0.750000
Si Si8 0.636054 0.525213 0.935146
O O1 0.640356 0.525401 0.264544
O O2 0.605785 0.802150 0.196098
O O3 0.665000 0.263137 0.190267
O O4 0.426522 0.053131 0.167191
O O5 0.723667 0.028742 0.096540
O O6 0.077412 0.477623 0.835443
O O7 0.117581 0.816522 0.766453
O O8 0.664884 0.196213 0.403288
O O9 0.863994 0.904861 0.309652
O O10 0.617496 0.699318 0.396750
O O11 0.924105 0.350607 0.574282
O O12 0.000000 0.000000 0.500000
O O13 0.982775 0.845711 0.592529
O O14 0.193779 0.472420 0.567298
O O15 0.500000 0.500000 0.000000
#
# Coordination Sequence:
#
# PCOD9238187 Si02
#       8
#     2   4   4   4   4   4   2   4
#     4  12  22  44  72 100 154 194 238 306 372 438
#     4  11  27  44  70 110 143 194 244 306 369 438
#     4  11  25  46  71 106 158 187 254 302 377 447
#     4  12  29  48  79 111 151 200 256 308 381 453
#     4  11  25  44  75 107 144 190 248 305 367 444
#     4  11  24  47  72 105 146 195 242 307 372 431
#     4  12  26  50  76 114 150 204 250 308 382 462
#     4  12  29  50  77 108 153 201 254 317 378 448
#
# _framework density 24.066701999999999
#
# number of rings (size 3 to 8) (size 9 to 14) (size 15 to 20)
#    0.000    0.571    2.857    3.857   10.000    1.714 
#    0.000    0.000    0.000    0.000    0.000    0.000 
#    0.000    0.000    0.000    0.000    0.000    0.000 
#
# Total GULP energy -156181.569804 kJ/mol
# GULP energy per Si atom -5577.913207 kJ/mol
# Density = 2.401193 g / cm^3
# Si number density = 24.066702 Si / 1000 Ang^3
#
#
#
# Elastic Constant Matrix: (Units=GPa)
#
#
# Indices 1 2 3 4 5 6 
#
# 1 107.6681 1.4194 31.3014 0.0000 -32.4115 0.0000
# 2 1.4194 74.8497 11.1476 0.0000 2.4970 0.0000
# 3 31.3014 11.1476 116.8103 0.0000 -25.6787 0.0000
# 4 0.0000 0.0000 0.0000 4.7070 0.0000 12.8325
# 5 -32.4115 2.4970 -25.6787 0.0000 40.7246 0.0000
# 6 0.0000 0.0000 0.0000 12.8325 0.0000 35.2635
#
#
#
# Elastic Compliance Matrix: (Units=1/GPa)
#
#
# Indices 1 2 3 4 5 6 
#
# 1 0.012400 -0.000345 -0.001295 0.000000 0.009073 0.000000
# 2 -0.000345 0.013692 -0.001694 0.000000 -0.002182 0.000000
# 3 -0.001295 -0.001694 0.010293 0.000000 0.005563 0.000000
# 4 0.000000 0.000000 0.000000 26.897081 0.000000 -9.787948
# 5 0.009073 -0.002182 0.005563 0.000000 0.035418 0.000000
# 6 0.000000 0.000000 0.000000 -9.787948 0.000000 3.590229
#
#
# Mechanical properties :
#
#
# Convention : Reuss Voigt Hill
#
# Bulk Modulus (GPa) = 33.65162 43.00720 38.32941
# Shear Modulus (GPa) = 0.16353 33.16967 16.66660
#
# Velocity S-wave (km/s) = 0.26095 3.71649 2.63443
# Velocity P-wave (km/s) = 3.75550 6.02704 5.02140
#
# Compressibility (1/GPa) = 0.02971626
#
# Stress axis : x y z
#
# Youngs Moduli (GPa) = 80.64303 73.03684 97.15763
#
# Poissons Ratio (x) = 0.02519 0.12585
# Poissons Ratio (y) = 0.02782 0.16458
# Poissons Ratio (z) = 0.10446 0.12372
#
# Static dielectric constant tensor:
#      x y z
#    x 1.934070 0.000000 -0.009150 
#    y 0.000000 2.388510 0.000000 
#    z -0.009150 0.000000 1.739710 
# 
# From -- ./inp_files/95620.got.cif
#   From: 2010.05.17/outbox.cif.g08.bks.cpg/sg13_48_cif.got.tgz:95620.got - 2010.06.03 16:44:36.
