data_PCOD9238926
_publ_section_title
;
Structure prediction by ZEFSAII (Michael W. Deem and Ramdas Pophale) SiO2 
 PCOD9238926
Probable space group: P 2/C
;
_chemical_formula_sum "Si O2"
_cell_formula_units_Z 32
_cell_length_a 15.000000
_cell_length_b 21.000000
_cell_length_c 15.000000
_cell_angle_alpha 90.000000
_cell_angle_beta 160.000000
_cell_angle_gamma 90.000000
_cell_volume 1616.045177
_symmetry_space_group_name_H-M "P 2/C"
_symmetry_group_IT_number 13
_symmetry_cell_setting 'monoclinic'
loop_
_space_group_symop_operation_xyz
x,y,z
-x,y,1/2-z
-x,-y,-z
x,-y,1/2+z
loop_
_atom_site_type_symbol
_atom_site_label
_atom_site_fract_x
_atom_site_fract_y
_atom_site_fract_z
Si Si1 0.436694 0.114192 0.945870
Si Si2 0.260288 0.966929 0.452722
Si Si3 0.876043 0.720595 0.730303
Si Si4 0.281838 0.614737 0.331437
Si Si5 0.731167 0.480201 0.539406
Si Si6 0.690470 0.249548 0.726152
Si Si7 0.166186 0.584937 0.722310
Si Si8 0.980262 0.941059 0.912949
O O1 0.365600 0.073880 0.967533
O O2 0.360285 0.187586 0.880245
O O3 0.263984 0.089830 0.697836
O O4 0.743522 0.104363 0.219339
O O5 0.000000 0.934773 0.250000
O O6 0.125198 0.029234 0.278926
O O7 0.500000 0.975984 0.750000
O O8 0.574163 0.739054 0.464022
O O9 0.889843 0.645137 0.766096
O O10 0.000000 0.732048 0.750000
O O11 0.063760 0.755779 0.977090
O O12 0.223657 0.589018 0.374812
O O13 0.250876 0.688634 0.278734
O O14 0.589643 0.602617 0.609803
O O15 0.092337 0.578262 0.081839
O O16 0.715296 0.527469 0.608595
O O17 0.000000 0.501923 0.750000
O O18 0.500000 0.483333 0.250000
O O19 0.000000 0.000000 0.000000
#
# Coordination Sequence:
#
# PCOD9238926 Si02
#       8
#     4   4   4   4   4   4   4   4
#     4  11  21  39  60  82 113 155 192 220 270 343
#     4  11  21  36  58  87 113 140 182 234 273 311
#     4  10  20  36  57  82 110 141 185 241 285 325
#     4  10  21  39  57  79 111 152 190 229 279 345
#     4  12  23  35  55  86 115 143 185 243 295 338
#     4  10  22  38  59  80 111 156 192 218 270 342
#     4  10  20  36  59  80 107 147 189 231 289 353
#     4  10  20  37  60  82 111 146 178 222 281 333
#
# _framework density 19.801427
#
# number of rings (size 3 to 8) (size 9 to 14) (size 15 to 20)
#    0.000    1.500    0.000    7.500    0.000    2.000 
#    0.000    7.500    0.000    0.000    0.000    0.000 
#    0.000    0.000    0.000    0.000    0.000    0.000 
#
# Total GULP energy -178396.816945 kJ/mol
# GULP energy per Si atom -5574.900530 kJ/mol
# Density = 1.975636 g / cm^3
# Si number density = 19.801427 Si / 1000 Ang^3
#
#
#
# Elastic Constant Matrix: (Units=GPa)
#
#
# Indices 1 2 3 4 5 6 
#
# 1 45.0882 12.0019 18.0892 0.0000 -18.1041 0.0000
# 2 12.0019 60.3096 18.0676 0.0000 -18.6822 0.0000
# 3 18.0892 18.0676 153.7150 0.0000 -19.6936 0.0000
# 4 0.0000 0.0000 0.0000 27.9475 0.0000 4.9742
# 5 -18.1041 -18.6822 -19.6936 0.0000 30.8615 0.0000
# 6 0.0000 0.0000 0.0000 4.9742 0.0000 10.3155
#
#
#
# Elastic Compliance Matrix: (Units=1/GPa)
#
#
# Indices 1 2 3 4 5 6 
#
# 1 0.029280 -0.000455 -0.001336 0.000000 0.016048 0.000000
# 2 -0.000455 0.020527 -0.000873 0.000000 0.011602 0.000000
# 3 -0.001336 -0.000873 0.007185 0.000000 0.003273 0.000000
# 4 0.000000 0.000000 0.000000 0.039141 0.000000 -0.018874
# 5 0.016048 0.011602 0.003273 0.000000 0.050929 0.000000
# 6 0.000000 0.000000 0.000000 -0.018874 0.000000 0.106042
#
#
# Mechanical properties :
#
#
# Convention : Reuss Voigt Hill
#
# Bulk Modulus (GPa) = 19.35610 39.49224 29.42417
# Shear Modulus (GPa) = 18.13876 27.88850 23.01363
#
# Velocity S-wave (km/s) = 3.02989 3.75695 3.41283
# Velocity P-wave (km/s) = 4.69432 6.22953 5.51560
#
# Compressibility (1/GPa) = 0.05166330
#
# Stress axis : x y z
#
# Youngs Moduli (GPa) = 34.15336 48.71579 139.18587
#
# Poissons Ratio (x) = 0.02218 0.18597
# Poissons Ratio (y) = 0.01555 0.12147
# Poissons Ratio (z) = 0.04563 0.04252
#
# Static dielectric constant tensor:
#      x y z
#    x 1.698020 0.000000 0.017340 
#    y 0.000000 1.757650 0.000000 
#    z 0.017340 0.000000 1.672880 
# 
# From -- ./inp_files/54013.got.cif
#   From: 2010.05.17/outbox.ucp.g08.bks.cvg/sg13_28_cif.got.tgz:54013.got - 2010.06.11 12:23:55.
