data_PCOD9238177
_publ_section_title
;
Structure prediction by ZEFSAII (Michael W. Deem and Ramdas Pophale) SiO2 
 PCOD9238177
Probable space group: P 2/C
;
_chemical_formula_sum "Si O2"
_cell_formula_units_Z 20
_cell_length_a 5.409907
_cell_length_b 14.760185
_cell_length_c 10.995096
_cell_angle_alpha 90.000000
_cell_angle_beta 95.030722
_cell_angle_gamma 90.000000
_cell_volume 874.589815
_symmetry_space_group_name_H-M "P 2/C"
_symmetry_group_IT_number 13
_symmetry_cell_setting 'monoclinic'
loop_
_space_group_symop_operation_xyz
x,y,z
-x,y,1/2-z
-x,-y,-z
x,-y,1/2+z
loop_
_atom_site_type_symbol
_atom_site_label
_atom_site_fract_x
_atom_site_fract_y
_atom_site_fract_z
Si Si1 0.610984 0.362035 0.876727
Si Si2 0.082263 0.104523 0.015237
Si Si3 0.441912 0.154034 0.614908
Si Si4 0.000000 0.779300 0.750000
Si Si5 0.000000 0.553075 0.250000
Si Si6 0.315288 0.390032 0.354082
O O1 0.500000 0.407013 0.750000
O O2 0.510808 0.260933 0.875161
O O3 0.894296 0.379404 0.849962
O O4 0.561705 0.395432 0.008971
O O5 0.354050 0.114645 0.967897
O O6 0.846612 0.148274 0.934482
O O7 0.096911 0.153497 0.147835
O O8 0.000000 0.000000 0.000000
O O9 0.500000 0.113077 0.750000
O O10 0.178353 0.707259 0.828484
O O11 0.856685 0.477495 0.163667
O O12 0.500000 0.393395 0.250000
#
# Coordination Sequence:
#
# PCOD9238177 Si02
#       6
#     4   4   4   2   2   4
#     4  11  25  43  71 102 146 191 248 299 374 443
#     4  12  27  49  75 113 145 194 249 309 373 452
#     4  11  26  46  76 107 152 191 242 303 376 439
#     4  11  26  44  77 100 150 194 247 306 384 441
#     4  11  26  40  71 106 142 192 247 310 364 443
#     4  11  24  47  69 102 147 191 250 304 374 445
#
# _framework density 22.867864999999998
#
# number of rings (size 3 to 8) (size 9 to 14) (size 15 to 20)
#    0.000    0.800    2.000    3.600    8.400    6.400 
#    0.000    0.000    0.000    0.000    0.000    0.000 
#    0.000    0.000    0.000    0.000    0.000    0.000 
#
# Total GULP energy -111426.610034 kJ/mol
# GULP energy per Si atom -5571.330502 kJ/mol
# Density = 2.281582 g / cm^3
# Si number density = 22.867865 Si / 1000 Ang^3
#
#
#
# Elastic Constant Matrix: (Units=GPa)
#
#
# Indices 1 2 3 4 5 6 
#
# 1 21.1304 0.9307 11.4659 0.0000 -2.0817 0.0000
# 2 0.9307 121.1854 13.8139 0.0000 -16.1074 0.0000
# 3 11.4659 13.8139 160.5453 0.0000 -2.5144 0.0000
# 4 0.0000 0.0000 0.0000 10.6571 0.0000 -13.9244
# 5 -2.0817 -16.1074 -2.5144 0.0000 47.3509 0.0000
# 6 0.0000 0.0000 0.0000 -13.9244 0.0000 23.4984
#
#
#
# Elastic Compliance Matrix: (Units=1/GPa)
#
#
# Indices 1 2 3 4 5 6 
#
# 1 0.049430 0.000299 -0.003523 0.000000 0.002088 0.000000
# 2 0.000299 0.008723 -0.000726 0.000000 0.002942 0.000000
# 3 -0.003523 -0.000726 0.006542 0.000000 -0.000054 0.000000
# 4 0.000000 0.000000 0.000000 0.415649 0.000000 0.246301
# 5 0.002088 0.002942 -0.000054 0.000000 0.022209 0.000000
# 6 0.000000 0.000000 0.000000 0.246301 0.000000 0.188507
#
#
# Mechanical properties :
#
#
# Convention : Reuss Voigt Hill
#
# Bulk Modulus (GPa) = 17.60702 39.47580 28.54141
# Shear Modulus (GPa) = 6.96485 34.74463 20.85474
#
# Velocity S-wave (km/s) = 1.74708 3.90213 3.02316
# Velocity P-wave (km/s) = 3.43306 6.13206 4.96931
#
# Compressibility (1/GPa) = 0.05679554
#
# Stress axis : x y z
#
# Youngs Moduli (GPa) = 20.23081 114.63543 152.85833
#
# Poissons Ratio (x) = -0.03433 0.53856
# Poissons Ratio (y) = -0.00606 0.11096
# Poissons Ratio (z) = 0.07128 0.08321
#
# Static dielectric constant tensor:
#      x y z
#    x 2.830310 0.000000 0.000780 
#    y 0.000000 1.875660 0.000000 
#    z 0.000780 0.000000 1.869310 
# 
# From -- ./inp_files/26279.got.cif
#   From: 2010.05.17/outbox.cif.g08.bks.cpg/sg13_14_cif.got.tgz:26279.got - 2010.06.03 16:44:36.
