data_PCOD9238914
_publ_section_title
;
Structure prediction by ZEFSAII (Michael W. Deem and Ramdas Pophale) SiO2 
 PCOD9238914
Probable space group: P 2/C
;
_chemical_formula_sum "Si O2"
_cell_formula_units_Z 30
_cell_length_a 15.000000
_cell_length_b 9.000000
_cell_length_c 24.000000
_cell_angle_alpha 90.000000
_cell_angle_beta 150.000000
_cell_angle_gamma 90.000000
_cell_volume 1620.000000
_symmetry_space_group_name_H-M "P 2/C"
_symmetry_group_IT_number 13
_symmetry_cell_setting 'monoclinic'
loop_
_space_group_symop_operation_xyz
x,y,z
-x,y,1/2-z
-x,-y,-z
x,-y,1/2+z
loop_
_atom_site_type_symbol
_atom_site_label
_atom_site_fract_x
_atom_site_fract_y
_atom_site_fract_z
Si Si1 0.571423 0.760517 0.449725
Si Si2 0.863085 0.996769 0.078711
Si Si3 0.343937 0.547489 0.540161
Si Si4 0.945763 0.510937 0.279881
Si Si5 0.390832 0.687375 0.902897
Si Si6 0.712224 0.025286 0.214076
Si Si7 0.446782 0.832190 0.657519
Si Si8 0.000000 0.796807 0.250000
O O1 0.753050 0.854809 0.535918
O O2 0.572882 0.616952 0.410321
O O3 0.580135 0.686351 0.515516
O O4 0.402241 0.872445 0.353630
O O5 0.070435 0.011993 0.169724
O O6 0.882348 0.897715 0.145491
O O7 0.728863 0.918066 0.961820
O O8 0.435449 0.631751 0.536651
O O9 0.398643 0.660122 0.618746
O O10 0.129727 0.526869 0.414507
O O11 0.775472 0.416965 0.206932
O O12 0.000000 0.437019 0.250000
O O13 0.897322 0.679858 0.234785
O O14 0.341083 0.858442 0.863128
O O15 0.618821 0.108781 0.215900
O O16 0.500000 0.856297 0.750000
#
# Coordination Sequence:
#
# PCOD9238914 Si02
#       8
#     4   4   4   4   4   4   4   2
#     4  11  22  36  57  90 127 164 193 244 296 368
#     4  11  22  38  61  91 129 157 199 245 297 374
#     4  11  22  37  59  87 115 161 211 243 300 353
#     4  10  20  32  54  84 121 164 197 232 286 343
#     4  11  22  36  56  88 132 166 197 242 292 369
#     4  10  24  36  61  92 119 162 201 245 308 357
#     4  10  23  46  64  84 117 158 209 260 303 350
#     4  10  20  32  58  90 124 160 194 230 296 360
#
# _framework density 18.518519000000001
#
# number of rings (size 3 to 8) (size 9 to 14) (size 15 to 20)
#    0.400    1.067    2.667    2.400    3.733    0.533 
#    0.000    2.667    0.000   11.200    0.000    0.000 
#    0.000    0.000    0.000    0.000    0.000    0.000 
#
# Total GULP energy -167296.298768 kJ/mol
# GULP energy per Si atom -5576.543292 kJ/mol
# Density = 1.847637 g / cm^3
# Si number density = 18.518519 Si / 1000 Ang^3
#
#
#
# Elastic Constant Matrix: (Units=GPa)
#
#
# Indices 1 2 3 4 5 6 
#
# 1 49.8981 4.1684 35.3991 0.0000 10.0853 0.0000
# 2 4.1684 101.3372 27.7647 0.0000 4.9138 0.0000
# 3 35.3991 27.7647 108.1208 0.0000 13.0827 0.0000
# 4 0.0000 0.0000 0.0000 31.5360 0.0000 12.6962
# 5 10.0853 4.9138 13.0827 0.0000 42.7704 0.0000
# 6 0.0000 0.0000 0.0000 12.6962 0.0000 20.8343
#
#
#
# Elastic Compliance Matrix: (Units=1/GPa)
#
#
# Indices 1 2 3 4 5 6 
#
# 1 0.026874 0.001467 -0.008711 0.000000 -0.003841 0.000000
# 2 0.001467 0.010702 -0.003155 0.000000 -0.000611 0.000000
# 3 -0.008711 -0.003155 0.013104 0.000000 -0.001592 0.000000
# 4 0.000000 0.000000 0.000000 0.042018 0.000000 -0.025606
# 5 -0.003841 -0.000611 -0.001592 0.000000 0.024843 0.000000
# 6 0.000000 0.000000 0.000000 -0.025606 0.000000 0.063602
#
#
# Mechanical properties :
#
#
# Convention : Reuss Voigt Hill
#
# Bulk Modulus (GPa) = 33.46341 43.78005 38.62173
# Shear Modulus (GPa) = 23.59603 31.82972 27.71288
#
# Velocity S-wave (km/s) = 3.57345 4.15035 3.87265
# Velocity P-wave (km/s) = 5.92752 6.83079 6.39512
#
# Compressibility (1/GPa) = 0.02988339
#
# Stress axis : x y z
#
# Youngs Moduli (GPa) = 37.21032 93.44383 76.31522
#
# Poissons Ratio (x) = -0.13712 0.66476
# Poissons Ratio (y) = -0.05460 0.24075
# Poissons Ratio (z) = 0.32413 0.29478
#
# Static dielectric constant tensor:
#      x y z
#    x 1.663110 0.000000 0.026130 
#    y 0.000000 1.692150 0.000000 
#    z 0.026130 0.000000 1.632620 
# 
# From -- ./inp_files/87333.got.cif
#   From: 2010.05.17/outbox.ucp.g08.bks.cvg/sg13_44_cif.got.tgz:87333.got - 2010.06.11 12:23:55.
