data_PCOD9238557
_publ_section_title
;
Structure prediction by ZEFSAII (Michael W. Deem and Ramdas Pophale) SiO2 
 PCOD9238557
Probable space group: P 2/C
;
_chemical_formula_sum "Si O2"
_cell_formula_units_Z 20
_cell_length_a 13.589606
_cell_length_b 7.029774
_cell_length_c 8.565934
_cell_angle_alpha 90.000000
_cell_angle_beta 93.955324
_cell_angle_gamma 90.000000
_cell_volume 816.370475
_symmetry_space_group_name_H-M "P 2/C"
_symmetry_group_IT_number 13
_symmetry_cell_setting 'monoclinic'
loop_
_space_group_symop_operation_xyz
x,y,z
-x,y,1/2-z
-x,-y,-z
x,-y,1/2+z
loop_
_atom_site_type_symbol
_atom_site_label
_atom_site_fract_x
_atom_site_fract_y
_atom_site_fract_z
Si Si1 0.616752 0.472783 0.548580
Si Si2 0.305776 0.246060 0.664880
Si Si3 0.570059 0.889946 0.885979
Si Si4 0.065503 0.637544 0.623886
Si Si5 0.888138 0.268520 0.694595
O O1 0.500000 0.500000 0.500000
O O2 0.644231 0.411651 0.725526
O O3 0.681447 0.652887 0.501671
O O4 0.637929 0.271308 0.465811
O O5 0.199265 0.181986 0.714453
O O6 0.370327 0.059332 0.683801
O O7 0.500000 0.796625 0.750000
O O8 0.500000 0.000000 0.000000
O O9 0.121789 0.486814 0.739753
O O10 0.122256 0.748468 0.494011
O O11 0.000000 0.742497 0.750000
O O12 0.000000 0.500000 0.500000
O O13 0.000000 0.209399 0.750000
#
# Coordination Sequence:
#
# PCOD9238557 Si02
#       5
#     4   4   4   4   4
#     4  12  24  41  64  94 130 164 216 263 316 387
#     4  12  24  38  64  98 124 171 215 257 323 378
#     4  12  23  43  64  89 130 167 207 264 320 378
#     4   7  12  25  47  72 108 154 191 246 302 344
#     4   9  17  32  54  84 123 158 205 259 305 370
#
# _framework density 24.498681999999999
#
# number of rings (size 3 to 8) (size 9 to 14) (size 15 to 20)
#    0.000    2.000    4.000    3.000    0.000    0.000 
#    0.000    0.000    0.000    2.400    0.000    0.000 
#    0.000    1.600    0.000    0.000    0.000    0.000 
#
# Total GULP energy -111508.502612 kJ/mol
# GULP energy per Si atom -5575.425131 kJ/mol
# Density = 2.444292 g / cm^3
# Si number density = 24.498682 Si / 1000 Ang^3
#
#
#
# Elastic Constant Matrix: (Units=GPa)
#
#
# Indices 1 2 3 4 5 6 
#
# 1 150.0287 9.4044 24.5194 0.0000 -35.5135 0.0000
# 2 9.4044 55.5576 12.8348 0.0000 -5.9074 0.0000
# 3 24.5194 12.8348 95.6246 0.0000 -24.2042 0.0000
# 4 0.0000 0.0000 0.0000 27.9791 0.0000 0.1918
# 5 -35.5135 -5.9074 -24.2042 0.0000 32.6406 0.0000
# 6 0.0000 0.0000 0.0000 0.1918 0.0000 9.2923
#
#
#
# Elastic Compliance Matrix: (Units=1/GPa)
#
#
# Indices 1 2 3 4 5 6 
#
# 1 0.008996 -0.000533 0.000268 0.000000 0.009890 0.000000
# 2 -0.000533 0.018699 -0.002048 0.000000 0.001286 0.000000
# 3 0.000268 -0.002048 0.013103 0.000000 0.009638 0.000000
# 4 0.000000 0.000000 0.000000 0.035746 0.000000 -0.000738
# 5 0.009890 0.001286 0.009638 0.000000 0.048777 0.000000
# 6 0.000000 0.000000 0.000000 -0.000738 0.000000 0.107631
#
#
# Mechanical properties :
#
#
# Convention : Reuss Voigt Hill
#
# Bulk Modulus (GPa) = 27.64461 43.85866 35.75163
# Shear Modulus (GPa) = 20.02917 30.94589 25.48753
#
# Velocity S-wave (km/s) = 2.86240 3.55796 3.22897
# Velocity P-wave (km/s) = 4.71520 5.90085 5.34103
#
# Compressibility (1/GPa) = 0.03617341
#
# Stress axis : x y z
#
# Youngs Moduli (GPa) = 111.15892 53.47780 76.31790
#
# Poissons Ratio (x) = 0.02851 -0.02047
# Poissons Ratio (y) = 0.05926 0.15628
# Poissons Ratio (z) = -0.02982 0.10951
#
# Static dielectric constant tensor:
#      x y z
#    x 2.071230 0.000000 -0.108450 
#    y 0.000000 1.943040 0.000000 
#    z -0.108450 0.000000 2.258640 
# 
# From -- ./inp_files/17795.got.cif
#   From: 2010.05.17/outbox.cif.g08.bks.cpg/sg13_9_cif.got.tgz:17795.got - 2010.06.03 16:44:36.
