data_PCOD9238672
_publ_section_title
;
Structure prediction by ZEFSAII (Michael W. Deem and Ramdas Pophale) SiO2 
 PCOD9238672
Probable space group: P 2/C
;
_chemical_formula_sum "Si O2"
_cell_formula_units_Z 14
_cell_length_a 9.840979
_cell_length_b 7.795408
_cell_length_c 8.762623
_cell_angle_alpha 90.000000
_cell_angle_beta 48.859761
_cell_angle_gamma 90.000000
_cell_volume 506.249739
_symmetry_space_group_name_H-M "P 2/C"
_symmetry_group_IT_number 13
_symmetry_cell_setting 'monoclinic'
loop_
_space_group_symop_operation_xyz
x,y,z
-x,y,1/2-z
-x,-y,-z
x,-y,1/2+z
loop_
_atom_site_type_symbol
_atom_site_label
_atom_site_fract_x
_atom_site_fract_y
_atom_site_fract_z
Si Si1 0.174434 0.077936 0.210793
Si Si2 0.286944 0.370703 0.366234
Si Si3 0.216617 0.287700 0.757116
Si Si4 0.500000 0.121105 0.750000
O O1 0.250871 0.218509 0.271880
O O2 0.000000 0.146139 0.250000
O O3 0.121690 0.897495 0.328634
O O4 0.335236 0.035343 0.967332
O O5 0.500000 0.389838 0.250000
O O6 0.205754 0.337638 0.590670
O O7 0.192654 0.541244 0.371491
O O8 0.409964 0.231908 0.683581
#
# Coordination Sequence:
#
# PCOD9238672 Si02
#       4
#     4   4   4   2
#     4  12  30  52  80 120 160 206 266 329 395 470
#     4  12  25  48  82 118 155 214 267 321 399 474
#     4  12  26  46  81 117 158 208 266 322 396 473
#     4  12  24  50  84 112 158 212 260 324 398 468
#
# _framework density 27.654333999999999
#
# number of rings (size 3 to 8) (size 9 to 14) (size 15 to 20)
#    0.000    0.000    4.286    5.143    4.000    5.714 
#    0.000    4.286    0.000    0.000    0.000    0.000 
#    0.000    0.000    0.000    0.000    0.000    0.000 
#
# Total GULP energy -78392.886813 kJ/mol
# GULP energy per Si atom -5599.491915 kJ/mol
# Density = 2.759139 g / cm^3
# Si number density = 27.654334 Si / 1000 Ang^3
#
#
#
# Elastic Constant Matrix: (Units=GPa)
#
#
# Indices 1 2 3 4 5 6 
#
# 1 205.9316 87.5744 101.2497 0.0000 11.8981 0.0000
# 2 87.5744 213.8346 85.4256 0.0000 30.3367 0.0000
# 3 101.2497 85.4256 139.9970 0.0000 16.5866 0.0000
# 4 0.0000 0.0000 0.0000 -7.0304 0.0000 41.9532
# 5 11.8981 30.3367 16.5866 0.0000 68.6237 0.0000
# 6 0.0000 0.0000 0.0000 41.9532 0.0000 53.2673
#
#
#
# Elastic Compliance Matrix: (Units=1/GPa)
#
#
# Indices 1 2 3 4 5 6 
#
# 1 0.007787 -0.001292 -0.004891 0.000000 0.000403 0.000000
# 2 -0.001292 0.006642 -0.002879 0.000000 -0.002016 0.000000
# 3 -0.004891 -0.002879 0.012545 0.000000 -0.000911 0.000000
# 4 0.000000 0.000000 0.000000 -0.024955 0.000000 0.019654
# 5 0.000403 -0.002016 -0.000911 0.000000 0.015614 0.000000
# 6 0.000000 0.000000 0.000000 0.019654 0.000000 0.003294
#
#
# Mechanical properties :
#
#
# Convention : Reuss Voigt Hill
#
# Bulk Modulus (GPa) = 113.00891 123.14029 118.07460
# Shear Modulus (GPa) = 119.04083 42.00636 80.52360
#
# Velocity S-wave (km/s) = 6.56806 3.90164 5.40195
# Velocity P-wave (km/s) = 9.92335 8.05742 9.03866
#
# Compressibility (1/GPa) = 0.00884886
#
# Stress axis : x y z
#
# Youngs Moduli (GPa) = 128.41914 150.55294 79.71151
#
# Poissons Ratio (x) = 0.19458 0.38986
# Poissons Ratio (y) = 0.16597 0.22952
# Poissons Ratio (z) = 0.62809 0.43350
#
# Static dielectric constant tensor:
#      x y z
#    x 2.105480 0.000000 -0.095040 
#    y 0.000000 2.175140 0.000000 
#    z -0.095040 0.000000 2.239600 
# 
# From -- ./inp_files/10815.got.cif
#   From: 2010.05.17/outbox.cif.g08.bks.cpg/sg13_6_cif.got.tgz:10815.got - 2010.06.03 16:44:36.
