data_PCOD9238452
_publ_section_title
;
Structure prediction by ZEFSAII (Michael W. Deem and Ramdas Pophale) SiO2 
 PCOD9238452
Probable space group: P 2/C
;
_chemical_formula_sum "Si O2"
_cell_formula_units_Z 14
_cell_length_a 4.821505
_cell_length_b 8.072170
_cell_length_c 13.637618
_cell_angle_alpha 90.000000
_cell_angle_beta 81.388991
_cell_angle_gamma 90.000000
_cell_volume 524.793096
_symmetry_space_group_name_H-M "P 2/C"
_symmetry_group_IT_number 13
_symmetry_cell_setting 'monoclinic'
loop_
_space_group_symop_operation_xyz
x,y,z
-x,y,1/2-z
-x,-y,-z
x,-y,1/2+z
loop_
_atom_site_type_symbol
_atom_site_label
_atom_site_fract_x
_atom_site_fract_y
_atom_site_fract_z
Si Si1 0.500000 0.387726 0.250000
Si Si2 0.095946 0.878688 0.854211
Si Si3 0.300383 0.205880 0.953613
Si Si4 0.861432 0.349892 0.853058
O O1 0.690705 0.272472 0.171540
O O2 0.299021 0.497756 0.190314
O O3 0.000000 0.915925 0.750000
O O4 0.236442 0.037771 0.897081
O O5 0.831453 0.825365 0.933888
O O6 0.624534 0.247624 0.923010
O O7 0.121660 0.355870 0.913653
O O8 0.000000 0.266420 0.750000
#
# Coordination Sequence:
#
# PCOD9238452 Si02
#       4
#     2   4   4   4
#     4  12  28  46  76 120 162 200 246 336 372 454
#     4  11  29  49  78 119 155 197 265 332 367 458
#     4  11  28  51  84 109 153 213 258 306 400 452
#     4  12  25  51  76 114 155 208 251 309 385 470
#
# _framework density 26.67718
#
# number of rings (size 3 to 8) (size 9 to 14) (size 15 to 20)
#    0.000    0.571    2.857    1.714   12.000    4.571 
#    0.000    0.000    0.000    0.000    0.000    0.000 
#    0.000    0.000    0.000    0.000    0.000    0.000 
#
# Total GULP energy -78562.647172 kJ/mol
# GULP energy per Si atom -5611.617655 kJ/mol
# Density = 2.661646 g / cm^3
# Si number density = 26.677180 Si / 1000 Ang^3
#
#
#
# Elastic Constant Matrix: (Units=GPa)
#
#
# Indices 1 2 3 4 5 6 
#
# 1 124.6231 40.1355 36.2385 0.0000 -31.5534 0.0000
# 2 40.1355 143.8293 45.8459 0.0000 -5.7979 0.0000
# 3 36.2385 45.8459 201.3751 0.0000 -32.6645 0.0000
# 4 0.0000 0.0000 0.0000 60.0137 0.0000 -19.0253
# 5 -31.5534 -5.7979 -32.6645 0.0000 57.5698 0.0000
# 6 0.0000 0.0000 0.0000 -19.0253 0.0000 48.7425
#
#
#
# Elastic Compliance Matrix: (Units=1/GPa)
#
#
# Indices 1 2 3 4 5 6 
#
# 1 0.010259 -0.002515 -0.000443 0.000000 0.005118 0.000000
# 2 -0.002515 0.008116 -0.001637 0.000000 -0.001490 0.000000
# 3 -0.000443 -0.001637 0.005895 0.000000 0.002937 0.000000
# 4 0.000000 0.000000 0.000000 0.019016 0.000000 0.007422
# 5 0.005118 -0.001490 0.002937 0.000000 0.021692 0.000000
# 6 0.000000 0.000000 0.000000 0.007422 0.000000 0.023413
#
#
# Mechanical properties :
#
#
# Convention : Reuss Voigt Hill
#
# Bulk Modulus (GPa) = 66.31669 79.36304 72.83986
# Shear Modulus (GPa) = 48.72946 56.43903 52.58424
#
# Velocity S-wave (km/s) = 4.27855 4.60459 4.44456
# Velocity P-wave (km/s) = 7.02289 7.62126 7.32818
#
# Compressibility (1/GPa) = 0.01507916
#
# Stress axis : x y z
#
# Youngs Moduli (GPa) = 97.47589 123.21018 169.64541
#
# Poissons Ratio (x) = 0.30989 0.07522
# Poissons Ratio (y) = 0.24516 0.27768
# Poissons Ratio (z) = 0.04322 0.20167
#
# Static dielectric constant tensor:
#      x y z
#    x 2.066420 0.000000 0.035270 
#    y 0.000000 2.105170 0.000000 
#    z 0.035270 0.000000 2.029560 
# 
# From -- ./inp_files/42995.got.cif
#   From: 2010.05.17/outbox.cif.g08.bks.cpg/sg13_22_cif.got.tgz:42995.got - 2010.06.03 16:44:36.
