data_PCOD9238791
_publ_section_title
;
Structure prediction by ZEFSAII (Michael W. Deem and Ramdas Pophale) SiO2 
 PCOD9238791
Probable space group: P 2/C
;
_chemical_formula_sum "Si O2"
_cell_formula_units_Z 12
_cell_length_a 11.701843
_cell_length_b 4.747773
_cell_length_c 8.974436
_cell_angle_alpha 90.000000
_cell_angle_beta 76.554119
_cell_angle_gamma 90.000000
_cell_volume 484.932368
_symmetry_space_group_name_H-M "P 2/C"
_symmetry_group_IT_number 13
_symmetry_cell_setting 'monoclinic'
loop_
_space_group_symop_operation_xyz
x,y,z
-x,y,1/2-z
-x,-y,-z
x,-y,1/2+z
loop_
_atom_site_type_symbol
_atom_site_label
_atom_site_fract_x
_atom_site_fract_y
_atom_site_fract_z
Si Si1 0.627360 0.622762 0.424612
Si Si2 0.296743 0.099355 0.286080
Si Si3 0.056040 0.755802 0.392209
O O1 0.500000 0.500000 0.500000
O O2 0.704251 0.364466 0.329985
O O3 0.679917 0.758844 0.560398
O O4 0.611777 0.878908 0.312766
O O5 0.186947 0.883321 0.331196
O O6 0.000000 0.722149 0.250000
O O7 0.000000 0.500000 0.500000
O O8 0.000000 0.000000 0.500000
#
# Coordination Sequence:
#
# PCOD9238791 Si02
#       3
#     4   4   4
#     4  12  27  50  77 114 158 209 263 325 393 471
#     4  12  27  50  78 114 158 208 261 325 393 468
#     4  12  27  50  77 112 152 201 259 322 387 463
#
# _framework density 24.745718
#
# number of rings (size 3 to 8) (size 9 to 14) (size 15 to 20)
#    0.000    0.000    0.000    9.000    0.000    8.000 
#    0.000    0.000    0.000    0.000    0.000    0.000 
#    0.000    0.000    0.000    0.000    0.000    0.000 
#
# Total GULP energy -67018.412287 kJ/mol
# GULP energy per Si atom -5584.867691 kJ/mol
# Density = 2.468940 g / cm^3
# Si number density = 24.745718 Si / 1000 Ang^3
#
#
#
# Elastic Constant Matrix: (Units=GPa)
#
#
# Indices 1 2 3 4 5 6 
#
# 1 142.2558 84.9538 97.9148 0.0000 5.1049 0.0000
# 2 84.9538 280.2297 128.3835 0.0000 -5.7186 0.0000
# 3 97.9148 128.3835 225.2273 0.0000 18.4877 0.0000
# 4 0.0000 0.0000 0.0000 87.8244 0.0000 -43.3763
# 5 5.1049 -5.7186 18.4877 0.0000 38.6133 0.0000
# 6 0.0000 0.0000 0.0000 -43.3763 0.0000 23.1765
#
#
#
# Elastic Compliance Matrix: (Units=1/GPa)
#
#
# Indices 1 2 3 4 5 6 
#
# 1 0.010463 -0.001458 -0.003733 0.000000 0.000188 0.000000
# 2 -0.001458 0.005205 -0.002511 0.000000 0.002166 0.000000
# 3 -0.003733 -0.002511 0.007790 0.000000 -0.003608 0.000000
# 4 0.000000 0.000000 0.000000 0.150539 0.000000 0.281743
# 5 0.000188 0.002166 -0.003608 0.000000 0.027921 0.000000
# 6 0.000000 0.000000 0.000000 0.281743 0.000000 0.570449
#
#
# Mechanical properties :
#
#
# Convention : Reuss Voigt Hill
#
# Bulk Modulus (GPa) = 124.15349 141.13523 132.64436
# Shear Modulus (GPa) = 6.32547 52.35355 29.33951
#
# Velocity S-wave (km/s) = 1.60054 4.60462 3.44705
# Velocity P-wave (km/s) = 7.32777 9.24273 8.34039
#
# Compressibility (1/GPa) = 0.00805455
#
# Stress axis : x y z
#
# Youngs Moduli (GPa) = 95.57556 192.12275 128.36379
#
# Poissons Ratio (x) = 0.28008 0.47920
# Poissons Ratio (y) = 0.13933 0.32232
# Poissons Ratio (z) = 0.35679 0.48241
#
# Static dielectric constant tensor:
#      x y z
#    x 2.151360 0.000000 -0.195000 
#    y 0.000000 1.895820 0.000000 
#    z -0.195000 0.000000 2.181640 
# 
# From -- ./inp_files/14136.got.cif
#   From: 2010.05.17/outbox.cif.g08.bks.cpg/sg13_8_cif.got.tgz:14136.got - 2010.06.03 16:44:36.
