data_PCOD9238845
_publ_section_title
;
Structure prediction by ZEFSAII (Michael W. Deem and Ramdas Pophale) SiO2 
 PCOD9238845
Probable space group: P 2/C
;
_chemical_formula_sum "Si O2"
_cell_formula_units_Z 28
_cell_length_a 23.534958
_cell_length_b 7.180446
_cell_length_c 6.965840
_cell_angle_alpha 90.000000
_cell_angle_beta 122.576403
_cell_angle_gamma 90.000000
_cell_volume 991.968882
_symmetry_space_group_name_H-M "P 2/C"
_symmetry_group_IT_number 13
_symmetry_cell_setting 'monoclinic'
loop_
_space_group_symop_operation_xyz
x,y,z
-x,y,1/2-z
-x,-y,-z
x,-y,1/2+z
loop_
_atom_site_type_symbol
_atom_site_label
_atom_site_fract_x
_atom_site_fract_y
_atom_site_fract_z
Si Si1 0.426864 0.864281 0.696600
Si Si2 0.711561 0.719107 0.610196
Si Si3 0.720165 0.856487 0.061129
Si Si4 0.428883 0.708746 0.123558
Si Si5 0.143702 0.343497 0.120979
Si Si6 0.010062 0.274412 0.994235
Si Si7 0.870371 0.764112 0.345809
O O1 0.500000 0.808158 0.750000
O O2 0.353105 0.816974 0.470827
O O3 0.433751 0.089426 0.736310
O O4 0.420801 0.772775 0.891542
O O5 0.641066 0.618376 0.440736
O O6 0.780593 0.632886 0.666290
O O7 0.712399 0.922937 0.519461
O O8 0.718249 0.753083 0.851942
O O9 0.796943 0.837736 0.282220
O O10 0.500000 0.605899 0.250000
O O11 0.123234 0.556275 0.060510
O O12 0.090456 0.240017 0.162495
O O13 0.140787 0.248926 0.907044
O O14 0.000000 0.241265 0.750000
O O15 0.949396 0.171744 0.996328
O O16 0.000000 0.500000 0.000000
#
# Coordination Sequence:
#
# PCOD9238845 Si02
#       7
#     4   4   4   4   4   4   4
#     4   9  15  24  39  59  82 109 140 175 210 248
#     4   9  18  30  44  64  91 117 143 176 216 258
#     4   9  18  30  44  64  91 117 143 176 216 258
#     4   9  15  24  39  59  82 109 140 175 210 248
#     4   9  17  30  47  67  88 113 145 180 215 255
#     4   8  14  26  45  64  84 110 142 178 213 248
#     4   9  17  30  47  67  88 113 145 180 215 255
#
# _framework density 28.226693000000001
#
# number of rings (size 3 to 8) (size 9 to 14) (size 15 to 20)
#    0.000    3.143    0.000    1.714    0.000    2.286 
#    0.000    0.714    0.000    0.857    0.000    6.000 
#    0.000    0.000    0.000    0.000    0.000    0.000 
#
# Total GULP energy -156183.268975 kJ/mol
# GULP energy per Si atom -5577.973892 kJ/mol
# Density = 2.816245 g / cm^3
# Si number density = 28.226693 Si / 1000 Ang^3
#
#
#
# Elastic Constant Matrix: (Units=GPa)
#
#
# Indices 1 2 3 4 5 6 
#
# 1 261.0454 15.8436 89.9748 0.0000 86.8338 0.0000
# 2 15.8436 78.3450 8.0884 0.0000 5.2092 0.0000
# 3 89.9748 8.0884 101.9784 0.0000 47.3349 0.0000
# 4 0.0000 0.0000 0.0000 -438.6802 0.0000 70.1724
# 5 86.8338 5.2092 47.3349 0.0000 87.4774 0.0000
# 6 0.0000 0.0000 0.0000 70.1724 0.0000 13.5895
#
#
#
# Elastic Compliance Matrix: (Units=1/GPa)
#
#
# Indices 1 2 3 4 5 6 
#
# 1 0.006672 -0.000662 -0.003710 0.000000 -0.004576 0.000000
# 2 -0.000662 0.012940 -0.000520 0.000000 0.000168 0.000000
# 3 -0.003710 -0.000520 0.015219 0.000000 -0.004522 0.000000
# 4 0.000000 0.000000 0.000000 -0.001248 0.000000 0.006446
# 5 -0.004576 0.000168 -0.004522 0.000000 0.018410 0.000000
# 6 0.000000 0.000000 0.000000 0.006446 0.000000 0.040299
#
#
# Mechanical properties :
#
#
# Convention : Reuss Voigt Hill
#
# Bulk Modulus (GPa) = 39.92500 74.35358 57.13929
# Shear Modulus (GPa) = 45.27915 -45.69185 -0.20635
#
# Velocity S-wave (km/s) = 4.00950 -4.02773 -0.27067
# Velocity P-wave (km/s) = 5.96740 2.18372 4.49325
#
# Compressibility (1/GPa) = 0.02504696
#
# Stress axis : x y z
#
# Youngs Moduli (GPa) = 149.88658 77.27698 65.70557
#
# Poissons Ratio (x) = 0.05115 0.24377
# Poissons Ratio (y) = 0.09922 0.03419
# Poissons Ratio (z) = 0.55608 0.04021
#
# Static dielectric constant tensor:
#      x y z
#    x 2.299550 0.000000 0.073550 
#    y 0.000000 2.190270 0.000000 
#    z 0.073550 0.000000 2.328760 
# 
# From -- ./inp_files/23134.got.cif
#   From: 2010.05.17/outbox.cif.g08.bks.cpg/sg13_12_cif.got.tgz:23134.got - 2010.06.03 16:44:36.
