data_PCOD9238491
_publ_section_title
;
Structure prediction by ZEFSAII (Michael W. Deem and Ramdas Pophale) SiO2 
 PCOD9238491
Probable space group: P 2/C
;
_chemical_formula_sum "Si O2"
_cell_formula_units_Z 20
_cell_length_a 10.379504
_cell_length_b 5.127003
_cell_length_c 24.697900
_cell_angle_alpha 90.000000
_cell_angle_beta 132.953301
_cell_angle_gamma 90.000000
_cell_volume 961.961030
_symmetry_space_group_name_H-M "P 2/C"
_symmetry_group_IT_number 13
_symmetry_cell_setting 'monoclinic'
loop_
_space_group_symop_operation_xyz
x,y,z
-x,y,1/2-z
-x,-y,-z
x,-y,1/2+z
loop_
_atom_site_type_symbol
_atom_site_label
_atom_site_fract_x
_atom_site_fract_y
_atom_site_fract_z
Si Si1 0.882196 0.167286 0.271339
Si Si2 0.567300 0.312498 0.568418
Si Si3 0.497692 0.803189 0.614170
Si Si4 0.051236 0.675554 0.368766
Si Si5 0.106825 0.248415 0.010945
O O1 0.677029 0.150052 0.197980
O O2 0.000000 0.175840 0.250000
O O3 0.948782 0.411225 0.325843
O O4 0.928499 0.911914 0.317696
O O5 0.500000 0.500000 0.500000
O O6 0.518597 0.501933 0.603157
O O7 0.775576 0.301002 0.619017
O O8 0.499268 0.021923 0.565277
O O9 0.307118 0.805142 0.586994
O O10 0.114151 0.711643 0.448178
O O11 0.000000 0.500000 0.000000
O O12 0.000000 0.000000 0.000000
#
# Coordination Sequence:
#
# PCOD9238491 Si02
#       5
#     4   4   4   4   4
#     4  12  23  41  66 110 142 167 206 278 371 422
#     4  12  22  37  68 107 134 168 217 286 353 405
#     4  12  25  41  69 100 141 171 222 282 343 410
#     4  12  24  42  69 100 141 173 219 281 344 413
#     4  12  28  49  67  92 131 189 242 276 313 387
#
# _framework density 20.790863000000002
#
# number of rings (size 3 to 8) (size 9 to 14) (size 15 to 20)
#    0.000    0.000    6.000    4.800    2.800    0.000 
#    0.000    6.000    0.000    0.000    0.000    0.000 
#    0.000    0.000    0.000    0.000    0.000    0.000 
#
# Total GULP energy -111667.062588 kJ/mol
# GULP energy per Si atom -5583.353129 kJ/mol
# Density = 2.074354 g / cm^3
# Si number density = 20.790863 Si / 1000 Ang^3
#
#
#
# Elastic Constant Matrix: (Units=GPa)
#
#
# Indices 1 2 3 4 5 6 
#
# 1 102.2588 43.4627 26.0560 0.0000 50.0715 0.0000
# 2 43.4627 202.7682 37.0819 0.0000 14.9577 0.0000
# 3 26.0560 37.0819 88.9857 0.0000 40.9798 0.0000
# 4 0.0000 0.0000 0.0000 24.9307 0.0000 -4.1651
# 5 50.0715 14.9577 40.9798 0.0000 42.8713 0.0000
# 6 0.0000 0.0000 0.0000 -4.1651 0.0000 65.3100
#
#
#
# Elastic Compliance Matrix: (Units=1/GPa)
#
#
# Indices 1 2 3 4 5 6 
#
# 1 0.036604 -0.007035 0.019242 0.000000 -0.058690 0.000000
# 2 -0.007035 0.006696 -0.006143 0.000000 0.011752 0.000000
# 3 0.019242 -0.006143 0.031307 0.000000 -0.050256 0.000000
# 4 0.000000 0.000000 0.000000 0.040543 0.000000 0.002586
# 5 -0.058690 0.011752 -0.050256 0.000000 0.135810 0.000000
# 6 0.000000 0.000000 0.000000 0.002586 0.000000 0.015476
#
#
# Mechanical properties :
#
#
# Convention : Reuss Voigt Hill
#
# Bulk Modulus (GPa) = 11.52941 67.46822 39.49881
# Shear Modulus (GPa) = 17.65398 45.78320 31.71859
#
# Velocity S-wave (km/s) = 2.91713 4.69773 3.91013
# Velocity P-wave (km/s) = 4.11141 7.87059 6.27893
#
# Compressibility (1/GPa) = 0.08673472
#
# Stress axis : x y z
#
# Youngs Moduli (GPa) = 27.31920 149.33927 31.94158
#
# Poissons Ratio (x) = 1.05067 -0.61460
# Poissons Ratio (y) = 0.19220 0.19620
# Poissons Ratio (z) = -0.52566 0.91732
#
# Static dielectric constant tensor:
#      x y z
#    x 1.613530 0.000000 -0.139950 
#    y 0.000000 1.725170 0.000000 
#    z -0.139950 0.000000 1.615750 
# 
# From -- ./inp_files/69135.got.cif
#   From: 2010.05.17/outbox.cif.g08.bks.cpg/sg13_35_cif.got.tgz:69135.got - 2010.06.03 16:44:36.
