data_PCOD9238743
_publ_section_title
;
Structure prediction by ZEFSAII (Michael W. Deem and Ramdas Pophale) SiO2 
 PCOD9238743
Probable space group: P 2/C
;
_chemical_formula_sum "Si O2"
_cell_formula_units_Z 14
_cell_length_a 13.694439
_cell_length_b 8.902294
_cell_length_c 9.675083
_cell_angle_alpha 90.000000
_cell_angle_beta 150.346294
_cell_angle_gamma 90.000000
_cell_volume 583.569430
_symmetry_space_group_name_H-M "P 2/C"
_symmetry_group_IT_number 13
_symmetry_cell_setting 'monoclinic'
loop_
_space_group_symop_operation_xyz
x,y,z
-x,y,1/2-z
-x,-y,-z
x,-y,1/2+z
loop_
_atom_site_type_symbol
_atom_site_label
_atom_site_fract_x
_atom_site_fract_y
_atom_site_fract_z
Si Si1 0.297795 0.590048 0.419749
Si Si2 0.500000 0.932453 0.250000
Si Si3 0.111129 0.105576 0.742643
Si Si4 0.230403 0.680997 0.032961
O O1 0.297171 0.592222 0.252675
O O2 0.249252 0.428557 0.424598
O O3 0.132806 0.716143 0.248462
O O4 0.500000 0.631970 0.750000
O O5 0.669112 0.042414 0.508303
O O6 0.378935 0.820693 0.201424
O O7 0.000000 0.084382 0.750000
O O8 0.000000 0.000000 0.500000
O O9 0.000000 0.726898 0.750000
#
# Coordination Sequence:
#
# PCOD9238743 Si02
#       4
#     4   2   4   4
#     4  12  26  49  77 109 151 196 248 307 375 439
#     4  12  26  46  76 108 154 186 254 306 368 442
#     4  12  28  49  76 109 148 199 248 304 372 443
#     4  12  27  48  76 110 149 196 247 310 372 443
#
# _framework density 23.990290999999999
#
# number of rings (size 3 to 8) (size 9 to 14) (size 15 to 20)
#    0.000    0.000    2.857    6.857    4.000    2.286 
#    0.000    0.000    0.000    0.000    0.000    0.000 
#    0.000    0.000    0.000    0.000    0.000    0.000 
#
# Total GULP energy -78303.763975 kJ/mol
# GULP energy per Si atom -5593.125998 kJ/mol
# Density = 2.393569 g / cm^3
# Si number density = 23.990291 Si / 1000 Ang^3
#
#
#
# Elastic Constant Matrix: (Units=GPa)
#
#
# Indices 1 2 3 4 5 6 
#
# 1 55.5706 -13.3139 10.6109 0.0000 0.7613 0.0000
# 2 -13.3139 63.5698 -24.1194 0.0000 13.7986 0.0000
# 3 10.6109 -24.1194 120.4195 0.0000 28.3352 0.0000
# 4 0.0000 0.0000 0.0000 -2.9848 0.0000 -7.0775
# 5 0.7613 13.7986 28.3352 0.0000 47.6441 0.0000
# 6 0.0000 0.0000 0.0000 -7.0775 0.0000 24.8534
#
#
#
# Elastic Compliance Matrix: (Units=1/GPa)
#
#
# Indices 1 2 3 4 5 6 
#
# 1 0.019087 0.003998 -0.000624 0.000000 -0.001091 0.000000
# 2 0.003998 0.021046 0.006177 0.000000 -0.009833 0.000000
# 3 -0.000624 0.006177 0.011645 0.000000 -0.008704 0.000000
# 4 0.000000 0.000000 0.000000 -0.199992 0.000000 -0.056951
# 5 -0.001091 -0.009833 -0.008704 0.000000 0.029031 0.000000
# 6 0.000000 0.000000 0.000000 -0.056951 0.000000 0.024018
#
#
# Mechanical properties :
#
#
# Convention : Reuss Voigt Hill
#
# Bulk Modulus (GPa) = 14.10884 20.65720 17.38302
# Shear Modulus (GPa) = -55.16311 31.66138 -11.75087
#
# Velocity S-wave (km/s) = -4.80040 3.63679 -2.21558
# Velocity P-wave (km/s) = 4.98310 5.12487 0.84647
#
# Compressibility (1/GPa) = 0.07087756
#
# Stress axis : x y z
#
# Youngs Moduli (GPa) = 52.39151 47.51530 85.87623
#
# Poissons Ratio (x) = -0.18995 0.05362
# Poissons Ratio (y) = -0.20944 -0.53044
# Poissons Ratio (z) = 0.03271 -0.29349
#
# Static dielectric constant tensor:
#      x y z
#    x 1.921780 0.000000 -0.020270 
#    y 0.000000 1.913080 0.000000 
#    z -0.020270 0.000000 1.871390 
# 
# From -- ./inp_files/10912.got.cif
#   From: 2010.05.17/outbox.cif.g08.bks.cpg/sg13_6_cif.got.tgz:10912.got - 2010.06.03 16:44:36.
