data_PCOD9238142
_publ_section_title
;
Structure prediction by ZEFSAII (Michael W. Deem and Ramdas Pophale) SiO2 
 PCOD9238142
Probable space group: P 2/C
;
_chemical_formula_sum "Si O2"
_cell_formula_units_Z 18
_cell_length_a 10.101234
_cell_length_b 5.047791
_cell_length_c 19.261198
_cell_angle_alpha 90.000000
_cell_angle_beta 124.564408
_cell_angle_gamma 90.000000
_cell_volume 808.754798
_symmetry_space_group_name_H-M "P 2/C"
_symmetry_group_IT_number 13
_symmetry_cell_setting 'monoclinic'
loop_
_space_group_symop_operation_xyz
x,y,z
-x,y,1/2-z
-x,-y,-z
x,-y,1/2+z
loop_
_atom_site_type_symbol
_atom_site_label
_atom_site_fract_x
_atom_site_fract_y
_atom_site_fract_z
Si Si1 0.004434 0.819566 0.670311
Si Si2 0.645363 0.287265 0.029634
Si Si3 0.460523 0.013661 0.866308
Si Si4 0.500000 0.607319 0.750000
Si Si5 0.210733 0.689356 0.203726
O O1 0.838080 0.691073 0.593235
O O2 0.000000 0.904872 0.750000
O O3 0.123059 0.573282 0.701400
O O4 0.085600 0.069933 0.653819
O O5 0.615136 0.103479 0.086790
O O6 0.500000 0.500000 0.000000
O O7 0.613382 0.159451 0.944769
O O8 0.485193 0.799911 0.812594
O O9 0.328998 0.214649 0.799225
O O10 0.654187 0.418439 0.809460
#
# Coordination Sequence:
#
# PCOD9238142 Si02
#       5
#     4   4   4   2   4
#     4  12  24  42  72 108 145 183 247 302 364 424
#     4  11  25  45  73 111 148 188 239 307 368 425
#     4  11  24  45  74 105 143 197 241 296 359 443
#     4  12  24  48  72 102 146 200 252 282 372 432
#     4  12  25  44  72 104 140 197 238 300 348 444
#
# _framework density 22.256436999999998
#
# number of rings (size 3 to 8) (size 9 to 14) (size 15 to 20)
#    0.000    0.444    4.444    4.000    6.222    0.000 
#    0.000    2.222    0.000    0.000    0.000    0.000 
#    0.000    0.000    0.000    0.000    0.000    0.000 
#
# Total GULP energy -100288.249555 kJ/mol
# GULP energy per Si atom -5571.569420 kJ/mol
# Density = 2.220578 g / cm^3
# Si number density = 22.256437 Si / 1000 Ang^3
#
#
#
# Elastic Constant Matrix: (Units=GPa)
#
#
# Indices 1 2 3 4 5 6 
#
# 1 118.1928 62.6776 54.1502 0.0000 24.2446 0.0000
# 2 62.6776 130.5191 30.2853 0.0000 1.2915 0.0000
# 3 54.1502 30.2853 98.3611 0.0000 9.2770 0.0000
# 4 0.0000 0.0000 0.0000 21.9359 0.0000 9.7240
# 5 24.2446 1.2915 9.2770 0.0000 40.7498 0.0000
# 6 0.0000 0.0000 0.0000 9.7240 0.0000 35.4574
#
#
#
# Elastic Compliance Matrix: (Units=1/GPa)
#
#
# Indices 1 2 3 4 5 6 
#
# 1 0.016353 -0.006312 -0.006296 0.000000 -0.008096 0.000000
# 2 -0.006312 0.010692 -0.000142 0.000000 0.003449 0.000000
# 3 -0.006296 -0.000142 0.013615 0.000000 0.000651 0.000000
# 4 0.000000 0.000000 0.000000 0.051897 0.000000 -0.014232
# 5 -0.008096 0.003449 0.000651 0.000000 0.029099 0.000000
# 6 0.000000 0.000000 0.000000 -0.014232 0.000000 0.032106
#
#
# Mechanical properties :
#
#
# Convention : Reuss Voigt Hill
#
# Bulk Modulus (GPa) = 65.96453 71.25548 68.61000
# Shear Modulus (GPa) = 27.12734 32.95928 30.04331
#
# Velocity S-wave (km/s) = 3.49500 3.85240 3.67804
# Velocity P-wave (km/s) = 6.78155 7.20231 6.99509
#
# Compressibility (1/GPa) = 0.01515966
#
# Stress axis : x y z
#
# Youngs Moduli (GPa) = 61.14985 93.52939 73.44820
#
# Poissons Ratio (x) = 0.59037 0.46241
# Poissons Ratio (y) = 0.38599 0.01045
# Poissons Ratio (z) = 0.38499 0.01331
#
# Static dielectric constant tensor:
#      x y z
#    x 1.888530 0.000000 0.167070 
#    y 0.000000 1.962850 0.000000 
#    z 0.167070 0.000000 1.404180 
# 
# From -- ./inp_files/62544.got.cif
#   From: 2010.05.17/outbox.cif.g08.bks.cpg/sg13_32_cif.got.tgz:62544.got - 2010.06.03 16:44:36.
