data_PCOD9238198
_publ_section_title
;
Structure prediction by ZEFSAII (Michael W. Deem and Ramdas Pophale) SiO2 
 PCOD9238198
Probable space group: P 2/C
;
_chemical_formula_sum "Si O2"
_cell_formula_units_Z 16
_cell_length_a 8.064903
_cell_length_b 5.665260
_cell_length_c 17.764148
_cell_angle_alpha 90.000000
_cell_angle_beta 49.540436
_cell_angle_gamma 90.000000
_cell_volume 617.547661
_symmetry_space_group_name_H-M "P 2/C"
_symmetry_group_IT_number 13
_symmetry_cell_setting 'monoclinic'
loop_
_space_group_symop_operation_xyz
x,y,z
-x,y,1/2-z
-x,-y,-z
x,-y,1/2+z
loop_
_atom_site_type_symbol
_atom_site_label
_atom_site_fract_x
_atom_site_fract_y
_atom_site_fract_z
Si Si1 0.720764 0.550175 0.226423
Si Si2 0.470921 0.736729 0.589615
Si Si3 0.236418 0.916611 0.402081
Si Si4 0.192777 0.615306 0.549758
O O1 0.500000 0.474107 0.250000
O O2 0.671373 0.465737 0.325294
O O3 0.752590 0.821060 0.186859
O O4 0.938652 0.415614 0.137576
O O5 0.300192 0.806450 0.574338
O O6 0.675505 0.628731 0.483670
O O7 0.576534 0.915607 0.618665
O O8 0.248526 0.679983 0.447972
O O9 0.000000 0.000000 0.500000
#
# Coordination Sequence:
#
# PCOD9238198 Si02
#       4
#     4   4   4   4
#     4  12  24  45  73 111 142 188 252 303 361 438
#     4  11  25  47  73 100 152 190 239 306 372 437
#     4  12  24  45  76 106 143 194 249 301 371 441
#     4  11  24  48  70 106 146 192 236 305 375 436
#
# _framework density 25.908933000000001
#
# number of rings (size 3 to 8) (size 9 to 14) (size 15 to 20)
#    0.000    0.500    5.000    3.750    0.000    3.000 
#    0.000    0.000    0.000    0.000    0.000    0.000 
#    0.000    0.000    0.000    0.000    0.000    0.000 
#
# Total GULP energy -89252.985883 kJ/mol
# GULP energy per Si atom -5578.311618 kJ/mol
# Density = 2.584996 g / cm^3
# Si number density = 25.908933 Si / 1000 Ang^3
#
#
#
# Elastic Constant Matrix: (Units=GPa)
#
#
# Indices 1 2 3 4 5 6 
#
# 1 102.7040 43.6085 36.4065 0.0000 -23.3923 0.0000
# 2 43.6085 67.0000 47.2786 0.0000 -15.6750 0.0000
# 3 36.4065 47.2786 154.1800 0.0000 -13.9105 0.0000
# 4 0.0000 0.0000 0.0000 50.2237 0.0000 -1.6037
# 5 -23.3923 -15.6750 -13.9105 0.0000 48.3259 0.0000
# 6 0.0000 0.0000 0.0000 -1.6037 0.0000 40.7830
#
#
#
# Elastic Compliance Matrix: (Units=1/GPa)
#
#
# Indices 1 2 3 4 5 6 
#
# 1 0.014238 -0.007893 -0.000566 0.000000 0.004169 0.000000
# 2 -0.007893 0.024481 -0.005412 0.000000 0.002562 0.000000
# 3 -0.000566 -0.005412 0.008312 0.000000 0.000363 0.000000
# 4 0.000000 0.000000 0.000000 0.019936 0.000000 0.000784
# 5 0.004169 0.002562 0.000363 0.000000 0.023647 0.000000
# 6 0.000000 0.000000 0.000000 0.000784 0.000000 0.024551
#
#
# Mechanical properties :
#
#
# Convention : Reuss Voigt Hill
#
# Bulk Modulus (GPa) = 51.83995 64.27456 58.05725
# Shear Modulus (GPa) = 33.48175 40.97256 37.22716
#
# Velocity S-wave (km/s) = 3.59874 3.98100 3.79469
# Velocity P-wave (km/s) = 6.10900 6.78181 6.45418
#
# Compressibility (1/GPa) = 0.01929014
#
# Stress axis : x y z
#
# Youngs Moduli (GPa) = 70.23438 40.84799 120.30993
#
# Poissons Ratio (x) = 0.32240 0.06805
# Poissons Ratio (y) = 0.55433 0.65113
# Poissons Ratio (z) = 0.03973 0.22107
#
# Static dielectric constant tensor:
#      x y z
#    x 2.126260 0.000000 0.026000 
#    y 0.000000 2.206980 0.000000 
#    z 0.026000 0.000000 2.009620 
# 
# From -- ./inp_files/44914.got.cif
#   From: 2010.05.17/outbox.cif.g08.bks.cpg/sg13_23_cif.got.tgz:44914.got - 2010.06.03 16:44:36.
