data_PCOD9238154
_publ_section_title
;
Structure prediction by ZEFSAII (Michael W. Deem and Ramdas Pophale) SiO2 
 PCOD9238154
Probable space group: P 2/C
;
_chemical_formula_sum "Si O2"
_cell_formula_units_Z 16
_cell_length_a 6.987980
_cell_length_b 7.350525
_cell_length_c 22.723758
_cell_angle_alpha 90.000000
_cell_angle_beta 40.473057
_cell_angle_gamma 90.000000
_cell_volume 757.626844
_symmetry_space_group_name_H-M "P 2/C"
_symmetry_group_IT_number 13
_symmetry_cell_setting 'monoclinic'
loop_
_space_group_symop_operation_xyz
x,y,z
-x,y,1/2-z
-x,-y,-z
x,-y,1/2+z
loop_
_atom_site_type_symbol
_atom_site_label
_atom_site_fract_x
_atom_site_fract_y
_atom_site_fract_z
Si Si1 0.814654 0.325752 0.525897
Si Si2 0.811977 0.800446 0.154621
Si Si3 0.159176 0.455323 0.652605
Si Si4 0.849925 0.212045 0.168427
O O1 0.797489 0.197138 0.587416
O O2 0.499035 0.407059 0.581460
O O3 0.000000 0.500000 0.500000
O O4 0.990218 0.236219 0.431499
O O5 0.500000 0.725449 0.250000
O O6 0.053223 0.661723 0.121711
O O7 0.855316 0.994909 0.175905
O O8 0.000000 0.394933 0.750000
O O9 0.040474 0.659760 0.667232
O O10 0.500000 0.264775 0.250000
#
# Coordination Sequence:
#
# PCOD9238154 Si02
#       4
#     4   4   4   4
#     4  12  24  44  72  97 134 180 223 276 341 397
#     4  11  24  46  69  98 137 177 222 279 339 398
#     4  12  24  44  70  98 137 179 223 276 339 400
#     4  11  25  45  68 100 137 177 226 280 333 401
#
# _framework density 21.118576000000001
#
# number of rings (size 3 to 8) (size 9 to 14) (size 15 to 20)
#    0.000    0.500    5.000    3.750    0.000    2.000 
#    4.500    0.000    0.000    0.000    0.000    0.000 
#    0.000    0.000    0.000    0.000    0.000    0.000 
#
# Total GULP energy -89373.207720 kJ/mol
# GULP energy per Si atom -5585.825482 kJ/mol
# Density = 2.107051 g / cm^3
# Si number density = 21.118576 Si / 1000 Ang^3
#
#
#
# Elastic Constant Matrix: (Units=GPa)
#
#
# Indices 1 2 3 4 5 6 
#
# 1 128.6895 39.3562 58.2260 0.0000 -22.3917 0.0000
# 2 39.3562 94.2974 0.6362 0.0000 -27.5207 0.0000
# 3 58.2260 0.6362 145.2133 0.0000 -10.4095 0.0000
# 4 0.0000 0.0000 0.0000 25.3495 0.0000 3.0229
# 5 -22.3917 -27.5207 -10.4095 0.0000 48.0682 0.0000
# 6 0.0000 0.0000 0.0000 3.0229 0.0000 -5.4826
#
#
#
# Elastic Compliance Matrix: (Units=1/GPa)
#
#
# Indices 1 2 3 4 5 6 
#
# 1 0.011371 -0.004140 -0.004400 0.000000 0.001974 0.000000
# 2 -0.004140 0.014272 0.002077 0.000000 0.006692 0.000000
# 3 -0.004400 0.002077 0.008715 0.000000 0.001027 0.000000
# 4 0.000000 0.000000 0.000000 0.037015 0.000000 0.020409
# 5 0.001974 0.006692 0.001027 0.000000 0.025777 0.000000
# 6 0.000000 0.000000 0.000000 0.020409 0.000000 -0.171143
#
#
# Mechanical properties :
#
#
# Convention : Reuss Voigt Hill
#
# Bulk Modulus (GPa) = 46.65766 62.73745 54.69755
# Shear Modulus (GPa) = -92.72327 31.58580 -30.56874
#
# Velocity S-wave (km/s) = -6.63335 3.87155 -3.80870
# Velocity P-wave (km/s) = 6.04378 7.05386 2.57192
#
# Compressibility (1/GPa) = 0.02143271
#
# Stress axis : x y z
#
# Youngs Moduli (GPa) = 87.94394 70.06816 114.74328
#
# Poissons Ratio (x) = 0.29009 0.50484
# Poissons Ratio (y) = 0.36409 -0.23835
# Poissons Ratio (z) = 0.38693 -0.14555
#
# Static dielectric constant tensor:
#      x y z
#    x 1.783950 0.000000 0.051500 
#    y 0.000000 1.867610 0.000000 
#    z 0.051500 0.000000 1.729630 
# 
# From -- ./inp_files/43211.got.cif
#   From: 2010.05.17/outbox.cif.g08.bks.cpg/sg13_22_cif.got.tgz:43211.got - 2010.06.03 16:44:36.
