data_PCOD9238041
_publ_section_title
;
Structure prediction by ZEFSAII (Michael W. Deem and Ramdas Pophale) SiO2 
 PCOD9238041
Probable space group: P 2/C
;
_chemical_formula_sum "Si O2"
_cell_formula_units_Z 18
_cell_length_a 22.259105
_cell_length_b 7.529964
_cell_length_c 13.948090
_cell_angle_alpha 90.000000
_cell_angle_beta 19.530356
_cell_angle_gamma 90.000000
_cell_volume 781.555486
_symmetry_space_group_name_H-M "P 2/C"
_symmetry_group_IT_number 13
_symmetry_cell_setting 'monoclinic'
loop_
_space_group_symop_operation_xyz
x,y,z
-x,y,1/2-z
-x,-y,-z
x,-y,1/2+z
loop_
_atom_site_type_symbol
_atom_site_label
_atom_site_fract_x
_atom_site_fract_y
_atom_site_fract_z
Si Si1 0.500000 0.653871 0.250000
Si Si2 0.065253 0.043236 0.008604
Si Si3 0.834031 0.752626 0.436741
Si Si4 0.573090 0.144587 0.464461
Si Si5 0.821912 0.393613 0.744683
O O1 0.549192 0.777617 0.267338
O O2 0.339806 0.529276 0.528414
O O3 0.127241 0.248102 0.912190
O O4 0.247531 0.934191 0.754798
O O5 0.000000 0.000000 0.000000
O O6 0.903932 0.958065 0.314638
O O7 0.659593 0.714458 0.762053
O O8 0.786513 0.696143 0.401148
O O9 0.000000 0.673228 0.250000
O O10 0.500000 0.000000 0.500000
O O11 0.000000 0.500000 0.500000
#
# Coordination Sequence:
#
# PCOD9238041 Si02
#       5
#     2   4   4   4   4
#     4  12  28  44  68 108 146 182 232 304 370 400
#     4   9  20  42  73  93 131 189 235 272 344 424
#     4   9  20  43  66  98 134 184 241 272 335 429
#     4  11  26  43  70  98 136 185 242 286 339 437
#     4  11  24  42  70 102 147 179 223 300 362 413
#
# _framework density 23.030995000000001
#
# number of rings (size 3 to 8) (size 9 to 14) (size 15 to 20)
#    0.000    1.778    0.000    4.000   12.444    0.889 
#    4.000    0.000    0.000    0.000    0.000    0.000 
#    0.000    0.000    0.000    0.000    0.000    0.000 
#
# Total GULP energy -100229.541934 kJ/mol
# GULP energy per Si atom -5568.307885 kJ/mol
# Density = 2.297858 g / cm^3
# Si number density = 23.030995 Si / 1000 Ang^3
#
#
#
# Elastic Constant Matrix: (Units=GPa)
#
#
# Indices 1 2 3 4 5 6 
#
# 1 87.9294 12.9954 3.3982 0.0000 13.2503 0.0000
# 2 12.9954 74.6440 18.4735 0.0000 10.2555 0.0000
# 3 3.3982 18.4735 61.8824 0.0000 10.7256 0.0000
# 4 0.0000 0.0000 0.0000 29.1927 0.0000 -1.2975
# 5 13.2503 10.2555 10.7256 0.0000 45.8287 0.0000
# 6 0.0000 0.0000 0.0000 -1.2975 0.0000 31.7101
#
#
#
# Elastic Compliance Matrix: (Units=1/GPa)
#
#
# Indices 1 2 3 4 5 6 
#
# 1 0.012101 -0.001771 0.000419 0.000000 -0.003200 0.000000
# 2 -0.001771 0.014965 -0.004043 0.000000 -0.001891 0.000000
# 3 0.000419 -0.004043 0.017935 0.000000 -0.003414 0.000000
# 4 0.000000 0.000000 0.000000 0.034318 0.000000 0.001404
# 5 -0.003200 -0.001891 -0.003414 0.000000 0.023968 0.000000
# 6 0.000000 0.000000 0.000000 0.001404 0.000000 0.031593
#
#
# Mechanical properties :
#
#
# Convention : Reuss Voigt Hill
#
# Bulk Modulus (GPa) = 29.22920 32.68775 30.95847
# Shear Modulus (GPa) = 31.83239 33.98556 32.90898
#
# Velocity S-wave (km/s) = 3.72177 3.84558 3.78418
# Velocity P-wave (km/s) = 5.58458 5.82595 5.70654
#
# Compressibility (1/GPa) = 0.03421237
#
# Stress axis : x y z
#
# Youngs Moduli (GPa) = 82.64106 66.82040 55.75618
#
# Poissons Ratio (x) = 0.11831 -0.02335
# Poissons Ratio (y) = 0.14633 0.22540
# Poissons Ratio (z) = -0.03461 0.27013
#
# Static dielectric constant tensor:
#      x y z
#    x 1.976750 0.000000 0.016720 
#    y 0.000000 1.917140 0.000000 
#    z 0.016720 0.000000 1.879230 
# 
# From -- ./inp_files/58461.got.cif
#   From: 2010.05.17/outbox.cif.g08.bks.cpg/sg13_30_cif.got.tgz:58461.got - 2010.06.03 16:44:36.
