data_PCOD9238576
_publ_section_title
;
Structure prediction by ZEFSAII (Michael W. Deem and Ramdas Pophale) SiO2 
 PCOD9238576
Probable space group: P 2/C
;
_chemical_formula_sum "Si O2"
_cell_formula_units_Z 20
_cell_length_a 4.809079
_cell_length_b 9.238267
_cell_length_c 19.218905
_cell_angle_alpha 90.000000
_cell_angle_beta 76.469407
_cell_angle_gamma 90.000000
_cell_volume 830.150511
_symmetry_space_group_name_H-M "P 2/C"
_symmetry_group_IT_number 13
_symmetry_cell_setting 'monoclinic'
loop_
_space_group_symop_operation_xyz
x,y,z
-x,y,1/2-z
-x,-y,-z
x,-y,1/2+z
loop_
_atom_site_type_symbol
_atom_site_label
_atom_site_fract_x
_atom_site_fract_y
_atom_site_fract_z
Si Si1 0.852112 0.712005 0.135298
Si Si2 0.000000 0.278288 0.250000
Si Si3 0.458005 0.659179 0.030721
Si Si4 0.500000 0.485561 0.250000
Si Si5 0.211003 0.961544 0.845706
Si Si6 0.368504 0.095698 0.067537
O O1 0.697003 0.716029 0.069762
O O2 0.694630 0.589359 0.189963
O O3 0.173561 0.676101 0.093484
O O4 0.831123 0.870387 0.172430
O O5 0.728651 0.385772 0.279049
O O6 0.862324 0.166564 0.202881
O O7 0.500000 0.500000 0.000000
O O8 0.499653 0.750606 0.958156
O O9 0.520291 0.949428 0.862914
O O10 0.968255 0.927649 0.917120
O O11 0.500000 0.000000 0.000000
#
# Coordination Sequence:
#
# PCOD9238576 Si02
#       6
#     4   2   4   2   4   4
#     4  12  26  50  73 105 146 197 239 295 365 445
#     4  12  30  50  74 110 140 200 252 314 358 424
#     4  12  27  43  74 111 147 186 237 297 375 432
#     4  12  30  50  74 104 154 192 250 308 370 432
#     4  12  26  47  78 103 145 191 248 296 362 434
#     4  12  23  45  75 110 143 181 238 304 358 435
#
# _framework density 24.092016000000001
#
# number of rings (size 3 to 8) (size 9 to 14) (size 15 to 20)
#    0.000    0.000    4.000    4.800    8.400    4.800 
#    0.000    0.000    0.000    0.000    0.000    0.000 
#    0.000    0.000    0.000    0.000    0.000    0.000 
#
# Total GULP energy -111820.348953 kJ/mol
# GULP energy per Si atom -5591.017448 kJ/mol
# Density = 2.403718 g / cm^3
# Si number density = 24.092016 Si / 1000 Ang^3
#
#
#
# Elastic Constant Matrix: (Units=GPa)
#
#
# Indices 1 2 3 4 5 6 
#
# 1 88.7058 28.4663 -8.5464 0.0000 3.9864 0.0000
# 2 28.4663 202.9615 28.6108 0.0000 -7.7513 0.0000
# 3 -8.5464 28.6108 40.7692 0.0000 0.4530 0.0000
# 4 0.0000 0.0000 0.0000 38.2575 0.0000 -0.5188
# 5 3.9864 -7.7513 0.4530 0.0000 35.0053 0.0000
# 6 0.0000 0.0000 0.0000 -0.5188 0.0000 37.9813
#
#
#
# Elastic Compliance Matrix: (Units=1/GPa)
#
#
# Indices 1 2 3 4 5 6 
#
# 1 0.012576 -0.002460 0.004385 0.000000 -0.002034 0.000000
# 2 -0.002460 0.006005 -0.004749 0.000000 0.001671 0.000000
# 3 0.004385 -0.004749 0.028801 0.000000 -0.001924 0.000000
# 4 0.000000 0.000000 0.000000 0.026143 0.000000 0.000357
# 5 -0.002034 0.001671 -0.001924 0.000000 0.029194 0.000000
# 6 0.000000 0.000000 0.000000 0.000357 0.000000 0.026334
#
#
# Mechanical properties :
#
#
# Convention : Reuss Voigt Hill
#
# Bulk Modulus (GPa) = 23.95965 47.72200 35.84083
# Shear Modulus (GPa) = 33.64457 41.17587 37.41022
#
# Velocity S-wave (km/s) = 3.74104 4.13862 3.94484
# Velocity P-wave (km/s) = 5.35043 6.53367 5.97143
#
# Compressibility (1/GPa) = 0.04173684
#
# Stress axis : x y z
#
# Youngs Moduli (GPa) = 79.51374 166.52097 34.72054
#
# Poissons Ratio (x) = 0.40960 -0.15225
# Poissons Ratio (y) = 0.19558 0.16487
# Poissons Ratio (z) = -0.34868 0.79073
#
# Static dielectric constant tensor:
#      x y z
#    x 1.993140 0.000000 0.046350 
#    y 0.000000 1.399660 0.000000 
#    z 0.046350 0.000000 1.932460 
# 
# From -- ./inp_files/72783.got.cif
#   From: 2010.05.17/outbox.cif.g08.bks.cpg/sg13_37_cif.got.tgz:72783.got - 2010.06.03 16:44:36.
