data_PCOD9238231
_publ_section_title
;
Structure prediction by ZEFSAII (Michael W. Deem and Ramdas Pophale) SiO2 
 PCOD9238231
Probable space group: P 2/C
;
_chemical_formula_sum "Si O2"
_cell_formula_units_Z 18
_cell_length_a 20.231998
_cell_length_b 6.669430
_cell_length_c 10.452310
_cell_angle_alpha 90.000000
_cell_angle_beta 144.804097
_cell_angle_gamma 90.000000
_cell_volume 812.912999
_symmetry_space_group_name_H-M "P 2/C"
_symmetry_group_IT_number 13
_symmetry_cell_setting 'monoclinic'
loop_
_space_group_symop_operation_xyz
x,y,z
-x,y,1/2-z
-x,-y,-z
x,-y,1/2+z
loop_
_atom_site_type_symbol
_atom_site_label
_atom_site_fract_x
_atom_site_fract_y
_atom_site_fract_z
Si Si1 0.500000 0.489154 0.250000
Si Si2 0.384230 0.824165 0.729100
Si Si3 0.104291 0.299346 0.079780
Si Si4 0.343600 0.857881 0.949784
Si Si5 0.861980 0.384787 0.646824
O O1 0.524954 0.344764 0.169335
O O2 0.607705 0.635346 0.444281
O O3 0.390077 0.905622 0.882225
O O4 0.259624 0.717469 0.524048
O O5 0.384861 0.997421 0.625688
O O6 0.205381 0.138510 0.231193
O O7 0.122615 0.424698 0.237564
O O8 0.127250 0.431260 0.987352
O O9 0.970858 0.243057 0.854937
#
# Coordination Sequence:
#
# PCOD9238231 Si02
#       5
#     2   4   4   4   4
#     4  12  24  44  66  88 118 168 210 264 298 358
#     4  11  25  42  64  94 125 161 206 255 308 367
#     4   9  18  36  62  91 122 158 200 248 304 364
#     4  11  25  42  64  94 125 161 206 255 308 367
#     4   9  18  36  62  91 122 158 200 248 304 364
#
# _framework density 22.142590999999999
#
# number of rings (size 3 to 8) (size 9 to 14) (size 15 to 20)
#    0.000    1.778    2.222    1.333    0.000    8.000 
#    0.000    0.000    0.000    0.000    0.000    0.000 
#    0.000    0.000    0.000    0.000    0.000    0.000 
#
# Total GULP energy -100544.492349 kJ/mol
# GULP energy per Si atom -5585.805130 kJ/mol
# Density = 2.209219 g / cm^3
# Si number density = 22.142591 Si / 1000 Ang^3
#
#
#
# Elastic Constant Matrix: (Units=GPa)
#
#
# Indices 1 2 3 4 5 6 
#
# 1 93.0041 26.1522 5.6454 0.0000 -17.2638 0.0000
# 2 26.1522 44.3938 -8.3727 0.0000 -16.1468 0.0000
# 3 5.6454 -8.3727 44.8885 0.0000 -7.3879 0.0000
# 4 0.0000 0.0000 0.0000 20.3996 0.0000 -5.6448
# 5 -17.2638 -16.1468 -7.3879 0.0000 60.1961 0.0000
# 6 0.0000 0.0000 0.0000 -5.6448 0.0000 29.1963
#
#
#
# Elastic Compliance Matrix: (Units=1/GPa)
#
#
# Indices 1 2 3 4 5 6 
#
# 1 0.013424 -0.007975 -0.002954 0.000000 0.001348 0.000000
# 2 -0.007975 0.031316 0.008012 0.000000 0.007096 0.000000
# 3 -0.002954 0.008012 0.024860 0.000000 0.004353 0.000000
# 4 0.000000 0.000000 0.000000 0.051791 0.000000 0.010013
# 5 0.001348 0.007096 0.004353 0.000000 0.019437 0.000000
# 6 0.000000 0.000000 0.000000 0.010013 0.000000 0.036187
#
#
# Mechanical properties :
#
#
# Convention : Reuss Voigt Hill
#
# Bulk Modulus (GPa) = 15.68232 25.45958 20.57095
# Shear Modulus (GPa) = 24.49733 32.54915 28.52324
#
# Velocity S-wave (km/s) = 3.32978 3.83819 3.59299
# Velocity P-wave (km/s) = 4.67772 5.58258 5.15006
#
# Compressibility (1/GPa) = 0.06376608
#
# Stress axis : x y z
#
# Youngs Moduli (GPa) = 74.49184 31.93284 40.22568
#
# Poissons Ratio (x) = 0.25466 0.11882
# Poissons Ratio (y) = 0.59406 -0.32229
# Poissons Ratio (z) = 0.22004 -0.25584
#
# Static dielectric constant tensor:
#      x y z
#    x 1.828490 0.000000 0.043540 
#    y 0.000000 1.773280 0.000000 
#    z 0.043540 0.000000 1.844080 
# 
# From -- ./inp_files/39598.got.cif
#   From: 2010.05.17/outbox.cif.g08.bks.cpg/sg13_20_cif.got.tgz:39598.got - 2010.06.03 16:44:36.
