data_PCOD9238924
_publ_section_title
;
Structure prediction by ZEFSAII (Michael W. Deem and Ramdas Pophale) SiO2 
 PCOD9238924
Probable space group: P 2/C
;
_chemical_formula_sum "Si O2"
_cell_formula_units_Z 30
_cell_length_a 15.000000
_cell_length_b 12.000000
_cell_length_c 9.000000
_cell_angle_alpha 90.000000
_cell_angle_beta 110.000000
_cell_angle_gamma 90.000000
_cell_volume 1522.302046
_symmetry_space_group_name_H-M "P 2/C"
_symmetry_group_IT_number 13
_symmetry_cell_setting 'monoclinic'
loop_
_space_group_symop_operation_xyz
x,y,z
-x,y,1/2-z
-x,-y,-z
x,-y,1/2+z
loop_
_atom_site_type_symbol
_atom_site_label
_atom_site_fract_x
_atom_site_fract_y
_atom_site_fract_z
Si Si1 0.096042 0.372557 0.401343
Si Si2 0.789748 0.163580 0.921121
Si Si3 0.730982 0.019431 0.608670
Si Si4 0.500000 0.524786 0.250000
Si Si5 0.651851 0.336468 0.384658
Si Si6 0.607566 0.108931 0.267906
Si Si7 0.809016 0.527267 0.828650
Si Si8 0.656102 0.329709 0.713888
O O1 0.130554 0.257608 0.498943
O O2 0.104988 0.468844 0.532839
O O3 0.167929 0.415832 0.314557
O O4 0.000000 0.360952 0.250000
O O5 0.691712 0.235959 0.848939
O O6 0.788880 0.094479 0.763171
O O7 0.789616 0.078396 0.058849
O O8 0.646474 0.960320 0.652044
O O9 0.681520 0.079284 0.441033
O O10 0.581276 0.441902 0.354475
O O11 0.443424 0.609814 0.320901
O O12 0.614639 0.242677 0.250890
O O13 0.754072 0.381682 0.395364
O O14 0.655299 0.283478 0.548594
O O15 0.500000 0.081020 0.250000
O O16 0.734848 0.426917 0.762557
#
# Coordination Sequence:
#
# PCOD9238924 Si02
#       8
#     4   4   4   2   4   4   4   4
#     4  11  22  40  64  94 122 151 192 244 299 372
#     4  10  22  41  62  84 113 154 202 245 310 355
#     4  10  22  40  58  78 111 158 197 254 307 344
#     4  10  22  32  52  82 122 160 198 236 286 330
#     4  11  19  35  55  82 119 157 200 235 283 346
#     4  11  21  35  54  81 113 152 207 250 286 332
#     4  10  21  37  60  87 125 160 187 226 296 363
#     4  10  20  36  54  83 118 160 193 240 278 352
#
# _framework density 19.706996
#
# number of rings (size 3 to 8) (size 9 to 14) (size 15 to 20)
#    0.000    1.600    3.333    2.000    0.000    1.067 
#    4.800    0.667    0.000    0.000    0.000    0.000 
#    0.000    0.000    0.000    0.000    0.000    0.000 
#
# Total GULP energy -167092.064319 kJ/mol
# GULP energy per Si atom -5569.735477 kJ/mol
# Density = 1.966214 g / cm^3
# Si number density = 19.706996 Si / 1000 Ang^3
#
#
#
# Elastic Constant Matrix: (Units=GPa)
#
#
# Indices 1 2 3 4 5 6 
#
# 1 35.1768 10.3971 -1.5642 0.0000 -0.5219 0.0000
# 2 10.3971 57.8533 4.2118 0.0000 -6.8025 0.0000
# 3 -1.5642 4.2118 41.1361 0.0000 -8.2110 0.0000
# 4 0.0000 0.0000 0.0000 38.2499 0.0000 2.9205
# 5 -0.5219 -6.8025 -8.2110 0.0000 21.7471 0.0000
# 6 0.0000 0.0000 0.0000 2.9205 0.0000 13.5346
#
#
#
# Elastic Compliance Matrix: (Units=1/GPa)
#
#
# Indices 1 2 3 4 5 6 
#
# 1 0.030145 -0.005584 0.001637 0.000000 -0.000405 0.000000
# 2 -0.005584 0.019003 -0.001080 0.000000 0.005402 0.000000
# 3 0.001637 -0.001080 0.026413 0.000000 0.009674 0.000000
# 4 0.000000 0.000000 0.000000 0.026582 0.000000 -0.005736
# 5 -0.000405 0.005402 0.009674 0.000000 0.051316 0.000000
# 6 0.000000 0.000000 0.000000 -0.005736 0.000000 0.075123
#
#
# Mechanical properties :
#
#
# Convention : Reuss Voigt Hill
#
# Bulk Modulus (GPa) = 15.26545 17.80617 16.53581
# Shear Modulus (GPa) = 19.19600 22.78108 20.98854
#
# Velocity S-wave (km/s) = 3.12440 3.40367 3.26702
# Velocity P-wave (km/s) = 4.55838 4.94992 4.75818
#
# Compressibility (1/GPa) = 0.06550739
#
# Stress axis : x y z
#
# Youngs Moduli (GPa) = 33.17279 52.62456 37.85960
#
# Poissons Ratio (x) = 0.29388 -0.06198
# Poissons Ratio (y) = 0.18525 0.04087
# Poissons Ratio (z) = -0.05431 0.05681
#
# Static dielectric constant tensor:
#      x y z
#    x 1.692310 0.000000 -0.012110 
#    y 0.000000 1.737880 0.000000 
#    z -0.012110 0.000000 1.718020 
# 
# From -- ./inp_files/18996.got.cif
#   From: 2010.05.17/outbox.ucp.g08.bks.cvg/sg13_10_cif.got.tgz:18996.got - 2010.06.11 12:23:55.
