data_PCOD9238247
_publ_section_title
;
Structure prediction by ZEFSAII (Michael W. Deem and Ramdas Pophale) SiO2 
 PCOD9238247
Probable space group: P 2/C
;
_chemical_formula_sum "Si O2"
_cell_formula_units_Z 24
_cell_length_a 8.900859
_cell_length_b 8.622488
_cell_length_c 15.402628
_cell_angle_alpha 90.000000
_cell_angle_beta 71.202117
_cell_angle_gamma 90.000000
_cell_volume 1119.061382
_symmetry_space_group_name_H-M "P 2/C"
_symmetry_group_IT_number 13
_symmetry_cell_setting 'monoclinic'
loop_
_space_group_symop_operation_xyz
x,y,z
-x,y,1/2-z
-x,-y,-z
x,-y,1/2+z
loop_
_atom_site_type_symbol
_atom_site_label
_atom_site_fract_x
_atom_site_fract_y
_atom_site_fract_z
Si Si1 0.105312 0.789390 0.656887
Si Si2 0.399569 0.842321 0.026016
Si Si3 0.441340 0.728763 0.666326
Si Si4 0.122883 0.639228 0.465554
Si Si5 0.032929 0.866783 0.145236
Si Si6 0.476001 0.616254 0.349599
O O1 0.278460 0.810249 0.667927
O O2 0.137474 0.708987 0.559389
O O3 0.000000 0.703698 0.750000
O O4 0.008314 0.947198 0.653570
O O5 0.217034 0.857692 0.084623
O O6 0.474722 0.732661 0.084705
O O7 0.423386 0.765477 0.928306
O O8 0.500000 0.000000 0.000000
O O9 0.500000 0.775379 0.750000
O O10 0.422419 0.542104 0.667930
O O11 0.291792 0.579200 0.399966
O O12 0.000000 0.500000 0.500000
O O13 0.063778 0.769385 0.407902
O O14 0.000000 0.809624 0.250000
O O15 0.500000 0.687752 0.250000
#
# Coordination Sequence:
#
# PCOD9238247 Si02
#       6
#     4   4   4   4   4   4
#     4  11  26  46  67 101 139 181 230 286 344 412
#     4  12  23  44  69 101 133 179 229 284 340 408
#     4  11  25  45  69  99 138 180 232 285 346 408
#     4  12  26  44  70 102 136 185 226 284 348 411
#     4  11  25  46  68 101 139 181 227 280 347 410
#     4  11  25  44  68 100 137 178 228 286 342 408
#
# _framework density 21.446546000000001
#
# number of rings (size 3 to 8) (size 9 to 14) (size 15 to 20)
#    0.000    0.667    3.333    3.000    9.333    1.333 
#    3.000    0.000    0.000    0.000    0.000    0.000 
#    0.000    0.000    0.000    0.000    0.000    0.000 
#
# Total GULP energy -134173.447526 kJ/mol
# GULP energy per Si atom -5590.560314 kJ/mol
# Density = 2.139773 g / cm^3
# Si number density = 21.446546 Si / 1000 Ang^3
#
#
#
# Elastic Constant Matrix: (Units=GPa)
#
#
# Indices 1 2 3 4 5 6 
#
# 1 63.0045 6.6231 33.7939 0.0000 -5.1482 0.0000
# 2 6.6231 48.8601 17.7608 0.0000 23.1377 0.0000
# 3 33.7939 17.7608 205.1667 0.0000 5.4692 0.0000
# 4 0.0000 0.0000 0.0000 25.8019 0.0000 -1.0564
# 5 -5.1482 23.1377 5.4692 0.0000 46.5048 0.0000
# 6 0.0000 0.0000 0.0000 -1.0564 0.0000 30.1211
#
#
#
# Elastic Compliance Matrix: (Units=1/GPa)
#
#
# Indices 1 2 3 4 5 6 
#
# 1 0.018042 -0.003313 -0.002791 0.000000 0.003974 0.000000
# 2 -0.003313 0.028200 -0.001517 0.000000 -0.014219 0.000000
# 3 -0.002791 -0.001517 0.005470 0.000000 -0.000198 0.000000
# 4 0.000000 0.000000 0.000000 0.038813 0.000000 0.001361
# 5 0.003974 -0.014219 -0.000198 0.000000 0.029041 0.000000
# 6 0.000000 0.000000 0.000000 0.001361 0.000000 0.033247
#
#
# Mechanical properties :
#
#
# Convention : Reuss Voigt Hill
#
# Bulk Modulus (GPa) = 27.41840 48.15410 37.78625
# Shear Modulus (GPa) = 27.74531 37.74247 32.74389
#
# Velocity S-wave (km/s) = 3.60070 4.19959 3.91163
# Velocity P-wave (km/s) = 5.48626 6.78360 6.16913
#
# Compressibility (1/GPa) = 0.03647186
#
# Stress axis : x y z
#
# Youngs Moduli (GPa) = 55.42687 35.46059 182.80411
#
# Poissons Ratio (x) = 0.11748 0.51018
# Poissons Ratio (y) = 0.18362 0.27723
# Poissons Ratio (z) = 0.15469 0.05378
#
# Static dielectric constant tensor:
#      x y z
#    x 1.768040 0.000000 -0.012260 
#    y 0.000000 1.897160 0.000000 
#    z -0.012260 0.000000 1.782300 
# 
# From -- ./inp_files/46012.got.cif
#   From: 2010.05.17/outbox.cif.g08.bks.cpg/sg13_24_cif.got.tgz:46012.got - 2010.06.03 16:44:36.
