data_PCOD9238003
_publ_section_title
;
Structure prediction by ZEFSAII (Michael W. Deem and Ramdas Pophale) SiO2 
 PCOD9238003
Probable space group: P 2/C
;
_chemical_formula_sum "Si O2"
_cell_formula_units_Z 28
_cell_length_a 17.232211
_cell_length_b 5.298547
_cell_length_c 14.380412
_cell_angle_alpha 90.000000
_cell_angle_beta 67.294895
_cell_angle_gamma 90.000000
_cell_volume 1211.259625
_symmetry_space_group_name_H-M "P 2/C"
_symmetry_group_IT_number 13
_symmetry_cell_setting 'monoclinic'
loop_
_space_group_symop_operation_xyz
x,y,z
-x,y,1/2-z
-x,-y,-z
x,-y,1/2+z
loop_
_atom_site_type_symbol
_atom_site_label
_atom_site_fract_x
_atom_site_fract_y
_atom_site_fract_z
Si Si1 0.057924 0.750740 0.482269
Si Si2 0.401091 0.112369 0.291954
Si Si3 0.625192 0.929963 0.002749
Si Si4 0.544578 0.726061 0.379471
Si Si5 0.318687 0.379222 0.171855
Si Si6 0.096575 0.198113 0.177353
Si Si7 0.837443 0.294925 0.753694
O O1 0.123280 0.744639 0.366519
O O2 0.000000 0.500000 0.500000
O O3 0.100063 0.763530 0.564715
O O4 0.000000 0.000000 0.500000
O O5 0.500000 0.218192 0.250000
O O6 0.326218 0.230412 0.264006
O O7 0.361772 0.095322 0.412344
O O8 0.419441 0.847081 0.231364
O O9 0.696509 0.777783 0.914982
O O10 0.581718 0.100764 0.944400
O O11 0.554640 0.738402 0.073942
O O12 0.583360 0.456891 0.379280
O O13 0.259611 0.619997 0.205521
O O14 0.121051 0.457486 0.218049
O O15 0.000000 0.145586 0.250000
O O16 0.145465 0.954435 0.194246
#
# Coordination Sequence:
#
# PCOD9238003 Si02
#       7
#     4   4   4   4   4   4   4
#     4  12  23  45  79 109 140 189 241 291 350 437
#     4   9  20  39  65  93 128 185 249 295 352 434
#     4   9  19  39  64  90 124 185 236 289 353 440
#     4   9  19  37  62  88 131 175 236 291 354 424
#     4  11  24  40  64  98 145 175 234 309 372 415
#     4  12  24  47  80 106 145 195 243 284 360 448
#     4  12  27  46  73 113 153 186 237 309 361 432
#
# _framework density 23.116430000000001
#
# number of rings (size 3 to 8) (size 9 to 14) (size 15 to 20)
#    0.000    1.429    2.857    2.571    4.000    2.857 
#    5.143    0.000    0.000    0.000    0.000    0.000 
#    0.000    0.000    0.000    0.000    0.000    0.000 
#
# Total GULP energy -156333.075266 kJ/mol
# GULP energy per Si atom -5583.324117 kJ/mol
# Density = 2.306382 g / cm^3
# Si number density = 23.116430 Si / 1000 Ang^3
#
#
#
# Elastic Constant Matrix: (Units=GPa)
#
#
# Indices 1 2 3 4 5 6 
#
# 1 80.4117 44.6202 65.9320 0.0000 10.8348 0.0000
# 2 44.6202 112.7951 62.3736 0.0000 7.8250 0.0000
# 3 65.9320 62.3736 167.1601 0.0000 42.1147 0.0000
# 4 0.0000 0.0000 0.0000 16.3530 0.0000 -7.5028
# 5 10.8348 7.8250 42.1147 0.0000 41.1512 0.0000
# 6 0.0000 0.0000 0.0000 -7.5028 0.0000 53.8135
#
#
#
# Elastic Compliance Matrix: (Units=1/GPa)
#
#
# Indices 1 2 3 4 5 6 
#
# 1 0.020247 -0.004288 -0.007072 0.000000 0.002722 0.000000
# 2 -0.004288 0.012339 -0.003512 0.000000 0.002377 0.000000
# 3 -0.007072 -0.003512 0.012726 0.000000 -0.010494 0.000000
# 4 0.000000 0.000000 0.000000 0.065330 0.000000 0.009108
# 5 0.002722 0.002377 -0.010494 0.000000 0.033872 0.000000
# 6 0.000000 0.000000 0.000000 0.009108 0.000000 0.019853
#
#
# Mechanical properties :
#
#
# Convention : Reuss Voigt Hill
#
# Bulk Modulus (GPa) = 64.22872 78.46873 71.34872
# Shear Modulus (GPa) = 25.08815 34.75962 29.92388
#
# Velocity S-wave (km/s) = 3.29796 3.88193 3.60180
# Velocity P-wave (km/s) = 6.50747 7.35603 6.94473
#
# Compressibility (1/GPa) = 0.01556936
#
# Stress axis : x y z
#
# Youngs Moduli (GPa) = 49.39073 81.04534 78.58095
#
# Poissons Ratio (x) = 0.34749 0.55570
# Poissons Ratio (y) = 0.21177 0.27595
# Poissons Ratio (z) = 0.34927 0.28460
#
# Static dielectric constant tensor:
#      x y z
#    x 1.934550 0.000000 0.025790 
#    y 0.000000 1.894400 0.000000 
#    z 0.025790 0.000000 1.930580 
# 
# From -- ./inp_files/54562.got.cif
#   From: 2010.05.17/outbox.cif.g08.bks.cpg/sg13_28_cif.got.tgz:54562.got - 2010.06.03 16:44:36.
