data_PCOD9238608
_publ_section_title
;
Structure prediction by ZEFSAII (Michael W. Deem and Ramdas Pophale) SiO2 
 PCOD9238608
Probable space group: P 2/C
;
_chemical_formula_sum "Si O2"
_cell_formula_units_Z 12
_cell_length_a 5.466856
_cell_length_b 22.422043
_cell_length_c 5.045722
_cell_angle_alpha 90.000000
_cell_angle_beta 53.996846
_cell_angle_gamma 90.000000
_cell_volume 500.352885
_symmetry_space_group_name_H-M "P 2/C"
_symmetry_group_IT_number 13
_symmetry_cell_setting 'monoclinic'
loop_
_space_group_symop_operation_xyz
x,y,z
-x,y,1/2-z
-x,-y,-z
x,-y,1/2+z
loop_
_atom_site_type_symbol
_atom_site_label
_atom_site_fract_x
_atom_site_fract_y
_atom_site_fract_z
Si Si1 0.000000 0.543472 0.250000
Si Si2 0.000000 0.202652 0.250000
Si Si3 0.500000 0.634663 0.750000
Si Si4 0.500000 0.282225 0.750000
Si Si5 0.500000 0.126998 0.250000
Si Si6 0.000000 0.957161 0.250000
O O1 0.729758 0.589049 0.467484
O O2 0.000000 0.500000 0.500000
O O3 0.800109 0.241833 0.582869
O O4 0.744578 0.165162 0.258508
O O5 0.421675 0.677905 0.555931
O O6 0.294861 0.084647 0.563725
O O7 0.000000 0.000000 0.500000
#
# Coordination Sequence:
#
# PCOD9238608 Si02
#       6
#     2   2   2   2   2   2
#     4  12  24  43  69 102 141 189 242 302 366 438
#     4  12  27  49  76 110 150 199 251 310 374 448
#     4  12  25  45  70 104 144 191 243 304 368 440
#     4  12  26  47  73 106 147 195 246 306 372 444
#     4  12  27  50  77 112 151 198 251 310 374 448
#     4  12  27  50  77 112 151 198 249 310 376 448
#
# _framework density 23.983073000000001
#
# number of rings (size 3 to 8) (size 9 to 14) (size 15 to 20)
#    0.000    0.000    0.000   10.000    0.000    5.333 
#    0.000    0.000    0.000    0.000    0.000    0.000 
#    0.000    0.000    0.000    0.000    0.000    0.000 
#
# Total GULP energy -67233.890418 kJ/mol
# GULP energy per Si atom -5602.824201 kJ/mol
# Density = 2.392849 g / cm^3
# Si number density = 23.983073 Si / 1000 Ang^3
#
#
#
# Elastic Constant Matrix: (Units=GPa)
#
#
# Indices 1 2 3 4 5 6 
#
# 1 155.2807 101.5134 73.8425 0.0000 0.4660 0.0000
# 2 101.5134 162.4201 80.6238 0.0000 -6.2805 0.0000
# 3 73.8425 80.6238 160.9183 0.0000 -9.4844 0.0000
# 4 0.0000 0.0000 0.0000 -70.8531 0.0000 27.0291
# 5 0.4660 -6.2805 -9.4844 0.0000 66.4321 0.0000
# 6 0.0000 0.0000 0.0000 27.0291 0.0000 3.8705
#
#
#
# Elastic Compliance Matrix: (Units=1/GPa)
#
#
# Indices 1 2 3 4 5 6 
#
# 1 0.011520 -0.006103 -0.002287 0.000000 -0.000984 0.000000
# 2 -0.006103 0.011431 -0.002884 0.000000 0.000712 0.000000
# 3 -0.002287 -0.002884 0.008767 0.000000 0.000995 0.000000
# 4 0.000000 0.000000 0.000000 -0.003852 0.000000 0.026900
# 5 -0.000984 0.000712 0.000995 0.000000 0.015269 0.000000
# 6 0.000000 0.000000 0.000000 0.026900 0.000000 0.070514
#
#
# Mechanical properties :
#
#
# Convention : Reuss Voigt Hill
#
# Bulk Modulus (GPa) = 109.05278 110.06430 109.55854
# Shear Modulus (GPa) = 35.90544 14.73253 25.31899
#
# Velocity S-wave (km/s) = 3.87346 2.48117 3.25268
# Velocity P-wave (km/s) = 8.09780 7.36209 7.73869
#
# Compressibility (1/GPa) = 0.00916987
#
# Stress axis : x y z
#
# Youngs Moduli (GPa) = 86.80428 87.48333 114.05844
#
# Poissons Ratio (x) = 0.53393 0.26080
# Poissons Ratio (y) = 0.52978 0.32900
# Poissons Ratio (z) = 0.19848 0.25234
#
# Static dielectric constant tensor:
#      x y z
#    x 1.917890 0.000000 0.009380 
#    y 0.000000 1.959500 0.000000 
#    z 0.009380 0.000000 1.874870 
# 
# From -- ./inp_files/312.got.cif
#   From: 2010.05.17/outbox.cif.g08.bks.cpg/sg13_1_cif.got.tgz:312.got - 2010.06.03 16:44:36.
