data_PCOD9238125
_publ_section_title
;
Structure prediction by ZEFSAII (Michael W. Deem and Ramdas Pophale) SiO2 
 PCOD9238125
Probable space group: P 2/C
;
_chemical_formula_sum "Si O2"
_cell_formula_units_Z 22
_cell_length_a 24.833278
_cell_length_b 4.729075
_cell_length_c 13.742478
_cell_angle_alpha 90.000000
_cell_angle_beta 151.851815
_cell_angle_gamma 90.000000
_cell_volume 761.360777
_symmetry_space_group_name_H-M "P 2/C"
_symmetry_group_IT_number 13
_symmetry_cell_setting 'monoclinic'
loop_
_space_group_symop_operation_xyz
x,y,z
-x,y,1/2-z
-x,-y,-z
x,-y,1/2+z
loop_
_atom_site_type_symbol
_atom_site_label
_atom_site_fract_x
_atom_site_fract_y
_atom_site_fract_z
Si Si1 0.862915 0.934332 0.692619
Si Si2 0.279058 0.426592 0.074059
Si Si3 0.000000 0.599379 0.750000
Si Si4 0.615017 0.610148 0.951125
Si Si5 0.824126 0.216244 0.350132
Si Si6 0.384252 0.043801 0.382053
O O1 0.746880 0.754290 0.481080
O O2 0.953313 0.800717 0.762615
O O3 0.877426 0.894756 0.832580
O O4 0.839865 0.259218 0.629734
O O5 0.345745 0.292172 0.091171
O O6 0.352223 0.355118 0.285256
O O7 0.909017 0.403480 0.548672
O O8 0.500000 0.433054 0.750000
O O9 0.719261 0.412781 0.147630
O O10 0.582627 0.861942 0.970767
O O11 0.757002 0.995062 0.312837
O O12 0.500000 0.000000 0.500000
#
# Coordination Sequence:
#
# PCOD9238125 Si02
#       6
#     4   4   2   4   4   4
#     4  11  25  47  75 107 152 200 257 321 386 461
#     4  11  24  46  73 107 153 198 254 316 389 464
#     4  12  24  50  76 110 152 212 262 328 382 472
#     4  11  24  45  70 108 152 199 251 319 392 467
#     4  11  26  47  72 110 153 201 262 321 393 463
#     4  12  24  42  72 106 150 201 257 315 392 465
#
# _framework density 28.895633
#
# number of rings (size 3 to 8) (size 9 to 14) (size 15 to 20)
#    0.000    0.727    5.455    1.636    0.000    5.091 
#    3.273    2.727    0.000    0.000    0.000    0.000 
#    0.000    0.000    0.000    0.000    0.000    0.000 
#
# Total GULP energy -122568.625557 kJ/mol
# GULP energy per Si atom -5571.301162 kJ/mol
# Density = 2.882987 g / cm^3
# Si number density = 28.895633 Si / 1000 Ang^3
#
#
#
# Elastic Constant Matrix: (Units=GPa)
#
#
# Indices 1 2 3 4 5 6 
#
# 1 264.4339 41.7830 33.6357 0.0000 25.3754 0.0000
# 2 41.7830 113.7288 40.2044 0.0000 -4.5381 0.0000
# 3 33.6357 40.2044 157.5359 0.0000 17.2745 0.0000
# 4 0.0000 0.0000 0.0000 39.3139 0.0000 -4.0186
# 5 25.3754 -4.5381 17.2745 0.0000 50.6903 0.0000
# 6 0.0000 0.0000 0.0000 -4.0186 0.0000 34.1757
#
#
#
# Elastic Compliance Matrix: (Units=1/GPa)
#
#
# Indices 1 2 3 4 5 6 
#
# 1 0.004273 -0.001560 -0.000275 0.000000 -0.002185 0.000000
# 2 -0.001560 0.010390 -0.002603 0.000000 0.002598 0.000000
# 3 -0.000275 -0.002603 0.007356 0.000000 -0.002602 0.000000
# 4 0.000000 0.000000 0.000000 0.025746 0.000000 0.003027
# 5 -0.002185 0.002598 -0.002602 0.000000 0.021941 0.000000
# 6 0.000000 0.000000 0.000000 0.003027 0.000000 0.029616
#
#
# Mechanical properties :
#
#
# Convention : Reuss Voigt Hill
#
# Bulk Modulus (GPa) = 76.08596 85.21607 80.65102
# Shear Modulus (GPa) = 44.41328 52.84103 48.62716
#
# Velocity S-wave (km/s) = 3.92474 4.28095 4.10671
# Velocity P-wave (km/s) = 6.85030 7.34782 7.10342
#
# Compressibility (1/GPa) = 0.01314303
#
# Stress axis : x y z
#
# Youngs Moduli (GPa) = 234.04178 96.24670 135.94001
#
# Poissons Ratio (x) = 0.15013 0.03733
# Poissons Ratio (y) = 0.36508 0.35391
# Poissons Ratio (z) = 0.06427 0.25057
#
# Static dielectric constant tensor:
#      x y z
#    x 2.687650 0.000000 -0.073920 
#    y 0.000000 2.310750 0.000000 
#    z -0.073920 0.000000 2.514840 
# 
# From -- ./inp_files/52360.got.cif
#   From: 2010.05.17/outbox.cif.g08.bks.cpg/sg13_27_cif.got.tgz:52360.got - 2010.06.03 16:44:36.
