data_PCOD9238478
_publ_section_title
;
Structure prediction by ZEFSAII (Michael W. Deem and Ramdas Pophale) SiO2 
 PCOD9238478
Probable space group: P 2/C
;
_chemical_formula_sum "Si O2"
_cell_formula_units_Z 16
_cell_length_a 10.634913
_cell_length_b 4.935884
_cell_length_c 20.554953
_cell_angle_alpha 90.000000
_cell_angle_beta 141.029532
_cell_angle_gamma 90.000000
_cell_volume 678.594917
_symmetry_space_group_name_H-M "P 2/C"
_symmetry_group_IT_number 13
_symmetry_cell_setting 'monoclinic'
loop_
_space_group_symop_operation_xyz
x,y,z
-x,y,1/2-z
-x,-y,-z
x,-y,1/2+z
loop_
_atom_site_type_symbol
_atom_site_label
_atom_site_fract_x
_atom_site_fract_y
_atom_site_fract_z
Si Si1 0.132552 0.340617 0.687737
Si Si2 0.471241 0.364553 0.918311
Si Si3 0.731360 0.156741 0.338782
Si Si4 0.281808 0.842324 0.520354
O O1 0.245142 0.366746 0.801547
O O2 0.143752 0.614637 0.649409
O O3 0.907780 0.230659 0.600084
O O4 0.256907 0.114717 0.698630
O O5 0.589628 0.571308 0.919829
O O6 0.579735 0.076020 0.954133
O O7 0.500000 0.500000 0.000000
O O8 0.500000 0.241774 0.250000
O O9 0.794940 0.092747 0.438209
#
# Coordination Sequence:
#
# PCOD9238478 Si02
#       4
#     4   4   4   4
#     4  12  24  43  68 102 137 177 223 280 343 407
#     4  12  26  46  67  96 135 183 232 279 328 396
#     4  12  21  41  71 101 140 176 214 280 353 405
#     4  12  25  43  70 101 135 179 224 279 342 403
#
# _framework density 23.578130000000002
#
# number of rings (size 3 to 8) (size 9 to 14) (size 15 to 20)
#    0.000    0.000    5.000    6.000    0.000    1.000 
#    0.000    2.500    0.000    0.000    0.000    0.000 
#    0.000    0.000    0.000    0.000    0.000    0.000 
#
# Total GULP energy -89608.262326 kJ/mol
# GULP energy per Si atom -5600.516395 kJ/mol
# Density = 2.352447 g / cm^3
# Si number density = 23.578130 Si / 1000 Ang^3
#
#
#
# Elastic Constant Matrix: (Units=GPa)
#
#
# Indices 1 2 3 4 5 6 
#
# 1 29.3273 1.9766 32.9184 0.0000 -6.0496 0.0000
# 2 1.9766 113.6237 20.8094 0.0000 -0.3035 0.0000
# 3 32.9184 20.8094 199.4901 0.0000 -2.7222 0.0000
# 4 0.0000 0.0000 0.0000 29.2722 0.0000 7.7231
# 5 -6.0496 -0.3035 -2.7222 0.0000 43.7806 0.0000
# 6 0.0000 0.0000 0.0000 7.7231 0.0000 -4.8588
#
#
#
# Elastic Compliance Matrix: (Units=1/GPa)
#
#
# Indices 1 2 3 4 5 6 
#
# 1 0.043179 0.000566 -0.007109 0.000000 0.005528 0.000000
# 2 0.000566 0.008980 -0.001029 0.000000 0.000076 0.000000
# 3 -0.007109 -0.001029 0.006285 0.000000 -0.000599 0.000000
# 4 0.000000 0.000000 0.000000 0.024069 0.000000 0.038257
# 5 0.005528 0.000076 -0.000599 0.000000 0.023568 0.000000
# 6 0.000000 0.000000 0.000000 0.038257 0.000000 -0.145002
#
#
# Mechanical properties :
#
#
# Convention : Reuss Voigt Hill
#
# Bulk Modulus (GPa) = 23.09483 50.42779 36.76131
# Shear Modulus (GPa) = -535.14024 32.75458 -251.19283
#
# Velocity S-wave (km/s) = -15.08169 3.73123 -10.33284
# Velocity P-wave (km/s) = 17.13068 6.32430 11.25752
#
# Compressibility (1/GPa) = 0.04329974
#
# Stress axis : x y z
#
# Youngs Moduli (GPa) = 23.15927 111.36111 159.10972
#
# Poissons Ratio (x) = -0.06298 1.13106
# Poissons Ratio (y) = -0.01310 0.16372
# Poissons Ratio (z) = 0.16463 0.11459
#
# Static dielectric constant tensor:
#      x y z
#    x 1.907140 0.000000 -0.030580 
#    y 0.000000 1.875390 0.000000 
#    z -0.030580 0.000000 2.163300 
# 
# From -- ./inp_files/48475.got.cif
#   From: 2010.05.17/outbox.cif.g08.bks.cpg/sg13_25_cif.got.tgz:48475.got - 2010.06.03 16:44:36.
