data_PCOD9238301
_publ_section_title
;
Structure prediction by ZEFSAII (Michael W. Deem and Ramdas Pophale) SiO2 
 PCOD9238301
Probable space group: P 2/C
;
_chemical_formula_sum "Si O2"
_cell_formula_units_Z 28
_cell_length_a 5.066346
_cell_length_b 16.778515
_cell_length_c 13.855931
_cell_angle_alpha 90.000000
_cell_angle_beta 101.873757
_cell_angle_gamma 90.000000
_cell_volume 1152.632252
_symmetry_space_group_name_H-M "P 2/C"
_symmetry_group_IT_number 13
_symmetry_cell_setting 'monoclinic'
loop_
_space_group_symop_operation_xyz
x,y,z
-x,y,1/2-z
-x,-y,-z
x,-y,1/2+z
loop_
_atom_site_type_symbol
_atom_site_label
_atom_site_fract_x
_atom_site_fract_y
_atom_site_fract_z
Si Si1 0.453404 0.126329 0.131570
Si Si2 0.467610 0.057164 0.862960
Si Si3 0.910410 0.677694 0.031181
Si Si4 0.176894 0.728846 0.851970
Si Si5 0.983694 0.856376 0.053176
Si Si6 0.468775 0.583236 0.905091
Si Si7 0.957191 0.519260 0.361017
O O1 0.500000 0.132542 0.250000
O O2 0.621889 0.200722 0.103410
O O3 0.532668 0.036370 0.111479
O O4 0.156958 0.135408 0.062966
O O5 0.500000 0.062608 0.750000
O O6 0.197391 0.094043 0.885618
O O7 0.720662 0.106439 0.923434
O O8 0.953197 0.763917 0.081042
O O9 0.064995 0.607712 0.097958
O O10 0.698637 0.532400 0.870299
O O11 0.010430 0.695278 0.929823
O O12 0.331709 0.650101 0.827966
O O13 0.000000 0.758677 0.750000
O O14 0.228263 0.524900 0.920407
O O15 0.612184 0.639562 0.996373
O O16 0.000000 0.522857 0.250000
#
# Coordination Sequence:
#
# PCOD9238301 Si02
#       7
#     4   4   4   4   4   4   4
#     4  11  25  46  73 114 153 196 249 311 376 450
#     4  11  27  48  77 108 149 201 253 305 370 441
#     4  12  28  47  75 107 145 192 246 302 371 435
#     4  12  27  45  76 111 153 192 245 309 381 441
#     4  12  25  48  77 108 151 196 250 307 375 440
#     4  12  26  49  70 103 145 185 243 299 369 441
#     4  12  29  46  74 105 145 193 246 300 366 434
#
# _framework density 24.292221999999999
#
# number of rings (size 3 to 8) (size 9 to 14) (size 15 to 20)
#    0.000    0.286    2.857    4.714    4.000    4.571 
#    0.000    0.000    0.000    0.000    0.000    0.000 
#    0.000    0.000    0.000    0.000    0.000    0.000 
#
# Total GULP energy -156895.668327 kJ/mol
# GULP energy per Si atom -5603.416726 kJ/mol
# Density = 2.423693 g / cm^3
# Si number density = 24.292222 Si / 1000 Ang^3
#
#
#
# Elastic Constant Matrix: (Units=GPa)
#
#
# Indices 1 2 3 4 5 6 
#
# 1 86.0831 42.0205 4.7325 0.0000 -3.9902 0.0000
# 2 42.0205 221.8381 28.2366 0.0000 -2.3174 0.0000
# 3 4.7325 28.2366 89.4286 0.0000 -3.4890 0.0000
# 4 0.0000 0.0000 0.0000 34.9818 0.0000 -2.3982
# 5 -3.9902 -2.3174 -3.4890 0.0000 34.5498 0.0000
# 6 0.0000 0.0000 0.0000 -2.3982 0.0000 33.5029
#
#
#
# Elastic Compliance Matrix: (Units=1/GPa)
#
#
# Indices 1 2 3 4 5 6 
#
# 1 0.012862 -0.002440 0.000142 0.000000 0.001336 0.000000
# 2 -0.002440 0.005161 -0.001504 0.000000 -0.000088 0.000000
# 3 0.000142 -0.001504 0.011692 0.000000 0.001096 0.000000
# 4 0.000000 0.000000 0.000000 0.028727 0.000000 0.002056
# 5 0.001336 -0.000088 0.001096 0.000000 0.029203 0.000000
# 6 0.000000 0.000000 0.000000 0.002056 0.000000 0.029995
#
#
# Mechanical properties :
#
#
# Convention : Reuss Voigt Hill
#
# Bulk Modulus (GPa) = 45.22723 60.81433 53.02078
# Shear Modulus (GPa) = 37.70321 42.09757 39.90039
#
# Velocity S-wave (km/s) = 3.94391 4.16741 4.05719
# Velocity P-wave (km/s) = 6.27675 6.94588 6.61977
#
# Compressibility (1/GPa) = 0.02211057
#
# Stress axis : x y z
#
# Youngs Moduli (GPa) = 77.74787 193.77801 85.52750
#
# Poissons Ratio (x) = 0.47291 -0.01215
# Poissons Ratio (y) = 0.18974 0.12861
# Poissons Ratio (z) = -0.01104 0.29138
#
# Static dielectric constant tensor:
#      x y z
#    x 1.960420 0.000000 0.003550 
#    y 0.000000 1.917250 0.000000 
#    z 0.003550 0.000000 1.984660 
# 
# From -- ./inp_files/44323.got.cif
#   From: 2010.05.17/outbox.cif.g08.bks.cpg/sg13_23_cif.got.tgz:44323.got - 2010.06.03 16:44:36.
