data_PCOD9238780
_publ_section_title
;
Structure prediction by ZEFSAII (Michael W. Deem and Ramdas Pophale) SiO2 
 PCOD9238780
Probable space group: P 2/C
;
_chemical_formula_sum "Si O2"
_cell_formula_units_Z 16
_cell_length_a 13.896064
_cell_length_b 4.831010
_cell_length_c 13.855612
_cell_angle_alpha 90.000000
_cell_angle_beta 141.804102
_cell_angle_gamma 90.000000
_cell_volume 575.163500
_symmetry_space_group_name_H-M "P 2/C"
_symmetry_group_IT_number 13
_symmetry_cell_setting 'monoclinic'
loop_
_space_group_symop_operation_xyz
x,y,z
-x,y,1/2-z
-x,-y,-z
x,-y,1/2+z
loop_
_atom_site_type_symbol
_atom_site_label
_atom_site_fract_x
_atom_site_fract_y
_atom_site_fract_z
Si Si1 0.832907 0.372583 0.866634
Si Si2 0.459374 0.757838 0.039627
Si Si3 0.699970 0.907715 0.858197
Si Si4 0.182848 0.394655 0.864340
O O1 0.839013 0.115796 0.943881
O O2 0.809095 0.276322 0.737859
O O3 0.000000 0.424370 0.750000
O O4 0.000000 0.500000 0.000000
O O5 0.435321 0.116787 0.788269
O O6 0.286948 0.674402 0.939557
O O7 0.500000 0.500000 0.000000
O O8 0.500000 0.000000 0.000000
O O9 0.720517 0.626051 0.811655
O O10 0.721790 0.784438 0.981894
#
# Coordination Sequence:
#
# PCOD9238780 Si02
#       4
#     4   4   4   4
#     4  12  26  52  87 133 190 240 309 407 477 563
#     4  12  26  56  89 125 189 252 305 391 483 568
#     4  12  27  53  91 131 183 247 322 388 478 575
#     4  12  28  53  96 144 181 255 323 397 482 574
#
# _framework density 27.818176999999999
#
# number of rings (size 3 to 8) (size 9 to 14) (size 15 to 20)
#    0.000    0.000    7.500    0.750    0.000    4.000 
#    0.000   12.500    0.000    0.000    0.000    0.000 
#    0.000    0.000    0.000    0.000    0.000    0.000 
#
# Total GULP energy -89324.797599 kJ/mol
# GULP energy per Si atom -5582.799850 kJ/mol
# Density = 2.775486 g / cm^3
# Si number density = 27.818177 Si / 1000 Ang^3
#
#
#
# Elastic Constant Matrix: (Units=GPa)
#
#
# Indices 1 2 3 4 5 6 
#
# 1 127.1725 72.6152 37.3103 0.0000 3.0787 0.0000
# 2 72.6152 238.5873 68.8367 0.0000 -22.9953 0.0000
# 3 37.3103 68.8367 180.1493 0.0000 -26.1112 0.0000
# 4 0.0000 0.0000 0.0000 63.0697 0.0000 -0.4984
# 5 3.0787 -22.9953 -26.1112 0.0000 64.0503 0.0000
# 6 0.0000 0.0000 0.0000 -0.4984 0.0000 61.9214
#
#
#
# Elastic Compliance Matrix: (Units=1/GPa)
#
#
# Indices 1 2 3 4 5 6 
#
# 1 0.009905 -0.002846 -0.001255 0.000000 -0.002010 0.000000
# 2 -0.002846 0.005592 -0.001314 0.000000 0.001609 0.000000
# 3 -0.001255 -0.001314 0.006646 0.000000 0.002298 0.000000
# 4 0.000000 0.000000 0.000000 0.015856 0.000000 0.000128
# 5 -0.002010 0.001609 0.002298 0.000000 0.017224 0.000000
# 6 0.000000 0.000000 0.000000 0.000128 0.000000 0.016151
#
#
# Mechanical properties :
#
#
# Convention : Reuss Voigt Hill
#
# Bulk Modulus (GPa) = 88.39935 100.38151 94.39043
# Shear Modulus (GPa) = 58.15583 62.28475 60.22029
#
# Velocity S-wave (km/s) = 4.57723 4.73694 4.65777
# Velocity P-wave (km/s) = 7.73184 8.12904 7.93292
#
# Compressibility (1/GPa) = 0.01131230
#
# Stress axis : x y z
#
# Youngs Moduli (GPa) = 100.95412 178.83331 150.46473
#
# Poissons Ratio (x) = 0.50902 0.18886
# Poissons Ratio (y) = 0.28735 0.19771
# Poissons Ratio (z) = 0.12672 0.23499
#
# Static dielectric constant tensor:
#      x y z
#    x 2.143620 0.000000 0.395540 
#    y 0.000000 2.087940 0.000000 
#    z 0.395540 0.000000 1.972610 
# 
# From -- ./inp_files/17635.got.cif
#   From: 2010.05.17/outbox.cif.g08.bks.cpg/sg13_9_cif.got.tgz:17635.got - 2010.06.03 16:44:36.
