data_PCOD9238588
_publ_section_title
;
Structure prediction by ZEFSAII (Michael W. Deem and Ramdas Pophale) SiO2 
 PCOD9238588
Probable space group: P 2/C
;
_chemical_formula_sum "Si O2"
_cell_formula_units_Z 24
_cell_length_a 9.639149
_cell_length_b 7.499199
_cell_length_c 19.145874
_cell_angle_alpha 90.000000
_cell_angle_beta 119.995089
_cell_angle_gamma 90.000000
_cell_volume 1198.618260
_symmetry_space_group_name_H-M "P 2/C"
_symmetry_group_IT_number 13
_symmetry_cell_setting 'monoclinic'
loop_
_space_group_symop_operation_xyz
x,y,z
-x,y,1/2-z
-x,-y,-z
x,-y,1/2+z
loop_
_atom_site_type_symbol
_atom_site_label
_atom_site_fract_x
_atom_site_fract_y
_atom_site_fract_z
Si Si1 0.950622 0.661694 0.535650
Si Si2 0.307840 0.758422 0.139909
Si Si3 0.291378 0.175096 0.145966
Si Si4 0.379929 0.828595 0.823468
Si Si5 0.332374 0.741540 0.300452
Si Si6 0.156090 0.557396 0.837909
O O1 0.809508 0.747641 0.454886
O O2 0.895198 0.583673 0.595410
O O3 0.000000 0.500000 0.500000
O O4 0.109314 0.782142 0.582651
O O5 0.256501 0.693400 0.204612
O O6 0.481702 0.685470 0.162278
O O7 0.325580 0.966294 0.159778
O O8 0.431739 0.225196 0.127008
O O9 0.325955 0.240327 0.233045
O O10 0.277744 0.718426 0.852246
O O11 0.340906 0.042947 0.817601
O O12 0.241740 0.627429 0.336265
O O13 0.000000 0.577310 0.750000
#
# Coordination Sequence:
#
# PCOD9238588 Si02
#       6
#     4   4   4   4   4   4
#     4  12  25  39  58  95 129 161 206 254 314 370
#     4   9  20  41  66  90 122 166 208 257 306 374
#     4   9  19  41  66  89 120 163 209 251 311 371
#     4   9  20  41  69  90 117 164 212 256 302 374
#     4   9  21  42  67  92 120 164 214 253 313 370
#     4  12  24  40  62  93 127 164 207 260 313 366
#
# _framework density 20.023054999999999
#
# number of rings (size 3 to 8) (size 9 to 14) (size 15 to 20)
#    0.000    2.000    1.667    3.500    2.333    2.667 
#    6.000    1.667    0.000    0.000    0.000    0.000 
#    0.000    0.000    0.000    0.000    0.000    0.000 
#
# Total GULP energy -133724.646406 kJ/mol
# GULP energy per Si atom -5571.860267 kJ/mol
# Density = 1.997748 g / cm^3
# Si number density = 20.023055 Si / 1000 Ang^3
#
#
#
# Elastic Constant Matrix: (Units=GPa)
#
#
# Indices 1 2 3 4 5 6 
#
# 1 148.3972 47.4851 62.1609 0.0000 -17.2743 0.0000
# 2 47.4851 70.7455 8.5484 0.0000 -13.5440 0.0000
# 3 62.1609 8.5484 101.9847 0.0000 0.7351 0.0000
# 4 0.0000 0.0000 0.0000 37.1565 0.0000 -8.6321
# 5 -17.2743 -13.5440 0.7351 0.0000 35.1427 0.0000
# 6 0.0000 0.0000 0.0000 -8.6321 0.0000 38.1654
#
#
#
# Elastic Compliance Matrix: (Units=1/GPa)
#
#
# Indices 1 2 3 4 5 6 
#
# 1 0.012164 -0.006652 -0.006883 0.000000 0.003560 0.000000
# 2 -0.006652 0.019079 0.002426 0.000000 0.004033 0.000000
# 3 -0.006883 0.002426 0.013817 0.000000 -0.002737 0.000000
# 4 0.000000 0.000000 0.000000 0.028406 0.000000 0.006425
# 5 0.003560 0.004033 -0.002737 0.000000 0.031817 0.000000
# 6 0.000000 0.000000 0.000000 0.006425 0.000000 0.027655
#
#
# Mechanical properties :
#
#
# Convention : Reuss Voigt Hill
#
# Bulk Modulus (GPa) = 43.77589 61.94623 52.86106
# Shear Modulus (GPa) = 30.71850 35.62176 33.17013
#
# Velocity S-wave (km/s) = 3.92108 4.22244 4.07455
# Velocity P-wave (km/s) = 6.51230 7.40112 6.97089
#
# Compressibility (1/GPa) = 0.02284362
#
# Stress axis : x y z
#
# Youngs Moduli (GPa) = 82.20643 52.41418 72.37594
#
# Poissons Ratio (x) = 0.34865 0.49813
# Poissons Ratio (y) = 0.54682 -0.17559
# Poissons Ratio (z) = 0.56579 -0.12716
#
# Static dielectric constant tensor:
#      x y z
#    x 1.705610 0.000000 -0.015120 
#    y 0.000000 1.748910 0.000000 
#    z -0.015120 0.000000 1.634700 
# 
# From -- ./inp_files/75394.got.cif
#   From: 2010.05.17/outbox.cif.g08.bks.cpg/sg13_38_cif.got.tgz:75394.got - 2010.06.03 16:44:36.
