data_PCOD9238357
_publ_section_title
;
Structure prediction by ZEFSAII (Michael W. Deem and Ramdas Pophale) SiO2 
 PCOD9238357
Probable space group: P 2/C
;
_chemical_formula_sum "Si O2"
_cell_formula_units_Z 28
_cell_length_a 18.369358
_cell_length_b 10.812105
_cell_length_c 15.319409
_cell_angle_alpha 90.000000
_cell_angle_beta 22.926397
_cell_angle_gamma 90.000000
_cell_volume 1185.243470
_symmetry_space_group_name_H-M "P 2/C"
_symmetry_group_IT_number 13
_symmetry_cell_setting 'monoclinic'
loop_
_space_group_symop_operation_xyz
x,y,z
-x,y,1/2-z
-x,-y,-z
x,-y,1/2+z
loop_
_atom_site_type_symbol
_atom_site_label
_atom_site_fract_x
_atom_site_fract_y
_atom_site_fract_z
Si Si1 0.957828 0.993896 0.650194
Si Si2 0.008138 0.309750 0.638731
Si Si3 0.537960 0.261540 0.807743
Si Si4 0.101273 0.587756 0.545793
Si Si5 0.853510 0.261435 0.197074
Si Si6 0.611270 0.010964 0.286007
Si Si7 0.643099 0.795316 0.520792
O O1 0.882868 0.853059 0.732797
O O2 0.162842 0.008085 0.465688
O O3 0.000000 0.000000 0.500000
O O4 0.796688 0.089525 0.859802
O O5 0.113271 0.440082 0.526692
O O6 0.100093 0.236771 0.455685
O O7 0.000000 0.265955 0.750000
O O8 0.792400 0.313812 0.843549
O O9 0.500000 0.297419 0.750000
O O10 0.712529 0.332588 0.654627
O O11 0.560928 0.113159 0.788784
O O12 0.359738 0.296568 0.061199
O O13 0.000000 0.613179 0.750000
O O14 0.983927 0.633843 0.592775
O O15 0.500000 0.000000 0.500000
O O16 0.515044 0.136758 0.361165
O O17 0.500000 0.746206 0.750000
#
# Coordination Sequence:
#
# PCOD9238357 Si02
#       7
#     4   4   4   4   4   4   4
#     4  12  23  44  74 105 154 198 248 319 383 468
#     4  11  28  53  72 106 154 210 258 320 385 462
#     4  12  25  44  76 119 148 196 264 324 391 466
#     4  11  25  50  78 106 151 197 262 329 387 450
#     4  12  23  47  80 110 151 195 256 322 392 458
#     4  12  24  42  72 108 154 203 248 312 394 470
#     4  12  28  46  70 110 151 199 257 310 390 474
#
# _framework density 23.623839
#
# number of rings (size 3 to 8) (size 9 to 14) (size 15 to 20)
#    0.000    0.286    7.143    0.857    2.000    0.571 
#    5.143    0.000    0.000    0.000    0.000    0.000 
#    0.000    0.000    0.000    0.000    0.000    0.000 
#
# Total GULP energy -156122.356837 kJ/mol
# GULP energy per Si atom -5575.798458 kJ/mol
# Density = 2.357007 g / cm^3
# Si number density = 23.623839 Si / 1000 Ang^3
#
#
#
# Elastic Constant Matrix: (Units=GPa)
#
#
# Indices 1 2 3 4 5 6 
#
# 1 69.6906 39.0568 39.3561 0.0000 -22.2472 0.0000
# 2 39.0568 25.3180 -24.8993 0.0000 25.4432 0.0000
# 3 39.3561 -24.8993 139.8281 0.0000 10.5591 0.0000
# 4 0.0000 0.0000 0.0000 -28.3385 0.0000 45.2738
# 5 -22.2472 25.4432 10.5591 0.0000 17.2281 0.0000
# 6 0.0000 0.0000 0.0000 45.2738 0.0000 -3.6934
#
#
#
# Elastic Compliance Matrix: (Units=1/GPa)
#
#
# Indices 1 2 3 4 5 6 
#
# 1 0.002982 0.010689 0.002061 0.000000 -0.013197 0.000000
# 2 0.010689 -0.002418 -0.004981 0.000000 0.020426 0.000000
# 3 0.002061 -0.004981 0.005167 0.000000 0.006851 0.000000
# 4 0.000000 0.000000 0.000000 0.001899 0.000000 0.023276
# 5 -0.013197 0.020426 0.006851 0.000000 0.006637 0.000000
# 6 0.000000 0.000000 0.000000 0.023276 0.000000 0.014570
#
#
# Mechanical properties :
#
#
# Convention : Reuss Voigt Hill
#
# Bulk Modulus (GPa) = 47.02009 37.98489 42.50249
# Shear Modulus (GPa) = 245.20466 9.12745 127.16606
#
# Velocity S-wave (km/s) = 10.19906 1.96775 7.34482
# Velocity P-wave (km/s) = 12.59529 4.61267 9.48467
#
# Compressibility (1/GPa) = 0.02126751
#
# Stress axis : x y z
#
# Youngs Moduli (GPa) = 335.32133 -413.62886 193.52508
#
# Poissons Ratio (x) = 4.42115 -0.39877
# Poissons Ratio (y) = -3.58415 0.96403
# Poissons Ratio (z) = -0.69095 -2.06047
#
# Static dielectric constant tensor:
#      x y z
#    x 1.333910 0.000000 -0.832250 
#    y 0.000000 1.939000 0.000000 
#    z -0.832250 0.000000 0.689540 
# 
# From -- ./inp_files/70672.got.cif
#   From: 2010.05.17/outbox.cif.g08.bks.cpg/sg13_36_cif.got.tgz:70672.got - 2010.06.03 16:44:36.
