data_PCOD9238423
_publ_section_title
;
Structure prediction by ZEFSAII (Michael W. Deem and Ramdas Pophale) SiO2 
 PCOD9238423
Probable space group: P 2/C
;
_chemical_formula_sum "Si O2"
_cell_formula_units_Z 26
_cell_length_a 7.931585
_cell_length_b 5.097284
_cell_length_c 26.024171
_cell_angle_alpha 90.000000
_cell_angle_beta 109.680368
_cell_angle_gamma 90.000000
_cell_volume 990.685274
_symmetry_space_group_name_H-M "P 2/C"
_symmetry_group_IT_number 13
_symmetry_cell_setting 'monoclinic'
loop_
_space_group_symop_operation_xyz
x,y,z
-x,y,1/2-z
-x,-y,-z
x,-y,1/2+z
loop_
_atom_site_type_symbol
_atom_site_label
_atom_site_fract_x
_atom_site_fract_y
_atom_site_fract_z
Si Si1 0.957174 0.225711 0.858032
Si Si2 0.340313 0.940442 0.413813
Si Si3 0.175107 0.699179 0.600946
Si Si4 0.386306 0.305549 0.024004
Si Si5 0.500000 0.971446 0.750000
Si Si6 0.517126 0.374525 0.657969
Si Si7 0.181913 0.591222 0.747280
O O1 0.973408 0.489239 0.895049
O O2 0.872123 0.352977 0.797240
O O3 0.149611 0.093828 0.868148
O O4 0.861476 0.992697 0.881671
O O5 0.318541 0.892634 0.472376
O O6 0.473513 0.747719 0.397190
O O7 0.454317 0.201563 0.422925
O O8 0.489437 0.155372 0.698971
O O9 0.355051 0.575715 0.644102
O O10 0.218345 0.334089 0.044978
O O11 0.500000 0.500000 0.000000
O O12 0.321939 0.795680 0.737730
O O13 0.707071 0.491571 0.692746
O O14 0.000000 0.713816 0.750000
#
# Coordination Sequence:
#
# PCOD9238423 Si02
#       7
#     4   4   4   4   2   4   4
#     4  12  30  52  81 125 161 209 269 347 405 486
#     4  11  27  51  83 116 163 210 275 339 408 485
#     4  12  29  51  83 115 164 211 271 334 416 473
#     4  11  26  50  82 117 156 220 273 329 411 499
#     4  12  30  50  84 122 166 218 278 336 414 496
#     4  12  27  52  78 114 164 220 268 335 405 494
#     4  12  29  53  84 123 166 218 275 337 413 499
#
# _framework density 26.244461999999999
#
# number of rings (size 3 to 8) (size 9 to 14) (size 15 to 20)
#    0.000    0.308    3.077    3.231   17.231    3.077 
#    0.000    0.000    0.000    0.000    0.000    0.000 
#    0.000    0.000    0.000    0.000    0.000    0.000 
#
# Total GULP energy -145374.394122 kJ/mol
# GULP energy per Si atom -5591.322851 kJ/mol
# Density = 2.618473 g / cm^3
# Si number density = 26.244462 Si / 1000 Ang^3
#
#
#
# Elastic Constant Matrix: (Units=GPa)
#
#
# Indices 1 2 3 4 5 6 
#
# 1 112.0310 17.0552 8.6318 0.0000 -0.9364 0.0000
# 2 17.0552 115.5874 18.6087 0.0000 -13.7124 0.0000
# 3 8.6318 18.6087 81.3102 0.0000 -23.1852 0.0000
# 4 0.0000 0.0000 0.0000 48.6315 0.0000 -9.1454
# 5 -0.9364 -13.7124 -23.1852 0.0000 51.4681 0.0000
# 6 0.0000 0.0000 0.0000 -9.1454 0.0000 21.0434
#
#
#
# Elastic Compliance Matrix: (Units=1/GPa)
#
#
# Indices 1 2 3 4 5 6 
#
# 1 0.009182 -0.001285 -0.000838 0.000000 -0.000553 0.000000
# 2 -0.001285 0.009291 -0.001481 0.000000 0.001785 0.000000
# 3 -0.000838 -0.001481 0.014468 0.000000 0.006108 0.000000
# 4 0.000000 0.000000 0.000000 0.022393 0.000000 0.009732
# 5 -0.000553 0.001785 0.006108 0.000000 0.022646 0.000000
# 6 0.000000 0.000000 0.000000 0.009732 0.000000 0.051750
#
#
# Mechanical properties :
#
#
# Convention : Reuss Voigt Hill
#
# Bulk Modulus (GPa) = 38.86242 44.16888 41.51565
# Shear Modulus (GPa) = 34.36015 41.87079 38.11547
#
# Velocity S-wave (km/s) = 3.62226 3.99860 3.81507
# Velocity P-wave (km/s) = 5.68633 6.17938 5.93797
#
# Compressibility (1/GPa) = 0.02573180
#
# Stress axis : x y z
#
# Youngs Moduli (GPa) = 108.91167 107.62746 69.11768
#
# Poissons Ratio (x) = 0.13835 0.05794
# Poissons Ratio (y) = 0.14000 0.10236
# Poissons Ratio (z) = 0.09129 0.15940
#
# Static dielectric constant tensor:
#      x y z
#    x 2.428420 0.000000 -0.038540 
#    y 0.000000 2.136460 0.000000 
#    z -0.038540 0.000000 2.100750 
# 
# From -- ./inp_files/95408.got.cif
#   From: 2010.05.17/outbox.cif.g08.bks.cpg/sg13_48_cif.got.tgz:95408.got - 2010.06.03 16:44:36.
