data_PCOD9238397
_publ_section_title
;
Structure prediction by ZEFSAII (Michael W. Deem and Ramdas Pophale) SiO2 
 PCOD9238397
Probable space group: P 2/C
;
_chemical_formula_sum "Si O2"
_cell_formula_units_Z 22
_cell_length_a 21.482152
_cell_length_b 4.888337
_cell_length_c 13.642759
_cell_angle_alpha 90.000000
_cell_angle_beta 35.758519
_cell_angle_gamma 90.000000
_cell_volume 837.200129
_symmetry_space_group_name_H-M "P 2/C"
_symmetry_group_IT_number 13
_symmetry_cell_setting 'monoclinic'
loop_
_space_group_symop_operation_xyz
x,y,z
-x,y,1/2-z
-x,-y,-z
x,-y,1/2+z
loop_
_atom_site_type_symbol
_atom_site_label
_atom_site_fract_x
_atom_site_fract_y
_atom_site_fract_z
Si Si1 0.084235 0.693209 0.294366
Si Si2 0.287657 0.033822 0.043292
Si Si3 0.500000 0.684348 0.750000
Si Si4 0.722911 0.050462 0.214692
Si Si5 0.060734 0.220964 0.044222
Si Si6 0.638299 0.585284 0.216926
O O1 0.033774 0.431466 0.305289
O O2 0.096257 0.641363 0.395675
O O3 0.193983 0.835741 0.125996
O O4 0.303678 0.668196 0.805360
O O5 0.266446 0.104675 0.183368
O O6 0.300161 0.292095 0.956665
O O7 0.397603 0.870708 0.896935
O O8 0.473372 0.506253 0.688005
O O9 0.001752 0.066127 0.605697
O O10 0.829551 0.879730 0.047574
O O11 0.631397 0.835330 0.301627
#
# Coordination Sequence:
#
# PCOD9238397 Si02
#       6
#     4   4   2   4   4   4
#     4   9  19  36  72 103 150 189 236 291 374 452
#     4  11  27  50  77 112 155 214 252 324 396 451
#     4  12  28  52  72 104 158 202 264 336 386 468
#     4  11  26  46  82 111 160 198 255 321 395 456
#     4   9  18  38  66 115 142 186 238 292 366 468
#     4  12  27  49  74 115 152 198 267 325 374 483
#
# _framework density 26.278065000000002
#
# number of rings (size 3 to 8) (size 9 to 14) (size 15 to 20)
#    0.000    1.455    1.818    1.636    5.091    4.364 
#    0.000    0.909    4.000    0.000    0.000    0.000 
#    0.000    8.727    0.000    0.000    0.000    0.000 
#
# Total GULP energy -123169.792813 kJ/mol
# GULP energy per Si atom -5598.626946 kJ/mol
# Density = 2.621825 g / cm^3
# Si number density = 26.278065 Si / 1000 Ang^3
#
#
#
# Elastic Constant Matrix: (Units=GPa)
#
#
# Indices 1 2 3 4 5 6 
#
# 1 135.7856 50.9104 17.3401 0.0000 7.0259 0.0000
# 2 50.9104 169.8291 4.8756 0.0000 -5.6527 0.0000
# 3 17.3401 4.8756 56.9314 0.0000 -10.4220 0.0000
# 4 0.0000 0.0000 0.0000 31.5593 0.0000 -9.6811
# 5 7.0259 -5.6527 -10.4220 0.0000 47.1356 0.0000
# 6 0.0000 0.0000 0.0000 -9.6811 0.0000 53.0707
#
#
#
# Elastic Compliance Matrix: (Units=1/GPa)
#
#
# Indices 1 2 3 4 5 6 
#
# 1 0.008841 -0.002643 -0.002882 0.000000 -0.002272 0.000000
# 2 -0.002643 0.006711 0.000469 0.000000 0.001302 0.000000
# 3 -0.002882 0.000469 0.019272 0.000000 0.004747 0.000000
# 4 0.000000 0.000000 0.000000 0.033565 0.000000 0.006123
# 5 -0.002272 0.001302 0.004747 0.000000 0.022760 0.000000
# 6 0.000000 0.000000 0.000000 0.006123 0.000000 0.019960
#
#
# Mechanical properties :
#
#
# Convention : Reuss Voigt Hill
#
# Bulk Modulus (GPa) = 40.46977 56.53315 48.50146
# Shear Modulus (GPa) = 38.62254 45.64779 42.13517
#
# Velocity S-wave (km/s) = 3.83791 4.17238 4.00864
# Velocity P-wave (km/s) = 5.92228 6.69118 6.31844
#
# Compressibility (1/GPa) = 0.02470980
#
# Stress axis : x y z
#
# Youngs Moduli (GPa) = 113.10609 149.01918 51.88936
#
# Poissons Ratio (x) = 0.39390 0.14957
# Poissons Ratio (y) = 0.29897 -0.02433
# Poissons Ratio (z) = 0.32602 -0.06986
#
# Static dielectric constant tensor:
#      x y z
#    x 2.083850 0.000000 0.037620 
#    y 0.000000 2.011520 0.000000 
#    z 0.037620 0.000000 2.098760 
# 
# From -- ./inp_files/58176.got.cif
#   From: 2010.05.17/outbox.cif.g08.bks.cpg/sg13_30_cif.got.tgz:58176.got - 2010.06.03 16:44:36.
