data_PCOD9238944
_publ_section_title
;
Structure prediction by ZEFSAII (Michael W. Deem and Ramdas Pophale) SiO2 
 PCOD9238944
Probable space group: P 2/C
;
_chemical_formula_sum "Si O2"
_cell_formula_units_Z 24
_cell_length_a 24.000000
_cell_length_b 9.000000
_cell_length_c 18.000000
_cell_angle_alpha 90.000000
_cell_angle_beta 160.000000
_cell_angle_gamma 90.000000
_cell_volume 1329.774317
_symmetry_space_group_name_H-M "P 2/C"
_symmetry_group_IT_number 13
_symmetry_cell_setting 'monoclinic'
loop_
_space_group_symop_operation_xyz
x,y,z
-x,y,1/2-z
-x,-y,-z
x,-y,1/2+z
loop_
_atom_site_type_symbol
_atom_site_label
_atom_site_fract_x
_atom_site_fract_y
_atom_site_fract_z
Si Si1 0.835844 0.784577 0.995511
Si Si2 0.486866 0.409942 0.403857
Si Si3 0.640550 0.932693 0.232772
Si Si4 0.538988 0.297343 0.884340
Si Si5 0.214620 0.169537 0.726939
Si Si6 0.137203 0.823856 0.648212
O O1 0.691965 0.663665 0.821724
O O2 0.873441 0.799584 0.954155
O O3 0.739164 0.935871 0.895526
O O4 0.000000 0.763272 0.250000
O O5 0.500000 0.500000 0.500000
O O6 0.494898 0.535693 0.351599
O O7 0.630709 0.284360 0.568223
O O8 0.558053 0.818438 0.184968
O O9 0.770424 0.851048 0.342743
O O10 0.500000 0.000000 0.000000
O O11 0.500000 0.267400 0.750000
O O12 0.726492 0.275416 0.142266
O O13 0.037970 0.216572 0.535794
O O14 0.205714 0.995183 0.744717
#
# Coordination Sequence:
#
# PCOD9238944 Si02
#       6
#     4   4   4   4   4   4
#     4  11  23  41  69  97 128 172 230 272 322 394
#     4  12  21  43  66  88 133 190 210 263 338 407
#     4  11  18  43  69  91 125 179 216 263 335 397
#     4  12  25  40  64  98 134 173 223 269 331 401
#     4  10  20  37  73  89 123 174 221 265 336 388
#     4  10  21  42  63 100 127 165 227 287 318 379
#
# _framework density 18.048175000000001
#
# number of rings (size 3 to 8) (size 9 to 14) (size 15 to 20)
#    0.000    1.000    8.333    0.000    0.000    6.000 
#    3.000    2.500    0.000    0.000    0.000    0.000 
#    0.000    0.000    0.000    0.000    0.000    0.000 
#
# Total GULP energy -133640.416234 kJ/mol
# GULP energy per Si atom -5568.350676 kJ/mol
# Density = 1.800710 g / cm^3
# Si number density = 18.048175 Si / 1000 Ang^3
#
#
#
# Elastic Constant Matrix: (Units=GPa)
#
#
# Indices 1 2 3 4 5 6 
#
# 1 114.6969 49.9045 62.8071 0.0000 16.6430 0.0000
# 2 49.9045 104.8761 69.3637 0.0000 8.4235 0.0000
# 3 62.8071 69.3637 161.2779 0.0000 16.4004 0.0000
# 4 0.0000 0.0000 0.0000 30.5080 0.0000 5.3670
# 5 16.6430 8.4235 16.4004 0.0000 41.2436 0.0000
# 6 0.0000 0.0000 0.0000 5.3670 0.0000 32.2824
#
#
#
# Elastic Compliance Matrix: (Units=1/GPa)
#
#
# Indices 1 2 3 4 5 6 
#
# 1 0.012375 -0.003719 -0.002907 0.000000 -0.003078 0.000000
# 2 -0.003719 0.014452 -0.004814 0.000000 0.000464 0.000000
# 3 -0.002907 -0.004814 0.009571 0.000000 -0.001650 0.000000
# 4 0.000000 0.000000 0.000000 0.033766 0.000000 -0.005614
# 5 -0.003078 0.000464 -0.001650 0.000000 0.026050 0.000000
# 6 0.000000 0.000000 0.000000 -0.005614 0.000000 0.031910
#
#
# Mechanical properties :
#
#
# Convention : Reuss Voigt Hill
#
# Bulk Modulus (GPa) = 73.97809 82.77793 78.37801
# Shear Modulus (GPa) = 32.15253 34.05850 33.10551
#
# Velocity S-wave (km/s) = 4.22534 4.34878 4.28750
# Velocity P-wave (km/s) = 8.05499 8.43685 8.24813
#
# Compressibility (1/GPa) = 0.01351752
#
# Stress axis : x y z
#
# Youngs Moduli (GPa) = 80.80724 69.19677 104.48407
#
# Poissons Ratio (x) = 0.25733 0.30372
# Poissons Ratio (y) = 0.30051 0.50302
# Poissons Ratio (z) = 0.23489 0.33314
#
# Static dielectric constant tensor:
#      x y z
#    x 1.626430 0.000000 0.022640 
#    y 0.000000 1.679770 0.000000 
#    z 0.022640 0.000000 1.632280 
# 
# From -- ./inp_files/71326.got.cif
#   From: 2010.05.17/outbox.ucp.g08.bks.cvg/sg13_36_cif.got.tgz:71326.got - 2010.06.11 12:23:55.
