data_PCOD9238824
_publ_section_title
;
Structure prediction by ZEFSAII (Michael W. Deem and Ramdas Pophale) SiO2 
 PCOD9238824
Probable space group: P 2/C
;
_chemical_formula_sum "Si O2"
_cell_formula_units_Z 14
_cell_length_a 16.092388
_cell_length_b 5.109641
_cell_length_c 10.039148
_cell_angle_alpha 90.000000
_cell_angle_beta 141.818125
_cell_angle_gamma 90.000000
_cell_volume 510.279915
_symmetry_space_group_name_H-M "P 2/C"
_symmetry_group_IT_number 13
_symmetry_cell_setting 'monoclinic'
loop_
_space_group_symop_operation_xyz
x,y,z
-x,y,1/2-z
-x,-y,-z
x,-y,1/2+z
loop_
_atom_site_type_symbol
_atom_site_label
_atom_site_fract_x
_atom_site_fract_y
_atom_site_fract_z
Si Si1 0.917397 0.650150 0.509381
Si Si2 0.673585 0.300538 0.316234
Si Si3 0.716489 0.979691 0.138666
Si Si4 0.500000 0.635515 0.250000
O O1 0.784170 0.479127 0.380927
O O2 0.000000 0.500000 0.500000
O O3 0.864976 0.925907 0.385013
O O4 0.000000 0.685055 0.750000
O O5 0.650101 0.041646 0.199239
O O6 0.536514 0.448395 0.174444
O O7 0.720031 0.234091 0.524944
O O8 0.632348 0.199232 0.951693
#
# Coordination Sequence:
#
# PCOD9238824 Si02
#       4
#     4   4   4   2
#     4  12  28  55  85 125 170 221 291 351 421 514
#     4  12  28  51  83 127 169 224 282 358 420 506
#     4  12  28  51  86 120 167 228 274 356 426 491
#     4  12  28  54  82 128 174 216 298 340 434 506
#
# _framework density 27.435921
#
# number of rings (size 3 to 8) (size 9 to 14) (size 15 to 20)
#    0.000    0.000    2.857    5.143    4.000   10.286 
#    0.000    0.000    0.000    0.000    0.000    0.000 
#    0.000    0.000    0.000    0.000    0.000    0.000 
#
# Total GULP energy -78090.703915 kJ/mol
# GULP energy per Si atom -5577.907422 kJ/mol
# Density = 2.737348 g / cm^3
# Si number density = 27.435921 Si / 1000 Ang^3
#
#
#
# Elastic Constant Matrix: (Units=GPa)
#
#
# Indices 1 2 3 4 5 6 
#
# 1 216.3642 72.8606 73.0947 0.0000 -2.7716 0.0000
# 2 72.8606 90.8325 40.0916 0.0000 4.8260 0.0000
# 3 73.0947 40.0916 160.7836 0.0000 -57.9000 0.0000
# 4 0.0000 0.0000 0.0000 18.6344 0.0000 12.7463
# 5 -2.7716 4.8260 -57.9000 0.0000 53.0499 0.0000
# 6 0.0000 0.0000 0.0000 12.7463 0.0000 46.9182
#
#
#
# Elastic Compliance Matrix: (Units=1/GPa)
#
#
# Indices 1 2 3 4 5 6 
#
# 1 0.007033 -0.004114 -0.003137 0.000000 -0.002683 0.000000
# 2 -0.004114 0.016834 -0.004871 0.000000 -0.007062 0.000000
# 3 -0.003137 -0.004871 0.014763 0.000000 0.016392 0.000000
# 4 0.000000 0.000000 0.000000 0.065913 0.000000 -0.017907
# 5 -0.002683 -0.007062 0.016392 0.000000 0.037243 0.000000
# 6 0.000000 0.000000 0.000000 -0.017907 0.000000 0.026178
#
#
# Mechanical properties :
#
#
# Convention : Reuss Voigt Hill
#
# Bulk Modulus (GPa) = 69.50934 93.34155 81.42544
# Shear Modulus (GPa) = 25.38018 42.51606 33.94812
#
# Velocity S-wave (km/s) = 3.04480 3.94083 3.52143
# Velocity P-wave (km/s) = 6.14420 7.40286 6.80270
#
# Compressibility (1/GPa) = 0.01438656
#
# Stress axis : x y z
#
# Youngs Moduli (GPa) = 142.19168 59.40271 67.73528
#
# Poissons Ratio (x) = 0.24438 0.21251
# Poissons Ratio (y) = 0.58497 0.32991
# Poissons Ratio (z) = 0.44611 0.28932
#
# Static dielectric constant tensor:
#      x y z
#    x 2.064060 0.000000 0.073490 
#    y 0.000000 2.254330 0.000000 
#    z 0.073490 0.000000 2.181820 
# 
# From -- ./inp_files/17659.got.cif
#   From: 2010.05.17/outbox.cif.g08.bks.cpg/sg13_9_cif.got.tgz:17659.got - 2010.06.03 16:44:36.
