data_PCOD9238722
_publ_section_title
;
Structure prediction by ZEFSAII (Michael W. Deem and Ramdas Pophale) SiO2 
 PCOD9238722
Probable space group: P 2/C
;
_chemical_formula_sum "Si O2"
_cell_formula_units_Z 28
_cell_length_a 9.078929
_cell_length_b 8.178744
_cell_length_c 18.718680
_cell_angle_alpha 90.000000
_cell_angle_beta 132.213234
_cell_angle_gamma 90.000000
_cell_volume 1029.459212
_symmetry_space_group_name_H-M "P 2/C"
_symmetry_group_IT_number 13
_symmetry_cell_setting 'monoclinic'
loop_
_space_group_symop_operation_xyz
x,y,z
-x,y,1/2-z
-x,-y,-z
x,-y,1/2+z
loop_
_atom_site_type_symbol
_atom_site_label
_atom_site_fract_x
_atom_site_fract_y
_atom_site_fract_z
Si Si1 0.318006 0.810620 0.515824
Si Si2 0.381271 0.735769 0.004386
Si Si3 0.771184 0.346516 0.772847
Si Si4 0.238477 0.520547 0.077033
Si Si5 0.620155 0.026969 0.219346
Si Si6 0.832953 0.490311 0.657142
Si Si7 0.960068 0.023315 0.153957
O O1 0.409604 0.778299 0.466078
O O2 0.310857 0.649435 0.563741
O O3 0.105142 0.896396 0.430907
O O4 0.475012 0.932590 0.606327
O O5 0.303063 0.570523 0.943447
O O6 0.229453 0.862308 0.917204
O O7 0.310936 0.690260 0.061824
O O8 0.717168 0.445571 0.825233
O O9 0.692603 0.430304 0.675066
O O10 0.006475 0.371530 0.828904
O O11 0.693668 0.162097 0.746815
O O12 0.000000 0.500000 0.000000
O O13 0.500000 0.067031 0.250000
O O14 0.832905 0.115212 0.293132
O O15 0.000000 0.604680 0.750000
O O16 0.000000 0.965713 0.250000
#
# Coordination Sequence:
#
# PCOD9238722 Si02
#       7
#     4   4   4   4   4   4   4
#     4  12  31  52  81 133 168 231 294 351 425 536
#     4  12  25  48  84 123 165 223 290 360 417 520
#     4   9  23  45  77 122 165 224 274 347 426 506
#     4  12  25  49  85 123 171 217 288 362 434 498
#     4  12  30  49  82 125 172 225 284 357 433 513
#     4   8  20  41  77 113 159 216 289 328 430 494
#     4  12  29  53  85 113 178 228 286 356 441 507
#
# _framework density 27.198746
#
# number of rings (size 3 to 8) (size 9 to 14) (size 15 to 20)
#    0.857    0.000    2.857    2.143    6.000    2.857 
#    0.000    0.714    0.000    0.000    0.000    0.000 
#    0.000    0.000    0.000    0.000    0.000    0.000 
#
# Total GULP energy -156281.494500 kJ/mol
# GULP energy per Si atom -5581.481946 kJ/mol
# Density = 2.713684 g / cm^3
# Si number density = 27.198746 Si / 1000 Ang^3
#
#
#
# Elastic Constant Matrix: (Units=GPa)
#
#
# Indices 1 2 3 4 5 6 
#
# 1 158.0705 26.0047 73.1081 0.0000 -12.5601 0.0000
# 2 26.0047 97.8962 36.4110 0.0000 -10.8724 0.0000
# 3 73.1081 36.4110 148.0329 0.0000 -1.0693 0.0000
# 4 0.0000 0.0000 0.0000 49.3494 0.0000 2.4416
# 5 -12.5601 -10.8724 -1.0693 0.0000 73.4873 0.0000
# 6 0.0000 0.0000 0.0000 2.4416 0.0000 40.5227
#
#
#
# Elastic Compliance Matrix: (Units=1/GPa)
#
#
# Indices 1 2 3 4 5 6 
#
# 1 0.008365 -0.000602 -0.003974 0.000000 0.001283 0.000000
# 2 -0.000602 0.011484 -0.002516 0.000000 0.001560 0.000000
# 3 -0.003974 -0.002516 0.009330 0.000000 -0.000916 0.000000
# 4 0.000000 0.000000 0.000000 0.020324 0.000000 -0.001225
# 5 0.001283 0.001560 -0.000916 0.000000 0.014044 0.000000
# 6 0.000000 0.000000 0.000000 -0.001225 0.000000 0.024751
#
#
# Mechanical properties :
#
#
# Convention : Reuss Voigt Hill
#
# Bulk Modulus (GPa) = 66.68677 75.00524 70.84600
# Shear Modulus (GPa) = 46.51966 50.57027 48.54497
#
# Velocity S-wave (km/s) = 4.14014 4.31662 4.22930
# Velocity P-wave (km/s) = 6.88664 7.24437 7.06777
#
# Compressibility (1/GPa) = 0.01499548
#
# Stress axis : x y z
#
# Youngs Moduli (GPa) = 119.54298 87.07927 107.17894
#
# Poissons Ratio (x) = 0.05238 0.42593
# Poissons Ratio (y) = 0.07191 0.26969
# Poissons Ratio (z) = 0.47507 0.21912
#
# Static dielectric constant tensor:
#      x y z
#    x 2.211030 0.000000 0.012770 
#    y 0.000000 2.362460 0.000000 
#    z 0.012770 0.000000 2.265220 
# 
# From -- ./inp_files/76008.got.cif
#   From: 2010.05.17/outbox.cif.g08.bks.cpg/sg13_39_cif.got.tgz:76008.got - 2010.06.03 16:44:36.
