data_PCOD9238218
_publ_section_title
;
Structure prediction by ZEFSAII (Michael W. Deem and Ramdas Pophale) SiO2 
 PCOD9238218
Probable space group: P 2/C
;
_chemical_formula_sum "Si O2"
_cell_formula_units_Z 14
_cell_length_a 7.734574
_cell_length_b 7.022561
_cell_length_c 10.601172
_cell_angle_alpha 90.000000
_cell_angle_beta 87.535685
_cell_angle_gamma 90.000000
_cell_volume 575.286227
_symmetry_space_group_name_H-M "P 2/C"
_symmetry_group_IT_number 13
_symmetry_cell_setting 'monoclinic'
loop_
_space_group_symop_operation_xyz
x,y,z
-x,y,1/2-z
-x,-y,-z
x,-y,1/2+z
loop_
_atom_site_type_symbol
_atom_site_label
_atom_site_fract_x
_atom_site_fract_y
_atom_site_fract_z
Si Si1 0.756365 0.215701 0.190703
Si Si2 0.410700 0.133271 0.898903
Si Si3 0.923584 0.299530 0.455480
Si Si4 0.500000 0.465817 0.750000
O O1 0.839001 0.287322 0.319062
O O2 0.624530 0.388236 0.173413
O O3 0.898272 0.186136 0.076817
O O4 0.661422 0.014686 0.204002
O O5 0.539073 0.305742 0.855415
O O6 0.232106 0.230518 0.952113
O O7 0.500000 0.000000 0.000000
O O8 0.000000 0.500000 0.500000
#
# Coordination Sequence:
#
# PCOD9238218 Si02
#       4
#     4   4   4   2
#     4  11  26  46  71 110 142 190 257 295 366 458
#     4  12  26  46  75 107 145 196 247 311 370 435
#     4  11  24  49  73 102 148 197 238 307 376 435
#     4  12  24  44  70 104 150 184 248 308 362 446
#
# _framework density 24.335711
#
# number of rings (size 3 to 8) (size 9 to 14) (size 15 to 20)
#    0.000    0.571    2.857    5.143    4.000    2.286 
#   10.286    0.000    0.000    0.000    0.000    0.000 
#    0.000    0.000    0.000    0.000    0.000    0.000 
#
# Total GULP energy -77969.911814 kJ/mol
# GULP energy per Si atom -5569.279415 kJ/mol
# Density = 2.428032 g / cm^3
# Si number density = 24.335711 Si / 1000 Ang^3
#
#
#
# Elastic Constant Matrix: (Units=GPa)
#
#
# Indices 1 2 3 4 5 6 
#
# 1 76.8841 46.3470 11.6302 0.0000 -20.9324 0.0000
# 2 46.3470 153.0559 32.7577 0.0000 -3.2936 0.0000
# 3 11.6302 32.7577 58.6279 0.0000 -5.1977 0.0000
# 4 0.0000 0.0000 0.0000 51.4408 0.0000 -9.5149
# 5 -20.9324 -3.2936 -5.1977 0.0000 48.4249 0.0000
# 6 0.0000 0.0000 0.0000 -9.5149 0.0000 52.4552
#
#
#
# Elastic Compliance Matrix: (Units=1/GPa)
#
#
# Indices 1 2 3 4 5 6 
#
# 1 0.018305 -0.005391 0.000051 0.000000 0.007551 0.000000
# 2 -0.005391 0.009009 -0.004156 0.000000 -0.002164 0.000000
# 3 0.000051 -0.004156 0.019532 0.000000 0.001836 0.000000
# 4 0.000000 0.000000 0.000000 0.020115 0.000000 0.003649
# 5 0.007551 -0.002164 0.001836 0.000000 0.023965 0.000000
# 6 0.000000 0.000000 0.000000 0.003649 0.000000 0.019726
#
#
# Mechanical properties :
#
#
# Convention : Reuss Voigt Hill
#
# Bulk Modulus (GPa) = 35.90415 52.22643 44.06529
# Shear Modulus (GPa) = 35.98996 43.65305 39.82151
#
# Velocity S-wave (km/s) = 3.84981 4.23991 4.04956
# Velocity P-wave (km/s) = 5.87768 6.74362 6.32549
#
# Compressibility (1/GPa) = 0.02785193
#
# Stress axis : x y z
#
# Youngs Moduli (GPa) = 54.63063 111.00001 51.19919
#
# Poissons Ratio (x) = 0.59842 -0.00259
# Poissons Ratio (y) = 0.29452 0.21279
# Poissons Ratio (z) = -0.00276 0.46132
#
# Static dielectric constant tensor:
#      x y z
#    x 2.134840 0.000000 -0.144910 
#    y 0.000000 1.908820 0.000000 
#    z -0.144910 0.000000 2.212910 
# 
# From -- ./inp_files/27007.got.cif
#   From: 2010.05.17/outbox.cif.g08.bks.cpg/sg13_14_cif.got.tgz:27007.got - 2010.06.03 16:44:36.
