data_PCOD9238285
_publ_section_title
;
Structure prediction by ZEFSAII (Michael W. Deem and Ramdas Pophale) SiO2 
 PCOD9238285
Probable space group: P 2/C
;
_chemical_formula_sum "Si O2"
_cell_formula_units_Z 20
_cell_length_a 14.311050
_cell_length_b 5.807792
_cell_length_c 19.192483
_cell_angle_alpha 90.000000
_cell_angle_beta 30.353521
_cell_angle_gamma 90.000000
_cell_volume 806.106022
_symmetry_space_group_name_H-M "P 2/C"
_symmetry_group_IT_number 13
_symmetry_cell_setting 'monoclinic'
loop_
_space_group_symop_operation_xyz
x,y,z
-x,y,1/2-z
-x,-y,-z
x,-y,1/2+z
loop_
_atom_site_type_symbol
_atom_site_label
_atom_site_fract_x
_atom_site_fract_y
_atom_site_fract_z
Si Si1 0.500000 0.800908 0.250000
Si Si2 0.878957 0.192329 0.121477
Si Si3 0.788076 0.782022 0.404724
Si Si4 0.184919 0.468361 0.472302
Si Si5 0.439330 0.088548 0.639225
Si Si6 0.500000 0.500000 0.000000
O O1 0.348755 0.641325 0.381807
O O2 0.583590 0.924807 0.262450
O O3 0.790908 0.353897 0.118651
O O4 0.730645 0.081159 0.269816
O O5 0.007103 0.368376 0.081815
O O6 0.000000 0.000000 0.000000
O O7 0.805686 0.722039 0.475031
O O8 0.685335 0.576948 0.428863
O O9 0.000000 0.831366 0.250000
O O10 0.636533 0.982498 0.492981
O O11 0.424849 0.331513 0.611692
#
# Coordination Sequence:
#
# PCOD9238285 Si02
#       6
#     2   4   4   4   4   2
#     4  12  22  48  78 110 152 198 254 334 396 468
#     4  11  25  45  80 118 153 199 263 342 408 483
#     4  12  30  50  78 110 159 217 269 331 408 491
#     4  11  25  46  76 118 153 200 268 331 407 482
#     4  12  27  50  79 115 161 208 272 337 411 488
#     4  12  30  54  74 114 164 216 266 330 404 510
#
# _framework density 24.810631999999998
#
# number of rings (size 3 to 8) (size 9 to 14) (size 15 to 20)
#    0.000    0.400    4.000    3.000    5.600    0.800 
#    0.000    0.000    0.000    0.000    0.000    0.000 
#    0.000    0.000    0.000    0.000    0.000    0.000 
#
# Total GULP energy -111399.893501 kJ/mol
# GULP energy per Si atom -5569.994675 kJ/mol
# Density = 2.475416 g / cm^3
# Si number density = 24.810632 Si / 1000 Ang^3
#
#
#
# Elastic Constant Matrix: (Units=GPa)
#
#
# Indices 1 2 3 4 5 6 
#
# 1 104.0875 6.5975 32.7374 0.0000 4.8584 0.0000
# 2 6.5975 60.0016 28.5763 0.0000 -2.0915 0.0000
# 3 32.7374 28.5763 124.6053 0.0000 -10.8821 0.0000
# 4 0.0000 0.0000 0.0000 58.0838 0.0000 -13.8007
# 5 4.8584 -2.0915 -10.8821 0.0000 30.8899 0.0000
# 6 0.0000 0.0000 0.0000 -13.8007 0.0000 14.2238
#
#
#
# Elastic Compliance Matrix: (Units=1/GPa)
#
#
# Indices 1 2 3 4 5 6 
#
# 1 0.010698 0.000203 -0.003098 0.000000 -0.002760 0.000000
# 2 0.000203 0.018716 -0.004372 0.000000 -0.000305 0.000000
# 3 -0.003098 -0.004372 0.010172 0.000000 0.003775 0.000000
# 4 0.000000 0.000000 0.000000 0.022375 0.000000 0.021709
# 5 -0.002760 -0.000305 0.003775 0.000000 0.034116 0.000000
# 6 0.000000 0.000000 0.000000 0.021709 0.000000 0.091368
#
#
# Mechanical properties :
#
#
# Convention : Reuss Voigt Hill
#
# Bulk Modulus (GPa) = 39.91958 47.16854 43.54406
# Shear Modulus (GPa) = 23.77242 35.35839 29.56541
#
# Velocity S-wave (km/s) = 3.09877 3.77919 3.45576
# Velocity P-wave (km/s) = 5.37845 6.17217 5.78893
#
# Compressibility (1/GPa) = 0.02505036
#
# Stress axis : x y z
#
# Youngs Moduli (GPa) = 93.47790 53.43162 98.31234
#
# Poissons Ratio (x) = -0.01085 0.30459
# Poissons Ratio (y) = -0.01898 0.42983
# Poissons Ratio (z) = 0.28962 0.23361
#
# Static dielectric constant tensor:
#      x y z
#    x 1.987430 0.000000 -0.016870 
#    y 0.000000 2.023190 0.000000 
#    z -0.016870 0.000000 1.976780 
# 
# From -- ./inp_files/69142.got.cif
#   From: 2010.05.17/outbox.cif.g08.bks.cpg/sg13_35_cif.got.tgz:69142.got - 2010.06.03 16:44:36.
