data_PCOD9238775
_publ_section_title
;
Structure prediction by ZEFSAII (Michael W. Deem and Ramdas Pophale) SiO2 
 PCOD9238775
Probable space group: P 2/C
;
_chemical_formula_sum "Si O2"
_cell_formula_units_Z 12
_cell_length_a 8.861639
_cell_length_b 5.896507
_cell_length_c 13.850886
_cell_angle_alpha 90.000000
_cell_angle_beta 32.183300
_cell_angle_gamma 90.000000
_cell_volume 385.488775
_symmetry_space_group_name_H-M "P 2/C"
_symmetry_group_IT_number 13
_symmetry_cell_setting 'monoclinic'
loop_
_space_group_symop_operation_xyz
x,y,z
-x,y,1/2-z
-x,-y,-z
x,-y,1/2+z
loop_
_atom_site_type_symbol
_atom_site_label
_atom_site_fract_x
_atom_site_fract_y
_atom_site_fract_z
Si Si1 0.500000 0.500000 0.500000
Si Si2 0.914035 0.402861 0.444162
Si Si3 0.500000 0.036619 0.750000
Si Si4 0.716786 0.919172 0.837959
O O1 0.688224 0.530712 0.501686
O O2 0.555276 0.818521 0.448768
O O3 0.746695 0.177690 0.564606
O O4 0.000000 0.500000 0.500000
O O5 0.194050 0.379048 0.224181
O O6 0.666221 0.927551 0.749528
O O7 0.000000 0.962975 0.750000
#
# Coordination Sequence:
#
# PCOD9238775 Si02
#       4
#     2   4   2   4
#     4  12  26  52  80 118 162 216 282 340 428 502
#     4  12  27  52  85 120 169 223 280 356 425 517
#     4  12  26  52  80 120 168 218 286 346 432 510
#     4  12  27  50  80 122 165 219 282 348 428 508
#
# _framework density 31.129311000000001
#
# number of rings (size 3 to 8) (size 9 to 14) (size 15 to 20)
#    0.000    0.000    3.333    6.000    0.000    0.000 
#    6.000    0.000    0.000    0.000    0.000    0.000 
#    0.000    0.000    0.000    0.000    0.000    0.000 
#
# Total GULP energy -66993.617873 kJ/mol
# GULP energy per Si atom -5582.801489 kJ/mol
# Density = 3.105846 g / cm^3
# Si number density = 31.129311 Si / 1000 Ang^3
#
#
#
# Elastic Constant Matrix: (Units=GPa)
#
#
# Indices 1 2 3 4 5 6 
#
# 1 505.8327 107.3032 132.9365 0.0000 -4.7820 0.0000
# 2 107.3032 145.7306 95.4357 0.0000 -5.8376 0.0000
# 3 132.9365 95.4357 246.6218 0.0000 -33.2170 0.0000
# 4 0.0000 0.0000 0.0000 91.3815 0.0000 4.9026
# 5 -4.7820 -5.8376 -33.2170 0.0000 91.6964 0.0000
# 6 0.0000 0.0000 0.0000 4.9026 0.0000 106.0935
#
#
#
# Elastic Compliance Matrix: (Units=1/GPa)
#
#
# Indices 1 2 3 4 5 6 
#
# 1 0.002472 -0.001252 -0.000885 0.000000 -0.000271 0.000000
# 2 -0.001252 0.009873 -0.003227 0.000000 -0.000606 0.000000
# 3 -0.000885 -0.003227 0.006042 0.000000 0.001937 0.000000
# 4 0.000000 0.000000 0.000000 0.010970 0.000000 -0.000507
# 5 -0.000271 -0.000606 0.001937 0.000000 0.011554 0.000000
# 6 0.000000 0.000000 0.000000 -0.000507 0.000000 0.009449
#
#
# Mechanical properties :
#
#
# Convention : Reuss Voigt Hill
#
# Bulk Modulus (GPa) = 130.56853 174.39288 152.48070
# Shear Modulus (GPa) = 78.56431 95.33492 86.94961
#
# Velocity S-wave (km/s) = 5.02920 5.54003 5.29078
# Velocity P-wave (km/s) = 8.70395 9.85222 9.29583
#
# Compressibility (1/GPa) = 0.00765881
#
# Stress axis : x y z
#
# Youngs Moduli (GPa) = 404.45113 101.28577 165.52143
#
# Poissons Ratio (x) = 0.12680 0.14646
# Poissons Ratio (y) = 0.50635 0.53420
# Poissons Ratio (z) = 0.35786 0.32689
#
# Static dielectric constant tensor:
#      x y z
#    x 2.124790 0.000000 0.110900 
#    y 0.000000 3.730960 0.000000 
#    z 0.110900 0.000000 2.871550 
# 
# From -- ./inp_files/10484.got.cif
#   From: 2010.05.17/outbox.cif.g08.bks.cpg/sg13_6_cif.got.tgz:10484.got - 2010.06.03 16:44:36.
