data_PCOD9238441
_publ_section_title
;
Structure prediction by ZEFSAII (Michael W. Deem and Ramdas Pophale) SiO2 
 PCOD9238441
Probable space group: P 2/C
;
_chemical_formula_sum "Si O2"
_cell_formula_units_Z 18
_cell_length_a 11.493701
_cell_length_b 4.984491
_cell_length_c 17.425829
_cell_angle_alpha 90.000000
_cell_angle_beta 138.461380
_cell_angle_gamma 90.000000
_cell_volume 662.017367
_symmetry_space_group_name_H-M "P 2/C"
_symmetry_group_IT_number 13
_symmetry_cell_setting 'monoclinic'
loop_
_space_group_symop_operation_xyz
x,y,z
-x,y,1/2-z
-x,-y,-z
x,-y,1/2+z
loop_
_atom_site_type_symbol
_atom_site_label
_atom_site_fract_x
_atom_site_fract_y
_atom_site_fract_z
Si Si1 0.174388 0.769883 0.035963
Si Si2 0.393533 0.715830 0.624224
Si Si3 0.000000 0.121465 0.750000
Si Si4 0.124843 0.470297 0.681005
Si Si5 0.643600 0.152911 0.122224
O O1 0.302003 0.561154 0.053330
O O2 0.168400 0.675861 0.122320
O O3 0.243351 0.069051 0.066942
O O4 0.984819 0.727985 0.902798
O O5 0.500000 0.624755 0.750000
O O6 0.539806 0.883737 0.650620
O O7 0.001644 0.303372 0.826274
O O8 0.824340 0.953263 0.676052
O O9 0.288097 0.544616 0.818207
O O10 0.500000 0.000000 0.000000
#
# Coordination Sequence:
#
# PCOD9238441 Si02
#       5
#     4   4   2   4   4
#     4  11  27  48  82 116 157 213 271 342 399 482
#     4  12  25  49  79 118 160 209 274 333 409 477
#     4  12  28  50  76 110 164 208 268 326 416 494
#     4  11  27  49  76 114 158 211 272 334 409 487
#     4  12  29  49  78 115 162 213 268 339 414 490
#
# _framework density 27.189619
#
# number of rings (size 3 to 8) (size 9 to 14) (size 15 to 20)
#    0.000    0.444    2.222    4.000   12.444    2.667 
#    0.000    0.000    0.000    0.000    0.000    0.000 
#    0.000    0.000    0.000    0.000    0.000    0.000 
#
# Total GULP energy -100411.179764 kJ/mol
# GULP energy per Si atom -5578.398876 kJ/mol
# Density = 2.712773 g / cm^3
# Si number density = 27.189619 Si / 1000 Ang^3
#
#
#
# Elastic Constant Matrix: (Units=GPa)
#
#
# Indices 1 2 3 4 5 6 
#
# 1 160.3462 18.9250 33.0658 0.0000 25.0445 0.0000
# 2 18.9250 100.3907 34.2997 0.0000 14.8405 0.0000
# 3 33.0658 34.2997 114.4167 0.0000 13.9802 0.0000
# 4 0.0000 0.0000 0.0000 51.2811 0.0000 9.3908
# 5 25.0445 14.8405 13.9802 0.0000 35.6531 0.0000
# 6 0.0000 0.0000 0.0000 9.3908 0.0000 41.8612
#
#
#
# Elastic Compliance Matrix: (Units=1/GPa)
#
#
# Indices 1 2 3 4 5 6 
#
# 1 0.007261 -0.000203 -0.001496 0.000000 -0.004429 0.000000
# 2 -0.000203 0.011531 -0.002971 0.000000 -0.003492 0.000000
# 3 -0.001496 -0.002971 0.010276 0.000000 -0.001741 0.000000
# 4 0.000000 0.000000 0.000000 0.020336 0.000000 -0.004562
# 5 -0.004429 -0.003492 -0.001741 0.000000 0.033296 0.000000
# 6 0.000000 0.000000 0.000000 -0.004562 0.000000 0.024912
#
#
# Mechanical properties :
#
#
# Convention : Reuss Voigt Hill
#
# Bulk Modulus (GPa) = 50.69322 60.85939 55.77631
# Shear Modulus (GPa) = 40.47684 45.01663 42.74674
#
# Velocity S-wave (km/s) = 3.86254 4.07339 3.96936
# Velocity P-wave (km/s) = 6.21104 6.67497 6.44718
#
# Compressibility (1/GPa) = 0.01972650
#
# Stress axis : x y z
#
# Youngs Moduli (GPa) = 137.72578 86.72470 97.31447
#
# Poissons Ratio (x) = 0.01758 0.14562
# Poissons Ratio (y) = 0.02792 0.28916
# Poissons Ratio (z) = 0.20609 0.25769
#
# Static dielectric constant tensor:
#      x y z
#    x 2.081380 0.000000 0.067720 
#    y 0.000000 2.161380 0.000000 
#    z 0.067720 0.000000 2.193050 
# 
# From -- ./inp_files/77057.got.cif
#   From: 2010.05.17/outbox.cif.g08.bks.cpg/sg13_39_cif.got.tgz:77057.got - 2010.06.03 16:44:36.
