data_PCOD9238128
_publ_section_title
;
Structure prediction by ZEFSAII (Michael W. Deem and Ramdas Pophale) SiO2 
 PCOD9238128
Probable space group: P 2/C
;
_chemical_formula_sum "Si O2"
_cell_formula_units_Z 14
_cell_length_a 8.198829
_cell_length_b 7.496512
_cell_length_c 9.378214
_cell_angle_alpha 90.000000
_cell_angle_beta 63.883902
_cell_angle_gamma 90.000000
_cell_volume 517.560450
_symmetry_space_group_name_H-M "P 2/C"
_symmetry_group_IT_number 13
_symmetry_cell_setting 'monoclinic'
loop_
_space_group_symop_operation_xyz
x,y,z
-x,y,1/2-z
-x,-y,-z
x,-y,1/2+z
loop_
_atom_site_type_symbol
_atom_site_label
_atom_site_fract_x
_atom_site_fract_y
_atom_site_fract_z
Si Si1 0.211524 0.741194 0.152368
Si Si2 0.883250 0.332629 0.103166
Si Si3 0.500000 0.257064 0.750000
Si Si4 0.779607 0.144975 0.415271
O O1 0.340568 0.651950 0.219728
O O2 0.000000 0.692459 0.250000
O O3 0.220756 0.955386 0.162250
O O4 0.257071 0.701895 0.970528
O O5 0.791549 0.302674 0.293041
O O6 0.041417 0.180696 0.057934
O O7 0.000000 0.500000 0.000000
O O8 0.609544 0.155112 0.585001
#
# Coordination Sequence:
#
# PCOD9238128 Si02
#       4
#     4   4   2   4
#     4  12  23  46  76 106 147 187 240 300 357 426
#     4  11  25  45  75 105 144 198 237 290 366 430
#     4  12  26  40  76 116 136 186 242 300 356 424
#     4  11  24  45  71 107 145 187 244 296 361 423
#
# _framework density 27.049976999999998
#
# number of rings (size 3 to 8) (size 9 to 14) (size 15 to 20)
#    0.000    0.571    5.714    3.429    4.000    1.143 
#    0.000    5.714    0.000    1.714    0.000    0.000 
#    0.000    0.000    0.000    0.000    0.000    0.000 
#
# Total GULP energy -78267.087493 kJ/mol
# GULP energy per Si atom -5590.506249 kJ/mol
# Density = 2.698841 g / cm^3
# Si number density = 27.049977 Si / 1000 Ang^3
#
#
#
# Elastic Constant Matrix: (Units=GPa)
#
#
# Indices 1 2 3 4 5 6 
#
# 1 148.4134 14.2164 62.8202 0.0000 33.9142 0.0000
# 2 14.2164 133.7959 49.5044 0.0000 17.8057 0.0000
# 3 62.8202 49.5044 207.6514 0.0000 7.9629 0.0000
# 4 0.0000 0.0000 0.0000 27.1714 0.0000 17.5045
# 5 33.9142 17.8057 7.9629 0.0000 77.2156 0.0000
# 6 0.0000 0.0000 0.0000 17.5045 0.0000 16.4145
#
#
#
# Elastic Compliance Matrix: (Units=1/GPa)
#
#
# Indices 1 2 3 4 5 6 
#
# 1 0.008616 0.000528 -0.002593 0.000000 -0.003639 0.000000
# 2 0.000528 0.008457 -0.002101 0.000000 -0.001965 0.000000
# 3 -0.002593 -0.002101 0.006063 0.000000 0.000998 0.000000
# 4 0.000000 0.000000 0.000000 0.117584 0.000000 -0.125391
# 5 -0.003639 -0.001965 0.000998 0.000000 0.014899 0.000000
# 6 0.000000 0.000000 0.000000 -0.125391 0.000000 0.194639
#
#
# Mechanical properties :
#
#
# Convention : Reuss Voigt Hill
#
# Bulk Modulus (GPa) = 67.54453 82.54918 75.04685
# Shear Modulus (GPa) = 13.75425 48.38160 31.06793
#
# Velocity S-wave (km/s) = 2.25739 4.23377 3.39269
# Velocity P-wave (km/s) = 5.64082 7.38128 6.56895
#
# Compressibility (1/GPa) = 0.01480505
#
# Stress axis : x y z
#
# Youngs Moduli (GPa) = 116.05684 118.24943 164.94209
#
# Poissons Ratio (x) = -0.06246 0.42771
# Poissons Ratio (y) = -0.06130 0.34646
# Poissons Ratio (z) = 0.30095 0.24838
#
# Static dielectric constant tensor:
#      x y z
#    x 2.153730 0.000000 -0.001610 
#    y 0.000000 2.110580 0.000000 
#    z -0.001610 0.000000 2.207870 
# 
# From -- ./inp_files/10610.got.cif
#   From: 2010.05.17/outbox.cif.g08.bks.cpg/sg13_6_cif.got.tgz:10610.got - 2010.06.03 16:44:36.
