data_PCOD9238258
_publ_section_title
;
Structure prediction by ZEFSAII (Michael W. Deem and Ramdas Pophale) SiO2 
 PCOD9238258
Probable space group: P 2/C
;
_chemical_formula_sum "Si O2"
_cell_formula_units_Z 18
_cell_length_a 21.828940
_cell_length_b 8.127352
_cell_length_c 15.740698
_cell_angle_alpha 90.000000
_cell_angle_beta 162.241753
_cell_angle_gamma 90.000000
_cell_volume 851.740914
_symmetry_space_group_name_H-M "P 2/C"
_symmetry_group_IT_number 13
_symmetry_cell_setting 'monoclinic'
loop_
_space_group_symop_operation_xyz
x,y,z
-x,y,1/2-z
-x,-y,-z
x,-y,1/2+z
loop_
_atom_site_type_symbol
_atom_site_label
_atom_site_fract_x
_atom_site_fract_y
_atom_site_fract_z
Si Si1 0.689011 0.707610 0.944613
Si Si2 0.000000 0.133920 0.250000
Si Si3 0.285225 0.678360 0.002990
Si Si4 0.697451 0.895181 0.776044
Si Si5 0.059627 0.186104 0.049964
O O1 0.500000 0.767859 0.750000
O O2 0.691135 0.790917 0.854619
O O3 0.680285 0.510607 0.926364
O O4 0.880365 0.748527 0.254900
O O5 0.180469 0.232118 0.444041
O O6 0.112439 0.016578 0.464452
O O7 0.118749 0.705970 0.709588
O O8 0.500000 0.743088 0.250000
O O9 0.745652 0.799819 0.753727
O O10 0.500000 0.000000 0.500000
O O11 0.000000 0.000000 0.000000
#
# Coordination Sequence:
#
# PCOD9238258 Si02
#       5
#     4   2   4   4   4
#     4  11  25  45  67 101 144 181 229 298 354 424
#     4  12  24  44  72  98 144 184 236 294 346 426
#     4  11  26  46  67 103 143 186 233 292 359 422
#     4  12  24  43  71 104 134 185 242 289 350 423
#     4  12  22  43  69  98 137 182 236 289 348 421
#
# _framework density 21.133187
#
# number of rings (size 3 to 8) (size 9 to 14) (size 15 to 20)
#    0.000    0.444    4.444    3.333    3.111    1.778 
#    0.000    3.333    0.000    0.000    0.000    0.000 
#    0.000    0.000    0.000    0.000    0.000    0.000 
#
# Total GULP energy -100551.702019 kJ/mol
# GULP energy per Si atom -5586.205668 kJ/mol
# Density = 2.108509 g / cm^3
# Si number density = 21.133187 Si / 1000 Ang^3
#
#
#
# Elastic Constant Matrix: (Units=GPa)
#
#
# Indices 1 2 3 4 5 6 
#
# 1 144.7608 40.2756 9.4981 0.0000 5.2433 0.0000
# 2 40.2756 59.6591 9.2121 0.0000 3.8371 0.0000
# 3 9.4981 9.2121 80.2937 0.0000 4.6071 0.0000
# 4 0.0000 0.0000 0.0000 31.5582 0.0000 -0.9719
# 5 5.2433 3.8371 4.6071 0.0000 46.7193 0.0000
# 6 0.0000 0.0000 0.0000 -0.9719 0.0000 38.5396
#
#
#
# Elastic Compliance Matrix: (Units=1/GPa)
#
#
# Indices 1 2 3 4 5 6 
#
# 1 0.008525 -0.005675 -0.000331 0.000000 -0.000458 0.000000
# 2 -0.005675 0.020910 -0.001675 0.000000 -0.000915 0.000000
# 3 -0.000331 -0.001675 0.012748 0.000000 -0.001082 0.000000
# 4 0.000000 0.000000 0.000000 0.031712 0.000000 0.000800
# 5 -0.000458 -0.000915 -0.001082 0.000000 0.021638 0.000000
# 6 0.000000 0.000000 0.000000 0.000800 0.000000 0.025967
#
#
# Mechanical properties :
#
#
# Convention : Reuss Voigt Hill
#
# Bulk Modulus (GPa) = 37.28398 44.74278 41.01338
# Shear Modulus (GPa) = 34.29285 38.41195 36.35240
#
# Velocity S-wave (km/s) = 4.03265 4.26797 4.15198
# Velocity P-wave (km/s) = 6.27405 6.74576 6.51417
#
# Compressibility (1/GPa) = 0.02682117
#
# Stress axis : x y z
#
# Youngs Moduli (GPa) = 117.30106 47.82313 78.44524
#
# Poissons Ratio (x) = 0.27138 0.02597
# Poissons Ratio (y) = 0.66564 0.13142
# Poissons Ratio (z) = 0.03884 0.08012
#
# Static dielectric constant tensor:
#      x y z
#    x -0.768960 0.000000 -1.385470 
#    y 0.000000 1.784480 0.000000 
#    z -1.385470 0.000000 1.100340 
# 
# From -- ./inp_files/56973.got.cif
#   From: 2010.05.17/outbox.cif.g08.bks.cpg/sg13_29_cif.got.tgz:56973.got - 2010.06.03 16:44:36.
