data_PCOD9238027
_publ_section_title
;
Structure prediction by ZEFSAII (Michael W. Deem and Ramdas Pophale) SiO2 
 PCOD9238027
Probable space group: P 2/C
;
_chemical_formula_sum "Si O2"
_cell_formula_units_Z 28
_cell_length_a 24.594086
_cell_length_b 7.616339
_cell_length_c 8.969026
_cell_angle_alpha 90.000000
_cell_angle_beta 136.812093
_cell_angle_gamma 90.000000
_cell_volume 1149.814928
_symmetry_space_group_name_H-M "P 2/C"
_symmetry_group_IT_number 13
_symmetry_cell_setting 'monoclinic'
loop_
_space_group_symop_operation_xyz
x,y,z
-x,y,1/2-z
-x,-y,-z
x,-y,1/2+z
loop_
_atom_site_type_symbol
_atom_site_label
_atom_site_fract_x
_atom_site_fract_y
_atom_site_fract_z
Si Si1 0.078303 0.504382 0.495926
Si Si2 0.590819 0.263330 0.980788
Si Si3 0.350902 0.554764 0.202304
Si Si4 0.776710 0.041204 0.623147
Si Si5 0.186646 0.625625 0.445264
Si Si6 0.329650 0.117234 0.815698
Si Si7 0.052348 0.122025 0.002357
O O1 0.143671 0.567668 0.508059
O O2 0.119746 0.365345 0.683041
O O3 0.061766 0.674659 0.566410
O O4 0.000000 0.451894 0.250000
O O5 0.500000 0.254484 0.750000
O O6 0.634319 0.372048 0.934240
O O7 0.603614 0.376586 0.157181
O O8 0.622197 0.063510 0.064623
O O9 0.376788 0.705320 0.373431
O O10 0.258496 0.501368 0.044790
O O11 0.783329 0.176335 0.497491
O O12 0.730341 0.134083 0.665084
O O13 0.721375 0.895991 0.438748
O O14 0.860842 0.962178 0.838389
O O15 0.000000 0.135626 0.750000
O O16 0.000000 0.000000 0.000000
#
# Coordination Sequence:
#
# PCOD9238027 Si02
#       7
#     4   4   4   4   4   4   4
#     4  11  24  42  62  97 140 184 242 297 355 418
#     4  12  28  50  76 110 147 186 240 303 368 446
#     4  12  26  48  76 109 145 191 241 296 370 435
#     4  12  23  42  69  99 143 189 242 300 352 430
#     4  12  24  42  70 102 137 189 242 296 355 428
#     4  12  25  46  72 108 144 193 246 294 365 440
#     4  11  24  42  63  95 138 187 239 297 354 413
#
# _framework density 24.351744
#
# number of rings (size 3 to 8) (size 9 to 14) (size 15 to 20)
#    0.000    0.286    2.857    7.714    0.000    2.857 
#    0.000    0.000    0.000    0.000    0.000    0.000 
#    0.000    0.000    0.000    0.000    0.000    0.000 
#
# Total GULP energy -156800.193562 kJ/mol
# GULP energy per Si atom -5600.006913 kJ/mol
# Density = 2.429632 g / cm^3
# Si number density = 24.351744 Si / 1000 Ang^3
#
#
#
# Elastic Constant Matrix: (Units=GPa)
#
#
# Indices 1 2 3 4 5 6 
#
# 1 54.7704 10.2569 7.9960 0.0000 0.2610 0.0000
# 2 10.2569 101.7391 28.3602 0.0000 10.7941 0.0000
# 3 7.9960 28.3602 57.9566 0.0000 13.8935 0.0000
# 4 0.0000 0.0000 0.0000 26.7396 0.0000 -19.3798
# 5 0.2610 10.7941 13.8935 0.0000 35.1046 0.0000
# 6 0.0000 0.0000 0.0000 -19.3798 0.0000 20.1367
#
#
#
# Elastic Compliance Matrix: (Units=1/GPa)
#
#
# Indices 1 2 3 4 5 6 
#
# 1 0.018836 -0.001413 -0.002185 0.000000 0.001159 0.000000
# 2 -0.001413 0.011553 -0.005092 0.000000 -0.001526 0.000000
# 3 -0.002185 -0.005092 0.021730 0.000000 -0.007018 0.000000
# 4 0.000000 0.000000 0.000000 0.123637 0.000000 0.118990
# 5 0.001159 -0.001526 -0.007018 0.000000 0.031725 0.000000
# 6 0.000000 0.000000 0.000000 0.118990 0.000000 0.164178
#
#
# Mechanical properties :
#
#
# Convention : Reuss Voigt Hill
#
# Bulk Modulus (GPa) = 28.78686 34.18804 31.48745
# Shear Modulus (GPa) = 12.48066 27.58640 20.03353
#
# Velocity S-wave (km/s) = 2.26634 3.36941 2.87134
# Velocity P-wave (km/s) = 4.32381 5.40434 4.89399
#
# Compressibility (1/GPa) = 0.03473807
#
# Stress axis : x y z
#
# Youngs Moduli (GPa) = 53.08950 86.55780 46.01913
#
# Poissons Ratio (x) = 0.12229 0.10057
# Poissons Ratio (y) = 0.07500 0.23435
# Poissons Ratio (z) = 0.11602 0.44079
#
# Static dielectric constant tensor:
#      x y z
#    x 1.960910 0.000000 -0.004090 
#    y 0.000000 2.028110 0.000000 
#    z -0.004090 0.000000 1.860660 
# 
# From -- ./inp_files/24619.got.cif
#   From: 2010.05.17/outbox.cif.g08.bks.cpg/sg13_13_cif.got.tgz:24619.got - 2010.06.03 16:44:36.
