data_PCOD9238628
_publ_section_title
;
Structure prediction by ZEFSAII (Michael W. Deem and Ramdas Pophale) SiO2 
 PCOD9238628
Probable space group: P 2/C
;
_chemical_formula_sum "Si O2"
_cell_formula_units_Z 18
_cell_length_a 8.324138
_cell_length_b 10.809676
_cell_length_c 9.053733
_cell_angle_alpha 90.000000
_cell_angle_beta 64.773776
_cell_angle_gamma 90.000000
_cell_volume 736.973066
_symmetry_space_group_name_H-M "P 2/C"
_symmetry_group_IT_number 13
_symmetry_cell_setting 'monoclinic'
loop_
_space_group_symop_operation_xyz
x,y,z
-x,y,1/2-z
-x,-y,-z
x,-y,1/2+z
loop_
_atom_site_type_symbol
_atom_site_label
_atom_site_fract_x
_atom_site_fract_y
_atom_site_fract_z
Si Si1 0.870102 0.490903 0.191735
Si Si2 0.773604 0.731458 0.426610
Si Si3 0.500000 0.637993 0.750000
Si Si4 0.622386 0.049106 0.824088
Si Si5 0.917688 0.117277 0.118488
O O1 0.823457 0.615824 0.303954
O O2 0.676708 0.437368 0.228511
O O3 0.000000 0.414986 0.250000
O O4 0.000000 0.500000 0.000000
O O5 0.580360 0.708739 0.576762
O O6 0.761986 0.853836 0.332282
O O7 0.903973 0.766978 0.512335
O O8 0.500000 0.112524 0.750000
O O9 0.717593 0.929929 0.720143
O O10 0.500000 0.000000 0.000000
O O11 0.000000 0.132824 0.250000
O O12 0.000000 0.000000 0.000000
#
# Coordination Sequence:
#
# PCOD9238628 Si02
#       5
#     4   4   2   4   4
#     4  12  29  54  82 116 161 207 285 353 417 493
#     4  12  27  47  81 117 164 217 271 336 425 480
#     4  12  28  52  82 118 162 210 284 352 406 492
#     4  12  24  45  71 112 159 210 259 317 390 492
#     4  12  25  45  75 115 165 211 267 322 398 496
#
# _framework density 24.424233000000001
#
# number of rings (size 3 to 8) (size 9 to 14) (size 15 to 20)
#    0.000    0.000    6.667    2.000    4.667    0.889 
#    0.000    0.000    0.000    0.000    0.000    0.000 
#    0.000    0.000    0.000    0.000    0.000    0.000 
#
# Total GULP energy -100608.334876 kJ/mol
# GULP energy per Si atom -5589.351938 kJ/mol
# Density = 2.436864 g / cm^3
# Si number density = 24.424233 Si / 1000 Ang^3
#
#
#
# Elastic Constant Matrix: (Units=GPa)
#
#
# Indices 1 2 3 4 5 6 
#
# 1 173.3304 40.5706 57.6951 0.0000 21.2204 0.0000
# 2 40.5706 123.3239 53.9841 0.0000 5.4444 0.0000
# 3 57.6951 53.9841 187.4141 0.0000 -14.5649 0.0000
# 4 0.0000 0.0000 0.0000 48.7268 0.0000 9.7390
# 5 21.2204 5.4444 -14.5649 0.0000 72.8845 0.0000
# 6 0.0000 0.0000 0.0000 9.7390 0.0000 39.9961
#
#
#
# Elastic Compliance Matrix: (Units=1/GPa)
#
#
# Indices 1 2 3 4 5 6 
#
# 1 0.007022 -0.001352 -0.001954 0.000000 -0.002334 0.000000
# 2 -0.001352 0.009652 -0.002427 0.000000 -0.000812 0.000000
# 3 -0.001954 -0.002427 0.006800 0.000000 0.002109 0.000000
# 4 0.000000 0.000000 0.000000 0.021572 0.000000 -0.005253
# 5 -0.002334 -0.000812 0.002109 0.000000 0.014882 0.000000
# 6 0.000000 0.000000 0.000000 -0.005253 0.000000 0.026281
#
#
# Mechanical properties :
#
#
# Convention : Reuss Voigt Hill
#
# Bulk Modulus (GPa) = 83.27344 87.61865 85.44605
# Shear Modulus (GPa) = 49.17501 54.44273 51.80887
#
# Velocity S-wave (km/s) = 4.49193 4.72640 4.61065
# Velocity P-wave (km/s) = 7.81485 8.10781 7.96268
#
# Compressibility (1/GPa) = 0.01200863
#
# Stress axis : x y z
#
# Youngs Moduli (GPa) = 142.41472 103.60800 147.05364
#
# Poissons Ratio (x) = 0.14005 0.28729
# Poissons Ratio (y) = 0.19251 0.35692
# Poissons Ratio (z) = 0.27823 0.25147
#
# Static dielectric constant tensor:
#      x y z
#    x 1.995340 0.000000 0.080180 
#    y 0.000000 2.000060 0.000000 
#    z 0.080180 0.000000 1.982760 
# 
# From -- ./inp_files/11597.got.cif
#   From: 2010.05.17/outbox.cif.g08.bks.cpg/sg13_6_cif.got.tgz:11597.got - 2010.06.03 16:44:36.
