data_PCOD9238907
_publ_section_title
;
Structure prediction by ZEFSAII (Michael W. Deem and Ramdas Pophale) SiO2 
 PCOD9238907
Probable space group: P 2/C
;
_chemical_formula_sum "Si O2"
_cell_formula_units_Z 30
_cell_length_a 9.000000
_cell_length_b 9.000000
_cell_length_c 21.000000
_cell_angle_alpha 90.000000
_cell_angle_beta 100.000000
_cell_angle_gamma 90.000000
_cell_volume 1675.157988
_symmetry_space_group_name_H-M "P 2/C"
_symmetry_group_IT_number 13
_symmetry_cell_setting 'monoclinic'
loop_
_space_group_symop_operation_xyz
x,y,z
-x,y,1/2-z
-x,-y,-z
x,-y,1/2+z
loop_
_atom_site_type_symbol
_atom_site_label
_atom_site_fract_x
_atom_site_fract_y
_atom_site_fract_z
Si Si1 0.781215 0.356523 0.543070
Si Si2 0.043603 0.853303 0.539996
Si Si3 0.174064 0.409654 0.266918
Si Si4 0.616619 0.332552 0.661579
Si Si5 0.292834 0.820918 0.668396
Si Si6 0.500000 0.924187 0.250000
Si Si7 0.538499 0.395321 0.414215
Si Si8 0.200257 0.330690 0.409436
O O1 0.889037 0.253213 0.509844
O O2 0.708659 0.290812 0.603242
O O3 0.654393 0.400131 0.481240
O O4 0.859730 0.507361 0.573219
O O5 0.164005 0.867986 0.607303
O O6 0.891774 0.787934 0.558892
O O7 0.000000 0.000000 0.500000
O O8 0.281575 0.553367 0.287651
O O9 0.225433 0.299625 0.213994
O O10 0.180476 0.315546 0.332590
O O11 0.000000 0.458995 0.250000
O O12 0.562704 0.191076 0.699602
O O13 0.489215 0.446007 0.623212
O O14 0.409634 0.724564 0.634504
O O15 0.375493 0.961228 0.709431
O O16 0.379357 0.341094 0.430897
#
# Coordination Sequence:
#
# PCOD9238907 Si02
#       8
#     4   4   4   4   4   2   4   4
#     4   9  20  38  61  86 114 150 199 249 292 341
#     4  11  24  39  55  85 122 159 197 234 298 358
#     4  10  19  39  63  84 113 154 206 238 291 354
#     4  10  21  37  61  92 115 146 193 259 296 332
#     4  11  23  40  60  87 119 166 196 233 293 371
#     4  12  24  40  56  94 128 154 196 244 308 350
#     4   9  19  38  66  85 112 154 208 239 287 352
#     4  10  19  36  61  87 110 149 195 252 289 338
#
# _framework density 17.908759
#
# number of rings (size 3 to 8) (size 9 to 14) (size 15 to 20)
#    0.000    2.133    1.333    4.400    0.000    4.267 
#    4.800    2.667    0.000    0.000    0.000    0.000 
#    0.000    0.000    0.000    0.000    0.000    0.000 
#
# Total GULP energy -167147.593784 kJ/mol
# GULP energy per Si atom -5571.586459 kJ/mol
# Density = 1.786800 g / cm^3
# Si number density = 17.908759 Si / 1000 Ang^3
#
#
#
# Elastic Constant Matrix: (Units=GPa)
#
#
# Indices 1 2 3 4 5 6 
#
# 1 62.7800 53.6196 38.9295 0.0000 -15.8479 0.0000
# 2 53.6196 99.7093 63.5121 0.0000 -15.7908 0.0000
# 3 38.9295 63.5121 119.6292 0.0000 -19.0662 0.0000
# 4 0.0000 0.0000 0.0000 38.1889 0.0000 -3.8137
# 5 -15.8479 -15.7908 -19.0662 0.0000 24.8979 0.0000
# 6 0.0000 0.0000 0.0000 -3.8137 0.0000 15.4457
#
#
#
# Elastic Compliance Matrix: (Units=1/GPa)
#
#
# Indices 1 2 3 4 5 6 
#
# 1 0.031760 -0.014990 -0.000764 0.000000 0.010125 0.000000
# 2 -0.014990 0.022573 -0.007228 0.000000 -0.000759 0.000000
# 3 -0.000764 -0.007228 0.013255 0.000000 0.005080 0.000000
# 4 0.000000 0.000000 0.000000 0.026848 0.000000 0.006629
# 5 0.010125 -0.000759 0.005080 0.000000 0.050017 0.000000
# 6 0.000000 0.000000 0.000000 0.006629 0.000000 0.066380
#
#
# Mechanical properties :
#
#
# Convention : Reuss Voigt Hill
#
# Bulk Modulus (GPa) = 46.23922 66.02679 56.13301
# Shear Modulus (GPa) = 18.93913 24.11030 21.52471
#
# Velocity S-wave (km/s) = 3.25550 3.67316 3.47062
# Velocity P-wave (km/s) = 6.32507 7.41201 6.89001
#
# Compressibility (1/GPa) = 0.02162666
#
# Stress axis : x y z
#
# Youngs Moduli (GPa) = 31.48571 44.29976 75.44607
#
# Poissons Ratio (x) = 0.66404 0.05762
# Poissons Ratio (y) = 0.47196 0.54529
# Poissons Ratio (z) = 0.02405 0.32018
#
# Static dielectric constant tensor:
#      x y z
#    x 1.665320 0.000000 0.013750 
#    y 0.000000 1.602220 0.000000 
#    z 0.013750 0.000000 1.627450 
# 
# From -- ./inp_files/75727.got.cif
#   From: 2010.05.17/outbox.ucp.g08.bks.cvg/sg13_38_cif.got.tgz:75727.got - 2010.06.11 12:23:55.
