data_PCOD9238735
_publ_section_title
;
Structure prediction by ZEFSAII (Michael W. Deem and Ramdas Pophale) SiO2 
 PCOD9238735
Probable space group: P 2/C
;
_chemical_formula_sum "Si O2"
_cell_formula_units_Z 16
_cell_length_a 5.293125
_cell_length_b 4.748353
_cell_length_c 25.147950
_cell_angle_alpha 90.000000
_cell_angle_beta 92.678042
_cell_angle_gamma 90.000000
_cell_volume 631.368869
_symmetry_space_group_name_H-M "P 2/C"
_symmetry_group_IT_number 13
_symmetry_cell_setting 'monoclinic'
loop_
_space_group_symop_operation_xyz
x,y,z
-x,y,1/2-z
-x,-y,-z
x,-y,1/2+z
loop_
_atom_site_type_symbol
_atom_site_label
_atom_site_fract_x
_atom_site_fract_y
_atom_site_fract_z
Si Si1 0.240684 0.781649 0.644142
Si Si2 0.755154 0.721037 0.281957
Si Si3 0.910915 0.424818 0.558380
Si Si4 0.397641 0.085484 0.441521
O O1 0.346317 0.544481 0.684984
O O2 0.428033 0.955217 0.607392
O O3 0.071231 0.584630 0.604128
O O4 0.133270 0.025203 0.680893
O O5 0.500000 0.826737 0.250000
O O6 0.000000 0.627630 0.250000
O O7 0.641932 0.580189 0.559329
O O8 0.000000 0.500000 0.500000
O O9 0.859362 0.096848 0.565593
O O10 0.500000 0.000000 0.500000
#
# Coordination Sequence:
#
# PCOD9238735 Si02
#       4
#     4   4   4   4
#     4  12  28  48  79 108 151 210 252 330 408 466
#     4  12  30  54  79 112 151 204 278 342 394 464
#     4  12  26  44  72 112 159 200 251 308 390 490
#     4  12  26  44  72 112 159 200 251 308 390 490
#
# _framework density 25.341766
#
# number of rings (size 3 to 8) (size 9 to 14) (size 15 to 20)
#    0.000    0.000    2.500    6.000   14.000    0.000 
#    0.000    0.000    0.000    0.000    0.000    0.000 
#    0.000    0.000    0.000    0.000    0.000    0.000 
#
# Total GULP energy -89461.024256 kJ/mol
# GULP energy per Si atom -5591.314016 kJ/mol
# Density = 2.528409 g / cm^3
# Si number density = 25.341766 Si / 1000 Ang^3
#
#
#
# Elastic Constant Matrix: (Units=GPa)
#
#
# Indices 1 2 3 4 5 6 
#
# 1 79.4028 8.5590 41.2569 0.0000 1.1037 0.0000
# 2 8.5590 127.3520 35.3776 0.0000 5.4529 0.0000
# 3 41.2569 35.3776 121.6411 0.0000 3.6881 0.0000
# 4 0.0000 0.0000 0.0000 47.6007 0.0000 0.0564
# 5 1.1037 5.4529 3.6881 0.0000 34.3811 0.0000
# 6 0.0000 0.0000 0.0000 0.0564 0.0000 52.1169
#
#
#
# Elastic Compliance Matrix: (Units=1/GPa)
#
#
# Indices 1 2 3 4 5 6 
#
# 1 0.015312 0.000450 -0.005324 0.000000 0.000008 0.000000
# 2 0.000450 0.008597 -0.002619 0.000000 -0.001097 0.000000
# 3 -0.005324 -0.002619 0.010806 0.000000 -0.000573 0.000000
# 4 0.000000 0.000000 0.000000 0.021008 0.000000 -0.000023
# 5 0.000008 -0.001097 -0.000573 0.000000 0.029321 0.000000
# 6 0.000000 0.000000 0.000000 -0.000023 0.000000 0.019188
#
#
# Mechanical properties :
#
#
# Convention : Reuss Voigt Hill
#
# Bulk Modulus (GPa) = 50.69404 55.42032 53.05718
# Shear Modulus (GPa) = 39.74724 43.03324 41.39024
#
# Velocity S-wave (km/s) = 3.96466 4.12529 4.04577
# Velocity P-wave (km/s) = 6.40356 6.67887 6.54267
#
# Compressibility (1/GPa) = 0.01972619
#
# Stress axis : x y z
#
# Youngs Moduli (GPa) = 65.30871 116.32408 92.54158
#
# Poissons Ratio (x) = -0.05230 0.49272
# Poissons Ratio (y) = -0.02937 0.24241
# Poissons Ratio (z) = 0.34773 0.30471
#
# Static dielectric constant tensor:
#      x y z
#    x 2.143560 0.000000 0.022270 
#    y 0.000000 1.927480 0.000000 
#    z 0.022270 0.000000 2.002070 
# 
# From -- ./inp_files/82858.got.cif
#   From: 2010.05.17/outbox.cif.g08.bks.cpg/sg13_42_cif.got.tgz:82858.got - 2010.06.03 16:44:36.
