data_PCOD9238831
_publ_section_title
;
Structure prediction by ZEFSAII (Michael W. Deem and Ramdas Pophale) SiO2 
 PCOD9238831
Probable space group: P 2/C
;
_chemical_formula_sum "Si O2"
_cell_formula_units_Z 16
_cell_length_a 12.908185
_cell_length_b 5.031080
_cell_length_c 24.382204
_cell_angle_alpha 90.000000
_cell_angle_beta 159.182374
_cell_angle_gamma 90.000000
_cell_volume 562.742999
_symmetry_space_group_name_H-M "P 2/C"
_symmetry_group_IT_number 13
_symmetry_cell_setting 'monoclinic'
loop_
_space_group_symop_operation_xyz
x,y,z
-x,y,1/2-z
-x,-y,-z
x,-y,1/2+z
loop_
_atom_site_type_symbol
_atom_site_label
_atom_site_fract_x
_atom_site_fract_y
_atom_site_fract_z
Si Si1 0.774358 0.801436 0.736361
Si Si2 0.909983 0.135777 0.898561
Si Si3 0.000000 0.429593 0.750000
Si Si4 0.500000 0.000000 0.000000
Si Si5 0.588244 0.492742 0.854177
O O1 0.560907 0.630521 0.667976
O O2 0.931791 0.628488 0.766898
O O3 0.978549 0.955231 0.880200
O O4 0.603993 0.013939 0.615337
O O5 0.566292 0.204951 0.724455
O O6 0.922527 0.582615 0.023056
O O7 0.000000 0.000000 0.000000
O O8 0.272309 0.247525 0.900770
O O9 0.500000 0.601166 0.750000
#
# Coordination Sequence:
#
# PCOD9238831 Si02
#       5
#     4   4   2   2   4
#     4  12  30  53  93 127 181 236 304 364 449 538
#     4  12  30  58  90 133 185 236 299 372 449 542
#     4  12  30  60  90 130 176 238 304 370 452 532
#     4  12  30  58  90 128 178 236 294 372 450 528
#     4  12  29  53  89 131 183 239 292 366 458 531
#
# _framework density 28.432162999999999
#
# number of rings (size 3 to 8) (size 9 to 14) (size 15 to 20)
#    0.000    0.000    2.500    3.750   14.000    0.000 
#    0.000    0.000    0.000    0.000    0.000    0.000 
#    0.000    0.000    0.000    0.000    0.000    0.000 
#
# Total GULP energy -89256.530508 kJ/mol
# GULP energy per Si atom -5578.533157 kJ/mol
# Density = 2.836745 g / cm^3
# Si number density = 28.432163 Si / 1000 Ang^3
#
#
#
# Elastic Constant Matrix: (Units=GPa)
#
#
# Indices 1 2 3 4 5 6 
#
# 1 243.2316 64.8288 63.4446 0.0000 -40.6033 0.0000
# 2 64.8288 101.6834 45.3597 0.0000 4.9914 0.0000
# 3 63.4446 45.3597 154.8196 0.0000 -22.8185 0.0000
# 4 0.0000 0.0000 0.0000 47.7946 0.0000 -23.3222
# 5 -40.6033 4.9914 -22.8185 0.0000 63.3175 0.0000
# 6 0.0000 0.0000 0.0000 -23.3222 0.0000 46.5645
#
#
#
# Elastic Compliance Matrix: (Units=1/GPa)
#
#
# Indices 1 2 3 4 5 6 
#
# 1 0.005912 -0.003592 -0.000813 0.000000 0.003781 0.000000
# 2 -0.003592 0.013794 -0.003241 0.000000 -0.004559 0.000000
# 3 -0.000813 -0.003241 0.008135 0.000000 0.002666 0.000000
# 4 0.000000 0.000000 0.000000 0.027690 0.000000 0.013869
# 5 0.003781 -0.004559 0.002666 0.000000 0.019538 0.000000
# 6 0.000000 0.000000 0.000000 0.013869 0.000000 0.028422
#
#
# Mechanical properties :
#
#
# Convention : Reuss Voigt Hill
#
# Bulk Modulus (GPa) = 79.69294 94.11120 86.90207
# Shear Modulus (GPa) = 40.66093 53.27542 46.96817
#
# Velocity S-wave (km/s) = 3.78577 4.33341 4.06881
# Velocity P-wave (km/s) = 6.87018 7.62955 7.25980
#
# Compressibility (1/GPa) = 0.01254816
#
# Stress axis : x y z
#
# Youngs Moduli (GPa) = 169.14663 72.49286 122.92748
#
# Poissons Ratio (x) = 0.26041 0.09993
# Poissons Ratio (y) = 0.60761 0.39846
# Poissons Ratio (z) = 0.13751 0.23498
#
# Static dielectric constant tensor:
#      x y z
#    x 2.130250 0.000000 0.118390 
#    y 0.000000 2.283420 0.000000 
#    z 0.118390 0.000000 2.293580 
# 
# From -- ./inp_files/77407.got.cif
#   From: 2010.05.17/outbox.cif.g08.bks.cpg/sg13_39_cif.got.tgz:77407.got - 2010.06.03 16:44:36.
