data_PCOD9238793
_publ_section_title
;
Structure prediction by ZEFSAII (Michael W. Deem and Ramdas Pophale) SiO2 
 PCOD9238793
Probable space group: P 2/C
;
_chemical_formula_sum "Si O2"
_cell_formula_units_Z 20
_cell_length_a 11.117175
_cell_length_b 4.862048
_cell_length_c 23.212772
_cell_angle_alpha 90.000000
_cell_angle_beta 38.287524
_cell_angle_gamma 90.000000
_cell_volume 777.423743
_symmetry_space_group_name_H-M "P 2/C"
_symmetry_group_IT_number 13
_symmetry_cell_setting 'monoclinic'
loop_
_space_group_symop_operation_xyz
x,y,z
-x,y,1/2-z
-x,-y,-z
x,-y,1/2+z
loop_
_atom_site_type_symbol
_atom_site_label
_atom_site_fract_x
_atom_site_fract_y
_atom_site_fract_z
Si Si1 0.721987 0.039270 0.145387
Si Si2 0.722975 0.528239 0.069828
Si Si3 0.999720 0.728981 0.371899
Si Si4 0.701513 0.401303 0.316713
Si Si5 0.300972 0.095628 0.603627
O O1 0.500000 0.033140 0.250000
O O2 0.736463 0.843150 0.083776
O O3 0.859756 0.914618 0.141954
O O4 0.779946 0.342946 0.103626
O O5 0.501460 0.444261 0.139648
O O6 0.851971 0.438520 0.967942
O O7 0.869985 0.913349 0.378125
O O8 0.128330 0.519567 0.286335
O O9 0.689024 0.593095 0.377873
O O10 0.729790 0.094678 0.328933
O O11 0.500000 0.000000 0.500000
#
# Coordination Sequence:
#
# PCOD9238793 Si02
#       5
#     4   4   4   4   4
#     4  12  27  50  78 115 155 202 257 318 386 461
#     4  12  27  51  79 112 157 202 257 319 387 462
#     4  12  29  49  83 112 158 207 257 323 391 462
#     4  12  28  52  78 116 157 203 260 322 390 463
#     4  12  28  52  80 113 157 205 263 322 389 463
#
# _framework density 25.725994
#
# number of rings (size 3 to 8) (size 9 to 14) (size 15 to 20)
#    0.000    0.000    4.000    4.200    0.000    6.400 
#    0.000    0.000    0.000    0.000    0.000    0.000 
#    0.000    0.000    0.000    0.000    0.000    0.000 
#
# Total GULP energy -112543.935944 kJ/mol
# GULP energy per Si atom -5627.196797 kJ/mol
# Density = 2.566744 g / cm^3
# Si number density = 25.725994 Si / 1000 Ang^3
#
#
#
# Elastic Constant Matrix: (Units=GPa)
#
#
# Indices 1 2 3 4 5 6 
#
# 1 138.1985 11.0546 23.4272 0.0000 -14.7528 0.0000
# 2 11.0546 79.2027 12.0480 0.0000 -8.7684 0.0000
# 3 23.4272 12.0480 170.1429 0.0000 -20.1229 0.0000
# 4 0.0000 0.0000 0.0000 35.5100 0.0000 2.7522
# 5 -14.7528 -8.7684 -20.1229 0.0000 33.3873 0.0000
# 6 0.0000 0.0000 0.0000 2.7522 0.0000 39.6925
#
#
#
# Elastic Compliance Matrix: (Units=1/GPa)
#
#
# Indices 1 2 3 4 5 6 
#
# 1 0.007705 -0.000660 -0.000681 0.000000 0.002821 0.000000
# 2 -0.000660 0.013110 -0.000500 0.000000 0.002850 0.000000
# 3 -0.000681 -0.000500 0.006413 0.000000 0.003433 0.000000
# 4 0.000000 0.000000 0.000000 0.028313 0.000000 -0.001963
# 5 0.002821 0.002850 0.003433 0.000000 0.034016 0.000000
# 6 0.000000 0.000000 0.000000 -0.001963 0.000000 0.025330
#
#
# Mechanical properties :
#
#
# Convention : Reuss Voigt Hill
#
# Bulk Modulus (GPa) = 42.46973 53.40042 47.93508
# Shear Modulus (GPa) = 39.55200 44.45224 42.00212
#
# Velocity S-wave (km/s) = 3.92527 4.16133 4.04502
# Velocity P-wave (km/s) = 6.08999 6.62505 6.36314
#
# Compressibility (1/GPa) = 0.02354618
#
# Stress axis : x y z
#
# Youngs Moduli (GPa) = 129.78123 76.28044 155.94422
#
# Poissons Ratio (x) = 0.05031 0.10613
# Poissons Ratio (y) = 0.08560 0.07804
# Poissons Ratio (z) = 0.08832 0.03817
#
# Static dielectric constant tensor:
#      x y z
#    x 2.039690 0.000000 0.020950 
#    y 0.000000 1.941750 0.000000 
#    z 0.020950 0.000000 1.976250 
# 
# From -- ./inp_files/85485.got.cif
#   From: 2010.05.17/outbox.cif.g08.bks.cpg/sg13_43_cif.got.tgz:85485.got - 2010.06.03 16:44:36.
