data_PCOD9238563
_publ_section_title
;
Structure prediction by ZEFSAII (Michael W. Deem and Ramdas Pophale) SiO2 
 PCOD9238563
Probable space group: P 2/C
;
_chemical_formula_sum "Si O2"
_cell_formula_units_Z 22
_cell_length_a 20.360729
_cell_length_b 5.215916
_cell_length_c 9.004698
_cell_angle_alpha 90.000000
_cell_angle_beta 103.671845
_cell_angle_gamma 90.000000
_cell_volume 929.201272
_symmetry_space_group_name_H-M "P 2/C"
_symmetry_group_IT_number 13
_symmetry_cell_setting 'monoclinic'
loop_
_space_group_symop_operation_xyz
x,y,z
-x,y,1/2-z
-x,-y,-z
x,-y,1/2+z
loop_
_atom_site_type_symbol
_atom_site_label
_atom_site_fract_x
_atom_site_fract_y
_atom_site_fract_z
Si Si1 0.314324 0.803362 0.372170
Si Si2 0.472406 0.752706 0.401804
Si Si3 0.119358 0.676614 0.880676
Si Si4 0.000000 0.612229 0.250000
Si Si5 0.732018 0.327151 0.980661
Si Si6 0.075628 0.993962 0.101795
O O1 0.391909 0.796644 0.360899
O O2 0.311418 0.571328 0.490245
O O3 0.288753 0.071153 0.434704
O O4 0.273650 0.737950 0.197615
O O5 0.500000 0.743297 0.250000
O O6 0.500000 0.500000 0.500000
O O7 0.500000 0.000000 0.500000
O O8 0.047291 0.549710 0.885942
O O9 0.192934 0.566861 0.936964
O O10 0.103619 0.766661 0.705751
O O11 0.123584 0.915832 0.995543
O O12 0.938803 0.777455 0.283755
O O13 0.000000 0.000000 0.000000
#
# Coordination Sequence:
#
# PCOD9238563 Si02
#       6
#     4   4   4   2   4   4
#     4  12  26  52  72 112 152 195 241 297 356 437
#     4  12  25  45  80 115 148 192 243 298 356 421
#     4  12  27  42  68  96 128 181 232 289 360 418
#     4  12  24  40  70  90 128 164 236 300 346 408
#     4  12  29  47  75 103 154 202 242 296 365 447
#     4  12  23  44  62  95 127 164 224 304 360 410
#
# _framework density 23.676248000000001
#
# number of rings (size 3 to 8) (size 9 to 14) (size 15 to 20)
#    0.000    0.000    3.636    6.545    5.091    0.000 
#    0.000    0.000    0.000    0.000    0.000    0.000 
#    0.000    0.000    0.000    0.000    0.000    0.000 
#
# Total GULP energy -122832.091200 kJ/mol
# GULP energy per Si atom -5583.276873 kJ/mol
# Density = 2.362236 g / cm^3
# Si number density = 23.676248 Si / 1000 Ang^3
#
#
#
# Elastic Constant Matrix: (Units=GPa)
#
#
# Indices 1 2 3 4 5 6 
#
# 1 72.0829 -3.7801 -4.2055 0.0000 14.1955 0.0000
# 2 -3.7801 116.1012 25.9331 0.0000 -8.3077 0.0000
# 3 -4.2055 25.9331 95.4433 0.0000 -4.9227 0.0000
# 4 0.0000 0.0000 0.0000 40.9575 0.0000 -6.4204
# 5 14.1955 -8.3077 -4.9227 0.0000 49.7727 0.0000
# 6 0.0000 0.0000 0.0000 -6.4204 0.0000 31.0134
#
#
#
# Elastic Compliance Matrix: (Units=1/GPa)
#
#
# Indices 1 2 3 4 5 6 
#
# 1 0.014717 0.000091 0.000410 0.000000 -0.004142 0.000000
# 2 0.000091 0.009254 -0.002444 0.000000 0.001277 0.000000
# 3 0.000410 -0.002444 0.011190 0.000000 0.000582 0.000000
# 4 0.000000 0.000000 0.000000 0.025234 0.000000 0.005224
# 5 -0.004142 0.001277 0.000582 0.000000 0.021543 0.000000
# 6 0.000000 0.000000 0.000000 0.005224 0.000000 0.033326
#
#
# Mechanical properties :
#
#
# Convention : Reuss Voigt Hill
#
# Bulk Modulus (GPa) = 31.97522 35.50248 33.73885
# Shear Modulus (GPa) = 38.58780 42.06074 40.32427
#
# Velocity S-wave (km/s) = 4.04147 4.21942 4.13140
# Velocity P-wave (km/s) = 5.94243 6.22620 6.08597
#
# Compressibility (1/GPa) = 0.03127422
#
# Stress axis : x y z
#
# Youngs Moduli (GPa) = 67.94739 108.06720 89.36811
#
# Poissons Ratio (x) = -0.00986 -0.03665
# Poissons Ratio (y) = -0.00620 0.21845
# Poissons Ratio (z) = -0.02786 0.26416
#
# Static dielectric constant tensor:
#      x y z
#    x 1.879810 0.000000 0.042740 
#    y 0.000000 1.150310 0.000000 
#    z 0.042740 0.000000 1.780540 
# 
# From -- ./inp_files/22296.got.cif
#   From: 2010.05.17/outbox.cif.g08.bks.cpg/sg13_12_cif.got.tgz:22296.got - 2010.06.03 16:44:36.
