data_PCOD9238773
_publ_section_title
;
Structure prediction by ZEFSAII (Michael W. Deem and Ramdas Pophale) SiO2 
 PCOD9238773
Probable space group: P 2/C
;
_chemical_formula_sum "Si O2"
_cell_formula_units_Z 20
_cell_length_a 5.030578
_cell_length_b 6.934510
_cell_length_c 21.872448
_cell_angle_alpha 90.000000
_cell_angle_beta 80.052280
_cell_angle_gamma 90.000000
_cell_volume 751.540181
_symmetry_space_group_name_H-M "P 2/C"
_symmetry_group_IT_number 13
_symmetry_cell_setting 'monoclinic'
loop_
_space_group_symop_operation_xyz
x,y,z
-x,y,1/2-z
-x,-y,-z
x,-y,1/2+z
loop_
_atom_site_type_symbol
_atom_site_label
_atom_site_fract_x
_atom_site_fract_y
_atom_site_fract_z
Si Si1 0.340684 0.903629 0.818386
Si Si2 0.965926 0.769753 0.324959
Si Si3 0.844589 0.696675 0.001401
Si Si4 0.667130 0.139091 0.947099
Si Si5 0.182064 0.322900 0.140655
O O1 0.500000 0.928743 0.750000
O O2 0.523365 0.751866 0.849886
O O3 0.000000 0.220706 0.750000
O O4 0.060269 0.791597 0.817653
O O5 0.232386 0.880651 0.338976
O O6 0.454779 0.684747 0.459340
O O7 0.736524 0.886039 0.372873
O O8 0.893872 0.548541 0.345581
O O9 0.838565 0.736600 0.929644
O O10 0.045969 0.829749 0.032385
O O11 0.000000 0.500000 0.000000
O O12 0.500000 0.000000 0.000000
#
# Coordination Sequence:
#
# PCOD9238773 Si02
#       5
#     4   4   4   4   4
#     4  12  28  52  78 121 170 221 282 349 426 521
#     4  12  29  53  85 124 172 227 288 358 438 521
#     4  12  26  51  79 115 162 209 271 354 414 502
#     4  12  28  51  81 121 165 219 287 350 432 512
#     4  12  28  52  85 118 166 223 282 352 438 516
#
# _framework density 26.612020000000001
#
# number of rings (size 3 to 8) (size 9 to 14) (size 15 to 20)
#    0.000    0.000    2.000    6.600    2.800   10.400 
#    0.000    0.000    0.000    0.000    0.000    0.000 
#    0.000    0.000    0.000    0.000    0.000    0.000 
#
# Total GULP energy -111755.077453 kJ/mol
# GULP energy per Si atom -5587.753873 kJ/mol
# Density = 2.655145 g / cm^3
# Si number density = 26.612020 Si / 1000 Ang^3
#
#
#
# Elastic Constant Matrix: (Units=GPa)
#
#
# Indices 1 2 3 4 5 6 
#
# 1 188.0908 43.4068 94.0433 0.0000 0.9611 0.0000
# 2 43.4068 151.3911 49.2345 0.0000 -0.6305 0.0000
# 3 94.0433 49.2345 216.3498 0.0000 -38.9032 0.0000
# 4 0.0000 0.0000 0.0000 43.2896 0.0000 -5.4705
# 5 0.9611 -0.6305 -38.9032 0.0000 63.4516 0.0000
# 6 0.0000 0.0000 0.0000 -5.4705 0.0000 55.3648
#
#
#
# Elastic Compliance Matrix: (Units=1/GPa)
#
#
# Indices 1 2 3 4 5 6 
#
# 1 0.007202 -0.001005 -0.003286 0.000000 -0.002133 0.000000
# 2 -0.001005 0.007335 -0.001367 0.000000 -0.000750 0.000000
# 3 -0.003286 -0.001367 0.007157 0.000000 0.004424 0.000000
# 4 0.000000 0.000000 0.000000 0.023392 0.000000 0.002311
# 5 -0.002133 -0.000750 0.004424 0.000000 0.018497 0.000000
# 6 0.000000 0.000000 0.000000 0.002311 0.000000 0.018290
#
#
# Mechanical properties :
#
#
# Convention : Reuss Voigt Hill
#
# Bulk Modulus (GPa) = 96.35489 103.24453 99.79971
# Shear Modulus (GPa) = 51.73308 57.03102 54.38205
#
# Velocity S-wave (km/s) = 4.41384 4.63434 4.52543
# Velocity P-wave (km/s) = 7.89062 8.21684 8.05538
#
# Compressibility (1/GPa) = 0.01037830
#
# Stress axis : x y z
#
# Youngs Moduli (GPa) = 138.84606 136.32975 139.72431
#
# Poissons Ratio (x) = 0.13707 0.45907
# Poissons Ratio (y) = 0.13960 0.19102
# Poissons Ratio (z) = 0.45618 0.18638
#
# Static dielectric constant tensor:
#      x y z
#    x 2.112110 0.000000 -0.002400 
#    y 0.000000 2.018820 0.000000 
#    z -0.002400 0.000000 2.050700 
# 
# From -- ./inp_files/90059.got.cif
#   From: 2010.05.17/outbox.cif.g08.bks.cpg/sg13_46_cif.got.tgz:90059.got - 2010.06.03 16:44:36.
