data_PCOD9238619
_publ_section_title
;
Structure prediction by ZEFSAII (Michael W. Deem and Ramdas Pophale) SiO2 
 PCOD9238619
Probable space group: P 2/C
;
_chemical_formula_sum "Si O2"
_cell_formula_units_Z 20
_cell_length_a 22.173342
_cell_length_b 6.187473
_cell_length_c 13.705891
_cell_angle_alpha 90.000000
_cell_angle_beta 26.033465
_cell_angle_gamma 90.000000
_cell_volume 825.302961
_symmetry_space_group_name_H-M "P 2/C"
_symmetry_group_IT_number 13
_symmetry_cell_setting 'monoclinic'
loop_
_space_group_symop_operation_xyz
x,y,z
-x,y,1/2-z
-x,-y,-z
x,-y,1/2+z
loop_
_atom_site_type_symbol
_atom_site_label
_atom_site_fract_x
_atom_site_fract_y
_atom_site_fract_z
Si Si1 0.184399 0.508601 0.393218
Si Si2 0.500000 0.124453 0.750000
Si Si3 0.963697 0.839846 0.140906
Si Si4 0.679509 0.267679 0.972804
Si Si5 0.596125 0.474899 0.767025
Si Si6 0.000000 0.138059 0.250000
O O1 0.302557 0.570034 0.143751
O O2 0.255510 0.500063 0.396023
O O3 0.090370 0.309975 0.493084
O O4 0.085273 0.713525 0.552885
O O5 0.562022 0.265128 0.749750
O O6 0.625678 0.972951 0.528522
O O7 0.834337 0.713980 0.288400
O O8 0.914005 0.981606 0.305279
O O9 0.000000 0.000000 0.000000
O O10 0.588759 0.338352 0.197151
O O11 0.500000 0.500000 0.000000
#
# Coordination Sequence:
#
# PCOD9238619 Si02
#       6
#     4   2   4   4   4   2
#     4  12  27  46  75 112 153 200 261 324 400 468
#     4  12  28  50  78 112 150 212 270 320 400 468
#     4  12  27  46  77 114 156 205 261 325 405 479
#     4  12  27  48  76 111 157 205 264 329 393 471
#     4  12  28  48  76 107 154 202 262 333 387 468
#     4  12  24  44  72 110 146 202 246 322 392 468
#
# _framework density 24.233525
#
# number of rings (size 3 to 8) (size 9 to 14) (size 15 to 20)
#    0.000    0.000    2.000    7.800    8.400    4.800 
#    0.000    0.000    0.000    0.000    0.000    0.000 
#    0.000    0.000    0.000    0.000    0.000    0.000 
#
# Total GULP energy -111719.792036 kJ/mol
# GULP energy per Si atom -5585.989602 kJ/mol
# Density = 2.417837 g / cm^3
# Si number density = 24.233525 Si / 1000 Ang^3
#
#
#
# Elastic Constant Matrix: (Units=GPa)
#
#
# Indices 1 2 3 4 5 6 
#
# 1 205.5653 81.4343 31.8533 0.0000 -5.6207 0.0000
# 2 81.4343 113.3455 31.0585 0.0000 2.5525 0.0000
# 3 31.8533 31.0585 91.1424 0.0000 15.9400 0.0000
# 4 0.0000 0.0000 0.0000 43.3176 0.0000 0.8303
# 5 -5.6207 2.5525 15.9400 0.0000 49.7195 0.0000
# 6 0.0000 0.0000 0.0000 0.8303 0.0000 46.3788
#
#
#
# Elastic Compliance Matrix: (Units=1/GPa)
#
#
# Indices 1 2 3 4 5 6 
#
# 1 0.006937 -0.004727 -0.001052 0.000000 0.001364 0.000000
# 2 -0.004727 0.012968 -0.002709 0.000000 -0.000331 0.000000
# 3 -0.001052 -0.002709 0.012988 0.000000 -0.004144 0.000000
# 4 0.000000 0.000000 0.000000 0.023093 0.000000 -0.000413
# 5 0.001364 -0.000331 -0.004144 0.000000 0.021613 0.000000
# 6 0.000000 0.000000 0.000000 -0.000413 0.000000 0.021569
#
#
# Mechanical properties :
#
#
# Convention : Reuss Voigt Hill
#
# Bulk Modulus (GPa) = 62.82773 77.63839 70.23306
# Shear Modulus (GPa) = 41.16897 45.59697 43.38297
#
# Velocity S-wave (km/s) = 4.12617 4.34241 4.23567
# Velocity P-wave (km/s) = 6.97730 7.56632 7.27777
#
# Compressibility (1/GPa) = 0.01591654
#
# Stress axis : x y z
#
# Youngs Moduli (GPa) = 144.14471 77.11081 76.99632
#
# Poissons Ratio (x) = 0.36447 0.08104
# Poissons Ratio (y) = 0.68132 0.20861
# Poissons Ratio (z) = 0.15171 0.20892
#
# Static dielectric constant tensor:
#      x y z
#    x 2.038210 0.000000 -0.066790 
#    y 0.000000 1.938440 0.000000 
#    z -0.066790 0.000000 2.016030 
# 
# From -- ./inp_files/58018.got.cif
#   From: 2010.05.17/outbox.cif.g08.bks.cpg/sg13_30_cif.got.tgz:58018.got - 2010.06.03 16:44:36.
