data_PCOD9238112
_publ_section_title
;
Structure prediction by ZEFSAII (Michael W. Deem and Ramdas Pophale) SiO2 
 PCOD9238112
Probable space group: P 2/C
;
_chemical_formula_sum "Si O2"
_cell_formula_units_Z 16
_cell_length_a 13.096452
_cell_length_b 7.049077
_cell_length_c 9.390152
_cell_angle_alpha 90.000000
_cell_angle_beta 110.176859
_cell_angle_gamma 90.000000
_cell_volume 813.680817
_symmetry_space_group_name_H-M "P 2/C"
_symmetry_group_IT_number 13
_symmetry_cell_setting 'monoclinic'
loop_
_space_group_symop_operation_xyz
x,y,z
-x,y,1/2-z
-x,-y,-z
x,-y,1/2+z
loop_
_atom_site_type_symbol
_atom_site_label
_atom_site_fract_x
_atom_site_fract_y
_atom_site_fract_z
Si Si1 0.824597 0.500096 0.943998
Si Si2 0.010550 0.800878 0.084673
Si Si3 0.506829 0.199862 0.582044
Si Si4 0.323853 0.480149 0.373685
O O1 0.879384 0.311379 0.905319
O O2 0.784807 0.470833 0.085016
O O3 0.716595 0.555974 0.805383
O O4 0.086573 0.335100 0.015473
O O5 0.000000 0.822324 0.250000
O O6 0.000000 0.000000 0.000000
O O7 0.500000 0.181151 0.750000
O O8 0.408108 0.328663 0.476058
O O9 0.615951 0.317081 0.596527
O O10 0.500000 0.000000 0.500000
#
# Coordination Sequence:
#
# PCOD9238112 Si02
#       4
#     4   4   4   4
#     4  11  24  45  66  91 130 172 213 259 316 376
#     4  11  26  42  65  98 130 165 213 264 315 377
#     4  11  26  42  65  98 130 165 213 264 315 377
#     4  11  24  45  66  91 130 172 213 259 316 376
#
# _framework density 19.663727999999999
#
# number of rings (size 3 to 8) (size 9 to 14) (size 15 to 20)
#    0.000    1.000    5.000    0.000    7.000    4.000 
#    0.000    0.000    0.000    0.000    0.000    0.000 
#    0.000    0.000    0.000    0.000    0.000    0.000 
#
# Total GULP energy -89405.217918 kJ/mol
# GULP energy per Si atom -5587.826120 kJ/mol
# Density = 1.961897 g / cm^3
# Si number density = 19.663728 Si / 1000 Ang^3
#
#
#
# Elastic Constant Matrix: (Units=GPa)
#
#
# Indices 1 2 3 4 5 6 
#
# 1 76.3289 45.8321 2.3854 0.0000 -11.6396 0.0000
# 2 45.8321 153.5693 62.6719 0.0000 -14.9553 0.0000
# 3 2.3854 62.6719 101.9030 0.0000 0.4129 0.0000
# 4 0.0000 0.0000 0.0000 32.4443 0.0000 -7.0556
# 5 -11.6396 -14.9553 0.4129 0.0000 40.0385 0.0000
# 6 0.0000 0.0000 0.0000 -7.0556 0.0000 12.7293
#
#
#
# Elastic Compliance Matrix: (Units=1/GPa)
#
#
# Indices 1 2 3 4 5 6 
#
# 1 0.017158 -0.006273 0.003446 0.000000 0.002609 0.000000
# 2 -0.006273 0.011447 -0.006903 0.000000 0.002523 0.000000
# 3 0.003446 -0.006903 0.013985 0.000000 -0.001721 0.000000
# 4 0.000000 0.000000 0.000000 0.035047 0.000000 0.019426
# 5 0.002609 0.002523 -0.001721 0.000000 0.026695 0.000000
# 6 0.000000 0.000000 0.000000 0.019426 0.000000 0.089327
#
#
# Mechanical properties :
#
#
# Convention : Reuss Voigt Hill
#
# Bulk Modulus (GPa) = 43.23573 61.50890 52.37232
# Shear Modulus (GPa) = 22.64200 31.76986 27.20593
#
# Velocity S-wave (km/s) = 3.39700 4.02389 3.72366
# Velocity P-wave (km/s) = 6.11731 7.27579 6.72155
#
# Compressibility (1/GPa) = 0.02312902
#
# Stress axis : x y z
#
# Youngs Moduli (GPa) = 58.28199 87.36068 71.50400
#
# Poissons Ratio (x) = 0.54799 -0.24638
# Poissons Ratio (y) = 0.36559 0.49362
# Poissons Ratio (z) = -0.20082 0.60308
#
# Static dielectric constant tensor:
#      x y z
#    x 1.697150 0.000000 0.011540 
#    y 0.000000 1.639510 0.000000 
#    z 0.011540 0.000000 1.668370 
# 
# From -- ./inp_files/15047.got.cif
#   From: 2010.05.17/outbox.cif.g08.bks.cpg/sg13_8_cif.got.tgz:15047.got - 2010.06.03 16:44:36.
