data_PCOD9238505
_publ_section_title
;
Structure prediction by ZEFSAII (Michael W. Deem and Ramdas Pophale) SiO2 
 PCOD9238505
Probable space group: P 2/C
;
_chemical_formula_sum "Si O2"
_cell_formula_units_Z 20
_cell_length_a 20.348932
_cell_length_b 6.910169
_cell_length_c 9.205148
_cell_angle_alpha 90.000000
_cell_angle_beta 39.086183
_cell_angle_gamma 90.000000
_cell_volume 816.090521
_symmetry_space_group_name_H-M "P 2/C"
_symmetry_group_IT_number 13
_symmetry_cell_setting 'monoclinic'
loop_
_space_group_symop_operation_xyz
x,y,z
-x,y,1/2-z
-x,-y,-z
x,-y,1/2+z
loop_
_atom_site_type_symbol
_atom_site_label
_atom_site_fract_x
_atom_site_fract_y
_atom_site_fract_z
Si Si1 0.614107 0.231671 0.487563
Si Si2 0.895994 0.104882 0.329860
Si Si3 0.060673 0.352842 0.497350
Si Si4 0.297211 0.074919 0.441702
Si Si5 0.744384 0.402379 0.756663
O O1 0.622666 0.102681 0.327269
O O2 0.654606 0.445141 0.369189
O O3 0.679762 0.114721 0.499747
O O4 0.500000 0.247496 0.750000
O O5 0.928962 0.159655 0.111094
O O6 0.815077 0.270356 0.527665
O O7 0.000000 0.104281 0.250000
O O8 0.816512 0.927292 0.443519
O O9 0.171134 0.448968 0.328420
O O10 0.000000 0.500000 0.500000
O O11 0.000000 0.330640 0.750000
O O12 0.297312 0.254237 0.551580
#
# Coordination Sequence:
#
# PCOD9238505 Si02
#       5
#     4   4   4   4   4
#     4  12  29  51  82 113 150 202 259 322 392 450
#     4  12  25  48  72 115 157 207 252 307 384 461
#     4  12  22  41  74 108 154 205 250 309 376 458
#     4  12  28  52  79 113 158 195 259 324 378 466
#     4  12  25  48  76 108 157 197 256 311 383 448
#
# _framework density 24.507086000000001
#
# number of rings (size 3 to 8) (size 9 to 14) (size 15 to 20)
#    0.000    0.000    8.000    1.800    0.000    2.400 
#    3.600    1.000    0.000    0.000    0.000    0.000 
#    0.000    0.000    0.000    0.000    0.000    0.000 
#
# Total GULP energy -111936.822106 kJ/mol
# GULP energy per Si atom -5596.841105 kJ/mol
# Density = 2.445131 g / cm^3
# Si number density = 24.507086 Si / 1000 Ang^3
#
#
#
# Elastic Constant Matrix: (Units=GPa)
#
#
# Indices 1 2 3 4 5 6 
#
# 1 66.0369 24.0782 39.3105 0.0000 10.3808 0.0000
# 2 24.0782 108.1661 35.4808 0.0000 5.8346 0.0000
# 3 39.3105 35.4808 151.9160 0.0000 26.5009 0.0000
# 4 0.0000 0.0000 0.0000 44.6064 0.0000 9.6149
# 5 10.3808 5.8346 26.5009 0.0000 40.6406 0.0000
# 6 0.0000 0.0000 0.0000 9.6149 0.0000 33.6530
#
#
#
# Elastic Compliance Matrix: (Units=1/GPa)
#
#
# Indices 1 2 3 4 5 6 
#
# 1 0.018766 -0.002806 -0.003876 0.000000 -0.001863 0.000000
# 2 -0.002806 0.010432 -0.001776 0.000000 0.000377 0.000000
# 3 -0.003876 -0.001776 0.008782 0.000000 -0.004482 0.000000
# 4 0.000000 0.000000 0.000000 0.023889 0.000000 -0.006825
# 5 -0.001863 0.000377 -0.004482 0.000000 0.027950 0.000000
# 6 0.000000 0.000000 0.000000 -0.006825 0.000000 0.031665
#
#
# Mechanical properties :
#
#
# Convention : Reuss Voigt Hill
#
# Bulk Modulus (GPa) = 47.47200 58.20645 52.83923
# Shear Modulus (GPa) = 34.38283 38.92997 36.65640
#
# Velocity S-wave (km/s) = 3.74969 3.98995 3.87168
# Velocity P-wave (km/s) = 6.17736 6.71034 6.44936
#
# Compressibility (1/GPa) = 0.02106505
#
# Stress axis : x y z
#
# Youngs Moduli (GPa) = 53.28774 95.86009 113.86759
#
# Poissons Ratio (x) = 0.26894 0.44131
# Poissons Ratio (y) = 0.14950 0.20226
# Poissons Ratio (z) = 0.20653 0.17027
#
# Static dielectric constant tensor:
#      x y z
#    x 1.814610 0.000000 0.038600 
#    y 0.000000 1.813530 0.000000 
#    z 0.038600 0.000000 1.918260 
# 
# From -- ./inp_files/22648.got.cif
#   From: 2010.05.17/outbox.cif.g08.bks.cpg/sg13_12_cif.got.tgz:22648.got - 2010.06.03 16:44:36.
