data_PCOD9238519
_publ_section_title
;
Structure prediction by ZEFSAII (Michael W. Deem and Ramdas Pophale) SiO2 
 PCOD9238519
Probable space group: P 2/C
;
_chemical_formula_sum "Si O2"
_cell_formula_units_Z 16
_cell_length_a 9.029027
_cell_length_b 16.045818
_cell_length_c 9.416232
_cell_angle_alpha 90.000000
_cell_angle_beta 30.101004
_cell_angle_gamma 90.000000
_cell_volume 684.184652
_symmetry_space_group_name_H-M "P 2/C"
_symmetry_group_IT_number 13
_symmetry_cell_setting 'monoclinic'
loop_
_space_group_symop_operation_xyz
x,y,z
-x,y,1/2-z
-x,-y,-z
x,-y,1/2+z
loop_
_atom_site_type_symbol
_atom_site_label
_atom_site_fract_x
_atom_site_fract_y
_atom_site_fract_z
Si Si1 0.000000 0.973801 0.250000
Si Si2 0.521194 0.719538 0.571340
Si Si3 0.965437 0.832705 0.065870
Si Si4 0.500000 0.085632 0.750000
Si Si5 0.797608 0.448372 0.774590
O O1 0.072609 0.917219 0.052278
O O2 0.707377 0.029985 0.475386
O O3 0.500000 0.686277 0.750000
O O4 0.761746 0.790688 0.355059
O O5 0.665740 0.644888 0.360759
O O6 0.211770 0.767793 0.805914
O O7 0.735777 0.858119 0.135697
O O8 0.000000 0.445572 0.750000
O O9 0.000000 0.500000 0.500000
O O10 0.500000 0.500000 0.000000
#
# Coordination Sequence:
#
# PCOD9238519 Si02
#       5
#     2   4   4   2   4
#     4  12  22  44  68  98 142 194 250 292 368 440
#     4  12  23  46  75 103 141 194 247 291 353 448
#     4  12  24  43  70 102 142 190 250 299 364 428
#     4  12  26  42  64 108 146 186 238 320 368 418
#     4  12  26  49  79 114 148 190 243 302 371 449
#
# _framework density 23.3855
#
# number of rings (size 3 to 8) (size 9 to 14) (size 15 to 20)
#    0.000    0.000    2.500    9.750    0.000    0.000 
#    9.000    0.000    0.000    0.000    0.000    0.000 
#    0.000    0.000    0.000    0.000    0.000    0.000 
#
# Total GULP energy -89260.111797 kJ/mol
# GULP energy per Si atom -5578.756987 kJ/mol
# Density = 2.333227 g / cm^3
# Si number density = 23.385500 Si / 1000 Ang^3
#
#
#
# Elastic Constant Matrix: (Units=GPa)
#
#
# Indices 1 2 3 4 5 6 
#
# 1 124.5018 55.2822 45.4069 0.0000 -42.6994 0.0000
# 2 55.2822 112.2849 73.7417 0.0000 -26.9675 0.0000
# 3 45.4069 73.7417 187.1867 0.0000 -38.6027 0.0000
# 4 0.0000 0.0000 0.0000 62.1339 0.0000 -27.1883
# 5 -42.6994 -26.9675 -38.6027 0.0000 46.0012 0.0000
# 6 0.0000 0.0000 0.0000 -27.1883 0.0000 22.3454
#
#
#
# Elastic Compliance Matrix: (Units=1/GPa)
#
#
# Indices 1 2 3 4 5 6 
#
# 1 0.013323 -0.004534 0.000673 0.000000 0.010274 0.000000
# 2 -0.004534 0.014106 -0.004377 0.000000 0.000387 0.000000
# 3 0.000673 -0.004377 0.007864 0.000000 0.004658 0.000000
# 4 0.000000 0.000000 0.000000 0.034420 0.000000 0.041879
# 5 0.010274 0.000387 0.004658 0.000000 0.035411 0.000000
# 6 0.000000 0.000000 0.000000 0.041879 0.000000 0.095708
#
#
# Mechanical properties :
#
#
# Convention : Reuss Voigt Hill
#
# Bulk Modulus (GPa) = 53.14461 85.87054 69.50758
# Shear Modulus (GPa) = 22.36330 42.73230 32.54780
#
# Velocity S-wave (km/s) = 3.09575 4.27933 3.73472
# Velocity P-wave (km/s) = 5.96263 7.82408 6.95590
#
# Compressibility (1/GPa) = 0.01881658
#
# Stress axis : x y z
#
# Youngs Moduli (GPa) = 75.05619 70.89179 127.16237
#
# Poissons Ratio (x) = 0.32143 -0.08558
# Poissons Ratio (y) = 0.34031 0.55662
# Poissons Ratio (z) = -0.05051 0.31031
#
# Static dielectric constant tensor:
#      x y z
#    x 2.034420 0.000000 0.175250 
#    y 0.000000 2.067400 0.000000 
#    z 0.175250 0.000000 1.928430 
# 
# From -- ./inp_files/13007.got.cif
#   From: 2010.05.17/outbox.cif.g08.bks.cpg/sg13_7_cif.got.tgz:13007.got - 2010.06.03 16:44:36.
