data_PCOD9238092
_publ_section_title
;
Structure prediction by ZEFSAII (Michael W. Deem and Ramdas Pophale) SiO2 
 PCOD9238092
Probable space group: P 2/C
;
_chemical_formula_sum "Si O2"
_cell_formula_units_Z 16
_cell_length_a 13.797846
_cell_length_b 7.136792
_cell_length_c 9.791453
_cell_angle_alpha 90.000000
_cell_angle_beta 46.233979
_cell_angle_gamma 90.000000
_cell_volume 696.307807
_symmetry_space_group_name_H-M "P 2/C"
_symmetry_group_IT_number 13
_symmetry_cell_setting 'monoclinic'
loop_
_space_group_symop_operation_xyz
x,y,z
-x,y,1/2-z
-x,-y,-z
x,-y,1/2+z
loop_
_atom_site_type_symbol
_atom_site_label
_atom_site_fract_x
_atom_site_fract_y
_atom_site_fract_z
Si Si1 0.590772 0.007843 0.276389
Si Si2 0.151186 0.990493 0.304761
Si Si3 0.843638 0.561316 0.158401
Si Si4 0.747213 0.297756 0.475056
O O1 0.500000 0.113143 0.250000
O O2 0.736495 0.063953 0.196285
O O3 0.373543 0.811555 0.333944
O O4 0.500000 0.000000 0.500000
O O5 0.176871 0.769974 0.260606
O O6 0.164296 0.120658 0.160263
O O7 0.000000 0.000000 0.500000
O O8 0.748753 0.425851 0.339225
O O9 0.806505 0.576182 0.036381
O O10 0.000000 0.500000 0.000000
#
# Coordination Sequence:
#
# PCOD9238092 Si02
#       4
#     4   4   4   4
#     4  11  24  49  78 107 150 204 258 311 383 465
#     4  11  24  45  81 112 151 203 251 313 390 454
#     4  11  24  44  70 114 159 189 253 320 381 461
#     4  11  25  47  73 112 152 198 255 309 391 449
#
# _framework density 22.978345000000001
#
# number of rings (size 3 to 8) (size 9 to 14) (size 15 to 20)
#    0.000    1.000    5.000    0.750    3.500    4.000 
#    9.000    5.000    0.000    0.000    0.000    0.000 
#    0.000    0.000    0.000    0.000    0.000    0.000 
#
# Total GULP energy -89145.604251 kJ/mol
# GULP energy per Si atom -5571.600266 kJ/mol
# Density = 2.292604 g / cm^3
# Si number density = 22.978345 Si / 1000 Ang^3
#
#
#
# Elastic Constant Matrix: (Units=GPa)
#
#
# Indices 1 2 3 4 5 6 
#
# 1 146.0889 4.4973 83.9007 0.0000 -10.5295 0.0000
# 2 4.4973 115.1633 39.8298 0.0000 20.6927 0.0000
# 3 83.9007 39.8298 170.1798 0.0000 22.6416 0.0000
# 4 0.0000 0.0000 0.0000 70.3038 0.0000 14.2769
# 5 -10.5295 20.6927 22.6416 0.0000 38.1413 0.0000
# 6 0.0000 0.0000 0.0000 14.2769 0.0000 7.5049
#
#
#
# Elastic Compliance Matrix: (Units=1/GPa)
#
#
# Indices 1 2 3 4 5 6 
#
# 1 0.010988 0.000625 -0.006430 0.000000 0.006511 0.000000
# 2 0.000625 0.010127 -0.002139 0.000000 -0.004052 0.000000
# 3 -0.006430 -0.002139 0.010454 0.000000 -0.006820 0.000000
# 4 0.000000 0.000000 0.000000 0.023178 0.000000 -0.044093
# 5 0.006511 -0.004052 -0.006820 0.000000 0.034263 0.000000
# 6 0.000000 0.000000 0.000000 -0.044093 0.000000 0.217126
#
#
# Mechanical properties :
#
#
# Convention : Reuss Voigt Hill
#
# Bulk Modulus (GPa) = 63.77264 76.43195 70.10230
# Shear Modulus (GPa) = 15.27883 43.40360 29.34122
#
# Velocity S-wave (km/s) = 2.58141 4.35085 3.57726
# Velocity P-wave (km/s) = 6.05793 7.65341 6.90193
#
# Compressibility (1/GPa) = 0.01568071
#
# Stress axis : x y z
#
# Youngs Moduli (GPa) = 91.00969 98.74834 95.65661
#
# Poissons Ratio (x) = -0.06169 0.61504
# Poissons Ratio (y) = -0.05685 0.20461
# Poissons Ratio (z) = 0.58516 0.21122
#
# Static dielectric constant tensor:
#      x y z
#    x 1.962460 0.000000 -0.040500 
#    y 0.000000 1.894370 0.000000 
#    z -0.040500 0.000000 1.827690 
# 
# From -- ./inp_files/14728.got.cif
#   From: 2010.05.17/outbox.cif.g08.bks.cpg/sg13_8_cif.got.tgz:14728.got - 2010.06.03 16:44:36.
