data_PCOD9238872
_publ_section_title
;
Structure prediction by ZEFSAII (Michael W. Deem and Ramdas Pophale) SiO2 
 PCOD9238872
Probable space group: P 2/C
;
_chemical_formula_sum "Si O2"
_cell_formula_units_Z 28
_cell_length_a 30.000000
_cell_length_b 9.000000
_cell_length_c 30.000000
_cell_angle_alpha 90.000000
_cell_angle_beta 10.000000
_cell_angle_gamma 90.000000
_cell_volume 1406.550239
_symmetry_space_group_name_H-M "P 2/C"
_symmetry_group_IT_number 13
_symmetry_cell_setting 'monoclinic'
loop_
_space_group_symop_operation_xyz
x,y,z
-x,y,1/2-z
-x,-y,-z
x,-y,1/2+z
loop_
_atom_site_type_symbol
_atom_site_label
_atom_site_fract_x
_atom_site_fract_y
_atom_site_fract_z
Si Si1 0.907935 0.602750 0.132366
Si Si2 0.068186 0.470252 0.291156
Si Si3 0.610564 0.776447 0.869196
Si Si4 0.562068 0.525227 0.238845
Si Si5 0.423964 0.925837 0.504692
Si Si6 0.912842 0.872403 0.960934
Si Si7 0.747869 0.141105 0.529822
O O1 0.914717 0.536948 0.175779
O O2 0.617519 0.657285 0.410933
O O3 0.000000 0.500000 0.000000
O O4 0.121254 0.731585 0.917315
O O5 0.819216 0.533871 0.509904
O O6 0.014093 0.295153 0.352446
O O7 0.320319 0.484937 0.011010
O O8 0.513255 0.924575 0.940841
O O9 0.639418 0.809535 0.893390
O O10 0.500000 0.464458 0.250000
O O11 0.637518 0.698199 0.154642
O O12 0.159848 0.952086 0.738509
O O13 0.661306 0.872388 0.240141
O O14 0.833929 0.936927 0.990613
O O15 0.500000 0.069895 0.750000
O O16 0.000000 0.159021 0.250000
#
# Coordination Sequence:
#
# PCOD9238872 Si02
#       7
#     4   4   4   4   4   4   4
#     4  12  24  39  58  83 116 150 181 227 282 331
#     4  11  21  33  54  85 115 144 181 223 278 341
#     4  11  24  40  57  80 111 146 188 229 270 320
#     4  10  18  32  51  78 114 146 179 224 277 330
#     4  11  22  38  58  80 107 146 190 228 264 319
#     4  11  20  34  56  84 113 145 182 223 274 329
#     4  10  18  30  49  80 117 146 174 220 281 334
#
# _framework density 19.906860999999999
#
# number of rings (size 3 to 8) (size 9 to 14) (size 15 to 20)
#    0.000    1.143    0.000   11.143    0.000    2.286 
#    0.000    0.000    0.000    0.000    0.000   35.000 
#    0.000    0.000    0.000    0.000    0.000    0.000 
#
# Total GULP energy -156354.329421 kJ/mol
# GULP energy per Si atom -5584.083194 kJ/mol
# Density = 1.986155 g / cm^3
# Si number density = 19.906861 Si / 1000 Ang^3
#
#
#
# Elastic Constant Matrix: (Units=GPa)
#
#
# Indices 1 2 3 4 5 6 
#
# 1 175.5159 17.1412 71.5416 0.0000 2.1597 0.0000
# 2 17.1412 14.5562 3.0426 0.0000 0.4877 0.0000
# 3 71.5416 3.0426 167.2824 0.0000 16.4900 0.0000
# 4 0.0000 0.0000 0.0000 24.6339 0.0000 -0.9594
# 5 2.1597 0.4877 16.4900 0.0000 56.6593 0.0000
# 6 0.0000 0.0000 0.0000 -0.9594 0.0000 15.8871
#
#
#
# Elastic Compliance Matrix: (Units=1/GPa)
#
#
# Indices 1 2 3 4 5 6 
#
# 1 0.007865 -0.008601 -0.003279 0.000000 0.000729 0.000000
# 2 -0.008601 0.078370 0.002355 0.000000 -0.001032 0.000000
# 3 -0.003279 0.002355 0.007544 0.000000 -0.002091 0.000000
# 4 0.000000 0.000000 0.000000 0.040690 0.000000 0.002457
# 5 0.000729 -0.001032 -0.002091 0.000000 0.018239 0.000000
# 6 0.000000 0.000000 0.000000 0.002457 0.000000 0.063092
#
#
# Mechanical properties :
#
#
# Convention : Reuss Voigt Hill
#
# Bulk Modulus (GPa) = 13.38188 60.08950 36.73569
# Shear Modulus (GPa) = 19.24857 37.14466 28.19662
#
# Velocity S-wave (km/s) = 3.11293 4.32432 3.76763
# Velocity P-wave (km/s) = 4.43365 7.42858 6.11723
#
# Compressibility (1/GPa) = 0.07472791
#
# Stress axis : x y z
#
# Youngs Moduli (GPa) = 127.14470 12.76002 132.56400
#
# Poissons Ratio (x) = 0.10975 0.43468
# Poissons Ratio (y) = 1.09355 -0.31214
# Poissons Ratio (z) = 0.41691 -0.03004
#
# Static dielectric constant tensor:
#      x y z
#    x 1.772690 0.000000 -0.059070 
#    y 0.000000 1.739020 0.000000 
#    z -0.059070 0.000000 1.689070 
# 
# From -- ./inp_files/98024.got.cif
#   From: 2010.05.17/outbox.ucp.g08.bks.cvg/sg13_50_cif.got.tgz:98024.got - 2010.06.11 12:23:55.
