data_PCOD9238678
_publ_section_title
;
Structure prediction by ZEFSAII (Michael W. Deem and Ramdas Pophale) SiO2 
 PCOD9238678
Probable space group: P 2/C
;
_chemical_formula_sum "Si O2"
_cell_formula_units_Z 22
_cell_length_a 14.367387
_cell_length_b 11.249776
_cell_length_c 11.978432
_cell_angle_alpha 90.000000
_cell_angle_beta 149.915251
_cell_angle_gamma 90.000000
_cell_volume 970.515308
_symmetry_space_group_name_H-M "P 2/C"
_symmetry_group_IT_number 13
_symmetry_cell_setting 'monoclinic'
loop_
_space_group_symop_operation_xyz
x,y,z
-x,y,1/2-z
-x,-y,-z
x,-y,1/2+z
loop_
_atom_site_type_symbol
_atom_site_label
_atom_site_fract_x
_atom_site_fract_y
_atom_site_fract_z
Si Si1 0.711642 0.629148 0.995612
Si Si2 0.013738 0.202495 0.411619
Si Si3 0.651476 0.829238 0.112540
Si Si4 0.286577 0.031755 0.507484
Si Si5 0.000000 0.426513 0.250000
Si Si6 0.227495 0.171250 0.123676
O O1 0.500000 0.596908 0.750000
O O2 0.776830 0.718562 0.965654
O O3 0.705883 0.708751 0.101769
O O4 0.835711 0.513303 0.117319
O O5 0.929628 0.184674 0.447951
O O6 0.227094 0.162714 0.650364
O O7 0.028382 0.336158 0.382160
O O8 0.860995 0.132155 0.179219
O O9 0.429191 0.828770 0.892727
O O10 0.697799 0.940888 0.081658
O O11 0.500000 0.070458 0.750000
O O12 0.217665 0.944341 0.535154
#
# Coordination Sequence:
#
# PCOD9238678 Si02
#       6
#     4   4   4   4   2   4
#     4   9  20  43  68  89 122 164 206 254 303 358
#     4  12  25  38  61  93 130 164 199 253 310 364
#     4   9  20  41  68  94 117 157 211 253 302 367
#     4   9  21  41  64  92 126 161 201 251 308 371
#     4  12  28  40  54  92 130 160 210 262 306 358
#     4   9  21  43  68  90 119 164 209 249 304 370
#
# _framework density 22.668369999999999
#
# number of rings (size 3 to 8) (size 9 to 14) (size 15 to 20)
#    0.000    2.182    0.000    3.818    0.000   14.545 
#    0.000    5.455    0.000    0.000    0.000    0.000 
#    0.000    0.000    0.000    0.000    0.000    0.000 
#
# Total GULP energy -123113.237796 kJ/mol
# GULP energy per Si atom -5596.056263 kJ/mol
# Density = 2.261678 g / cm^3
# Si number density = 22.668370 Si / 1000 Ang^3
#
#
#
# Elastic Constant Matrix: (Units=GPa)
#
#
# Indices 1 2 3 4 5 6 
#
# 1 59.5574 9.3797 9.5187 0.0000 8.8462 0.0000
# 2 9.3797 130.4690 58.6217 0.0000 12.2036 0.0000
# 3 9.5187 58.6217 167.5312 0.0000 -0.6664 0.0000
# 4 0.0000 0.0000 0.0000 1.7201 0.0000 10.2160
# 5 8.8462 12.2036 -0.6664 0.0000 26.9223 0.0000
# 6 0.0000 0.0000 0.0000 10.2160 0.0000 6.8897
#
#
#
# Elastic Compliance Matrix: (Units=1/GPa)
#
#
# Indices 1 2 3 4 5 6 
#
# 1 0.017842 -0.000333 -0.000920 0.000000 -0.005734 0.000000
# 2 -0.000333 0.009602 -0.003358 0.000000 -0.004326 0.000000
# 3 -0.000920 -0.003358 0.007204 0.000000 0.002003 0.000000
# 4 0.000000 0.000000 0.000000 -0.074471 0.000000 0.110424
# 5 -0.005734 -0.004326 0.002003 0.000000 0.041039 0.000000
# 6 0.000000 0.000000 0.000000 0.110424 0.000000 -0.018592
#
#
# Mechanical properties :
#
#
# Convention : Reuss Voigt Hill
#
# Bulk Modulus (GPa) = 39.32998 56.95531 48.14264
# Shear Modulus (GPa) = 15523.41359 25.77558 7774.59459
#
# Velocity S-wave (km/s) = 82.84272 3.37571 58.62726
# Velocity P-wave (km/s) = 95.74938 6.35404 67.85395
#
# Compressibility (1/GPa) = 0.02542590
#
# Stress axis : x y z
#
# Youngs Moduli (GPa) = 56.04835 104.14321 138.80455
#
# Poissons Ratio (x) = 0.03467 0.12770
# Poissons Ratio (y) = 0.01866 0.46614
# Poissons Ratio (z) = 0.05157 0.34974
#
# Static dielectric constant tensor:
#      x y z
#    x 1.888030 0.000000 -0.032910 
#    y 0.000000 1.801860 0.000000 
#    z -0.032910 0.000000 1.875380 
# 
# From -- ./inp_files/37253.got.cif
#   From: 2010.05.17/outbox.cif.g08.bks.cpg/sg13_19_cif.got.tgz:37253.got - 2010.06.03 16:44:36.
