data_PCOD9238087
_publ_section_title
;
Structure prediction by ZEFSAII (Michael W. Deem and Ramdas Pophale) SiO2 
 PCOD9238087
Probable space group: P 2/C
;
_chemical_formula_sum "Si O2"
_cell_formula_units_Z 12
_cell_length_a 10.643946
_cell_length_b 6.951736
_cell_length_c 7.976705
_cell_angle_alpha 90.000000
_cell_angle_beta 57.326297
_cell_angle_gamma 90.000000
_cell_volume 496.829129
_symmetry_space_group_name_H-M "P 2/C"
_symmetry_group_IT_number 13
_symmetry_cell_setting 'monoclinic'
loop_
_space_group_symop_operation_xyz
x,y,z
-x,y,1/2-z
-x,-y,-z
x,-y,1/2+z
loop_
_atom_site_type_symbol
_atom_site_label
_atom_site_fract_x
_atom_site_fract_y
_atom_site_fract_z
Si Si1 0.888908 0.714935 0.170810
Si Si2 0.817459 0.268858 0.211740
Si Si3 0.322978 0.949298 0.372276
O O1 0.825066 0.499660 0.201976
O O2 0.749292 0.852205 0.242095
O O3 0.000000 0.722710 0.250000
O O4 0.007044 0.776447 0.939975
O O5 0.741618 0.183905 0.432331
O O6 0.731199 0.168758 0.118676
O O7 0.500000 0.942650 0.250000
#
# Coordination Sequence:
#
# PCOD9238087 Si02
#       3
#     4   4   4
#     4  11  24  45  71  97 132 183 236 280 328 399
#     4  11  24  44  69 100 137 182 231 278 333 404
#     4  12  26  44  71 105 142 179 219 282 351 408
#
# _framework density 24.153174
#
# number of rings (size 3 to 8) (size 9 to 14) (size 15 to 20)
#    0.000    0.667    0.000    9.000    0.000    4.000 
#    0.000    0.000    0.000    0.000    0.000    0.000 
#    0.000    0.000    0.000    0.000    0.000    0.000 
#
# Total GULP energy -67028.402975 kJ/mol
# GULP energy per Si atom -5585.700248 kJ/mol
# Density = 2.409820 g / cm^3
# Si number density = 24.153174 Si / 1000 Ang^3
#
#
#
# Elastic Constant Matrix: (Units=GPa)
#
#
# Indices 1 2 3 4 5 6 
#
# 1 185.8087 79.2127 81.9906 0.0000 -38.8649 0.0000
# 2 79.2127 121.3634 47.5901 0.0000 -21.7087 0.0000
# 3 81.9906 47.5901 128.0900 0.0000 -1.8561 0.0000
# 4 0.0000 0.0000 0.0000 -15.0836 0.0000 90.9495
# 5 -38.8649 -21.7087 -1.8561 0.0000 51.6862 0.0000
# 6 0.0000 0.0000 0.0000 90.9495 0.0000 -192.0958
#
#
#
# Elastic Compliance Matrix: (Units=1/GPa)
#
#
# Indices 1 2 3 4 5 6 
#
# 1 0.010626 -0.003733 -0.005325 0.000000 0.006231 0.000000
# 2 -0.003733 0.011823 -0.001973 0.000000 0.002088 0.000000
# 3 -0.005325 -0.001973 0.011884 0.000000 -0.004406 0.000000
# 4 0.000000 0.000000 0.000000 0.035743 0.000000 0.016923
# 5 0.006231 0.002088 -0.004406 0.000000 0.024752 0.000000
# 6 0.000000 0.000000 0.000000 0.016923 0.000000 0.002807
#
#
# Mechanical properties :
#
#
# Convention : Reuss Voigt Hill
#
# Bulk Modulus (GPa) = 81.48138 94.76099 88.12119
# Shear Modulus (GPa) = 40.39152 -16.00074 12.19539
#
# Velocity S-wave (km/s) = 4.09382 -2.57664 2.24948
# Velocity P-wave (km/s) = 7.49362 5.51964 6.58106
#
# Compressibility (1/GPa) = 0.01227274
#
# Stress axis : x y z
#
# Youngs Moduli (GPa) = 94.10648 84.57757 84.14330
#
# Poissons Ratio (x) = 0.31574 0.44803
# Poissons Ratio (y) = 0.35131 0.16601
# Poissons Ratio (z) = 0.50108 0.16687
#
# Static dielectric constant tensor:
#      x y z
#    x 1.909820 0.000000 0.164970 
#    y 0.000000 1.940770 0.000000 
#    z 0.164970 0.000000 2.139860 
# 
# From -- ./inp_files/10504.got.cif
#   From: 2010.05.17/outbox.cif.g08.bks.cpg/sg13_6_cif.got.tgz:10504.got - 2010.06.03 16:44:36.
