data_PCOD9238079
_publ_section_title
;
Structure prediction by ZEFSAII (Michael W. Deem and Ramdas Pophale) SiO2 
 PCOD9238079
Probable space group: P 2/C
;
_chemical_formula_sum "Si O2"
_cell_formula_units_Z 24
_cell_length_a 21.954916
_cell_length_b 9.286264
_cell_length_c 14.195841
_cell_angle_alpha 90.000000
_cell_angle_beta 158.342098
_cell_angle_gamma 90.000000
_cell_volume 1068.158231
_symmetry_space_group_name_H-M "P 2/C"
_symmetry_group_IT_number 13
_symmetry_cell_setting 'monoclinic'
loop_
_space_group_symop_operation_xyz
x,y,z
-x,y,1/2-z
-x,-y,-z
x,-y,1/2+z
loop_
_atom_site_type_symbol
_atom_site_label
_atom_site_fract_x
_atom_site_fract_y
_atom_site_fract_z
Si Si1 0.727879 0.696866 0.832262
Si Si2 0.246593 0.487829 0.782947
Si Si3 0.599665 0.817150 0.051548
Si Si4 0.500000 0.966173 0.250000
Si Si5 0.000000 0.082992 0.750000
Si Si6 0.231807 0.141689 0.508033
Si Si7 0.865640 0.537991 0.674788
O O1 0.663694 0.612050 0.648379
O O2 0.585573 0.778498 0.683463
O O3 0.868561 0.812196 0.011605
O O4 0.802806 0.574543 0.007699
O O5 0.243708 0.517599 0.889066
O O6 0.055420 0.491488 0.474475
O O7 0.318606 0.331782 0.864243
O O8 0.594906 0.932118 0.961290
O O9 0.312474 0.129213 0.727470
O O10 0.632365 0.879999 0.377767
O O11 0.092929 0.981702 0.808766
O O12 0.153557 0.299259 0.387380
#
# Coordination Sequence:
#
# PCOD9238079 Si02
#       7
#     4   4   4   2   2   4   4
#     4  12  24  47  73 102 141 188 242 299 354 426
#     4  11  24  43  76 105 139 186 241 304 349 423
#     4  12  26  48  73 106 145 192 240 298 367 420
#     4  12  28  46  68 108 152 184 240 294 364 446
#     4  12  26  46  76 100 146 194 228 298 364 430
#     4  12  28  47  75 106 149 191 237 299 362 437
#     4  11  25  45  71 110 139 183 247 296 356 423
#
# _framework density 22.468581
#
# number of rings (size 3 to 8) (size 9 to 14) (size 15 to 20)
#    0.000    0.333    5.000    3.000    2.333    0.000 
#    0.000    2.500    0.000    0.000    0.000    0.000 
#    0.000    0.000    0.000    0.000    0.000    0.000 
#
# Total GULP energy -134528.172196 kJ/mol
# GULP energy per Si atom -5605.340508 kJ/mol
# Density = 2.241744 g / cm^3
# Si number density = 22.468581 Si / 1000 Ang^3
#
#
#
# Elastic Constant Matrix: (Units=GPa)
#
#
# Indices 1 2 3 4 5 6 
#
# 1 124.7301 39.8228 30.0787 0.0000 -16.5297 0.0000
# 2 39.8228 125.6488 22.3203 0.0000 -2.6726 0.0000
# 3 30.0787 22.3203 24.1650 0.0000 -0.7413 0.0000
# 4 0.0000 0.0000 0.0000 -14.6484 0.0000 -13.6494
# 5 -16.5297 -2.6726 -0.7413 0.0000 28.2715 0.0000
# 6 0.0000 0.0000 0.0000 -13.6494 0.0000 34.9811
#
#
#
# Elastic Compliance Matrix: (Units=1/GPa)
#
#
# Indices 1 2 3 4 5 6 
#
# 1 0.012899 -0.001346 -0.014597 0.000000 0.007032 0.000000
# 2 -0.001346 0.009674 -0.007263 0.000000 -0.000063 0.000000
# 3 -0.014597 -0.007263 0.066029 0.000000 -0.007490 0.000000
# 4 0.000000 0.000000 0.000000 -0.050064 0.000000 -0.019535
# 5 0.007032 -0.000063 -0.007490 0.000000 0.039280 0.000000
# 6 0.000000 0.000000 0.000000 -0.019535 0.000000 0.020965
#
#
# Mechanical properties :
#
#
# Convention : Reuss Voigt Hill
#
# Bulk Modulus (GPa) = 23.70099 50.99861 37.34980
# Shear Modulus (GPa) = 31.39585 21.87565 26.63575
#
# Velocity S-wave (km/s) = 3.74213 3.12366 3.44680
# Velocity P-wave (km/s) = 5.40766 5.97969 5.70085
#
# Compressibility (1/GPa) = 0.04219233
#
# Stress axis : x y z
#
# Youngs Moduli (GPa) = 77.52656 103.37054 15.14475
#
# Poissons Ratio (x) = 0.13909 0.22107
# Poissons Ratio (y) = 0.10432 0.10999
# Poissons Ratio (z) = 1.13164 0.75073
#
# Static dielectric constant tensor:
#      x y z
#    x 1.856610 0.000000 0.010880 
#    y 0.000000 1.794950 0.000000 
#    z 0.010880 0.000000 1.843840 
# 
# From -- ./inp_files/58766.got.cif
#   From: 2010.05.17/outbox.cif.g08.bks.cpg/sg13_30_cif.got.tgz:58766.got - 2010.06.03 16:44:36.
