data_PCOD9238826
_publ_section_title
;
Structure prediction by ZEFSAII (Michael W. Deem and Ramdas Pophale) SiO2 
 PCOD9238826
Probable space group: P 2/C
;
_chemical_formula_sum "Si O2"
_cell_formula_units_Z 22
_cell_length_a 13.596518
_cell_length_b 4.921178
_cell_length_c 13.419044
_cell_angle_alpha 90.000000
_cell_angle_beta 66.754565
_cell_angle_gamma 90.000000
_cell_volume 824.992592
_symmetry_space_group_name_H-M "P 2/C"
_symmetry_group_IT_number 13
_symmetry_cell_setting 'monoclinic'
loop_
_space_group_symop_operation_xyz
x,y,z
-x,y,1/2-z
-x,-y,-z
x,-y,1/2+z
loop_
_atom_site_type_symbol
_atom_site_label
_atom_site_fract_x
_atom_site_fract_y
_atom_site_fract_z
Si Si1 0.685557 0.216180 0.292541
Si Si2 0.500000 0.545900 0.250000
Si Si3 0.783835 0.691847 0.499425
Si Si4 0.596042 0.910530 0.032847
Si Si5 0.182403 0.833959 0.380218
Si Si6 0.107997 0.536747 0.245564
O O1 0.589389 0.359058 0.270713
O O2 0.801262 0.355056 0.240875
O O3 0.664810 0.235004 0.419078
O O4 0.715164 0.925100 0.230702
O O5 0.550796 0.734778 0.142135
O O6 0.837033 0.674470 0.371054
O O7 0.666170 0.830546 0.538404
O O8 0.845681 0.912427 0.540495
O O9 0.786757 0.594630 0.055191
O O10 0.500000 0.000000 0.000000
O O11 0.089503 0.749966 0.341545
O O12 0.000000 0.402449 0.250000
#
# Coordination Sequence:
#
# PCOD9238826 Si02
#       6
#     4   2   4   4   4   4
#     4  12  28  56  82 129 174 225 287 355 429 506
#     4  12  30  52  94 124 176 232 284 352 430 518
#     4  12  28  53  85 123 172 226 278 357 424 507
#     4  12  29  50  84 126 173 226 287 354 428 509
#     4  12  28  53  84 118 175 217 285 347 422 506
#     4  12  29  56  88 125 173 226 288 357 425 510
#
# _framework density 26.666906999999998
#
# number of rings (size 3 to 8) (size 9 to 14) (size 15 to 20)
#    0.000    0.000    3.636    3.818    7.636    2.182 
#    0.000    0.909    0.000    0.000    0.000    0.000 
#    0.000    0.000    0.000    0.000    0.000    0.000 
#
# Total GULP energy -123281.692591 kJ/mol
# GULP energy per Si atom -5603.713300 kJ/mol
# Density = 2.660621 g / cm^3
# Si number density = 26.666907 Si / 1000 Ang^3
#
#
#
# Elastic Constant Matrix: (Units=GPa)
#
#
# Indices 1 2 3 4 5 6 
#
# 1 145.9216 50.8114 39.7582 0.0000 27.7330 0.0000
# 2 50.8114 139.8240 66.2054 0.0000 19.3224 0.0000
# 3 39.7582 66.2054 192.6252 0.0000 45.5145 0.0000
# 4 0.0000 0.0000 0.0000 51.7446 0.0000 10.0666
# 5 27.7330 19.3224 45.5145 0.0000 33.6835 0.0000
# 6 0.0000 0.0000 0.0000 10.0666 0.0000 10.6149
#
#
#
# Elastic Compliance Matrix: (Units=1/GPa)
#
#
# Indices 1 2 3 4 5 6 
#
# 1 0.008849 -0.002599 0.000640 0.000000 -0.006661 0.000000
# 2 -0.002599 0.009348 -0.002813 0.000000 0.000578 0.000000
# 3 0.000640 -0.002813 0.008475 0.000000 -0.010366 0.000000
# 4 0.000000 0.000000 0.000000 0.023698 0.000000 -0.022474
# 5 -0.006661 0.000578 -0.010366 0.000000 0.048847 0.000000
# 6 0.000000 0.000000 0.000000 -0.022474 0.000000 0.115520
#
#
# Mechanical properties :
#
#
# Convention : Reuss Voigt Hill
#
# Bulk Modulus (GPa) = 58.37668 87.99121 73.18395
# Shear Modulus (GPa) = 21.74002 40.64834 31.19418
#
# Velocity S-wave (km/s) = 2.85834 3.90846 3.42390
# Velocity P-wave (km/s) = 5.72993 7.31000 6.56766
#
# Compressibility (1/GPa) = 0.01713013
#
# Stress axis : x y z
#
# Youngs Moduli (GPa) = 113.00409 106.97108 117.98726
#
# Poissons Ratio (x) = 0.27797 -0.07557
# Poissons Ratio (y) = 0.29365 0.33194
# Poissons Ratio (z) = -0.07237 0.30095
#
# Static dielectric constant tensor:
#      x y z
#    x 2.151940 0.000000 -0.086800 
#    y 0.000000 2.297330 0.000000 
#    z -0.086800 0.000000 2.079150 
# 
# From -- ./inp_files/48946.got.cif
#   From: 2010.05.17/outbox.cif.g08.bks.cpg/sg13_25_cif.got.tgz:48946.got - 2010.06.03 16:44:36.
