data_PCOD9238210
_publ_section_title
;
Structure prediction by ZEFSAII (Michael W. Deem and Ramdas Pophale) SiO2 
 PCOD9238210
Probable space group: P 2/C
;
_chemical_formula_sum "Si O2"
_cell_formula_units_Z 24
_cell_length_a 9.504641
_cell_length_b 10.056292
_cell_length_c 23.635536
_cell_angle_alpha 90.000000
_cell_angle_beta 26.370200
_cell_angle_gamma 90.000000
_cell_volume 1003.431059
_symmetry_space_group_name_H-M "P 2/C"
_symmetry_group_IT_number 13
_symmetry_cell_setting 'monoclinic'
loop_
_space_group_symop_operation_xyz
x,y,z
-x,y,1/2-z
-x,-y,-z
x,-y,1/2+z
loop_
_atom_site_type_symbol
_atom_site_label
_atom_site_fract_x
_atom_site_fract_y
_atom_site_fract_z
Si Si1 0.679056 0.565351 0.591622
Si Si2 0.609144 0.308407 0.774811
Si Si3 0.687081 0.236259 0.499285
Si Si4 0.365812 0.966076 0.628038
Si Si5 0.596420 0.835507 0.774226
Si Si6 0.335440 0.693512 0.021242
O O1 0.407072 0.469360 0.713521
O O2 0.641980 0.714787 0.627144
O O3 0.659159 0.583919 0.530835
O O4 0.000000 0.500000 0.500000
O O5 0.500000 0.274064 0.750000
O O6 0.394702 0.265059 0.905669
O O7 0.968091 0.264953 0.657086
O O8 0.486903 0.329283 0.528395
O O9 0.057800 0.232462 0.352164
O O10 0.571167 0.085047 0.530116
O O11 0.417557 0.952135 0.675970
O O12 0.460227 0.819184 0.573812
O O13 0.000000 0.993412 0.750000
O O14 0.500000 0.895302 0.750000
#
# Coordination Sequence:
#
# PCOD9238210 Si02
#       6
#     4   4   4   4   4   4
#     4  11  24  48  76 100 147 199 239 309 374 439
#     4  12  26  44  71 106 147 192 244 306 373 437
#     4  12  27  46  75 110 149 191 251 313 369 450
#     4  11  24  48  76 102 153 196 237 317 380 440
#     4  11  26  45  74 109 144 197 256 300 379 448
#     4  11  25  47  74 107 142 197 252 296 379 449
#
# _framework density 23.917937999999999
#
# number of rings (size 3 to 8) (size 9 to 14) (size 15 to 20)
#    0.000    0.667    3.333    3.500    7.000    2.000 
#    3.000    0.000    0.000    0.000    0.000    0.000 
#    0.000    0.000    0.000    0.000    0.000    0.000 
#
# Total GULP energy -134284.182073 kJ/mol
# GULP energy per Si atom -5595.174253 kJ/mol
# Density = 2.386350 g / cm^3
# Si number density = 23.917938 Si / 1000 Ang^3
#
#
#
# Elastic Constant Matrix: (Units=GPa)
#
#
# Indices 1 2 3 4 5 6 
#
# 1 203.2024 39.9108 45.0839 0.0000 10.6056 0.0000
# 2 39.9108 64.3515 2.5866 0.0000 -2.8436 0.0000
# 3 45.0839 2.5866 82.1307 0.0000 -12.0564 0.0000
# 4 0.0000 0.0000 0.0000 39.4348 0.0000 11.0046
# 5 10.6056 -2.8436 -12.0564 0.0000 41.2558 0.0000
# 6 0.0000 0.0000 0.0000 11.0046 0.0000 19.4002
#
#
#
# Elastic Compliance Matrix: (Units=1/GPa)
#
#
# Indices 1 2 3 4 5 6 
#
# 1 0.006825 -0.004211 -0.004089 0.000000 -0.003240 0.000000
# 2 -0.004211 0.018196 0.002175 0.000000 0.002972 0.000000
# 3 -0.004089 0.002175 0.015179 0.000000 0.005637 0.000000
# 4 0.000000 0.000000 0.000000 0.030127 0.000000 -0.017089
# 5 -0.003240 0.002972 0.005637 0.000000 0.026924 0.000000
# 6 0.000000 0.000000 0.000000 -0.017089 0.000000 0.061240
#
#
# Mechanical properties :
#
#
# Convention : Reuss Voigt Hill
#
# Bulk Modulus (GPa) = 35.78019 58.31638 47.04828
# Shear Modulus (GPa) = 27.76880 37.49171 32.63025
#
# Velocity S-wave (km/s) = 3.41105 3.96348 3.69759
# Velocity P-wave (km/s) = 5.52320 6.73649 6.15979
#
# Compressibility (1/GPa) = 0.02794843
#
# Stress axis : x y z
#
# Youngs Moduli (GPa) = 146.52593 54.95855 65.87873
#
# Poissons Ratio (x) = 0.23146 0.26939
# Poissons Ratio (y) = 0.61709 -0.14329
# Poissons Ratio (z) = 0.59918 -0.11954
#
# Static dielectric constant tensor:
#      x y z
#    x 2.072040 0.000000 0.046090 
#    y 0.000000 1.904190 0.000000 
#    z 0.046090 0.000000 1.892640 
# 
# From -- ./inp_files/85178.got.cif
#   From: 2010.05.17/outbox.cif.g08.bks.cpg/sg13_43_cif.got.tgz:85178.got - 2010.06.03 16:44:36.
