data_PCOD9238538
_publ_section_title
;
Structure prediction by ZEFSAII (Michael W. Deem and Ramdas Pophale) SiO2 
 PCOD9238538
Probable space group: P 2/C
;
_chemical_formula_sum "Si O2"
_cell_formula_units_Z 20
_cell_length_a 10.383067
_cell_length_b 9.203330
_cell_length_c 9.011720
_cell_angle_alpha 90.000000
_cell_angle_beta 101.323305
_cell_angle_gamma 90.000000
_cell_volume 844.386704
_symmetry_space_group_name_H-M "P 2/C"
_symmetry_group_IT_number 13
_symmetry_cell_setting 'monoclinic'
loop_
_space_group_symop_operation_xyz
x,y,z
-x,y,1/2-z
-x,-y,-z
x,-y,1/2+z
loop_
_atom_site_type_symbol
_atom_site_label
_atom_site_fract_x
_atom_site_fract_y
_atom_site_fract_z
Si Si1 0.060395 0.379238 0.414920
Si Si2 0.326670 0.621391 0.116859
Si Si3 0.379469 0.328022 0.315812
Si Si4 0.849859 0.834082 0.224697
Si Si5 0.852461 0.856610 0.883930
O O1 0.211433 0.409326 0.472515
O O2 0.000000 0.423878 0.250000
O O3 0.000000 0.500000 0.500000
O O4 0.996774 0.220162 0.421875
O O5 0.362100 0.485399 0.228110
O O6 0.255327 0.737799 0.208136
O O7 0.423140 0.669811 0.002622
O O8 0.500000 0.258788 0.250000
O O9 0.248412 0.236820 0.239848
O O10 0.000000 0.772391 0.250000
O O11 0.861379 0.986494 0.313045
O O12 0.807115 0.856959 0.044546
#
# Coordination Sequence:
#
# PCOD9238538 Si02
#       5
#     4   4   4   4   4
#     4  12  23  38  67 103 139 171 222 285 352 414
#     4  12  24  44  70 102 140 179 232 286 346 410
#     4  12  27  48  71  99 137 189 243 289 331 398
#     4  12  26  42  70 108 145 177 217 284 365 425
#     4  12  25  44  68 103 145 179 227 281 348 421
#
# _framework density 23.685829999999999
#
# number of rings (size 3 to 8) (size 9 to 14) (size 15 to 20)
#    0.000    0.000    6.000    4.200    2.800    0.000 
#    0.000    5.000    0.000    0.000    0.000    0.000 
#    0.000    0.000    0.000    0.000    0.000    0.000 
#
# Total GULP energy -111547.254383 kJ/mol
# GULP energy per Si atom -5577.362719 kJ/mol
# Density = 2.363192 g / cm^3
# Si number density = 23.685830 Si / 1000 Ang^3
#
#
#
# Elastic Constant Matrix: (Units=GPa)
#
#
# Indices 1 2 3 4 5 6 
#
# 1 61.4287 15.8025 -4.8897 0.0000 1.7659 0.0000
# 2 15.8025 92.5309 37.4071 0.0000 0.0988 0.0000
# 3 -4.8897 37.4071 199.2413 0.0000 -26.8084 0.0000
# 4 0.0000 0.0000 0.0000 95.6390 0.0000 -6.7105
# 5 1.7659 0.0988 -26.8084 0.0000 38.4056 0.0000
# 6 0.0000 0.0000 0.0000 -6.7105 0.0000 22.3944
#
#
#
# Elastic Compliance Matrix: (Units=1/GPa)
#
#
# Indices 1 2 3 4 5 6 
#
# 1 0.017230 -0.003366 0.001048 0.000000 -0.000052 0.000000
# 2 -0.003366 0.012457 -0.002654 0.000000 -0.001730 0.000000
# 3 0.001048 -0.002654 0.006112 0.000000 0.004225 0.000000
# 4 0.000000 0.000000 0.000000 0.010681 0.000000 0.003200
# 5 -0.000052 -0.001730 0.004225 0.000000 0.028994 0.000000
# 6 0.000000 0.000000 0.000000 0.003200 0.000000 0.045613
#
#
# Mechanical properties :
#
#
# Convention : Reuss Voigt Hill
#
# Bulk Modulus (GPa) = 38.67956 49.98231 44.33093
# Shear Modulus (GPa) = 35.80429 51.61320 43.70874
#
# Velocity S-wave (km/s) = 3.89219 4.67312 4.30042
# Velocity P-wave (km/s) = 6.04686 7.08981 6.58901
#
# Compressibility (1/GPa) = 0.02585345
#
# Stress axis : x y z
#
# Youngs Moduli (GPa) = 58.03882 80.27689 163.62587
#
# Poissons Ratio (x) = 0.27022 -0.17145
# Poissons Ratio (y) = 0.19536 0.43428
# Poissons Ratio (z) = -0.06081 0.21307
#
# Static dielectric constant tensor:
#      x y z
#    x 1.879570 0.000000 -0.109710 
#    y 0.000000 1.875060 0.000000 
#    z -0.109710 0.000000 2.089520 
# 
# From -- ./inp_files/14809.got.cif
#   From: 2010.05.17/outbox.cif.g08.bks.cpg/sg13_8_cif.got.tgz:14809.got - 2010.06.03 16:44:36.
