data_PCOD9238387
_publ_section_title
;
Structure prediction by ZEFSAII (Michael W. Deem and Ramdas Pophale) SiO2 
 PCOD9238387
Probable space group: P 2/C
;
_chemical_formula_sum "Si O2"
_cell_formula_units_Z 30
_cell_length_a 15.356082
_cell_length_b 6.946314
_cell_length_c 13.647177
_cell_angle_alpha 90.000000
_cell_angle_beta 57.203260
_cell_angle_gamma 90.000000
_cell_volume 1223.673945
_symmetry_space_group_name_H-M "P 2/C"
_symmetry_group_IT_number 13
_symmetry_cell_setting 'monoclinic'
loop_
_space_group_symop_operation_xyz
x,y,z
-x,y,1/2-z
-x,-y,-z
x,-y,1/2+z
loop_
_atom_site_type_symbol
_atom_site_label
_atom_site_fract_x
_atom_site_fract_y
_atom_site_fract_z
Si Si1 0.415987 0.535910 0.410169
Si Si2 0.670577 0.757256 0.688307
Si Si3 0.703190 0.890268 0.041243
Si Si4 0.915722 0.882711 0.172099
Si Si5 0.928793 0.767970 0.938433
Si Si6 0.000000 0.436209 0.750000
Si Si7 0.347834 0.460112 0.663533
Si Si8 0.311977 0.983008 0.164286
O O1 0.389765 0.356169 0.358159
O O2 0.382643 0.732820 0.376704
O O3 0.348612 0.528421 0.550932
O O4 0.534462 0.522561 0.369423
O O5 0.722543 0.588477 0.721435
O O6 0.725261 0.929235 0.597940
O O7 0.619639 0.880911 0.807655
O O8 0.812047 0.783899 0.970620
O O9 0.665730 0.972939 0.961018
O O10 0.810920 0.008451 0.243125
O O11 0.917328 0.715661 0.253960
O O12 0.926415 0.780511 0.058849
O O13 0.007499 0.038574 0.128474
O O14 0.971331 0.578213 0.857564
O O15 0.324898 0.237866 0.680693
#
# Coordination Sequence:
#
# PCOD9238387 Si02
#       8
#     4   4   4   4   4   2   4   4
#     4  11  26  46  71 107 143 185 244 299 356 431
#     4  12  25  46  71 100 143 192 232 300 358 423
#     4  12  25  47  76 106 144 194 240 295 363 432
#     4  11  26  48  71 106 147 186 237 294 353 431
#     4  11  26  48  71 106 147 186 237 294 353 431
#     4  12  24  44  76 108 138 192 228 292 364 412
#     4  11  26  46  71 107 143 185 244 299 356 431
#     4  12  25  47  76 106 144 194 240 295 363 432
#
# _framework density 24.516334000000001
#
# number of rings (size 3 to 8) (size 9 to 14) (size 15 to 20)
#    0.000    0.533    4.000    3.600    1.867    4.800 
#    0.000    0.000    0.000    0.000    0.000    0.000 
#    0.000    0.000    0.000    0.000    0.000    0.000 
#
# Total GULP energy -167708.191352 kJ/mol
# GULP energy per Si atom -5590.273045 kJ/mol
# Density = 2.446053 g / cm^3
# Si number density = 24.516334 Si / 1000 Ang^3
#
#
#
# Elastic Constant Matrix: (Units=GPa)
#
#
# Indices 1 2 3 4 5 6 
#
# 1 76.6273 47.5447 28.3035 0.0000 13.4323 0.0000
# 2 47.5447 153.2270 27.4310 0.0000 10.2294 0.0000
# 3 28.3035 27.4310 73.1743 0.0000 23.2009 0.0000
# 4 0.0000 0.0000 0.0000 27.3799 0.0000 15.0821
# 5 13.4323 10.2294 23.2009 0.0000 35.9004 0.0000
# 6 0.0000 0.0000 0.0000 15.0821 0.0000 47.5801
#
#
#
# Elastic Compliance Matrix: (Units=1/GPa)
#
#
# Indices 1 2 3 4 5 6 
#
# 1 0.017999 -0.004623 -0.004416 0.000000 -0.002563 0.000000
# 2 -0.004623 0.008187 -0.001371 0.000000 0.000283 0.000000
# 3 -0.004416 -0.001371 0.019168 0.000000 -0.010345 0.000000
# 4 0.000000 0.000000 0.000000 0.044250 0.000000 -0.014026
# 5 -0.002563 0.000283 -0.010345 0.000000 0.035419 0.000000
# 6 0.000000 0.000000 0.000000 -0.014026 0.000000 0.025463
#
#
# Mechanical properties :
#
#
# Convention : Reuss Voigt Hill
#
# Bulk Modulus (GPa) = 40.75922 56.62078 48.69000
# Shear Modulus (GPa) = 27.85762 35.48869 31.67316
#
# Velocity S-wave (km/s) = 3.37454 3.80880 3.59823
# Velocity P-wave (km/s) = 5.64312 6.51827 6.09642
#
# Compressibility (1/GPa) = 0.02453433
#
# Stress axis : x y z
#
# Youngs Moduli (GPa) = 55.55785 122.14039 52.17072
#
# Poissons Ratio (x) = 0.56469 0.23040
# Poissons Ratio (y) = 0.25686 0.07150
# Poissons Ratio (z) = 0.24536 0.16740
#
# Static dielectric constant tensor:
#      x y z
#    x 1.956470 0.000000 0.021810 
#    y 0.000000 1.923690 0.000000 
#    z 0.021810 0.000000 2.005530 
# 
# From -- ./inp_files/54618.got.cif
#   From: 2010.05.17/outbox.cif.g08.bks.cpg/sg13_28_cif.got.tgz:54618.got - 2010.06.03 16:44:36.
