data_PCOD9238434
_publ_section_title
;
Structure prediction by ZEFSAII (Michael W. Deem and Ramdas Pophale) SiO2 
 PCOD9238434
Probable space group: P 2/C
;
_chemical_formula_sum "Si O2"
_cell_formula_units_Z 20
_cell_length_a 8.275430
_cell_length_b 5.500936
_cell_length_c 18.395316
_cell_angle_alpha 90.000000
_cell_angle_beta 98.737260
_cell_angle_gamma 90.000000
_cell_volume 827.685012
_symmetry_space_group_name_H-M "P 2/C"
_symmetry_group_IT_number 13
_symmetry_cell_setting 'monoclinic'
loop_
_space_group_symop_operation_xyz
x,y,z
-x,y,1/2-z
-x,-y,-z
x,-y,1/2+z
loop_
_atom_site_type_symbol
_atom_site_label
_atom_site_fract_x
_atom_site_fract_y
_atom_site_fract_z
Si Si1 0.744319 0.779860 0.704015
Si Si2 0.871716 0.180563 0.951505
Si Si3 0.634998 0.837427 0.861267
Si Si4 0.863054 0.729892 0.145043
Si Si5 0.314259 0.436368 0.995709
O O1 0.712256 0.796523 0.787907
O O2 0.560559 0.809172 0.657747
O O3 0.820400 0.518378 0.686080
O O4 0.846326 0.018289 0.687476
O O5 0.814474 0.346759 0.014657
O O6 0.969864 0.283811 0.888865
O O7 0.704402 0.079543 0.904095
O O8 0.000000 0.000000 0.000000
O O9 0.705625 0.649225 0.923658
O O10 0.729658 0.745995 0.071039
O O11 0.500000 0.500000 0.000000
#
# Coordination Sequence:
#
# PCOD9238434 Si02
#       5
#     4   4   4   4   4
#     4  11  28  50  76 110 153 203 254 315 378 467
#     4  12  27  46  74 116 152 193 253 323 383 451
#     4  11  27  47  77 109 151 202 258 311 381 453
#     4  12  26  48  75 112 152 197 251 312 390 446
#     4  12  25  46  80 107 149 203 261 311 371 455
#
# _framework density 24.163781
#
# number of rings (size 3 to 8) (size 9 to 14) (size 15 to 20)
#    0.000    0.400    4.000    3.000    5.600    4.000 
#    0.000    0.000    0.000    0.000    0.000    0.000 
#    0.000    0.000    0.000    0.000    0.000    0.000 
#
# Total GULP energy -111803.481828 kJ/mol
# GULP energy per Si atom -5590.174091 kJ/mol
# Density = 2.410878 g / cm^3
# Si number density = 24.163781 Si / 1000 Ang^3
#
#
#
# Elastic Constant Matrix: (Units=GPa)
#
#
# Indices 1 2 3 4 5 6 
#
# 1 86.8593 35.4630 5.4168 0.0000 -17.1420 0.0000
# 2 35.4630 134.0324 41.7020 0.0000 -27.5905 0.0000
# 3 5.4168 41.7020 106.0136 0.0000 -2.0611 0.0000
# 4 0.0000 0.0000 0.0000 30.8882 0.0000 -23.0625
# 5 -17.1420 -27.5905 -2.0611 0.0000 49.5176 0.0000
# 6 0.0000 0.0000 0.0000 -23.0625 0.0000 19.2191
#
#
#
# Elastic Compliance Matrix: (Units=1/GPa)
#
#
# Indices 1 2 3 4 5 6 
#
# 1 0.013319 -0.003114 0.000601 0.000000 0.002901 0.000000
# 2 -0.003114 0.010424 -0.003853 0.000000 0.004570 0.000000
# 3 0.000601 -0.003853 0.010889 0.000000 -0.001485 0.000000
# 4 0.000000 0.000000 0.000000 0.311173 0.000000 0.373401
# 5 0.002901 0.004570 -0.001485 0.000000 0.023683 0.000000
# 6 0.000000 0.000000 0.000000 0.373401 0.000000 0.500104
#
#
# Mechanical properties :
#
#
# Convention : Reuss Voigt Hill
#
# Bulk Modulus (GPa) = 45.66067 54.67432 50.16750
# Shear Modulus (GPa) = 5.62035 36.21322 20.91678
#
# Velocity S-wave (km/s) = 1.52676 3.87545 2.94534
# Velocity P-wave (km/s) = 4.69525 6.53461 5.68975
#
# Compressibility (1/GPa) = 0.02190068
#
# Stress axis : x y z
#
# Youngs Moduli (GPa) = 75.07948 95.93136 91.83889
#
# Poissons Ratio (x) = 0.29871 -0.05517
# Poissons Ratio (y) = 0.23379 0.35381
# Poissons Ratio (z) = -0.04510 0.36958
#
# Static dielectric constant tensor:
#      x y z
#    x 1.720570 0.000000 -0.117360 
#    y 0.000000 1.878970 0.000000 
#    z -0.117360 0.000000 1.835960 
# 
# From -- ./inp_files/62331.got.cif
#   From: 2010.05.17/outbox.cif.g08.bks.cpg/sg13_32_cif.got.tgz:62331.got - 2010.06.03 16:44:36.
