data_PCOD9238140
_publ_section_title
;
Structure prediction by ZEFSAII (Michael W. Deem and Ramdas Pophale) SiO2 
 PCOD9238140
Probable space group: P 2/C
;
_chemical_formula_sum "Si O2"
_cell_formula_units_Z 26
_cell_length_a 27.711395
_cell_length_b 10.352902
_cell_length_c 19.283916
_cell_angle_alpha 90.000000
_cell_angle_beta 11.747146
_cell_angle_gamma 90.000000
_cell_volume 1126.363396
_symmetry_space_group_name_H-M "P 2/C"
_symmetry_group_IT_number 13
_symmetry_cell_setting 'monoclinic'
loop_
_space_group_symop_operation_xyz
x,y,z
-x,y,1/2-z
-x,-y,-z
x,-y,1/2+z
loop_
_atom_site_type_symbol
_atom_site_label
_atom_site_fract_x
_atom_site_fract_y
_atom_site_fract_z
Si Si1 0.625354 0.705597 0.192595
Si Si2 0.000000 0.856379 0.750000
Si Si3 0.009616 0.377218 0.434441
Si Si4 0.196260 0.859540 0.754853
Si Si5 0.857158 0.101055 0.857744
Si Si6 0.703612 0.516598 0.769074
Si Si7 0.000000 0.316931 0.750000
Si Si8 0.500000 0.043304 0.250000
O O1 0.475423 0.821058 0.370435
O O2 0.414094 0.613149 0.511684
O O3 0.774327 0.632953 0.924120
O O4 0.786294 0.755813 0.030509
O O5 0.065103 0.962592 0.718514
O O6 0.040872 0.247434 0.433874
O O7 0.000000 0.500000 0.500000
O O8 0.790746 0.393887 0.689580
O O9 0.251437 0.980031 0.627893
O O10 0.079452 0.870259 0.994387
O O11 0.826233 0.212502 0.959310
O O12 0.613951 0.108929 0.156923
O O13 0.910531 0.589720 0.436639
O O14 0.500000 0.500000 0.000000
#
# Coordination Sequence:
#
# PCOD9238140 Si02
#       8
#     4   2   4   4   4   4   2   2
#     4  12  23  44  70 101 137 183 232 285 348 425
#     4  11  24  45  74 102 140 189 230 279 356 426
#     4  12  24  43  70  99 133 182 231 285 348 411
#     4  12  23  44  69  99 140 177 237 287 343 425
#     4  11  25  42  72 103 140 182 231 290 353 410
#     4  12  26  43  69  97 137 185 229 290 349 412
#     4  11  24  47  60 102 140 169 236 291 328 422
#     4  12  24  44  70 102 138 186 228 290 352 420
#
# _framework density 23.083138000000002
#
# number of rings (size 3 to 8) (size 9 to 14) (size 15 to 20)
#    0.000    0.308    6.154    2.308    0.000    3.077 
#    0.000    0.000    0.000    0.000    0.000    0.000 
#    0.000    0.000    0.000    0.000    0.000    0.000 
#
# Total GULP energy -144840.056528 kJ/mol
# GULP energy per Si atom -5570.771405 kJ/mol
# Density = 2.303060 g / cm^3
# Si number density = 23.083138 Si / 1000 Ang^3
#
#
#
# Elastic Constant Matrix: (Units=GPa)
#
#
# Indices 1 2 3 4 5 6 
#
# 1 111.4229 29.0818 28.9035 0.0000 -26.9621 0.0000
# 2 29.0818 56.0471 22.1842 0.0000 -11.7606 0.0000
# 3 28.9035 22.1842 66.2393 0.0000 -4.4017 0.0000
# 4 0.0000 0.0000 0.0000 35.1586 0.0000 2.3492
# 5 -26.9621 -11.7606 -4.4017 0.0000 57.6912 0.0000
# 6 0.0000 0.0000 0.0000 2.3492 0.0000 20.2682
#
#
#
# Elastic Compliance Matrix: (Units=1/GPa)
#
#
# Indices 1 2 3 4 5 6 
#
# 1 0.012029 -0.003836 -0.003661 0.000000 0.004561 0.000000
# 2 -0.003836 0.022602 -0.005738 0.000000 0.002377 0.000000
# 3 -0.003661 -0.005738 0.018519 0.000000 -0.001468 0.000000
# 4 0.000000 0.000000 0.000000 0.028665 0.000000 -0.003322
# 5 0.004561 0.002377 -0.001468 0.000000 0.019838 0.000000
# 6 0.000000 0.000000 0.000000 -0.003322 0.000000 0.049723
#
#
# Mechanical properties :
#
#
# Convention : Reuss Voigt Hill
#
# Bulk Modulus (GPa) = 37.48101 43.78315 40.63208
# Shear Modulus (GPa) = 26.77528 32.85959 29.81744
#
# Velocity S-wave (km/s) = 3.40950 3.77707 3.59798
# Velocity P-wave (km/s) = 5.63669 6.16688 5.90773
#
# Compressibility (1/GPa) = 0.02668017
#
# Stress axis : x y z
#
# Youngs Moduli (GPa) = 83.13067 44.24306 53.99971
#
# Poissons Ratio (x) = 0.16970 0.19771
# Poissons Ratio (y) = 0.31885 0.30986
# Poissons Ratio (z) = 0.30437 0.25387
#
# Static dielectric constant tensor:
#      x y z
#    x 1.925490 0.000000 -0.000700 
#    y 0.000000 1.953910 0.000000 
#    z -0.000700 0.000000 1.887730 
# 
# From -- ./inp_files/82816.got.cif
#   From: 2010.05.17/outbox.cif.g08.bks.cpg/sg13_42_cif.got.tgz:82816.got - 2010.06.03 16:44:36.
