data_PCOD9238307
_publ_section_title
;
Structure prediction by ZEFSAII (Michael W. Deem and Ramdas Pophale) SiO2 
 PCOD9238307
Probable space group: P 2/C
;
_chemical_formula_sum "Si O2"
_cell_formula_units_Z 18
_cell_length_a 4.957442
_cell_length_b 12.877644
_cell_length_c 11.233096
_cell_angle_alpha 90.000000
_cell_angle_beta 80.409019
_cell_angle_gamma 90.000000
_cell_volume 707.099050
_symmetry_space_group_name_H-M "P 2/C"
_symmetry_group_IT_number 13
_symmetry_cell_setting 'monoclinic'
loop_
_space_group_symop_operation_xyz
x,y,z
-x,y,1/2-z
-x,-y,-z
x,-y,1/2+z
loop_
_atom_site_type_symbol
_atom_site_label
_atom_site_fract_x
_atom_site_fract_y
_atom_site_fract_z
Si Si1 0.793648 0.766221 0.673161
Si Si2 0.828674 0.576909 0.927986
Si Si3 0.240369 0.928108 0.032063
Si Si4 0.000000 0.207057 0.750000
Si Si5 0.352917 0.373466 0.640841
O O1 0.500000 0.739584 0.750000
O O2 0.736069 0.835374 0.563632
O O3 0.000000 0.824223 0.750000
O O4 0.970601 0.665818 0.627698
O O5 0.722472 0.494367 0.838317
O O6 0.569310 0.624819 0.017342
O O7 0.000000 0.500000 0.000000
O O8 0.191055 0.878645 0.166596
O O9 0.500000 0.000000 0.000000
O O10 0.000000 0.000000 0.000000
O O11 0.088577 0.299899 0.647636
O O12 0.500000 0.331574 0.750000
#
# Coordination Sequence:
#
# PCOD9238307 Si02
#       5
#     4   4   4   2   4
#     4  12  30  50  82 120 167 211 267 343 417 492
#     4  11  27  45  73 118 165 218 269 322 398 497
#     4  12  31  56  86 118 155 213 282 354 418 484
#     4  12  30  52  84 116 164 220 282 348 414 514
#     4  11  25  46  76 114 165 214 275 323 401 496
#
# _framework density 25.456122000000001
#
# number of rings (size 3 to 8) (size 9 to 14) (size 15 to 20)
#    0.000    0.444    0.000    5.333   24.889    0.000 
#    0.000    0.000    0.000    0.000    0.000    0.000 
#    0.000    0.000    0.000    0.000    0.000    0.000 
#
# Total GULP energy -100463.793018 kJ/mol
# GULP energy per Si atom -5581.321834 kJ/mol
# Density = 2.539818 g / cm^3
# Si number density = 25.456122 Si / 1000 Ang^3
#
#
#
# Elastic Constant Matrix: (Units=GPa)
#
#
# Indices 1 2 3 4 5 6 
#
# 1 165.4467 62.8184 57.2996 0.0000 -46.1802 0.0000
# 2 62.8184 167.7051 72.4955 0.0000 -45.6469 0.0000
# 3 57.2996 72.4955 129.2983 0.0000 -42.7356 0.0000
# 4 0.0000 0.0000 0.0000 54.4104 0.0000 -15.6090
# 5 -46.1802 -45.6469 -42.7356 0.0000 66.6675 0.0000
# 6 0.0000 0.0000 0.0000 -15.6090 0.0000 38.1879
#
#
#
# Elastic Compliance Matrix: (Units=1/GPa)
#
#
# Indices 1 2 3 4 5 6 
#
# 1 0.008148 -0.001342 -0.001645 0.000000 0.003671 0.000000
# 2 -0.001342 0.008688 -0.003321 0.000000 0.002890 0.000000
# 3 -0.001645 -0.003321 0.011670 0.000000 0.004067 0.000000
# 4 0.000000 0.000000 0.000000 0.020820 0.000000 0.008510
# 5 0.003671 0.002890 0.004067 0.000000 0.022128 0.000000
# 6 0.000000 0.000000 0.000000 0.008510 0.000000 0.029665
#
#
# Mechanical properties :
#
#
# Convention : Reuss Voigt Hill
#
# Bulk Modulus (GPa) = 62.93785 94.18635 78.56210
# Shear Modulus (GPa) = 42.00570 49.84227 45.92399
#
# Velocity S-wave (km/s) = 4.06658 4.42969 4.25201
# Velocity P-wave (km/s) = 6.84303 7.95253 7.41855
#
# Compressibility (1/GPa) = 0.01588869
#
# Stress axis : x y z
#
# Youngs Moduli (GPa) = 122.72774 115.10420 85.69333
#
# Poissons Ratio (x) = 0.15444 0.14100
# Poissons Ratio (y) = 0.16466 0.28461
# Poissons Ratio (z) = 0.20193 0.38229
#
# Static dielectric constant tensor:
#      x y z
#    x 0.665880 0.000000 -0.004380 
#    y 0.000000 1.978830 0.000000 
#    z -0.004380 0.000000 2.089780 
# 
# From -- ./inp_files/25707.got.cif
#   From: 2010.05.17/outbox.cif.g08.bks.cpg/sg13_13_cif.got.tgz:25707.got - 2010.06.03 16:44:36.
