data_PCOD9238753
_publ_section_title
;
Structure prediction by ZEFSAII (Michael W. Deem and Ramdas Pophale) SiO2 
 PCOD9238753
Probable space group: P 2/C
;
_chemical_formula_sum "Si O2"
_cell_formula_units_Z 18
_cell_length_a 12.183694
_cell_length_b 8.366066
_cell_length_c 10.078833
_cell_angle_alpha 90.000000
_cell_angle_beta 126.246826
_cell_angle_gamma 90.000000
_cell_volume 828.519431
_symmetry_space_group_name_H-M "P 2/C"
_symmetry_group_IT_number 13
_symmetry_cell_setting 'monoclinic'
loop_
_space_group_symop_operation_xyz
x,y,z
-x,y,1/2-z
-x,-y,-z
x,-y,1/2+z
loop_
_atom_site_type_symbol
_atom_site_label
_atom_site_fract_x
_atom_site_fract_y
_atom_site_fract_z
Si Si1 0.811921 0.423728 0.502546
Si Si2 0.000000 0.315512 0.250000
Si Si3 0.590269 0.941204 0.186373
Si Si4 0.877082 0.877868 0.891667
Si Si5 0.359574 0.423095 0.850798
O O1 0.918185 0.568376 0.593022
O O2 0.879647 0.258670 0.506090
O O3 0.738487 0.410689 0.591760
O O4 0.706761 0.469049 0.311156
O O5 0.100131 0.207932 0.233862
O O6 0.500000 0.974330 0.250000
O O7 0.616672 0.752760 0.190281
O O8 0.733320 0.032786 0.293861
O O9 0.500000 0.000000 0.000000
O O10 0.000000 0.000000 0.000000
O O11 0.500000 0.500000 0.000000
#
# Coordination Sequence:
#
# PCOD9238753 Si02
#       5
#     4   2   4   4   4
#     4  12  26  50  74 114 148 200 256 316 380 461
#     4  12  28  48  78 112 152 202 262 312 386 460
#     4  12  28  49  74 111 154 200 253 315 385 451
#     4  12  29  48  80 112 155 201 255 321 385 450
#     4  12  26  47  79 108 153 202 255 310 386 465
#
# _framework density 21.725501999999999
#
# number of rings (size 3 to 8) (size 9 to 14) (size 15 to 20)
#    0.000    0.000    2.222    6.667   12.444    0.000 
#    0.000    0.000    0.000    0.000    0.000    0.000 
#    0.000    0.000    0.000    0.000    0.000    0.000 
#
# Total GULP energy -100958.901123 kJ/mol
# GULP energy per Si atom -5608.827840 kJ/mol
# Density = 2.167605 g / cm^3
# Si number density = 21.725502 Si / 1000 Ang^3
#
#
#
# Elastic Constant Matrix: (Units=GPa)
#
#
# Indices 1 2 3 4 5 6 
#
# 1 170.3081 65.5092 56.4175 0.0000 2.9838 0.0000
# 2 65.5092 127.8367 37.5526 0.0000 24.5133 0.0000
# 3 56.4175 37.5526 122.2826 0.0000 7.0650 0.0000
# 4 0.0000 0.0000 0.0000 42.0270 0.0000 2.9346
# 5 2.9838 24.5133 7.0650 0.0000 38.5453 0.0000
# 6 0.0000 0.0000 0.0000 2.9346 0.0000 54.5566
#
#
#
# Elastic Compliance Matrix: (Units=1/GPa)
#
#
# Indices 1 2 3 4 5 6 
#
# 1 0.008222 -0.003851 -0.002744 0.000000 0.002316 0.000000
# 2 -0.003851 0.011492 -0.001362 0.000000 -0.006761 0.000000
# 3 -0.002744 -0.001362 0.009905 0.000000 -0.000737 0.000000
# 4 0.000000 0.000000 0.000000 0.023884 0.000000 -0.001285
# 5 0.002316 -0.006761 -0.000737 0.000000 0.030199 0.000000
# 6 0.000000 0.000000 0.000000 -0.001285 0.000000 0.018399
#
#
# Mechanical properties :
#
#
# Convention : Reuss Voigt Hill
#
# Bulk Modulus (GPa) = 72.97022 82.15400 77.56211
# Shear Modulus (GPa) = 40.78874 44.42232 42.60553
#
# Velocity S-wave (km/s) = 4.33767 4.52675 4.43322
# Velocity P-wave (km/s) = 7.66469 8.07580 7.87293
#
# Compressibility (1/GPa) = 0.01370422
#
# Stress axis : x y z
#
# Youngs Moduli (GPa) = 121.63207 87.01405 100.96160
#
# Poissons Ratio (x) = 0.33509 0.27707
# Poissons Ratio (y) = 0.46840 0.13750
# Poissons Ratio (z) = 0.33380 0.11851
#
# Static dielectric constant tensor:
#      x y z
#    x 1.768540 0.000000 -0.008220 
#    y 0.000000 1.784820 0.000000 
#    z -0.008220 0.000000 1.753160 
# 
# From -- ./inp_files/14763.got.cif
#   From: 2010.05.17/outbox.cif.g08.bks.cpg/sg13_8_cif.got.tgz:14763.got - 2010.06.03 16:44:36.
