data_PCOD9238322
_publ_section_title
;
Structure prediction by ZEFSAII (Michael W. Deem and Ramdas Pophale) SiO2 
 PCOD9238322
Probable space group: P 2/C
;
_chemical_formula_sum "Si O2"
_cell_formula_units_Z 18
_cell_length_a 16.335784
_cell_length_b 5.411802
_cell_length_c 15.991983
_cell_angle_alpha 90.000000
_cell_angle_beta 33.810622
_cell_angle_gamma 90.000000
_cell_volume 786.701690
_symmetry_space_group_name_H-M "P 2/C"
_symmetry_group_IT_number 13
_symmetry_cell_setting 'monoclinic'
loop_
_space_group_symop_operation_xyz
x,y,z
-x,y,1/2-z
-x,-y,-z
x,-y,1/2+z
loop_
_atom_site_type_symbol
_atom_site_label
_atom_site_fract_x
_atom_site_fract_y
_atom_site_fract_z
Si Si1 0.965223 0.278432 0.377520
Si Si2 0.213695 0.778049 0.936320
Si Si3 0.464201 0.800898 0.101292
Si Si4 0.268084 0.409178 0.211561
Si Si5 0.500000 0.033364 0.250000
O O1 0.865886 0.520846 0.476434
O O2 0.000000 0.256145 0.250000
O O3 0.113871 0.342123 0.301695
O O4 0.890049 0.019257 0.468101
O O5 0.276551 0.754516 0.788704
O O6 0.351223 0.809899 0.881762
O O7 0.306590 0.680062 0.214440
O O8 0.477255 0.876924 0.185832
O O9 0.602797 0.620024 0.966136
O O10 0.500000 0.000000 0.000000
#
# Coordination Sequence:
#
# PCOD9238322 Si02
#       5
#     4   4   4   4   2
#     4  12  28  47  75 109 151 198 255 309 380 448
#     4  12  27  46  75 108 147 205 243 318 372 451
#     4  11  25  47  76 111 148 203 242 319 366 452
#     4  11  26  46  75 109 153 193 259 303 384 444
#     4  12  26  48  78 106 154 188 268 294 392 442
#
# _framework density 22.880334999999999
#
# number of rings (size 3 to 8) (size 9 to 14) (size 15 to 20)
#    0.000    0.444    2.222    4.667    6.222    3.556 
#    0.000    0.000    0.000    0.000    0.000    0.000 
#    0.000    0.000    0.000    0.000    0.000    0.000 
#
# Total GULP energy -100636.792540 kJ/mol
# GULP energy per Si atom -5590.932919 kJ/mol
# Density = 2.282826 g / cm^3
# Si number density = 22.880335 Si / 1000 Ang^3
#
#
#
# Elastic Constant Matrix: (Units=GPa)
#
#
# Indices 1 2 3 4 5 6 
#
# 1 112.8290 29.1668 9.9128 0.0000 6.7330 0.0000
# 2 29.1668 133.1153 41.5711 0.0000 7.5892 0.0000
# 3 9.9128 41.5711 82.1769 0.0000 18.7007 0.0000
# 4 0.0000 0.0000 0.0000 75.4301 0.0000 -5.9044
# 5 6.7330 7.5892 18.7007 0.0000 55.5318 0.0000
# 6 0.0000 0.0000 0.0000 -5.9044 0.0000 30.7416
#
#
#
# Elastic Compliance Matrix: (Units=1/GPa)
#
#
# Indices 1 2 3 4 5 6 
#
# 1 0.009437 -0.002049 0.000102 0.000000 -0.000899 0.000000
# 2 -0.002049 0.009372 -0.004612 0.000000 0.000521 0.000000
# 3 0.000102 -0.004612 0.015540 0.000000 -0.004615 0.000000
# 4 0.000000 0.000000 0.000000 0.013460 0.000000 0.002585
# 5 -0.000899 0.000521 -0.004615 0.000000 0.019600 0.000000
# 6 0.000000 0.000000 0.000000 0.002585 0.000000 0.033026
#
#
# Mechanical properties :
#
#
# Convention : Reuss Voigt Hill
#
# Bulk Modulus (GPa) = 47.09840 54.38030 50.73935
# Shear Modulus (GPa) = 41.44955 48.83872 45.14414
#
# Velocity S-wave (km/s) = 4.26088 4.62511 4.44673
# Velocity P-wave (km/s) = 6.69598 7.23471 6.97055
#
# Compressibility (1/GPa) = 0.02123214
#
# Stress axis : x y z
#
# Youngs Moduli (GPa) = 105.96418 106.70243 64.34971
#
# Poissons Ratio (x) = 0.21858 -0.00659
# Poissons Ratio (y) = 0.21707 0.29681
# Poissons Ratio (z) = -0.01085 0.49215
#
# Static dielectric constant tensor:
#      x y z
#    x 1.805420 0.000000 -0.015630 
#    y 0.000000 1.997200 0.000000 
#    z -0.015630 0.000000 1.920390 
# 
# From -- ./inp_files/52003.got.cif
#   From: 2010.05.17/outbox.cif.g08.bks.cpg/sg13_27_cif.got.tgz:52003.got - 2010.06.03 16:44:36.
