data_PCOD9238534
_publ_section_title
;
Structure prediction by ZEFSAII (Michael W. Deem and Ramdas Pophale) SiO2 
 PCOD9238534
Probable space group: P 2/C
;
_chemical_formula_sum "Si O2"
_cell_formula_units_Z 28
_cell_length_a 15.903131
_cell_length_b 6.586876
_cell_length_c 14.208684
_cell_angle_alpha 90.000000
_cell_angle_beta 122.940468
_cell_angle_gamma 90.000000
_cell_volume 1249.108290
_symmetry_space_group_name_H-M "P 2/C"
_symmetry_group_IT_number 13
_symmetry_cell_setting 'monoclinic'
loop_
_space_group_symop_operation_xyz
x,y,z
-x,y,1/2-z
-x,-y,-z
x,-y,1/2+z
loop_
_atom_site_type_symbol
_atom_site_label
_atom_site_fract_x
_atom_site_fract_y
_atom_site_fract_z
Si Si1 0.499867 0.517659 0.612003
Si Si2 0.000000 0.298413 0.250000
Si Si3 0.996928 0.940842 0.106739
Si Si4 0.274308 0.481133 0.172710
Si Si5 0.345363 0.187221 0.603428
Si Si6 0.500000 0.881256 0.750000
Si Si7 0.229739 0.176138 0.978450
Si Si8 0.847498 0.404465 0.728688
O O1 0.500000 0.500000 0.500000
O O2 0.613421 0.493282 0.718524
O O3 0.422220 0.348681 0.604229
O O4 0.475956 0.735837 0.646430
O O5 0.905727 0.446988 0.193723
O O6 0.014534 0.149553 0.172154
O O7 0.887322 0.866810 0.073029
O O8 0.077505 0.768996 0.185727
O O9 0.000000 0.000000 0.000000
O O10 0.260800 0.689264 0.107015
O O11 0.198203 0.473247 0.212093
O O12 0.264839 0.301670 0.091611
O O13 0.408517 0.036482 0.709091
O O14 0.288898 0.033152 0.500846
O O15 0.237479 0.302631 0.887226
#
# Coordination Sequence:
#
# PCOD9238534 Si02
#       8
#     4   2   4   4   4   2   4   4
#     4  12  27  47  74 107 149 193 247 309 375 438
#     4  12  24  50  74 100 156 194 242 310 374 440
#     4  12  26  49  75 108 147 198 247 309 379 445
#     4  12  27  45  71 111 143 194 250 305 375 444
#     4  12  25  48  75 102 151 194 242 310 369 441
#     4  12  22  52  72  98 150 192 244 302 380 436
#     4  12  26  47  74 108 150 191 252 304 368 455
#     4  12  28  47  74 112 148 193 252 305 379 446
#
# _framework density 22.415991999999999
#
# number of rings (size 3 to 8) (size 9 to 14) (size 15 to 20)
#    0.000    0.000    7.143    1.714    8.000    2.857 
#    2.571    0.000    0.000    0.000    0.000    0.000 
#    0.000    0.000    0.000    0.000    0.000    0.000 
#
# Total GULP energy -156560.798581 kJ/mol
# GULP energy per Si atom -5591.457092 kJ/mol
# Density = 2.236497 g / cm^3
# Si number density = 22.415992 Si / 1000 Ang^3
#
#
#
# Elastic Constant Matrix: (Units=GPa)
#
#
# Indices 1 2 3 4 5 6 
#
# 1 70.2124 20.0881 7.6660 0.0000 -0.0157 0.0000
# 2 20.0881 90.0170 12.4210 0.0000 -1.6200 0.0000
# 3 7.6660 12.4210 88.9860 0.0000 -12.9921 0.0000
# 4 0.0000 0.0000 0.0000 32.1766 0.0000 4.7254
# 5 -0.0157 -1.6200 -12.9921 0.0000 31.9909 0.0000
# 6 0.0000 0.0000 0.0000 4.7254 0.0000 28.9954
#
#
#
# Elastic Compliance Matrix: (Units=1/GPa)
#
#
# Indices 1 2 3 4 5 6 
#
# 1 0.015286 -0.003292 -0.000936 0.000000 -0.000539 0.000000
# 2 -0.003292 0.012036 -0.001390 0.000000 0.000043 0.000000
# 3 -0.000936 -0.001390 0.012227 0.000000 0.004895 0.000000
# 4 0.000000 0.000000 0.000000 0.031841 0.000000 -0.005189
# 5 -0.000539 0.000043 0.004895 0.000000 0.033249 0.000000
# 6 0.000000 0.000000 0.000000 -0.005189 0.000000 0.035334
#
#
# Mechanical properties :
#
#
# Convention : Reuss Voigt Hill
#
# Bulk Modulus (GPa) = 35.31898 36.61841 35.96870
# Shear Modulus (GPa) = 31.12415 32.56859 31.84637
#
# Velocity S-wave (km/s) = 3.73027 3.81585 3.77330
# Velocity P-wave (km/s) = 5.86034 5.98211 5.92154
#
# Compressibility (1/GPa) = 0.02831339
#
# Stress axis : x y z
#
# Youngs Moduli (GPa) = 65.41760 83.08264 81.78576
#
# Poissons Ratio (x) = 0.27349 0.07656
# Poissons Ratio (y) = 0.21534 0.11369
# Poissons Ratio (z) = 0.06124 0.11550
#
# Static dielectric constant tensor:
#      x y z
#    x 1.833890 0.000000 0.047750 
#    y 0.000000 1.841080 0.000000 
#    z 0.047750 0.000000 1.853580 
# 
# From -- ./inp_files/54624.got.cif
#   From: 2010.05.17/outbox.cif.g08.bks.cpg/sg13_28_cif.got.tgz:54624.got - 2010.06.03 16:44:36.
