data_PCOD9238980
_publ_section_title
;
Structure prediction by ZEFSAII (Michael W. Deem and Ramdas Pophale) SiO2 
 PCOD9238980
Probable space group: P 2/C
;
_chemical_formula_sum "Si O2"
_cell_formula_units_Z 20
_cell_length_a 9.000000
_cell_length_b 12.000000
_cell_length_c 9.000000
_cell_angle_alpha 90.000000
_cell_angle_beta 90.000000
_cell_angle_gamma 90.000000
_cell_volume 972.000000
_symmetry_space_group_name_H-M "P 2/C"
_symmetry_group_IT_number 13
_symmetry_cell_setting 'monoclinic'
loop_
_space_group_symop_operation_xyz
x,y,z
-x,y,1/2-z
-x,-y,-z
x,-y,1/2+z
loop_
_atom_site_type_symbol
_atom_site_label
_atom_site_fract_x
_atom_site_fract_y
_atom_site_fract_z
Si Si1 0.678162 0.523039 0.250849
Si Si2 0.849240 0.874348 0.938904
Si Si3 0.409185 0.260072 0.597745
Si Si4 0.292228 0.649273 0.531686
Si Si5 0.202786 0.903394 0.905724
O O1 0.500000 0.507398 0.250000
O O2 0.692348 0.636206 0.347763
O O3 0.741407 0.409513 0.313784
O O4 0.730877 0.553533 0.088850
O O5 0.807361 0.754338 0.997996
O O6 0.783145 0.887282 0.771732
O O7 0.027573 0.881789 0.935888
O O8 0.779567 0.968845 0.043372
O O9 0.500000 0.223817 0.750000
O O10 0.538190 0.309232 0.490785
O O11 0.311318 0.171369 0.507592
#
# Coordination Sequence:
#
# PCOD9238980 Si02
#       5
#     4   4   4   4   4
#     4   9  19  35  58  88 125 157 197 243 303 359
#     4  10  24  41  66  87 119 169 201 245 312 359
#     4   9  20  38  62  92 122 159 200 252 297 357
#     4  10  21  37  62  93 117 163 204 244 303 357
#     4  10  23  44  62  87 126 157 206 251 304 367
#
# _framework density 20.576132000000001
#
# number of rings (size 3 to 8) (size 9 to 14) (size 15 to 20)
#    0.000    2.800    0.000    2.400   11.200    0.800 
#    0.000    1.000    0.000    0.000    0.000    0.000 
#    0.000    0.000    0.000    0.000    0.000    0.000 
#
# Total GULP energy -111518.963415 kJ/mol
# GULP energy per Si atom -5575.948171 kJ/mol
# Density = 2.052930 g / cm^3
# Si number density = 20.576132 Si / 1000 Ang^3
#
#
#
# Elastic Constant Matrix: (Units=GPa)
#
#
# Indices 1 2 3 4 5 6 
#
# 1 17.2463 27.7589 28.6137 0.0000 16.8164 0.0000
# 2 27.7589 85.2967 34.2445 0.0000 25.1814 0.0000
# 3 28.6137 34.2445 68.9855 0.0000 20.1923 0.0000
# 4 0.0000 0.0000 0.0000 21.7697 0.0000 1.7319
# 5 16.8164 25.1814 20.1923 0.0000 24.4899 0.0000
# 6 0.0000 0.0000 0.0000 1.7319 0.0000 -5.9211
#
#
#
# Elastic Compliance Matrix: (Units=1/GPa)
#
#
# Indices 1 2 3 4 5 6 
#
# 1 1.337030 -0.159408 -0.335706 0.000000 -0.477391 0.000000
# 2 -0.159408 0.036885 0.035419 0.000000 0.042331 0.000000
# 3 -0.335706 0.035419 0.104584 0.000000 0.107868 0.000000
# 4 0.000000 0.000000 0.000000 0.044891 0.000000 0.013130
# 5 -0.477391 0.042331 0.107868 0.000000 0.236176 0.000000
# 6 0.000000 0.000000 0.000000 0.013130 0.000000 -0.165048
#
#
# Mechanical properties :
#
#
# Convention : Reuss Voigt Hill
#
# Bulk Modulus (GPa) = 1.78856 39.19584 20.49220
# Shear Modulus (GPa) = 1.85166 13.46182 7.65674
#
# Velocity S-wave (km/s) = 0.94966 2.56059 1.93113
# Velocity P-wave (km/s) = 1.44000 5.27567 3.86693
#
# Compressibility (1/GPa) = 0.55910782
#
# Stress axis : x y z
#
# Youngs Moduli (GPa) = 0.74793 27.11162 9.56172
#
# Poissons Ratio (x) = 4.32181 3.20993
# Poissons Ratio (y) = 0.11923 -0.33867
# Poissons Ratio (z) = 0.25108 -0.96027
#
# Static dielectric constant tensor:
#      x y z
#    x 1.712020 0.000000 0.005530 
#    y 0.000000 1.737680 0.000000 
#    z 0.005530 0.000000 1.779470 
# 
# From -- ./inp_files/11746.got.cif
#   From: 2010.05.17/outbox.ucp.g08.bks.cvg/sg13_6_cif.got.tgz:11746.got - 2010.06.11 12:23:55.
