data_PCOD9238365
_publ_section_title
;
Structure prediction by ZEFSAII (Michael W. Deem and Ramdas Pophale) SiO2 
 PCOD9238365
Probable space group: P 2/C
;
_chemical_formula_sum "Si O2"
_cell_formula_units_Z 18
_cell_length_a 10.958357
_cell_length_b 5.009461
_cell_length_c 14.230900
_cell_angle_alpha 90.000000
_cell_angle_beta 61.766243
_cell_angle_gamma 90.000000
_cell_volume 688.267064
_symmetry_space_group_name_H-M "P 2/C"
_symmetry_group_IT_number 13
_symmetry_cell_setting 'monoclinic'
loop_
_space_group_symop_operation_xyz
x,y,z
-x,y,1/2-z
-x,-y,-z
x,-y,1/2+z
loop_
_atom_site_type_symbol
_atom_site_label
_atom_site_fract_x
_atom_site_fract_y
_atom_site_fract_z
Si Si1 0.278363 0.378023 0.915276
Si Si2 0.000000 0.999252 0.750000
Si Si3 0.504252 0.232529 0.139668
Si Si4 0.871360 0.102368 0.108701
Si Si5 0.277627 0.037903 0.083647
O O1 0.439437 0.462420 0.871008
O O2 0.199508 0.637968 0.907747
O O3 0.236562 0.143575 0.859120
O O4 0.228958 0.279271 0.034716
O O5 0.931496 0.842372 0.689127
O O6 0.859155 0.132185 0.841167
O O7 0.500000 0.142533 0.250000
O O8 0.361547 0.162664 0.140167
O O9 0.616499 0.111983 0.025214
O O10 0.000000 0.000000 0.000000
#
# Coordination Sequence:
#
# PCOD9238365 Si02
#       5
#     4   2   4   4   4
#     4  12  24  51  74 110 153 205 262 323 382 465
#     4  12  26  50  78 126 156 216 258 328 408 478
#     4  11  25  52  77 116 159 214 269 329 395 468
#     4  12  26  48  77 111 162 202 258 322 392 470
#     4  11  26  47  82 116 163 206 270 325 399 480
#
# _framework density 26.152638
#
# number of rings (size 3 to 8) (size 9 to 14) (size 15 to 20)
#    0.000    0.444    4.444    2.667    0.000    1.778 
#   16.000    0.000    0.000    0.000    0.000    0.000 
#    0.000    0.000    0.000    0.000    0.000    0.000 
#
# Total GULP energy -100578.943535 kJ/mol
# GULP energy per Si atom -5587.719085 kJ/mol
# Density = 2.609311 g / cm^3
# Si number density = 26.152638 Si / 1000 Ang^3
#
#
#
# Elastic Constant Matrix: (Units=GPa)
#
#
# Indices 1 2 3 4 5 6 
#
# 1 201.9003 52.8304 84.2053 0.0000 23.8830 0.0000
# 2 52.8304 127.0511 26.7999 0.0000 6.3364 0.0000
# 3 84.2053 26.7999 143.0255 0.0000 2.2461 0.0000
# 4 0.0000 0.0000 0.0000 19.1942 0.0000 -8.7456
# 5 23.8830 6.3364 2.2461 0.0000 88.3803 0.0000
# 6 0.0000 0.0000 0.0000 -8.7456 0.0000 25.0347
#
#
#
# Elastic Compliance Matrix: (Units=1/GPa)
#
#
# Indices 1 2 3 4 5 6 
#
# 1 0.007343 -0.002146 -0.003894 0.000000 -0.001732 0.000000
# 2 -0.002146 0.008848 -0.000394 0.000000 -0.000045 0.000000
# 3 -0.003894 -0.000394 0.009345 0.000000 0.000843 0.000000
# 4 0.000000 0.000000 0.000000 0.061962 0.000000 0.021646
# 5 -0.001732 -0.000045 0.000843 0.000000 0.011764 0.000000
# 6 0.000000 0.000000 0.000000 0.021646 0.000000 0.047506
#
#
# Mechanical properties :
#
#
# Convention : Reuss Voigt Hill
#
# Bulk Modulus (GPa) = 78.93252 88.84981 83.89117
# Shear Modulus (GPa) = 30.51394 47.06459 38.78927
#
# Velocity S-wave (km/s) = 3.41950 4.24679 3.85540
# Velocity P-wave (km/s) = 6.77035 7.62196 7.20874
#
# Compressibility (1/GPa) = 0.01266905
#
# Stress axis : x y z
#
# Youngs Moduli (GPa) = 136.17844 113.01455 107.00957
#
# Poissons Ratio (x) = 0.24250 0.41670
# Poissons Ratio (y) = 0.29220 0.04216
# Poissons Ratio (z) = 0.53029 0.04453
#
# Static dielectric constant tensor:
#      x y z
#    x 2.083940 0.000000 -0.076870 
#    y 0.000000 2.079560 0.000000 
#    z -0.076870 0.000000 2.122530 
# 
# From -- ./inp_files/48410.got.cif
#   From: 2010.05.17/outbox.cif.g08.bks.cpg/sg13_25_cif.got.tgz:48410.got - 2010.06.03 16:44:36.
