data_PCOD9238439
_publ_section_title
;
Structure prediction by ZEFSAII (Michael W. Deem and Ramdas Pophale) SiO2 
 PCOD9238439
Probable space group: P 2/C
;
_chemical_formula_sum "Si O2"
_cell_formula_units_Z 32
_cell_length_a 8.178428
_cell_length_b 14.409969
_cell_length_c 22.513474
_cell_angle_alpha 90.000000
_cell_angle_beta 148.356569
_cell_angle_gamma 90.000000
_cell_volume 1391.969300
_symmetry_space_group_name_H-M "P 2/C"
_symmetry_group_IT_number 13
_symmetry_cell_setting 'monoclinic'
loop_
_space_group_symop_operation_xyz
x,y,z
-x,y,1/2-z
-x,-y,-z
x,-y,1/2+z
loop_
_atom_site_type_symbol
_atom_site_label
_atom_site_fract_x
_atom_site_fract_y
_atom_site_fract_z
Si Si1 0.824444 0.243373 0.818668
Si Si2 0.344468 0.413071 0.261388
Si Si3 0.709950 0.078712 0.704495
Si Si4 0.711696 0.592421 0.201715
Si Si5 0.356989 0.598437 0.982092
Si Si6 0.759803 0.724850 0.940450
Si Si7 0.796248 0.130784 0.247178
Si Si8 0.237137 0.209703 0.486526
O O1 0.500000 0.264463 0.750000
O O2 0.812116 0.138477 0.792789
O O3 0.814844 0.308975 0.758157
O O4 0.085263 0.262844 0.947737
O O5 0.500000 0.375841 0.250000
O O6 0.333082 0.523364 0.258207
O O7 0.569874 0.371938 0.380721
O O8 0.982718 0.388334 0.151012
O O9 0.441273 0.134874 0.586243
O O10 0.000000 0.076178 0.750000
O O11 0.654344 0.972795 0.705766
O O12 0.000000 0.559513 0.250000
O O13 0.406576 0.581042 0.067464
O O14 0.443440 0.710866 0.015134
O O15 0.500000 0.500000 0.000000
O O16 0.488981 0.798620 0.844419
O O17 0.018969 0.740848 0.969260
O O18 0.000000 0.138604 0.250000
O O19 0.018039 0.157984 0.370957
#
# Coordination Sequence:
#
# PCOD9238439 Si02
#       8
#     4   4   4   4   4   4   4   4
#     4  12  26  48  71 110 146 196 258 312 390 463
#     4  12  26  46  72 102 146 198 251 312 385 457
#     4  11  27  48  76 110 156 203 254 327 395 460
#     4  12  27  45  68 104 144 195 252 316 384 461
#     4  12  25  46  74 109 147 201 261 312 384 464
#     4  12  26  49  77 109 155 203 256 324 393 461
#     4  11  28  46  76 117 151 205 260 321 394 468
#     4  12  25  52  78 109 162 204 260 331 392 465
#
# _framework density 22.989011999999999
#
# number of rings (size 3 to 8) (size 9 to 14) (size 15 to 20)
#    0.000    0.250    6.250    1.125    5.250    4.500 
#    0.000    0.000    0.000    0.000    0.000    0.000 
#    0.000    0.000    0.000    0.000    0.000    0.000 
#
# Total GULP energy -178548.627248 kJ/mol
# GULP energy per Si atom -5579.644601 kJ/mol
# Density = 2.293669 g / cm^3
# Si number density = 22.989012 Si / 1000 Ang^3
#
#
#
# Elastic Constant Matrix: (Units=GPa)
#
#
# Indices 1 2 3 4 5 6 
#
# 1 78.4698 25.2928 30.6206 0.0000 -0.7882 0.0000
# 2 25.2928 138.5230 22.5399 0.0000 6.0358 0.0000
# 3 30.6206 22.5399 93.3417 0.0000 -10.1044 0.0000
# 4 0.0000 0.0000 0.0000 34.5082 0.0000 -12.3999
# 5 -0.7882 6.0358 -10.1044 0.0000 34.9109 0.0000
# 6 0.0000 0.0000 0.0000 -12.3999 0.0000 -39.6624
#
#
#
# Elastic Compliance Matrix: (Units=1/GPa)
#
#
# Indices 1 2 3 4 5 6 
#
# 1 0.015161 -0.001999 -0.004559 0.000000 -0.000632 0.000000
# 2 -0.001999 0.007900 -0.001450 0.000000 -0.001831 0.000000
# 3 -0.004559 -0.001450 0.012982 0.000000 0.003905 0.000000
# 4 0.000000 0.000000 0.000000 0.026052 0.000000 -0.008145
# 5 -0.000632 -0.001831 0.003905 0.000000 0.030077 0.000000
# 6 0.000000 0.000000 0.000000 -0.008145 0.000000 -0.022666
#
#
# Mechanical properties :
#
#
# Convention : Reuss Voigt Hill
#
# Bulk Modulus (GPa) = 49.93458 51.91569 50.92513
# Shear Modulus (GPa) = 54.23217 21.41008 37.82113
#
# Velocity S-wave (km/s) = 4.86227 3.05506 4.06049
# Velocity P-wave (km/s) = 7.30003 5.92253 6.64706
#
# Compressibility (1/GPa) = 0.02002620
#
# Stress axis : x y z
#
# Youngs Moduli (GPa) = 65.95970 126.58720 77.03056
#
# Poissons Ratio (x) = 0.25303 0.35120
# Poissons Ratio (y) = 0.13184 0.11170
# Poissons Ratio (z) = 0.30072 0.18356
#
# Static dielectric constant tensor:
#      x y z
#    x 1.955750 0.000000 0.009670 
#    y 0.000000 1.899050 0.000000 
#    z 0.009670 0.000000 1.859820 
# 
# From -- ./inp_files/85364.got.cif
#   From: 2010.05.17/outbox.cif.g08.bks.cpg/sg13_43_cif.got.tgz:85364.got - 2010.06.03 16:44:36.
