data_PCOD9238885
_publ_section_title
;
Structure prediction by ZEFSAII (Michael W. Deem and Ramdas Pophale) SiO2 
 PCOD9238885
Probable space group: P 2/C
;
_chemical_formula_sum "Si O2"
_cell_formula_units_Z 26
_cell_length_a 9.000000
_cell_length_b 15.000000
_cell_length_c 21.000000
_cell_angle_alpha 90.000000
_cell_angle_beta 150.000000
_cell_angle_gamma 90.000000
_cell_volume 1417.500000
_symmetry_space_group_name_H-M "P 2/C"
_symmetry_group_IT_number 13
_symmetry_cell_setting 'monoclinic'
loop_
_space_group_symop_operation_xyz
x,y,z
-x,y,1/2-z
-x,-y,-z
x,-y,1/2+z
loop_
_atom_site_type_symbol
_atom_site_label
_atom_site_fract_x
_atom_site_fract_y
_atom_site_fract_z
Si Si1 0.644929 0.969166 0.621457
Si Si2 0.984478 0.642406 0.410038
Si Si3 0.000000 0.638816 0.750000
Si Si4 0.757143 0.466108 0.048966
Si Si5 0.348915 0.835742 0.360004
Si Si6 0.470530 0.778543 0.545504
Si Si7 0.595280 0.670956 0.382503
O O1 0.504232 0.875488 0.591388
O O2 0.000000 0.953441 0.750000
O O3 0.500000 0.000000 0.500000
O O4 0.607581 0.062011 0.645261
O O5 0.881292 0.663853 0.443284
O O6 0.684151 0.631022 0.258427
O O7 0.150702 0.549046 0.460787
O O8 0.171665 0.725126 0.451338
O O9 0.995028 0.575561 0.686160
O O10 0.722679 0.705625 0.651785
O O11 0.500000 0.500000 0.000000
O O12 0.647349 0.385522 0.964880
O O13 0.499826 0.807283 0.482605
O O14 0.486546 0.769605 0.359842
O O15 0.000000 0.825275 0.250000
#
# Coordination Sequence:
#
# PCOD9238885 Si02
#       7
#     4   4   2   4   4   4   4
#     4   9  19  32  58  92 120 146 193 252 299 343
#     4  11  24  39  57  86 118 158 193 240 293 350
#     4  12  22  34  60  84 116 150 194 244 292 340
#     4  12  23  39  60  83 113 151 198 244 288 343
#     4  10  18  36  63  88 112 149 195 244 287 343
#     4  11  20  37  58  88 119 148 193 243 294 346
#     4  11  23  40  60  82 120 154 196 237 295 350
#
# _framework density 18.342151999999999
#
# number of rings (size 3 to 8) (size 9 to 14) (size 15 to 20)
#    0.000    1.231    5.385    1.385    0.000    0.000 
#    0.000    0.769    0.000    0.000    0.000    0.000 
#    0.000    0.000    0.000    0.000    0.000    0.000 
#
# Total GULP energy -144823.601353 kJ/mol
# GULP energy per Si atom -5570.138514 kJ/mol
# Density = 1.830040 g / cm^3
# Si number density = 18.342152 Si / 1000 Ang^3
#
#
#
# Elastic Constant Matrix: (Units=GPa)
#
#
# Indices 1 2 3 4 5 6 
#
# 1 59.2119 29.8430 11.5252 0.0000 6.9264 0.0000
# 2 29.8430 148.5248 18.3219 0.0000 10.2996 0.0000
# 3 11.5252 18.3219 59.2696 0.0000 1.7666 0.0000
# 4 0.0000 0.0000 0.0000 26.1735 0.0000 -4.7413
# 5 6.9264 10.2996 1.7666 0.0000 21.6280 0.0000
# 6 0.0000 0.0000 0.0000 -4.7413 0.0000 -1.5047
#
#
#
# Elastic Compliance Matrix: (Units=1/GPa)
#
#
# Indices 1 2 3 4 5 6 
#
# 1 0.019593 -0.003298 -0.002657 0.000000 -0.004487 0.000000
# 2 -0.003298 0.007778 -0.001688 0.000000 -0.002510 0.000000
# 3 -0.002657 -0.001688 0.017905 0.000000 0.000192 0.000000
# 4 0.000000 0.000000 0.000000 0.024323 0.000000 -0.076642
# 5 -0.004487 -0.002510 0.000192 0.000000 0.048853 0.000000
# 6 0.000000 0.000000 0.000000 -0.076642 0.000000 -0.423093
#
#
# Mechanical properties :
#
#
# Convention : Reuss Voigt Hill
#
# Bulk Modulus (GPa) = 33.34474 42.93185 38.13829
# Shear Modulus (GPa) = -17.89809 23.08044 2.59117
#
# Velocity S-wave (km/s) = -3.12715 3.55114 1.18985
# Velocity P-wave (km/s) = 2.27596 6.34595 4.76713
#
# Compressibility (1/GPa) = 0.02998973
#
# Stress axis : x y z
#
# Youngs Moduli (GPa) = 51.03969 128.57056 55.85088
#
# Poissons Ratio (x) = 0.42401 0.14838
# Poissons Ratio (y) = 0.16832 0.09429
# Poissons Ratio (z) = 0.13559 0.21706
#
# Static dielectric constant tensor:
#      x y z
#    x 1.618830 0.000000 -0.007940 
#    y 0.000000 1.665180 0.000000 
#    z -0.007940 0.000000 1.670420 
# 
# From -- ./inp_files/76584.got.cif
#   From: 2010.05.17/outbox.ucp.g08.bks.cvg/sg13_39_cif.got.tgz:76584.got - 2010.06.11 12:23:55.
