data_PCOD9238460
_publ_section_title
;
Structure prediction by ZEFSAII (Michael W. Deem and Ramdas Pophale) SiO2 
 PCOD9238460
Probable space group: P 2/C
;
_chemical_formula_sum "Si O2"
_cell_formula_units_Z 18
_cell_length_a 10.141170
_cell_length_b 9.280392
_cell_length_c 10.963165
_cell_angle_alpha 90.000000
_cell_angle_beta 114.090082
_cell_angle_gamma 90.000000
_cell_volume 941.923966
_symmetry_space_group_name_H-M "P 2/C"
_symmetry_group_IT_number 13
_symmetry_cell_setting 'monoclinic'
loop_
_space_group_symop_operation_xyz
x,y,z
-x,y,1/2-z
-x,-y,-z
x,-y,1/2+z
loop_
_atom_site_type_symbol
_atom_site_label
_atom_site_fract_x
_atom_site_fract_y
_atom_site_fract_z
Si Si1 0.866896 0.572895 0.521857
Si Si2 0.330115 0.216936 0.702663
Si Si3 0.845618 0.937624 0.904423
Si Si4 0.839632 0.723512 0.126177
Si Si5 0.000000 0.194158 0.250000
O O1 0.750026 0.646901 0.390516
O O2 0.813879 0.444669 0.588508
O O3 0.000000 0.500000 0.500000
O O4 0.928404 0.703440 0.623587
O O5 0.500000 0.226978 0.750000
O O6 0.276518 0.220756 0.821657
O O7 0.269955 0.064994 0.628373
O O8 0.875557 0.891890 0.775422
O O9 0.824279 0.808489 0.992611
O O10 0.000000 0.000000 0.000000
O O11 0.000000 0.740771 0.250000
#
# Coordination Sequence:
#
# PCOD9238460 Si02
#       5
#     4   4   4   4   2
#     4  12  21  42  72 102 125 174 225 272 324 394
#     4  12  28  45  64 100 142 172 215 282 337 383
#     4  12  22  39  67  98 127 178 223 265 320 394
#     4  12  22  41  71  99 128 170 228 271 318 401
#     4  12  20  36  72 102 124 164 236 272 310 388
#
# _framework density 19.109821
#
# number of rings (size 3 to 8) (size 9 to 14) (size 15 to 20)
#    0.000    0.000   10.000    1.333    0.000    1.778 
#    0.000    1.111    0.000    0.000    0.000    0.000 
#    0.000    0.000    0.000    0.000    0.000    0.000 
#
# Total GULP energy -100550.214821 kJ/mol
# GULP energy per Si atom -5586.123046 kJ/mol
# Density = 1.906633 g / cm^3
# Si number density = 19.109821 Si / 1000 Ang^3
#
#
#
# Elastic Constant Matrix: (Units=GPa)
#
#
# Indices 1 2 3 4 5 6 
#
# 1 133.6783 48.2483 58.0734 0.0000 9.0315 0.0000
# 2 48.2483 108.2496 36.7162 0.0000 9.2732 0.0000
# 3 58.0734 36.7162 72.5045 0.0000 -0.4927 0.0000
# 4 0.0000 0.0000 0.0000 42.6232 0.0000 -10.7377
# 5 9.0315 9.2732 -0.4927 0.0000 30.8896 0.0000
# 6 0.0000 0.0000 0.0000 -10.7377 0.0000 33.0314
#
#
#
# Elastic Compliance Matrix: (Units=1/GPa)
#
#
# Indices 1 2 3 4 5 6 
#
# 1 0.012291 -0.002258 -0.008722 0.000000 -0.003055 0.000000
# 2 -0.002258 0.011946 -0.004261 0.000000 -0.002994 0.000000
# 3 -0.008722 -0.004261 0.022964 0.000000 0.004196 0.000000
# 4 0.000000 0.000000 0.000000 0.025554 0.000000 0.008307
# 5 -0.003055 -0.002994 0.004196 0.000000 0.034232 0.000000
# 6 0.000000 0.000000 0.000000 0.008307 0.000000 0.032975
#
#
# Mechanical properties :
#
#
# Convention : Reuss Voigt Hill
#
# Bulk Modulus (GPa) = 59.81125 66.72313 63.26719
# Shear Modulus (GPa) = 28.40610 32.73514 30.57062
#
# Velocity S-wave (km/s) = 3.85965 4.14333 4.00401
# Velocity P-wave (km/s) = 7.15746 7.60796 7.38614
#
# Compressibility (1/GPa) = 0.01671926
#
# Stress axis : x y z
#
# Youngs Moduli (GPa) = 81.35929 83.70833 43.54555
#
# Poissons Ratio (x) = 0.18904 0.37980
# Poissons Ratio (y) = 0.18374 0.18555
# Poissons Ratio (z) = 0.70961 0.35669
#
# Static dielectric constant tensor:
#      x y z
#    x 1.426610 0.000000 0.083060 
#    y 0.000000 1.708760 0.000000 
#    z 0.083060 0.000000 1.694450 
# 
# From -- ./inp_files/27676.got.cif
#   From: 2010.05.17/outbox.cif.g08.bks.cpg/sg13_14_cif.got.tgz:27676.got - 2010.06.03 16:44:36.
