data_PCOD9238220
_publ_section_title
;
Structure prediction by ZEFSAII (Michael W. Deem and Ramdas Pophale) SiO2 
 PCOD9238220
Probable space group: P 2/C
;
_chemical_formula_sum "Si O2"
_cell_formula_units_Z 16
_cell_length_a 12.328345
_cell_length_b 5.051830
_cell_length_c 25.262660
_cell_angle_alpha 90.000000
_cell_angle_beta 157.667348
_cell_angle_gamma 90.000000
_cell_volume 597.856787
_symmetry_space_group_name_H-M "P 2/C"
_symmetry_group_IT_number 13
_symmetry_cell_setting 'monoclinic'
loop_
_space_group_symop_operation_xyz
x,y,z
-x,y,1/2-z
-x,-y,-z
x,-y,1/2+z
loop_
_atom_site_type_symbol
_atom_site_label
_atom_site_fract_x
_atom_site_fract_y
_atom_site_fract_z
Si Si1 0.404632 0.556543 0.796227
Si Si2 0.113075 0.484741 0.358518
Si Si3 0.967723 0.193879 0.034661
Si Si4 0.295977 0.031025 0.992756
O O1 0.155752 0.465051 0.723996
O O2 0.673873 0.363397 0.906744
O O3 0.236996 0.617561 0.666138
O O4 0.513398 0.816276 0.877695
O O5 0.000000 0.411816 0.250000
O O6 0.269298 0.764499 0.432830
O O7 0.313613 0.258199 0.474253
O O8 0.973393 0.017429 0.090314
O O9 0.000000 0.000000 0.000000
#
# Coordination Sequence:
#
# PCOD9238220 Si02
#       4
#     4   4   4   4
#     4  11  25  53  79 116 169 205 283 337 407 494
#     4  11  26  48  79 120 163 218 271 341 413 479
#     4  11  28  54  82 117 164 220 273 343 418 488
#     4  11  24  49  74 116 161 209 274 337 396 493
#
# _framework density 26.762262
#
# number of rings (size 3 to 8) (size 9 to 14) (size 15 to 20)
#    0.000    1.000    5.000    0.750    7.000    4.000 
#    9.000    1.250    0.000    0.000    0.000    0.000 
#    0.000    0.000    0.000    0.000    0.000    0.000 
#
# Total GULP energy -89375.230837 kJ/mol
# GULP energy per Si atom -5585.951927 kJ/mol
# Density = 2.670135 g / cm^3
# Si number density = 26.762262 Si / 1000 Ang^3
#
#
#
# Elastic Constant Matrix: (Units=GPa)
#
#
# Indices 1 2 3 4 5 6 
#
# 1 160.9985 47.4513 63.4131 0.0000 -3.6684 0.0000
# 2 47.4513 170.0138 92.3213 0.0000 3.2377 0.0000
# 3 63.4131 92.3213 144.5795 0.0000 17.5182 0.0000
# 4 0.0000 0.0000 0.0000 49.0249 0.0000 0.0575
# 5 -3.6684 3.2377 17.5182 0.0000 43.1643 0.0000
# 6 0.0000 0.0000 0.0000 0.0575 0.0000 20.0875
#
#
#
# Elastic Compliance Matrix: (Units=1/GPa)
#
#
# Indices 1 2 3 4 5 6 
#
# 1 0.007702 -0.000335 -0.003415 0.000000 0.002065 0.000000
# 2 -0.000335 0.009145 -0.005896 0.000000 0.001679 0.000000
# 3 -0.003415 -0.005896 0.012790 0.000000 -0.005039 0.000000
# 4 0.000000 0.000000 0.000000 0.020398 0.000000 -0.000058
# 5 0.002065 0.001679 -0.005039 0.000000 0.025262 0.000000
# 6 0.000000 0.000000 0.000000 -0.000058 0.000000 0.049782
#
#
# Mechanical properties :
#
#
# Convention : Reuss Voigt Hill
#
# Bulk Modulus (GPa) = 96.65809 97.99592 97.32700
# Shear Modulus (GPa) = 33.82529 40.61576 37.22052
#
# Velocity S-wave (km/s) = 3.55902 3.89993 3.73337
# Velocity P-wave (km/s) = 7.28591 7.54824 7.41824
#
# Compressibility (1/GPa) = 0.01034575
#
# Stress axis : x y z
#
# Youngs Moduli (GPa) = 129.83847 109.34838 78.18754
#
# Poissons Ratio (x) = 0.03660 0.26698
# Poissons Ratio (y) = 0.04346 0.46101
# Poissons Ratio (z) = 0.44334 0.64473
#
# Static dielectric constant tensor:
#      x y z
#    x 2.073680 0.000000 0.055370 
#    y 0.000000 2.247730 0.000000 
#    z 0.055370 0.000000 2.179340 
# 
# From -- ./inp_files/92602.got.cif
#   From: 2010.05.17/outbox.cif.g08.bks.cpg/sg13_47_cif.got.tgz:92602.got - 2010.06.03 16:44:36.
