data_PCOD9238330
_publ_section_title
;
Structure prediction by ZEFSAII (Michael W. Deem and Ramdas Pophale) SiO2 
 PCOD9238330
Probable space group: P 2/C
;
_chemical_formula_sum "Si O2"
_cell_formula_units_Z 22
_cell_length_a 14.162675
_cell_length_b 5.410017
_cell_length_c 22.027818
_cell_angle_alpha 90.000000
_cell_angle_beta 31.919492
_cell_angle_gamma 90.000000
_cell_volume 892.374166
_symmetry_space_group_name_H-M "P 2/C"
_symmetry_group_IT_number 13
_symmetry_cell_setting 'monoclinic'
loop_
_space_group_symop_operation_xyz
x,y,z
-x,y,1/2-z
-x,-y,-z
x,-y,1/2+z
loop_
_atom_site_type_symbol
_atom_site_label
_atom_site_fract_x
_atom_site_fract_y
_atom_site_fract_z
Si Si1 0.847388 0.691627 0.599584
Si Si2 0.214793 0.573910 0.636441
Si Si3 0.500000 0.415751 0.750000
Si Si4 0.628308 0.823165 0.056861
Si Si5 0.716202 0.905295 0.329612
Si Si6 0.966176 0.967062 0.418224
O O1 0.653042 0.577139 0.698953
O O2 0.872553 0.885363 0.531338
O O3 0.000000 0.500000 0.500000
O O4 0.909808 0.801874 0.629248
O O5 0.303205 0.599217 0.521871
O O6 0.305841 0.332873 0.615792
O O7 0.000000 0.541963 0.750000
O O8 0.247555 0.838259 0.653862
O O9 0.414559 0.258185 0.851087
O O10 0.454981 0.935317 0.119997
O O11 0.803754 0.991276 0.962158
O O12 0.883118 0.811980 0.197081
#
# Coordination Sequence:
#
# PCOD9238330 Si02
#       6
#     4   4   2   4   4   4
#     4  11  25  48  71 111 158 206 260 320 393 466
#     4  12  28  54  81 117 157 213 258 330 393 469
#     4  12  28  44  84 112 154 216 250 334 390 478
#     4  12  28  50  77 117 157 205 269 321 399 471
#     4  12  29  51  84 114 159 208 267 325 396 468
#     4  11  27  47  76 112 159 205 262 330 392 474
#
# _framework density 24.653334999999998
#
# number of rings (size 3 to 8) (size 9 to 14) (size 15 to 20)
#    0.000    0.364    3.636    2.727   12.727    0.000 
#    0.000    0.000    0.000    0.000    0.000    0.000 
#    0.000    0.000    0.000    0.000    0.000    0.000 
#
# Total GULP energy -123104.820008 kJ/mol
# GULP energy per Si atom -5595.673637 kJ/mol
# Density = 2.459722 g / cm^3
# Si number density = 24.653335 Si / 1000 Ang^3
#
#
#
# Elastic Constant Matrix: (Units=GPa)
#
#
# Indices 1 2 3 4 5 6 
#
# 1 129.7859 38.4536 40.7693 0.0000 -32.8725 0.0000
# 2 38.4536 78.5376 -3.1538 0.0000 -13.5228 0.0000
# 3 40.7693 -3.1538 119.8297 0.0000 -18.1443 0.0000
# 4 0.0000 0.0000 0.0000 36.6000 0.0000 4.6410
# 5 -32.8725 -13.5228 -18.1443 0.0000 69.4192 0.0000
# 6 0.0000 0.0000 0.0000 4.6410 0.0000 16.5361
#
#
#
# Elastic Compliance Matrix: (Units=1/GPa)
#
#
# Indices 1 2 3 4 5 6 
#
# 1 0.011113 -0.004992 -0.003397 0.000000 0.003402 0.000000
# 2 -0.004992 0.015485 0.002296 0.000000 0.001253 0.000000
# 3 -0.003397 0.002296 0.009772 0.000000 0.001393 0.000000
# 4 0.000000 0.000000 0.000000 0.028331 0.000000 -0.007951
# 5 0.003402 0.001253 0.001393 0.000000 0.016624 0.000000
# 6 0.000000 0.000000 0.000000 -0.007951 0.000000 0.062705
#
#
# Mechanical properties :
#
#
# Convention : Reuss Voigt Hill
#
# Bulk Modulus (GPa) = 41.35119 53.36572 47.35845
# Shear Modulus (GPa) = 30.43630 41.31666 35.87648
#
# Velocity S-wave (km/s) = 3.51746 4.09822 3.81890
# Velocity P-wave (km/s) = 5.77115 6.63983 6.22067
#
# Compressibility (1/GPa) = 0.02418310
#
# Stress axis : x y z
#
# Youngs Moduli (GPa) = 89.98679 64.58012 102.33049
#
# Poissons Ratio (x) = 0.32236 0.34763
# Poissons Ratio (y) = 0.44918 -0.23490
# Poissons Ratio (z) = 0.30569 -0.14824
#
# Static dielectric constant tensor:
#      x y z
#    x 2.062940 0.000000 0.152740 
#    y 0.000000 1.654670 0.000000 
#    z 0.152740 0.000000 2.049800 
# 
# From -- ./inp_files/86966.got.cif
#   From: 2010.05.17/outbox.cif.g08.bks.cpg/sg13_44_cif.got.tgz:86966.got - 2010.06.03 16:44:36.
