data_PCOD9238160
_publ_section_title
;
Structure prediction by ZEFSAII (Michael W. Deem and Ramdas Pophale) SiO2 
 PCOD9238160
Probable space group: P 2/C
;
_chemical_formula_sum "Si O2"
_cell_formula_units_Z 22
_cell_length_a 11.219583
_cell_length_b 8.951807
_cell_length_c 10.480730
_cell_angle_alpha 90.000000
_cell_angle_beta 101.844107
_cell_angle_gamma 90.000000
_cell_volume 1030.226794
_symmetry_space_group_name_H-M "P 2/C"
_symmetry_group_IT_number 13
_symmetry_cell_setting 'monoclinic'
loop_
_space_group_symop_operation_xyz
x,y,z
-x,y,1/2-z
-x,-y,-z
x,-y,1/2+z
loop_
_atom_site_type_symbol
_atom_site_label
_atom_site_fract_x
_atom_site_fract_y
_atom_site_fract_z
Si Si1 0.894933 0.566003 0.622524
Si Si2 0.500000 0.340410 0.750000
Si Si3 0.640532 0.385480 0.197282
Si Si4 0.485973 0.175427 0.986481
Si Si5 0.757349 0.290131 0.469710
Si Si6 0.024259 0.134522 0.103492
O O1 0.770279 0.616922 0.659558
O O2 0.850939 0.414083 0.544621
O O3 0.000000 0.532872 0.750000
O O4 0.945085 0.713500 0.561005
O O5 0.420563 0.452267 0.819836
O O6 0.449544 0.233179 0.629220
O O7 0.556936 0.260226 0.115722
O O8 0.668913 0.372385 0.352239
O O9 0.339565 0.209961 0.958720
O O10 0.500000 0.000000 0.000000
O O11 0.837362 0.178789 0.401022
O O12 0.000000 0.100763 0.250000
O O13 0.000000 0.000000 0.000000
#
# Coordination Sequence:
#
# PCOD9238160 Si02
#       6
#     4   2   4   4   4   4
#     4  11  24  46  72 111 144 193 257 315 374 459
#     4  12  24  48  74 104 144 200 248 308 378 446
#     4  12  23  46  74 104 147 190 253 308 372 459
#     4  12  29  46  74 114 151 196 251 319 395 459
#     4  12  24  47  77 102 145 197 247 313 378 453
#     4  11  26  48  70 106 150 195 250 310 386 458
#
# _framework density 21.354520999999998
#
# number of rings (size 3 to 8) (size 9 to 14) (size 15 to 20)
#    0.000    0.364    7.273    2.182    5.091    0.727 
#    0.000    0.000    0.000    0.000    0.000    0.000 
#    0.000    0.000    0.000    0.000    0.000    0.000 
#
# Total GULP energy -122562.785855 kJ/mol
# GULP energy per Si atom -5571.035721 kJ/mol
# Density = 2.130592 g / cm^3
# Si number density = 21.354521 Si / 1000 Ang^3
#
#
#
# Elastic Constant Matrix: (Units=GPa)
#
#
# Indices 1 2 3 4 5 6 
#
# 1 144.6295 54.1855 27.4158 0.0000 -7.6272 0.0000
# 2 54.1855 159.6455 78.2401 0.0000 4.6041 0.0000
# 3 27.4158 78.2401 96.6784 0.0000 12.1958 0.0000
# 4 0.0000 0.0000 0.0000 452.9605 0.0000 -426.0198
# 5 -7.6272 4.6041 12.1958 0.0000 28.6525 0.0000
# 6 0.0000 0.0000 0.0000 -426.0198 0.0000 452.0707
#
#
#
# Elastic Compliance Matrix: (Units=1/GPa)
#
#
# Indices 1 2 3 4 5 6 
#
# 1 0.008132 -0.002546 -0.000602 0.000000 0.002830 0.000000
# 2 -0.002546 0.011290 -0.008560 0.000000 0.001152 0.000000
# 3 -0.000602 -0.008560 0.018269 0.000000 -0.006561 0.000000
# 4 0.000000 0.000000 0.000000 0.019421 0.000000 0.018302
# 5 0.002830 0.001152 -0.006561 0.000000 0.038262 0.000000
# 6 0.000000 0.000000 0.000000 0.018302 0.000000 0.019459
#
#
# Mechanical properties :
#
#
# Convention : Reuss Voigt Hill
#
# Bulk Modulus (GPa) = 70.05769 80.07067 75.06418
# Shear Modulus (GPa) = 34.96283 202.81087 118.88685
#
# Velocity S-wave (km/s) = 4.05069 9.75600 7.46952
# Velocity P-wave (km/s) = 7.39971 12.82510 10.46993
#
# Compressibility (1/GPa) = 0.01427395
#
# Stress axis : x y z
#
# Youngs Moduli (GPa) = 122.97630 88.57288 54.73605
#
# Poissons Ratio (x) = 0.22555 0.03296
# Poissons Ratio (y) = 0.31316 0.46854
# Poissons Ratio (z) = 0.07405 0.75819
#
# Static dielectric constant tensor:
#      x y z
#    x 1.835970 0.000000 -0.063570 
#    y 0.000000 1.862380 0.000000 
#    z -0.063570 0.000000 1.870160 
# 
# From -- ./inp_files/32707.got.cif
#   From: 2010.05.17/outbox.cif.g08.bks.cpg/sg13_17_cif.got.tgz:32707.got - 2010.06.03 16:44:36.
