data_PCOD9238725
_publ_section_title
;
Structure prediction by ZEFSAII (Michael W. Deem and Ramdas Pophale) SiO2 
 PCOD9238725
Probable space group: P 2/C
;
_chemical_formula_sum "Si O2"
_cell_formula_units_Z 20
_cell_length_a 8.642215
_cell_length_b 4.884794
_cell_length_c 22.390541
_cell_angle_alpha 90.000000
_cell_angle_beta 52.614586
_cell_angle_gamma 90.000000
_cell_volume 751.047911
_symmetry_space_group_name_H-M "P 2/C"
_symmetry_group_IT_number 13
_symmetry_cell_setting 'monoclinic'
loop_
_space_group_symop_operation_xyz
x,y,z
-x,y,1/2-z
-x,-y,-z
x,-y,1/2+z
loop_
_atom_site_type_symbol
_atom_site_label
_atom_site_fract_x
_atom_site_fract_y
_atom_site_fract_z
Si Si1 0.156641 0.362938 0.377569
Si Si2 0.232531 0.060477 0.036271
Si Si3 0.786649 0.147090 0.320987
Si Si4 0.599300 0.467146 0.066178
Si Si5 0.292609 0.831561 0.277809
O O1 0.273949 0.499621 0.403826
O O2 0.135109 0.605280 0.334359
O O3 0.269687 0.110977 0.320827
O O4 0.957939 0.217233 0.443891
O O5 0.198305 0.044397 0.114716
O O6 0.401996 0.268885 0.975746
O O7 0.287272 0.775444 0.994583
O O8 0.724034 0.922293 0.286634
O O9 0.000000 0.244479 0.250000
O O10 0.613744 0.366539 0.364959
O O11 0.500000 0.713531 0.250000
#
# Coordination Sequence:
#
# PCOD9238725 Si02
#       5
#     4   4   4   4   4
#     4  12  25  49  81 113 146 204 254 316 374 459
#     4  12  27  51  77 117 155 200 253 313 390 455
#     4  12  28  51  78 112 158 203 253 319 380 454
#     4  12  27  51  78 114 156 202 255 312 382 457
#     4  12  26  48  77 110 154 197 258 313 381 443
#
# _framework density 26.629456000000001
#
# number of rings (size 3 to 8) (size 9 to 14) (size 15 to 20)
#    0.000    0.000    4.000    5.400    0.000    1.600 
#    0.000    0.000    0.000    0.000    0.000    0.000 
#    0.000    0.000    0.000    0.000    0.000    0.000 
#
# Total GULP energy -112320.704835 kJ/mol
# GULP energy per Si atom -5616.035242 kJ/mol
# Density = 2.656885 g / cm^3
# Si number density = 26.629456 Si / 1000 Ang^3
#
#
#
# Elastic Constant Matrix: (Units=GPa)
#
#
# Indices 1 2 3 4 5 6 
#
# 1 108.8037 -14.1932 49.6588 0.0000 1.1182 0.0000
# 2 -14.1932 110.0848 53.0219 0.0000 20.4831 0.0000
# 3 49.6588 53.0219 191.0590 0.0000 11.9794 0.0000
# 4 0.0000 0.0000 0.0000 57.2002 0.0000 -3.0763
# 5 1.1182 20.4831 11.9794 0.0000 46.8509 0.0000
# 6 0.0000 0.0000 0.0000 -3.0763 0.0000 4.7446
#
#
#
# Elastic Compliance Matrix: (Units=1/GPa)
#
#
# Indices 1 2 3 4 5 6 
#
# 1 0.011432 0.003498 -0.003891 0.000000 -0.000807 0.000000
# 2 0.003498 0.012309 -0.004047 0.000000 -0.004430 0.000000
# 3 -0.003891 -0.004047 0.007370 0.000000 -0.000022 0.000000
# 4 0.000000 0.000000 0.000000 0.018114 0.000000 0.011745
# 5 -0.000807 -0.004430 -0.000022 0.000000 0.023306 0.000000
# 6 0.000000 0.000000 0.000000 0.011745 0.000000 0.218381
#
#
# Mechanical properties :
#
#
# Convention : Reuss Voigt Hill
#
# Bulk Modulus (GPa) = 44.98550 65.21360 55.09955
# Shear Modulus (GPa) = 16.27595 43.18981 29.73288
#
# Velocity S-wave (km/s) = 2.47493 4.03163 3.34509
# Velocity P-wave (km/s) = 5.00968 6.79812 5.97124
#
# Compressibility (1/GPa) = 0.02222939
#
# Stress axis : x y z
#
# Youngs Moduli (GPa) = 87.47667 81.24402 135.68480
#
# Poissons Ratio (x) = -0.28422 0.52801
# Poissons Ratio (y) = -0.30603 0.54916
# Poissons Ratio (z) = 0.34041 0.32882
#
# Static dielectric constant tensor:
#      x y z
#    x 2.129060 0.000000 -0.074960 
#    y 0.000000 2.029120 0.000000 
#    z -0.074960 0.000000 2.104700 
# 
# From -- ./inp_files/84135.got.cif
#   From: 2010.05.17/outbox.cif.g08.bks.cpg/sg13_43_cif.got.tgz:84135.got - 2010.06.03 16:44:36.
