data_PCOD9238691
_publ_section_title
;
Structure prediction by ZEFSAII (Michael W. Deem and Ramdas Pophale) SiO2 
 PCOD9238691
Probable space group: P 2/C
;
_chemical_formula_sum "Si O2"
_cell_formula_units_Z 12
_cell_length_a 4.980022
_cell_length_b 13.499345
_cell_length_c 9.380426
_cell_angle_alpha 90.000000
_cell_angle_beta 121.421995
_cell_angle_gamma 90.000000
_cell_volume 538.138523
_symmetry_space_group_name_H-M "P 2/C"
_symmetry_group_IT_number 13
_symmetry_cell_setting 'monoclinic'
loop_
_space_group_symop_operation_xyz
x,y,z
-x,y,1/2-z
-x,-y,-z
x,-y,1/2+z
loop_
_atom_site_type_symbol
_atom_site_label
_atom_site_fract_x
_atom_site_fract_y
_atom_site_fract_z
Si Si1 0.091250 0.788485 0.436965
Si Si2 0.697895 0.100916 0.069939
Si Si3 0.704381 0.432808 0.448588
O O1 0.438846 0.828308 0.566818
O O2 0.141954 0.670768 0.459197
O O3 0.000000 0.815144 0.250000
O O4 0.838468 0.841760 0.470362
O O5 0.000000 0.081148 0.250000
O O6 0.500000 0.000000 0.000000
O O7 0.500000 0.414150 0.250000
O O8 0.500000 0.500000 0.500000
O O9 0.000000 0.500000 0.500000
#
# Coordination Sequence:
#
# PCOD9238691 Si02
#       3
#     4   4   4
#     4  12  26  46  71 103 140 184 233 289 349 416
#     4  12  26  47  71 101 138 183 233 290 351 417
#     4  12  25  45  71 104 142 185 231 285 347 417
#
# _framework density 22.29909
#
# number of rings (size 3 to 8) (size 9 to 14) (size 15 to 20)
#    0.000    0.000    0.000   11.000    0.000    2.667 
#    0.000    0.000    0.000    0.000    0.000    0.000 
#    0.000    0.000    0.000    0.000    0.000    0.000 
#
# Total GULP energy -67112.041544 kJ/mol
# GULP energy per Si atom -5592.670129 kJ/mol
# Density = 2.224834 g / cm^3
# Si number density = 22.299090 Si / 1000 Ang^3
#
#
#
# Elastic Constant Matrix: (Units=GPa)
#
#
# Indices 1 2 3 4 5 6 
#
# 1 197.9184 85.1257 29.8424 0.0000 8.4692 0.0000
# 2 85.1257 196.4375 24.0228 0.0000 3.3664 0.0000
# 3 29.8424 24.0228 124.7366 0.0000 3.2417 0.0000
# 4 0.0000 0.0000 0.0000 -35.6030 0.0000 -22.5776
# 5 8.4692 3.3664 3.2417 0.0000 48.8684 0.0000
# 6 0.0000 0.0000 0.0000 -22.5776 0.0000 36.8715
#
#
#
# Elastic Compliance Matrix: (Units=1/GPa)
#
#
# Indices 1 2 3 4 5 6 
#
# 1 0.006368 -0.002623 -0.000996 0.000000 -0.000857 0.000000
# 2 -0.002623 0.006298 -0.000587 0.000000 0.000060 0.000000
# 3 -0.000996 -0.000587 0.008377 0.000000 -0.000343 0.000000
# 4 0.000000 0.000000 0.000000 -0.020231 0.000000 -0.012388
# 5 -0.000857 0.000060 -0.000343 0.000000 0.020630 0.000000
# 6 0.000000 0.000000 0.000000 -0.012388 0.000000 0.019535
#
#
# Mechanical properties :
#
#
# Convention : Reuss Voigt Hill
#
# Bulk Modulus (GPa) = 79.17004 88.56381 83.86692
# Shear Modulus (GPa) = 93.28537 35.36747 64.32642
#
# Velocity S-wave (km/s) = 6.47492 3.98684 5.37678
# Velocity P-wave (km/s) = 9.56453 7.80998 8.73144
#
# Compressibility (1/GPa) = 0.01263104
#
# Stress axis : x y z
#
# Youngs Moduli (GPa) = 157.04651 158.77918 119.37267
#
# Poissons Ratio (x) = 0.41646 0.11889
# Poissons Ratio (y) = 0.41191 0.07007
# Poissons Ratio (z) = 0.15642 0.09320
#
# Static dielectric constant tensor:
#      x y z
#    x 1.797970 0.000000 -0.038510 
#    y 0.000000 1.338370 0.000000 
#    z -0.038510 0.000000 1.813870 
# 
# From -- ./inp_files/25417.got.cif
#   From: 2010.05.17/outbox.cif.g08.bks.cpg/sg13_13_cif.got.tgz:25417.got - 2010.06.03 16:44:36.
