data_PCOD9238884
_publ_section_title
;
Structure prediction by ZEFSAII (Michael W. Deem and Ramdas Pophale) SiO2 
 PCOD9238884
Probable space group: P 2/C
;
_chemical_formula_sum "Si O2"
_cell_formula_units_Z 26
_cell_length_a 9.000000
_cell_length_b 9.000000
_cell_length_c 18.000000
_cell_angle_alpha 90.000000
_cell_angle_beta 100.000000
_cell_angle_gamma 90.000000
_cell_volume 1435.849704
_symmetry_space_group_name_H-M "P 2/C"
_symmetry_group_IT_number 13
_symmetry_cell_setting 'monoclinic'
loop_
_space_group_symop_operation_xyz
x,y,z
-x,y,1/2-z
-x,-y,-z
x,-y,1/2+z
loop_
_atom_site_type_symbol
_atom_site_label
_atom_site_fract_x
_atom_site_fract_y
_atom_site_fract_z
Si Si1 0.675600 0.289543 0.630320
Si Si2 0.500000 0.556814 0.250000
Si Si3 0.045432 0.783798 0.562137
Si Si4 0.448983 0.796572 0.976690
Si Si5 0.668855 0.651151 0.883880
Si Si6 0.791465 0.539366 0.534524
Si Si7 0.191333 0.036150 0.935689
O O1 0.604250 0.344420 0.702222
O O2 0.542273 0.246426 0.559463
O O3 0.775461 0.419717 0.599909
O O4 0.774543 0.138993 0.632649
O O5 0.406634 0.449009 0.186028
O O6 0.181420 0.738296 0.627925
O O7 0.126417 0.855555 0.495654
O O8 0.944271 0.636296 0.537572
O O9 0.934800 0.909792 0.583862
O O10 0.557853 0.769317 0.915071
O O11 0.330248 0.664311 0.957551
O O12 0.346380 0.946493 0.970820
O O13 0.731814 0.543620 0.955293
#
# Coordination Sequence:
#
# PCOD9238884 Si02
#       7
#     4   2   4   4   4   4   4
#     4  11  20  36  61  91 120 152 205 249 300 344
#     4  12  24  38  60  92 116 162 206 254 294 358
#     4  10  21  35  63  95 117 150 195 249 310 358
#     4  10  18  36  63  87 120 152 201 255 290 342
#     4  11  20  36  61  92 114 156 205 248 294 354
#     4  10  18  36  63  88 119 150 201 258 292 338
#     4  10  21  35  63  96 120 148 195 257 304 351
#
# _framework density 18.107745000000001
#
# number of rings (size 3 to 8) (size 9 to 14) (size 15 to 20)
#    0.000    1.538    6.154    1.846    0.000    0.000 
#    0.000    1.538    0.000    1.846    0.000    0.000 
#    0.000    0.000    0.000    0.000    0.000    0.000 
#
# Total GULP energy -144809.701812 kJ/mol
# GULP energy per Si atom -5569.603916 kJ/mol
# Density = 1.806653 g / cm^3
# Si number density = 18.107745 Si / 1000 Ang^3
#
#
#
# Elastic Constant Matrix: (Units=GPa)
#
#
# Indices 1 2 3 4 5 6 
#
# 1 129.9508 64.1463 39.3460 0.0000 -6.0918 0.0000
# 2 64.1463 121.2931 36.8813 0.0000 -16.7401 0.0000
# 3 39.3460 36.8813 83.7847 0.0000 -18.6376 0.0000
# 4 0.0000 0.0000 0.0000 18.9331 0.0000 -7.2079
# 5 -6.0918 -16.7401 -18.6376 0.0000 19.0014 0.0000
# 6 0.0000 0.0000 0.0000 -7.2079 0.0000 54.3095
#
#
#
# Elastic Compliance Matrix: (Units=1/GPa)
#
#
# Indices 1 2 3 4 5 6 
#
# 1 0.011409 -0.005508 -0.004092 0.000000 -0.005208 0.000000
# 2 -0.005508 0.012644 -0.001143 0.000000 0.008252 0.000000
# 3 -0.004092 -0.001143 0.017708 0.000000 0.015050 0.000000
# 4 0.000000 0.000000 0.000000 0.055628 0.000000 0.007383
# 5 -0.005208 0.008252 0.015050 0.000000 0.072989 0.000000
# 6 0.000000 0.000000 0.000000 0.007383 0.000000 0.019393
#
#
# Mechanical properties :
#
#
# Convention : Reuss Voigt Hill
#
# Bulk Modulus (GPa) = 49.32388 68.41954 58.87171
# Shear Modulus (GPa) = 22.93405 31.42580 27.17992
#
# Velocity S-wave (km/s) = 3.56270 4.17044 3.87849
# Velocity P-wave (km/s) = 6.64996 7.81389 7.25530
#
# Compressibility (1/GPa) = 0.02027416
#
# Stress axis : x y z
#
# Youngs Moduli (GPa) = 87.65061 79.08775 56.47191
#
# Poissons Ratio (x) = 0.43564 0.23106
# Poissons Ratio (y) = 0.48281 0.06458
# Poissons Ratio (z) = 0.35863 0.09044
#
# Static dielectric constant tensor:
#      x y z
#    x 1.704190 0.000000 -0.001040 
#    y 0.000000 1.680620 0.000000 
#    z -0.001040 0.000000 1.580850 
# 
# From -- ./inp_files/63751.got.cif
#   From: 2010.05.17/outbox.ucp.g08.bks.cvg/sg13_32_cif.got.tgz:63751.got - 2010.06.11 12:23:55.
