data_PCOD9238411
_publ_section_title
;
Structure prediction by ZEFSAII (Michael W. Deem and Ramdas Pophale) SiO2 
 PCOD9238411
Probable space group: P 2/C
;
_chemical_formula_sum "Si O2"
_cell_formula_units_Z 18
_cell_length_a 8.058677
_cell_length_b 5.112459
_cell_length_c 20.828084
_cell_angle_alpha 90.000000
_cell_angle_beta 54.361774
_cell_angle_gamma 90.000000
_cell_volume 697.396382
_symmetry_space_group_name_H-M "P 2/C"
_symmetry_group_IT_number 13
_symmetry_cell_setting 'monoclinic'
loop_
_space_group_symop_operation_xyz
x,y,z
-x,y,1/2-z
-x,-y,-z
x,-y,1/2+z
loop_
_atom_site_type_symbol
_atom_site_label
_atom_site_fract_x
_atom_site_fract_y
_atom_site_fract_z
Si Si1 0.560594 0.361420 0.876204
Si Si2 0.103591 0.947877 0.879128
Si Si3 0.826264 0.145988 0.337829
Si Si4 0.500000 0.184337 0.750000
Si Si5 0.822992 0.331149 0.009505
O O1 0.727625 0.587527 0.836009
O O2 0.479935 0.336723 0.821153
O O3 0.373755 0.491385 0.958187
O O4 0.653961 0.085308 0.879857
O O5 0.294536 0.018149 0.792121
O O6 0.205419 0.872198 0.924370
O O7 0.952163 0.765300 0.873275
O O8 0.939575 0.178019 0.927877
O O9 0.000000 0.045956 0.250000
O O10 0.000000 0.500000 0.000000
#
# Coordination Sequence:
#
# PCOD9238411 Si02
#       5
#     4   4   4   2   4
#     4  12  28  46  77 110 148 199 249 304 380 443
#     4  11  27  49  76 109 155 198 254 312 374 447
#     4  12  28  47  73 115 152 190 248 320 376 434
#     4  12  24  50  78 110 144 204 252 310 364 464
#     4  11  26  48  76 109 151 204 252 305 373 458
#
# _framework density 25.810288
#
# number of rings (size 3 to 8) (size 9 to 14) (size 15 to 20)
#    0.000    0.444    4.444    2.000    9.333    2.667 
#    0.000    0.000    0.000    0.000    0.000    0.000 
#    0.000    0.000    0.000    0.000    0.000    0.000 
#
# Total GULP energy -100629.686957 kJ/mol
# GULP energy per Si atom -5590.538164 kJ/mol
# Density = 2.575154 g / cm^3
# Si number density = 25.810288 Si / 1000 Ang^3
#
#
#
# Elastic Constant Matrix: (Units=GPa)
#
#
# Indices 1 2 3 4 5 6 
#
# 1 135.9203 23.9197 8.0134 0.0000 -0.1005 0.0000
# 2 23.9197 92.9567 4.6191 0.0000 -4.9061 0.0000
# 3 8.0134 4.6191 77.3028 0.0000 -35.9513 0.0000
# 4 0.0000 0.0000 0.0000 27.0925 0.0000 -14.4366
# 5 -0.1005 -4.9061 -35.9513 0.0000 30.5672 0.0000
# 6 0.0000 0.0000 0.0000 -14.4366 0.0000 56.3565
#
#
#
# Elastic Compliance Matrix: (Units=1/GPa)
#
#
# Indices 1 2 3 4 5 6 
#
# 1 0.007825 -0.002052 -0.001832 0.000000 -0.002458 0.000000
# 2 -0.002052 0.011392 0.000837 0.000000 0.002806 0.000000
# 3 -0.001832 0.000837 0.028996 0.000000 0.034232 0.000000
# 4 0.000000 0.000000 0.000000 0.042745 0.000000 0.010950
# 5 -0.002458 0.002806 0.034232 0.000000 0.073419 0.000000
# 6 0.000000 0.000000 0.000000 0.010950 0.000000 0.020549
#
#
# Mechanical properties :
#
#
# Convention : Reuss Voigt Hill
#
# Bulk Modulus (GPa) = 23.74156 42.14268 32.94212
# Shear Modulus (GPa) = 24.38310 40.77841 32.58076
#
# Velocity S-wave (km/s) = 3.07694 3.97914 3.55676
# Velocity P-wave (km/s) = 4.67353 6.12166 5.44594
#
# Compressibility (1/GPa) = 0.04212024
#
# Stress axis : x y z
#
# Youngs Moduli (GPa) = 127.80274 87.77884 34.48697
#
# Poissons Ratio (x) = 0.18013 0.06316
# Poissons Ratio (y) = 0.26227 -0.02887
# Poissons Ratio (z) = 0.23408 -0.07348
#
# Static dielectric constant tensor:
#      x y z
#    x 1.982240 0.000000 0.243690 
#    y 0.000000 2.300170 0.000000 
#    z 0.243690 0.000000 2.565180 
# 
# From -- ./inp_files/62413.got.cif
#   From: 2010.05.17/outbox.cif.g08.bks.cpg/sg13_32_cif.got.tgz:62413.got - 2010.06.03 16:44:36.
