data_PCOD9238862
_publ_section_title
;
Structure prediction by ZEFSAII (Michael W. Deem and Ramdas Pophale) SiO2 
 PCOD9238862
Probable space group: P 2/C
;
_chemical_formula_sum "Si O2"
_cell_formula_units_Z 16
_cell_length_a 8.701747
_cell_length_b 10.433427
_cell_length_c 8.624642
_cell_angle_alpha 90.000000
_cell_angle_beta 93.530276
_cell_angle_gamma 90.000000
_cell_volume 781.537121
_symmetry_space_group_name_H-M "P 2/C"
_symmetry_group_IT_number 13
_symmetry_cell_setting 'monoclinic'
loop_
_space_group_symop_operation_xyz
x,y,z
-x,y,1/2-z
-x,-y,-z
x,-y,1/2+z
loop_
_atom_site_type_symbol
_atom_site_label
_atom_site_fract_x
_atom_site_fract_y
_atom_site_fract_z
Si Si1 0.000000 0.445177 0.250000
Si Si2 0.435544 0.174143 0.982804
Si Si3 0.168614 0.345454 0.965107
Si Si4 0.000000 0.132779 0.750000
Si Si5 0.309462 0.947328 0.157397
O O1 0.118457 0.534552 0.355340
O O2 0.903124 0.367187 0.370397
O O3 0.350112 0.310074 0.982655
O O4 0.617462 0.153971 0.963115
O O5 0.369201 0.101781 0.826481
O O6 0.373198 0.086171 0.117087
O O7 0.086513 0.225654 0.876309
O O8 0.126860 0.054411 0.662890
#
# Coordination Sequence:
#
# PCOD9238862 Si02
#       5
#     2   4   4   2   4
#     4   9  18  33  52  74  96 129 174 209 238 282
#     4   9  18  32  49  71 103 134 157 199 249 295
#     4   9  18  32  52  71  97 130 163 206 247 280
#     4   9  18  31  50  72  98 129 160 203 248 294
#     4   9  18  31  48  73 103 129 161 195 245 307
#
# _framework density 20.472477000000001
#
# number of rings (size 3 to 8) (size 9 to 14) (size 15 to 20)
#    0.000    3.000    0.000    0.000    0.000    7.000 
#    0.000    0.000    0.000   57.000    0.000    0.000 
#    0.000    0.000    0.000    0.000    0.000    0.000 
#
# Total GULP energy -89080.886243 kJ/mol
# GULP energy per Si atom -5567.555390 kJ/mol
# Density = 2.042588 g / cm^3
# Si number density = 20.472477 Si / 1000 Ang^3
#
#
#
# Elastic Constant Matrix: (Units=GPa)
#
#
# Indices 1 2 3 4 5 6 
#
# 1 114.9832 25.6324 27.8824 0.0000 -38.8891 0.0000
# 2 25.6324 38.7018 29.3445 0.0000 -14.1438 0.0000
# 3 27.8824 29.3445 106.5407 0.0000 -24.2035 0.0000
# 4 0.0000 0.0000 0.0000 9.9301 0.0000 -10.8242
# 5 -38.8891 -14.1438 -24.2035 0.0000 21.0583 0.0000
# 6 0.0000 0.0000 0.0000 -10.8242 0.0000 26.9173
#
#
#
# Elastic Compliance Matrix: (Units=1/GPa)
#
#
# Indices 1 2 3 4 5 6 
#
# 1 0.025396 -0.002169 0.005785 0.000000 0.052091 0.000000
# 2 -0.002169 0.037187 -0.006646 0.000000 0.013333 0.000000
# 3 0.005785 -0.006646 0.015043 0.000000 0.023510 0.000000
# 4 0.000000 0.000000 0.000000 0.179296 0.000000 0.072100
# 5 0.052091 0.013333 0.023510 0.000000 0.179662 0.000000
# 6 0.000000 0.000000 0.000000 0.072100 0.000000 0.066144
#
#
# Mechanical properties :
#
#
# Convention : Reuss Voigt Hill
#
# Bulk Modulus (GPa) = 13.97303 47.32714 30.65009
# Shear Modulus (GPa) = 9.38714 23.40555 16.39635
#
# Velocity S-wave (km/s) = 2.14364 3.38489 2.83308
# Velocity P-wave (km/s) = 3.60098 6.20035 5.07008
#
# Compressibility (1/GPa) = 0.07156642
#
# Stress axis : x y z
#
# Youngs Moduli (GPa) = 39.37677 26.89137 66.47397
#
# Poissons Ratio (x) = 0.05833 -0.38456
# Poissons Ratio (y) = 0.08540 0.44178
# Poissons Ratio (z) = -0.22780 0.17872
#
# Static dielectric constant tensor:
#      x y z
#    x 1.906050 0.000000 0.011840 
#    y 0.000000 1.721480 0.000000 
#    z 0.011840 0.000000 1.753550 
# 
# From -- ./inp_files/10952.got.cif
#   From: 2010.05.17/outbox.cif.g08.bks.cpg/sg13_6_cif.got.tgz:10952.got - 2010.06.03 16:44:36.
