data_PCOD9238875
_publ_section_title
;
Structure prediction by ZEFSAII (Michael W. Deem and Ramdas Pophale) SiO2 
 PCOD9238875
Probable space group: P 2/C
;
_chemical_formula_sum "Si O2"
_cell_formula_units_Z 32
_cell_length_a 15.000000
_cell_length_b 12.000000
_cell_length_c 15.000000
_cell_angle_alpha 90.000000
_cell_angle_beta 140.000000
_cell_angle_gamma 90.000000
_cell_volume 1735.526546
_symmetry_space_group_name_H-M "P 2/C"
_symmetry_group_IT_number 13
_symmetry_cell_setting 'monoclinic'
loop_
_space_group_symop_operation_xyz
x,y,z
-x,y,1/2-z
-x,-y,-z
x,-y,1/2+z
loop_
_atom_site_type_symbol
_atom_site_label
_atom_site_fract_x
_atom_site_fract_y
_atom_site_fract_z
Si Si1 0.668460 0.911554 0.688474
Si Si2 0.687900 0.298894 0.074144
Si Si3 0.328354 0.198552 0.121541
Si Si4 0.656577 0.894228 0.056113
Si Si5 0.846777 0.574892 0.982757
Si Si6 0.374028 0.333387 0.861980
Si Si7 0.147187 0.513179 0.721295
Si Si8 0.658535 0.363739 0.864015
O O1 0.692633 0.809335 0.639081
O O2 0.711569 0.870707 0.819912
O O3 0.503790 0.931775 0.576605
O O4 0.724719 0.018545 0.677386
O O5 0.814981 0.381203 0.189850
O O6 0.539291 0.355342 0.986220
O O7 0.680830 0.279541 0.962748
O O8 0.500000 0.218884 0.250000
O O9 0.238923 0.313650 0.057318
O O10 0.291546 0.128900 0.004240
O O11 0.651177 0.775285 0.099592
O O12 0.855610 0.561649 0.881887
O O13 0.758812 0.468991 0.948726
O O14 0.006278 0.554089 0.134723
O O15 0.278351 0.430926 0.825633
O O16 0.327764 0.314079 0.724064
O O17 0.500000 0.404852 0.750000
#
# Coordination Sequence:
#
# PCOD9238875 Si02
#       8
#     4   4   4   4   4   4   4   4
#     4   9  18  34  52  80 112 138 180 232 273 335
#     4  10  18  32  54  78 108 146 180 220 281 330
#     4  10  19  33  55  82 112 148 184 234 288 336
#     4   9  19  32  54  81 106 143 185 225 280 321
#     4  10  20  34  50  79 112 145 185 223 274 332
#     4   9  19  34  50  77 111 142 181 227 272 330
#     4  10  20  33  52  78 110 148 178 227 277 325
#     4   9  19  32  50  76 108 143 178 221 273 332
#
# _framework density 18.438207999999999
#
# number of rings (size 3 to 8) (size 9 to 14) (size 15 to 20)
#    0.000    2.500    1.250    0.750    1.750    1.500 
#    0.000    5.000    0.000    0.750    6.500    0.000 
#    0.000    0.000    0.000    0.000    0.000    0.000 
#
# Total GULP energy -178180.420118 kJ/mol
# GULP energy per Si atom -5568.138129 kJ/mol
# Density = 1.839624 g / cm^3
# Si number density = 18.438208 Si / 1000 Ang^3
#
#
#
# Elastic Constant Matrix: (Units=GPa)
#
#
# Indices 1 2 3 4 5 6 
#
# 1 76.3250 35.3114 27.6442 0.0000 -26.2835 0.0000
# 2 35.3114 40.0523 38.1619 0.0000 -13.8826 0.0000
# 3 27.6442 38.1619 41.6211 0.0000 -6.9112 0.0000
# 4 0.0000 0.0000 0.0000 15.3488 0.0000 -2.7195
# 5 -26.2835 -13.8826 -6.9112 0.0000 26.5675 0.0000
# 6 0.0000 0.0000 0.0000 -2.7195 0.0000 16.8044
#
#
#
# Elastic Compliance Matrix: (Units=1/GPa)
#
#
# Indices 1 2 3 4 5 6 
#
# 1 0.028533 -0.035640 0.016014 0.000000 0.013770 0.000000
# 2 -0.035640 0.398851 -0.327420 0.000000 0.087981 0.000000
# 3 0.016014 -0.327420 0.300813 0.000000 -0.076994 0.000000
# 4 0.000000 0.000000 0.000000 0.067075 0.000000 0.010855
# 5 0.013770 0.087981 -0.076994 0.000000 0.077207 0.000000
# 6 0.000000 0.000000 0.000000 0.010855 0.000000 0.061265
#
#
# Mechanical properties :
#
#
# Convention : Reuss Voigt Hill
#
# Bulk Modulus (GPa) = 29.32340 40.02591 34.67466
# Shear Modulus (GPa) = 3.05026 15.53619 9.29323
#
# Velocity S-wave (km/s) = 1.28760 2.90592 2.24747
# Velocity P-wave (km/s) = 4.26013 5.74582 5.05782
#
# Compressibility (1/GPa) = 0.03410245
#
# Stress axis : x y z
#
# Youngs Moduli (GPa) = 35.04774 2.50720 3.32433
#
# Poissons Ratio (x) = 0.08936 -0.05324
# Poissons Ratio (y) = 1.24912 1.08845
# Poissons Ratio (z) = -0.56125 0.82091
#
# Static dielectric constant tensor:
#      x y z
#    x 1.647030 0.000000 -0.027790 
#    y 0.000000 1.617630 0.000000 
#    z -0.027790 0.000000 1.672240 
# 
# From -- ./inp_files/53739.got.cif
#   From: 2010.05.17/outbox.ucp.g08.bks.cvg/sg13_27_cif.got.tgz:53739.got - 2010.06.11 12:23:55.
