data_PCOD9238176
_publ_section_title
;
Structure prediction by ZEFSAII (Michael W. Deem and Ramdas Pophale) SiO2 
 PCOD9238176
Probable space group: P 2/C
;
_chemical_formula_sum "Si O2"
_cell_formula_units_Z 22
_cell_length_a 10.393118
_cell_length_b 14.687363
_cell_length_c 11.852250
_cell_angle_alpha 90.000000
_cell_angle_beta 147.485860
_cell_angle_gamma 90.000000
_cell_volume 972.467747
_symmetry_space_group_name_H-M "P 2/C"
_symmetry_group_IT_number 13
_symmetry_cell_setting 'monoclinic'
loop_
_space_group_symop_operation_xyz
x,y,z
-x,y,1/2-z
-x,-y,-z
x,-y,1/2+z
loop_
_atom_site_type_symbol
_atom_site_label
_atom_site_fract_x
_atom_site_fract_y
_atom_site_fract_z
Si Si1 0.677473 0.554352 0.789418
Si Si2 0.000000 0.750987 0.750000
Si Si3 0.958421 0.674408 0.350772
Si Si4 0.959616 0.846637 0.957383
Si Si5 0.445044 0.633003 0.039712
Si Si6 0.379988 0.017672 0.786642
O O1 0.500000 0.600009 0.750000
O O2 0.670836 0.600356 0.662854
O O3 0.555213 0.456359 0.679962
O O4 0.938658 0.576394 0.032522
O O5 0.955805 0.813675 0.825336
O O6 0.764411 0.688429 0.553455
O O7 0.093194 0.756951 0.509906
O O8 0.000000 0.678202 0.250000
O O9 0.683472 0.686893 0.182868
O O10 0.773903 0.926326 0.841978
O O11 0.212648 0.893369 0.174399
O O12 0.500000 0.029611 0.750000
O O13 0.500000 0.000000 0.000000
#
# Coordination Sequence:
#
# PCOD9238176 Si02
#       6
#     4   2   4   4   4   4
#     4  11  24  47  68 101 143 195 253 301 373 436
#     4  12  26  50  74 114 150 196 260 312 378 450
#     4  12  26  45  74 105 146 192 250 309 372 446
#     4  11  28  45  74 113 144 188 252 300 377 457
#     4  11  27  44  72 103 146 195 247 315 368 435
#     4  11  27  50  78 107 152 198 241 310 385 460
#
# _framework density 22.622858000000001
#
# number of rings (size 3 to 8) (size 9 to 14) (size 15 to 20)
#    0.000    0.727    3.636    1.636   10.182    5.091 
#    0.000    0.000    0.000    0.000    0.000    0.000 
#    0.000    0.000    0.000    0.000    0.000    0.000 
#
# Total GULP energy -122840.437681 kJ/mol
# GULP energy per Si atom -5583.656258 kJ/mol
# Density = 2.257137 g / cm^3
# Si number density = 22.622858 Si / 1000 Ang^3
#
#
#
# Elastic Constant Matrix: (Units=GPa)
#
#
# Indices 1 2 3 4 5 6 
#
# 1 88.5231 18.1641 36.6068 0.0000 -9.1492 0.0000
# 2 18.1641 97.5871 24.8067 0.0000 -5.0527 0.0000
# 3 36.6068 24.8067 89.3576 0.0000 -7.5284 0.0000
# 4 0.0000 0.0000 0.0000 43.2695 0.0000 3.7829
# 5 -9.1492 -5.0527 -7.5284 0.0000 54.7450 0.0000
# 6 0.0000 0.0000 0.0000 3.7829 0.0000 31.4673
#
#
#
# Elastic Compliance Matrix: (Units=1/GPa)
#
#
# Indices 1 2 3 4 5 6 
#
# 1 0.013851 -0.001173 -0.005223 0.000000 0.001488 0.000000
# 2 -0.001173 0.011144 -0.002573 0.000000 0.000479 0.000000
# 3 -0.005223 -0.002573 0.014115 0.000000 0.000831 0.000000
# 4 0.000000 0.000000 0.000000 0.023356 0.000000 -0.002808
# 5 0.001488 0.000479 0.000831 0.000000 0.018674 0.000000
# 6 0.000000 0.000000 0.000000 -0.002808 0.000000 0.032117
#
#
# Mechanical properties :
#
#
# Convention : Reuss Voigt Hill
#
# Bulk Modulus (GPa) = 47.23269 48.29143 47.76206
# Shear Modulus (GPa) = 36.16558 38.95570 37.56064
#
# Velocity S-wave (km/s) = 4.00263 4.15415 4.07909
# Velocity P-wave (km/s) = 6.50269 6.66348 6.58358
#
# Compressibility (1/GPa) = 0.02117178
#
# Stress axis : x y z
#
# Youngs Moduli (GPa) = 72.19698 89.73078 70.84672
#
# Poissons Ratio (x) = 0.10528 0.37004
# Poissons Ratio (y) = 0.08471 0.18228
# Poissons Ratio (z) = 0.37710 0.23086
#
# Static dielectric constant tensor:
#      x y z
#    x 1.841860 0.000000 0.023760 
#    y 0.000000 1.805530 0.000000 
#    z 0.023760 0.000000 1.868070 
# 
# From -- ./inp_files/34629.got.cif
#   From: 2010.05.17/outbox.cif.g08.bks.cpg/sg13_18_cif.got.tgz:34629.got - 2010.06.03 16:44:36.
