data_PCOD9238275
_publ_section_title
;
Structure prediction by ZEFSAII (Michael W. Deem and Ramdas Pophale) SiO2 
 PCOD9238275
Probable space group: P 2/C
;
_chemical_formula_sum "Si O2"
_cell_formula_units_Z 28
_cell_length_a 13.165535
_cell_length_b 8.000296
_cell_length_c 13.725833
_cell_angle_alpha 90.000000
_cell_angle_beta 61.281911
_cell_angle_gamma 90.000000
_cell_volume 1267.885840
_symmetry_space_group_name_H-M "P 2/C"
_symmetry_group_IT_number 13
_symmetry_cell_setting 'monoclinic'
loop_
_space_group_symop_operation_xyz
x,y,z
-x,y,1/2-z
-x,-y,-z
x,-y,1/2+z
loop_
_atom_site_type_symbol
_atom_site_label
_atom_site_fract_x
_atom_site_fract_y
_atom_site_fract_z
Si Si1 0.690911 0.577542 0.299993
Si Si2 0.578074 0.230627 0.395335
Si Si3 0.256401 0.118204 0.017955
Si Si4 0.960932 0.640696 0.876650
Si Si5 0.374616 0.076291 0.760535
Si Si6 0.845137 0.605284 0.579242
Si Si7 0.698945 0.755996 0.485257
O O1 0.609386 0.415495 0.343802
O O2 0.632148 0.749440 0.293897
O O3 0.790015 0.530730 0.177655
O O4 0.731321 0.616982 0.390844
O O5 0.635701 0.203533 0.474884
O O6 0.635719 0.085677 0.303069
O O7 0.560547 0.214624 0.044578
O O8 0.143828 0.229639 0.082050
O O9 0.241998 0.931960 0.066300
O O10 0.286576 0.092152 0.890817
O O11 0.000000 0.597287 0.750000
O O12 0.069045 0.709452 0.890984
O O13 0.916919 0.483684 0.960226
O O14 0.500000 0.060053 0.750000
O O15 0.742123 0.699213 0.571159
#
# Coordination Sequence:
#
# PCOD9238275 Si02
#       7
#     4   4   4   4   4   4   4
#     4  12  26  43  75 108 149 194 241 293 369 438
#     4  12  26  47  69 112 158 189 235 299 360 439
#     4  12  24  46  73 101 152 190 237 305 360 426
#     4  11  25  49  71  99 143 189 247 313 359 415
#     4  12  25  43  71 111 151 193 239 291 365 438
#     4  11  25  45  74 104 137 192 247 305 361 429
#     4  12  25  46  72 110 148 195 240 291 368 439
#
# _framework density 22.084005999999999
#
# number of rings (size 3 to 8) (size 9 to 14) (size 15 to 20)
#    0.000    0.286    4.286    5.143    2.000    0.571 
#    0.000    3.571    0.000    0.000    0.000    0.000 
#    0.000    0.000    0.000    0.000    0.000    0.000 
#
# Total GULP energy -156670.680663 kJ/mol
# GULP energy per Si atom -5595.381452 kJ/mol
# Density = 2.203374 g / cm^3
# Si number density = 22.084006 Si / 1000 Ang^3
#
#
#
# Elastic Constant Matrix: (Units=GPa)
#
#
# Indices 1 2 3 4 5 6 
#
# 1 122.1421 39.8202 52.8471 0.0000 27.0861 0.0000
# 2 39.8202 119.6088 41.0834 0.0000 9.5266 0.0000
# 3 52.8471 41.0834 145.7681 0.0000 4.9858 0.0000
# 4 0.0000 0.0000 0.0000 30.4421 0.0000 2.3090
# 5 27.0861 9.5266 4.9858 0.0000 33.8807 0.0000
# 6 0.0000 0.0000 0.0000 2.3090 0.0000 4.4566
#
#
#
# Elastic Compliance Matrix: (Units=1/GPa)
#
#
# Indices 1 2 3 4 5 6 
#
# 1 0.012394 -0.002201 -0.003573 0.000000 -0.008764 0.000000
# 2 -0.002201 0.009818 -0.001945 0.000000 -0.000715 0.000000
# 3 -0.003573 -0.001945 0.008631 0.000000 0.002134 0.000000
# 4 0.000000 0.000000 0.000000 0.034193 0.000000 -0.017716
# 5 -0.008764 -0.000715 0.002134 0.000000 0.036409 0.000000
# 6 0.000000 0.000000 0.000000 -0.017716 0.000000 0.233564
#
#
# Mechanical properties :
#
#
# Convention : Reuss Voigt Hill
#
# Bulk Modulus (GPa) = 64.91298 72.78003 68.84651
# Shear Modulus (GPa) = 14.06144 30.67379 22.36761
#
# Velocity S-wave (km/s) = 2.52608 3.73092 3.18597
# Velocity P-wave (km/s) = 6.16162 7.18242 6.69152
#
# Compressibility (1/GPa) = 0.01540524
#
# Stress axis : x y z
#
# Youngs Moduli (GPa) = 80.68227 101.85103 115.86318
#
# Poissons Ratio (x) = 0.22416 0.41402
# Poissons Ratio (y) = 0.17757 0.22533
# Poissons Ratio (z) = 0.28831 0.19808
#
# Static dielectric constant tensor:
#      x y z
#    x 1.835580 0.000000 0.026580 
#    y 0.000000 1.799270 0.000000 
#    z 0.026580 0.000000 1.852420 
# 
# From -- ./inp_files/36169.got.cif
#   From: 2010.05.17/outbox.cif.g08.bks.cpg/sg13_19_cif.got.tgz:36169.got - 2010.06.03 16:44:36.
