data_PCOD9238699
_publ_section_title
;
Structure prediction by ZEFSAII (Michael W. Deem and Ramdas Pophale) SiO2 
 PCOD9238699
Probable space group: P 2/C
;
_chemical_formula_sum "Si O2"
_cell_formula_units_Z 18
_cell_length_a 9.982840
_cell_length_b 4.575015
_cell_length_c 21.755320
_cell_angle_alpha 90.000000
_cell_angle_beta 41.866859
_cell_angle_gamma 90.000000
_cell_volume 663.131350
_symmetry_space_group_name_H-M "P 2/C"
_symmetry_group_IT_number 13
_symmetry_cell_setting 'monoclinic'
loop_
_space_group_symop_operation_xyz
x,y,z
-x,y,1/2-z
-x,-y,-z
x,-y,1/2+z
loop_
_atom_site_type_symbol
_atom_site_label
_atom_site_fract_x
_atom_site_fract_y
_atom_site_fract_z
Si Si1 0.500000 0.661849 0.250000
Si Si2 0.946680 0.705022 0.076864
Si Si3 0.771577 0.072129 0.844648
Si Si4 0.822629 0.760444 0.953071
Si Si5 0.556028 0.576529 0.864156
O O1 0.715975 0.807823 0.161411
O O2 0.455610 0.479709 0.203861
O O3 0.999326 0.479527 0.115105
O O4 0.910342 0.015323 0.966664
O O5 0.000000 0.500000 0.000000
O O6 0.746405 0.941647 0.920799
O O7 0.608898 0.911376 0.857205
O O8 0.000000 0.009723 0.750000
O O9 0.726169 0.407759 0.845542
O O10 0.646584 0.555646 0.038461
#
# Coordination Sequence:
#
# PCOD9238699 Si02
#       5
#     2   4   4   4   4
#     4  12  28  46  74 104 148 186 248 280 376 420
#     4  12  26  47  72 106 145 188 236 299 353 434
#     4  12  25  46  71 104 143 185 247 293 361 422
#     4  12  25  48  73 104 143 186 244 295 362 421
#     4  12  26  44  72 104 141 193 234 302 356 433
#
# _framework density 27.143944000000001
#
# number of rings (size 3 to 8) (size 9 to 14) (size 15 to 20)
#    0.000    0.000    2.222    8.000    0.000    1.778 
#    0.000    0.000    0.000    0.000    0.000    0.000 
#    0.000    0.000    0.000    0.000    0.000    0.000 
#
# Total GULP energy -100900.116281 kJ/mol
# GULP energy per Si atom -5605.562016 kJ/mol
# Density = 2.708216 g / cm^3
# Si number density = 27.143944 Si / 1000 Ang^3
#
#
#
# Elastic Constant Matrix: (Units=GPa)
#
#
# Indices 1 2 3 4 5 6 
#
# 1 126.4131 20.2680 44.4526 0.0000 -13.8579 0.0000
# 2 20.2680 123.0487 10.8089 0.0000 -15.7266 0.0000
# 3 44.4526 10.8089 130.4956 0.0000 -31.9335 0.0000
# 4 0.0000 0.0000 0.0000 24.7017 0.0000 -7.8509
# 5 -13.8579 -15.7266 -31.9335 0.0000 60.2205 0.0000
# 6 0.0000 0.0000 0.0000 -7.8509 0.0000 45.9576
#
#
#
# Elastic Compliance Matrix: (Units=1/GPa)
#
#
# Indices 1 2 3 4 5 6 
#
# 1 0.009175 -0.001223 -0.002971 0.000000 0.000217 0.000000
# 2 -0.001223 0.008574 0.000213 0.000000 0.002071 0.000000
# 3 -0.002971 0.000213 0.009772 0.000000 0.004554 0.000000
# 4 0.000000 0.000000 0.000000 0.042807 0.000000 0.007313
# 5 0.000217 0.002071 0.004554 0.000000 0.019611 0.000000
# 6 0.000000 0.000000 0.000000 0.007313 0.000000 0.023008
#
#
# Mechanical properties :
#
#
# Convention : Reuss Voigt Hill
#
# Bulk Modulus (GPa) = 51.12571 59.00184 55.06377
# Shear Modulus (GPa) = 39.23742 46.47114 42.85428
#
# Velocity S-wave (km/s) = 3.80614 4.14215 3.97770
# Velocity P-wave (km/s) = 6.17993 6.68284 6.43630
#
# Compressibility (1/GPa) = 0.01955963
#
# Stress axis : x y z
#
# Youngs Moduli (GPa) = 108.99013 116.62904 102.33409
#
# Poissons Ratio (x) = 0.14259 0.30406
# Poissons Ratio (y) = 0.13325 -0.02180
# Poissons Ratio (z) = 0.32383 -0.02484
#
# Static dielectric constant tensor:
#      x y z
#    x 2.200090 0.000000 0.042540 
#    y 0.000000 2.028370 0.000000 
#    z 0.042540 0.000000 2.132640 
# 
# From -- ./inp_files/61995.got.cif
#   From: 2010.05.17/outbox.cif.g08.bks.cpg/sg13_31_cif.got.tgz:61995.got - 2010.06.03 16:44:36.
