data_PCOD9238254
_publ_section_title
;
Structure prediction by ZEFSAII (Michael W. Deem and Ramdas Pophale) SiO2 
 PCOD9238254
Probable space group: P 2/C
;
_chemical_formula_sum "Si O2"
_cell_formula_units_Z 20
_cell_length_a 7.832821
_cell_length_b 12.269709
_cell_length_c 9.299671
_cell_angle_alpha 90.000000
_cell_angle_beta 81.572181
_cell_angle_gamma 90.000000
_cell_volume 884.106783
_symmetry_space_group_name_H-M "P 2/C"
_symmetry_group_IT_number 13
_symmetry_cell_setting 'monoclinic'
loop_
_space_group_symop_operation_xyz
x,y,z
-x,y,1/2-z
-x,-y,-z
x,-y,1/2+z
loop_
_atom_site_type_symbol
_atom_site_label
_atom_site_fract_x
_atom_site_fract_y
_atom_site_fract_z
Si Si1 0.681278 0.610332 0.310367
Si Si2 0.922535 0.186922 0.110651
Si Si3 0.313837 0.603582 0.848502
Si Si4 0.620720 0.973143 0.617918
Si Si5 0.842696 0.171218 0.682031
O O1 0.500000 0.627105 0.250000
O O2 0.660779 0.588920 0.482767
O O3 0.757995 0.505151 0.219650
O O4 0.785792 0.721012 0.273357
O O5 0.816816 0.296878 0.153519
O O6 0.000000 0.144765 0.250000
O O7 0.785133 0.101058 0.064028
O O8 0.078532 0.203955 0.981425
O O9 0.500000 0.623983 0.750000
O O10 0.500000 0.914840 0.750000
O O11 0.692717 0.084698 0.676756
O O12 0.500000 0.000000 0.500000
O O13 0.000000 0.119005 0.750000
#
# Coordination Sequence:
#
# PCOD9238254 Si02
#       5
#     4   4   4   4   4
#     4  11  25  44  74 104 141 191 234 288 344 418
#     4  12  27  44  69 106 145 182 228 295 357 413
#     4  11  25  46  72 104 144 186 240 284 344 419
#     4  12  26  47  75 101 136 186 240 287 346 425
#     4  12  25  46  71 105 145 181 229 290 360 415
#
# _framework density 22.621704000000001
#
# number of rings (size 3 to 8) (size 9 to 14) (size 15 to 20)
#    0.000    0.400    2.000    7.200    8.400    1.600 
#    0.000    0.000    0.000    0.000    0.000    0.000 
#    0.000    0.000    0.000    0.000    0.000    0.000 
#
# Total GULP energy -112014.983838 kJ/mol
# GULP energy per Si atom -5600.749192 kJ/mol
# Density = 2.257022 g / cm^3
# Si number density = 22.621704 Si / 1000 Ang^3
#
#
#
# Elastic Constant Matrix: (Units=GPa)
#
#
# Indices 1 2 3 4 5 6 
#
# 1 88.3326 37.7225 33.9126 0.0000 21.2123 0.0000
# 2 37.7225 124.8388 27.7959 0.0000 -0.7819 0.0000
# 3 33.9126 27.7959 164.7217 0.0000 5.2267 0.0000
# 4 0.0000 0.0000 0.0000 21.4000 0.0000 -8.0138
# 5 21.2123 -0.7819 5.2267 0.0000 51.7461 0.0000
# 6 0.0000 0.0000 0.0000 -8.0138 0.0000 229.2468
#
#
#
# Elastic Compliance Matrix: (Units=1/GPa)
#
#
# Indices 1 2 3 4 5 6 
#
# 1 0.015477 -0.004208 -0.002280 0.000000 -0.006178 0.000000
# 2 -0.004208 0.009471 -0.000794 0.000000 0.001948 0.000000
# 3 -0.002280 -0.000794 0.006666 0.000000 0.000249 0.000000
# 4 0.000000 0.000000 0.000000 0.047349 0.000000 0.001655
# 5 -0.006178 0.001948 0.000249 0.000000 0.021862 0.000000
# 6 0.000000 0.000000 0.000000 0.001655 0.000000 0.004420
#
#
# Mechanical properties :
#
#
# Convention : Reuss Voigt Hill
#
# Bulk Modulus (GPa) = 58.64912 64.08390 61.36651
# Shear Modulus (GPa) = 39.84359 79.04271 59.44315
#
# Velocity S-wave (km/s) = 4.20134 5.91751 5.13167
# Velocity P-wave (km/s) = 7.03685 8.66483 7.89293
#
# Compressibility (1/GPa) = 0.01705055
#
# Stress axis : x y z
#
# Youngs Moduli (GPa) = 64.61359 105.58940 150.00779
#
# Poissons Ratio (x) = 0.44427 0.34206
# Poissons Ratio (y) = 0.27186 0.11906
# Poissons Ratio (z) = 0.14734 0.08381
#
# Static dielectric constant tensor:
#      x y z
#    x 1.822430 0.000000 -0.021460 
#    y 0.000000 1.835290 0.000000 
#    z -0.021460 0.000000 1.836130 
# 
# From -- ./inp_files/11696.got.cif
#   From: 2010.05.17/outbox.cif.g08.bks.cpg/sg13_6_cif.got.tgz:11696.got - 2010.06.03 16:44:36.
