data_PCOD9238251
_publ_section_title
;
Structure prediction by ZEFSAII (Michael W. Deem and Ramdas Pophale) SiO2 
 PCOD9238251
Probable space group: P 2/C
;
_chemical_formula_sum "Si O2"
_cell_formula_units_Z 18
_cell_length_a 8.921577
_cell_length_b 7.705339
_cell_length_c 21.687700
_cell_angle_alpha 90.000000
_cell_angle_beta 28.767893
_cell_angle_gamma 90.000000
_cell_volume 717.511613
_symmetry_space_group_name_H-M "P 2/C"
_symmetry_group_IT_number 13
_symmetry_cell_setting 'monoclinic'
loop_
_space_group_symop_operation_xyz
x,y,z
-x,y,1/2-z
-x,-y,-z
x,-y,1/2+z
loop_
_atom_site_type_symbol
_atom_site_label
_atom_site_fract_x
_atom_site_fract_y
_atom_site_fract_z
Si Si1 0.860113 0.470494 0.702142
Si Si2 0.077858 0.833323 0.617080
Si Si3 0.497106 0.343042 0.434591
Si Si4 0.566017 0.021149 0.117670
Si Si5 0.500000 0.193563 0.750000
O O1 0.678077 0.510968 0.830628
O O2 0.685683 0.325233 0.726533
O O3 0.899197 0.661182 0.656900
O O4 0.215848 0.408696 0.577424
O O5 0.270159 0.768837 0.607265
O O6 0.809132 0.967125 0.734754
O O7 0.314887 0.905747 0.481675
O O8 0.359049 0.215690 0.431444
O O9 0.687167 0.936109 0.137177
#
# Coordination Sequence:
#
# PCOD9238251 Si02
#       5
#     4   4   4   4   2
#     4  11  25  44  71 103 144 187 230 290 346 423
#     4  11  25  47  75 108 140 182 237 299 361 410
#     4  11  25  47  75 108 140 182 237 299 361 410
#     4  11  25  44  71 103 144 187 230 290 346 423
#     4  12  28  46  70 106 144 194 240 276 352 426
#
# _framework density 25.086704000000001
#
# number of rings (size 3 to 8) (size 9 to 14) (size 15 to 20)
#    0.000    0.889    0.000    6.667    0.000   14.222 
#    0.000    4.444    0.000    0.000    0.000    0.000 
#    0.000    0.000    0.000    0.000    0.000    0.000 
#
# Total GULP energy -100733.620526 kJ/mol
# GULP energy per Si atom -5596.312251 kJ/mol
# Density = 2.502961 g / cm^3
# Si number density = 25.086704 Si / 1000 Ang^3
#
#
#
# Elastic Constant Matrix: (Units=GPa)
#
#
# Indices 1 2 3 4 5 6 
#
# 1 96.8463 49.7041 73.2729 0.0000 27.2413 0.0000
# 2 49.7041 130.7811 76.2677 0.0000 20.6119 0.0000
# 3 73.2729 76.2677 182.0882 0.0000 41.9840 0.0000
# 4 0.0000 0.0000 0.0000 68.2541 0.0000 5.8123
# 5 27.2413 20.6119 41.9840 0.0000 35.7646 0.0000
# 6 0.0000 0.0000 0.0000 5.8123 0.0000 50.9614
#
#
#
# Elastic Compliance Matrix: (Units=1/GPa)
#
#
# Indices 1 2 3 4 5 6 
#
# 1 0.016657 -0.003013 -0.003998 0.000000 -0.006258 0.000000
# 2 -0.003013 0.010699 -0.003258 0.000000 -0.000046 0.000000
# 3 -0.003998 -0.003258 0.010051 0.000000 -0.006875 0.000000
# 4 0.000000 0.000000 0.000000 0.014795 0.000000 -0.001687
# 5 -0.006258 -0.000046 -0.006875 0.000000 0.040825 0.000000
# 6 0.000000 0.000000 0.000000 -0.001687 0.000000 0.019815
#
#
# Mechanical properties :
#
#
# Convention : Reuss Voigt Hill
#
# Bulk Modulus (GPa) = 59.28255 89.80054 74.54155
# Shear Modulus (GPa) = 35.97077 45.02741 40.49909
#
# Velocity S-wave (km/s) = 3.79074 4.24119 4.02227
# Velocity P-wave (km/s) = 6.54538 7.73675 7.16587
#
# Compressibility (1/GPa) = 0.01686837
#
# Stress axis : x y z
#
# Youngs Moduli (GPa) = 60.03504 93.46896 99.49640
#
# Poissons Ratio (x) = 0.28160 0.39780
# Poissons Ratio (y) = 0.18087 0.32417
# Poissons Ratio (z) = 0.24003 0.30453
#
# Static dielectric constant tensor:
#      x y z
#    x 2.020300 0.000000 -0.059050 
#    y 0.000000 2.019380 0.000000 
#    z -0.059050 0.000000 1.979420 
# 
# From -- ./inp_files/75503.got.cif
#   From: 2010.05.17/outbox.cif.g08.bks.cpg/sg13_38_cif.got.tgz:75503.got - 2010.06.03 16:44:36.
