data_PCOD9238053
_publ_section_title
;
Structure prediction by ZEFSAII (Michael W. Deem and Ramdas Pophale) SiO2 
 PCOD9238053
Probable space group: P 2/C
;
_chemical_formula_sum "Si O2"
_cell_formula_units_Z 16
_cell_length_a 9.125317
_cell_length_b 7.205348
_cell_length_c 11.991740
_cell_angle_alpha 90.000000
_cell_angle_beta 137.206905
_cell_angle_gamma 90.000000
_cell_volume 535.649300
_symmetry_space_group_name_H-M "P 2/C"
_symmetry_group_IT_number 13
_symmetry_cell_setting 'monoclinic'
loop_
_space_group_symop_operation_xyz
x,y,z
-x,y,1/2-z
-x,-y,-z
x,-y,1/2+z
loop_
_atom_site_type_symbol
_atom_site_label
_atom_site_fract_x
_atom_site_fract_y
_atom_site_fract_z
Si Si1 0.051819 0.607914 0.159604
Si Si2 0.894200 0.987664 0.066369
Si Si3 0.601271 0.651976 0.703549
Si Si4 0.522367 0.250524 0.919832
O O1 0.128702 0.765649 0.439242
O O2 0.156868 0.434866 0.149478
O O3 0.263040 0.747368 0.273079
O O4 0.000000 0.513057 0.250000
O O5 0.000000 0.035436 0.250000
O O6 0.681774 0.117529 0.943811
O O7 0.000000 0.000000 0.000000
O O8 0.500000 0.753552 0.750000
O O9 0.451641 0.466519 0.602710
O O10 0.589459 0.767713 0.585638
#
# Coordination Sequence:
#
# PCOD9238053 Si02
#       4
#     4   4   4   4
#     4   9  20  39  66  96 139 184 225 285 356 405
#     4  11  24  43  67 103 139 184 231 283 352 419
#     4   9  18  40  68  96 135 185 227 289 350 407
#     4   9  21  41  66 101 138 182 232 288 350 414
#
# _framework density 29.870286
#
# number of rings (size 3 to 8) (size 9 to 14) (size 15 to 20)
#    1.500    1.000    0.000    1.500    0.000    5.000 
#    9.000    1.250    0.000    0.000    0.000    0.000 
#    0.000    0.000    0.000    0.000    0.000    0.000 
#
# Total GULP energy -89188.731771 kJ/mol
# GULP energy per Si atom -5574.295736 kJ/mol
# Density = 2.980230 g / cm^3
# Si number density = 29.870286 Si / 1000 Ang^3
#
#
#
# Elastic Constant Matrix: (Units=GPa)
#
#
# Indices 1 2 3 4 5 6 
#
# 1 210.6127 72.7550 39.1570 0.0000 -35.7984 0.0000
# 2 72.7550 109.3557 10.8858 0.0000 -1.2832 0.0000
# 3 39.1570 10.8858 102.9688 0.0000 15.3106 0.0000
# 4 0.0000 0.0000 0.0000 43.5003 0.0000 -2.3679
# 5 -35.7984 -1.2832 15.3106 0.0000 71.1985 0.0000
# 6 0.0000 0.0000 0.0000 -2.3679 0.0000 74.5413
#
#
#
# Elastic Compliance Matrix: (Units=1/GPa)
#
#
# Indices 1 2 3 4 5 6 
#
# 1 0.007738 -0.004787 -0.003102 0.000000 0.004472 0.000000
# 2 -0.004787 0.012214 0.000883 0.000000 -0.002377 0.000000
# 3 -0.003102 0.000883 0.011392 0.000000 -0.003993 0.000000
# 4 0.000000 0.000000 0.000000 0.023028 0.000000 0.000732
# 5 0.004472 -0.002377 -0.003993 0.000000 0.017109 0.000000
# 6 0.000000 0.000000 0.000000 0.000732 0.000000 0.013439
#
#
# Mechanical properties :
#
#
# Convention : Reuss Voigt Hill
#
# Bulk Modulus (GPa) = 57.69849 74.28142 65.98995
# Shear Modulus (GPa) = 47.75122 57.85730 52.80426
#
# Velocity S-wave (km/s) = 4.00261 4.40586 4.20907
# Velocity P-wave (km/s) = 6.38118 7.12770 6.76475
#
# Compressibility (1/GPa) = 0.01733148
#
# Stress axis : x y z
#
# Youngs Moduli (GPa) = 129.22465 81.87529 87.78405
#
# Poissons Ratio (x) = 0.39196 0.27227
# Poissons Ratio (y) = 0.61863 -0.07748
# Poissons Ratio (z) = 0.40080 -0.07227
#
# Static dielectric constant tensor:
#      x y z
#    x 2.325890 0.000000 0.029790 
#    y 0.000000 2.251480 0.000000 
#    z 0.029790 0.000000 2.772680 
# 
# From -- ./inp_files/27490.got.cif
#   From: 2010.05.17/outbox.cif.g08.bks.cpg/sg13_14_cif.got.tgz:27490.got - 2010.06.03 16:44:36.
