data_PCOD9238022
_publ_section_title
;
Structure prediction by ZEFSAII (Michael W. Deem and Ramdas Pophale) SiO2 
 PCOD9238022
Probable space group: P 2/C
;
_chemical_formula_sum "Si O2"
_cell_formula_units_Z 20
_cell_length_a 11.396411
_cell_length_b 7.807596
_cell_length_c 8.478333
_cell_angle_alpha 90.000000
_cell_angle_beta 104.634958
_cell_angle_gamma 90.000000
_cell_volume 729.913936
_symmetry_space_group_name_H-M "P 2/C"
_symmetry_group_IT_number 13
_symmetry_cell_setting 'monoclinic'
loop_
_space_group_symop_operation_xyz
x,y,z
-x,y,1/2-z
-x,-y,-z
x,-y,1/2+z
loop_
_atom_site_type_symbol
_atom_site_label
_atom_site_fract_x
_atom_site_fract_y
_atom_site_fract_z
Si Si1 0.242398 0.026689 0.178921
Si Si2 0.877113 0.560165 0.705061
Si Si3 0.271490 0.355219 0.058866
Si Si4 0.500000 0.442703 0.750000
Si Si5 0.000000 0.885512 0.750000
Si Si6 0.407245 0.848106 0.014170
O O1 0.259228 0.152815 0.031994
O O2 0.102263 0.012739 0.185564
O O3 0.315373 0.138466 0.335138
O O4 0.323383 0.871503 0.143376
O O5 0.761433 0.465344 0.601992
O O6 0.844329 0.607724 0.870523
O O7 0.916711 0.739345 0.633373
O O8 0.000000 0.451276 0.750000
O O9 0.388816 0.429591 0.181843
O O10 0.512951 0.316528 0.907905
O O11 0.500000 0.000000 0.000000
#
# Coordination Sequence:
#
# PCOD9238022 Si02
#       6
#     4   4   4   2   2   4
#     4  11  25  45  71  96 139 180 232 279 344 402
#     4   9  20  40  65 102 139 162 214 285 347 389
#     4  11  24  41  70 104 130 175 226 285 335 400
#     4  12  26  40  72  98 140 174 234 274 338 410
#     4   8  20  42  70  98 134 172 220 294 326 410
#     4  12  26  48  65  98 142 190 221 281 339 409
#
# _framework density 27.400490999999999
#
# number of rings (size 3 to 8) (size 9 to 14) (size 15 to 20)
#    0.600    0.800    2.000    3.000    5.600    2.400 
#    0.000    0.000    4.400    0.000    0.000    0.000 
#    0.000    0.000    0.000    0.000    0.000    0.000 
#
# Total GULP energy -111548.256516 kJ/mol
# GULP energy per Si atom -5577.412826 kJ/mol
# Density = 2.733813 g / cm^3
# Si number density = 27.400491 Si / 1000 Ang^3
#
#
#
# Elastic Constant Matrix: (Units=GPa)
#
#
# Indices 1 2 3 4 5 6 
#
# 1 170.5068 49.2917 20.7969 0.0000 1.4744 0.0000
# 2 49.2917 74.2643 4.7022 0.0000 -9.4261 0.0000
# 3 20.7969 4.7022 63.6534 0.0000 5.4013 0.0000
# 4 0.0000 0.0000 0.0000 28.5327 0.0000 -7.8170
# 5 1.4744 -9.4261 5.4013 0.0000 46.4712 0.0000
# 6 0.0000 0.0000 0.0000 -7.8170 0.0000 46.8152
#
#
#
# Elastic Compliance Matrix: (Units=1/GPa)
#
#
# Indices 1 2 3 4 5 6 
#
# 1 0.007574 -0.005029 -0.002016 0.000000 -0.001026 0.000000
# 2 -0.005029 0.017264 0.000058 0.000000 0.003655 0.000000
# 3 -0.002016 0.000058 0.016521 0.000000 -0.001845 0.000000
# 4 0.000000 0.000000 0.000000 0.036728 0.000000 0.006133
# 5 -0.001026 0.003655 -0.001845 0.000000 0.022507 0.000000
# 6 0.000000 0.000000 0.000000 0.006133 0.000000 0.022385
#
#
# Mechanical properties :
#
#
# Convention : Reuss Voigt Hill
#
# Bulk Modulus (GPa) = 36.51851 50.88959 43.70405
# Shear Modulus (GPa) = 34.22775 39.93939 37.08357
#
# Velocity S-wave (km/s) = 3.53819 3.82202 3.68284
# Velocity P-wave (km/s) = 5.48163 6.17170 5.83687
#
# Compressibility (1/GPa) = 0.02738337
#
# Stress axis : x y z
#
# Youngs Moduli (GPa) = 132.03798 57.92453 60.52927
#
# Poissons Ratio (x) = 0.29133 0.12202
# Poissons Ratio (y) = 0.66408 -0.00350
# Poissons Ratio (z) = 0.26617 -0.00335
#
# Static dielectric constant tensor:
#      x y z
#    x 2.120560 0.000000 0.041960 
#    y 0.000000 2.317770 0.000000 
#    z 0.041960 0.000000 2.340110 
# 
# From -- ./inp_files/15031.got.cif
#   From: 2010.05.17/outbox.cif.g08.bks.cpg/sg13_8_cif.got.tgz:15031.got - 2010.06.03 16:44:36.
