data_PCOD9238029
_publ_section_title
;
Structure prediction by ZEFSAII (Michael W. Deem and Ramdas Pophale) SiO2 
 PCOD9238029
Probable space group: P 2/C
;
_chemical_formula_sum "Si O2"
_cell_formula_units_Z 14
_cell_length_a 5.241486
_cell_length_b 23.916461
_cell_length_c 5.172237
_cell_angle_alpha 90.000000
_cell_angle_beta 98.196745
_cell_angle_gamma 90.000000
_cell_volume 641.756591
_symmetry_space_group_name_H-M "P 2/C"
_symmetry_group_IT_number 13
_symmetry_cell_setting 'monoclinic'
loop_
_space_group_symop_operation_xyz
x,y,z
-x,y,1/2-z
-x,-y,-z
x,-y,1/2+z
loop_
_atom_site_type_symbol
_atom_site_label
_atom_site_fract_x
_atom_site_fract_y
_atom_site_fract_z
Si Si1 0.500000 0.616373 0.750000
Si Si2 0.000000 0.460590 0.250000
Si Si3 0.000000 0.039448 0.750000
Si Si4 0.500000 0.306477 0.750000
Si Si5 0.336887 0.858226 0.468881
Si Si6 0.000000 0.767085 0.250000
O O1 0.747505 0.577975 0.730300
O O2 0.460309 0.655432 0.495817
O O3 0.000000 0.500000 0.500000
O O4 0.773318 0.083074 0.650167
O O5 0.000000 0.000000 0.500000
O O6 0.236003 0.270775 0.685692
O O7 0.500000 0.865842 0.750000
O O8 0.118285 0.811145 0.474458
O O9 0.500000 0.836687 0.250000
#
# Coordination Sequence:
#
# PCOD9238029 Si02
#       6
#     2   2   2   2   4   2
#     4  12  26  45  68 110 140 185 242 290 350 414
#     4  12  24  45  74 102 144 191 236 288 348 414
#     4  11  24  42  66 102 138 180 228 295 364 416
#     4  12  26  45  72 100 150 183 234 300 352 416
#     4  11  25  44  69  98 138 180 242 287 345 449
#     4  11  26  47  70 104 136 197 234 289 366 420
#
# _framework density 21.815121999999999
#
# number of rings (size 3 to 8) (size 9 to 14) (size 15 to 20)
#    0.000    0.571    1.429    6.000    2.000    9.143 
#    0.000    0.000    0.000    0.000    0.000    0.000 
#    0.000    0.000    0.000    0.000    0.000    0.000 
#
# Total GULP energy -78289.022211 kJ/mol
# GULP energy per Si atom -5592.073015 kJ/mol
# Density = 2.176547 g / cm^3
# Si number density = 21.815122 Si / 1000 Ang^3
#
#
#
# Elastic Constant Matrix: (Units=GPa)
#
#
# Indices 1 2 3 4 5 6 
#
# 1 175.4298 97.5030 65.1638 0.0000 6.6868 0.0000
# 2 97.5030 170.4621 83.8810 0.0000 -0.2477 0.0000
# 3 65.1638 83.8810 206.2578 0.0000 6.0146 0.0000
# 4 0.0000 0.0000 0.0000 -14.0285 0.0000 -55.2434
# 5 6.6868 -0.2477 6.0146 0.0000 37.8944 0.0000
# 6 0.0000 0.0000 0.0000 -55.2434 0.0000 15.1939
#
#
#
# Elastic Compliance Matrix: (Units=1/GPa)
#
#
# Indices 1 2 3 4 5 6 
#
# 1 0.008558 -0.004484 -0.000839 0.000000 -0.001406 0.000000
# 2 -0.004484 0.009694 -0.002562 0.000000 0.001261 0.000000
# 3 -0.000839 -0.002562 0.006180 0.000000 -0.000850 0.000000
# 4 0.000000 0.000000 0.000000 -0.004654 0.000000 -0.016920
# 5 -0.001406 0.001261 -0.000850 0.000000 0.026780 0.000000
# 6 0.000000 0.000000 0.000000 -0.016920 0.000000 0.004297
#
#
# Mechanical properties :
#
#
# Convention : Reuss Voigt Hill
#
# Bulk Modulus (GPa) = 115.46329 116.13834 115.80082
# Shear Modulus (GPa) = 71.92791 28.18541 50.05666
#
# Velocity S-wave (km/s) = 5.74832 3.59836 4.79538
# Velocity P-wave (km/s) = 9.85396 8.40341 9.15745
#
# Compressibility (1/GPa) = 0.00866076
#
# Stress axis : x y z
#
# Youngs Moduli (GPa) = 116.85184 103.15557 161.80494
#
# Poissons Ratio (x) = 0.46257 0.13577
# Poissons Ratio (y) = 0.52398 0.41462
# Poissons Ratio (z) = 0.09805 0.26433
#
# Static dielectric constant tensor:
#      x y z
#    x 1.854150 0.000000 0.007700 
#    y 0.000000 1.816450 0.000000 
#    z 0.007700 0.000000 1.739600 
# 
# From -- ./inp_files/302.got.cif
#   From: 2010.05.17/outbox.cif.g08.bks.cpg/sg13_1_cif.got.tgz:302.got - 2010.06.03 16:44:36.
