data_PCOD9238930
_publ_section_title
;
Structure prediction by ZEFSAII (Michael W. Deem and Ramdas Pophale) SiO2 
 PCOD9238930
Probable space group: P 2/C
;
_chemical_formula_sum "Si O2"
_cell_formula_units_Z 28
_cell_length_a 21.000000
_cell_length_b 9.000000
_cell_length_c 24.000000
_cell_angle_alpha 90.000000
_cell_angle_beta 20.000000
_cell_angle_gamma 90.000000
_cell_volume 1551.403370
_symmetry_space_group_name_H-M "P 2/C"
_symmetry_group_IT_number 13
_symmetry_cell_setting 'monoclinic'
loop_
_space_group_symop_operation_xyz
x,y,z
-x,y,1/2-z
-x,-y,-z
x,-y,1/2+z
loop_
_atom_site_type_symbol
_atom_site_label
_atom_site_fract_x
_atom_site_fract_y
_atom_site_fract_z
Si Si1 0.500000 0.584876 0.250000
Si Si2 0.000000 0.330647 0.250000
Si Si3 0.871941 0.760444 0.972445
Si Si4 0.612197 0.697002 0.364502
Si Si5 0.624920 0.506988 0.527460
Si Si6 0.881258 0.438720 0.148911
Si Si7 0.558295 0.778126 0.879808
Si Si8 0.801643 0.048555 0.636534
O O1 0.326246 0.687986 0.377672
O O2 0.464054 0.497225 0.337133
O O3 0.958234 0.229632 0.339143
O O4 0.829533 0.438539 0.371206
O O5 0.995864 0.641707 0.905477
O O6 0.841047 0.899991 0.039952
O O7 0.474371 0.605156 0.436036
O O8 0.750251 0.573239 0.277312
O O9 0.519121 0.786794 0.492534
O O10 0.729355 0.806580 0.229061
O O11 0.586878 0.673020 0.534777
O O12 0.742995 0.319289 0.236337
O O13 0.000000 0.500000 0.000000
O O14 0.639180 0.925218 0.782497
O O15 0.000000 0.000000 0.500000
#
# Coordination Sequence:
#
# PCOD9238930 Si02
#       8
#     2   2   4   4   4   4   4   4
#     4  10  20  36  62  80 116 160 204 246 282 364
#     4  10  22  36  66  90 114 160 216 268 286 372
#     4  11  20  38  57  91 119 157 211 247 311 359
#     4  11  21  37  60  91 124 157 198 255 313 362
#     4  10  20  38  62  90 114 156 204 253 302 350
#     4  11  18  35  62  91 123 151 200 261 306 356
#     4  11  22  36  58  92 125 156 190 255 318 358
#     4  12  23  38  59  89 128 160 199 251 317 379
#
# _framework density 18.048175000000001
#
# number of rings (size 3 to 8) (size 9 to 14) (size 15 to 20)
#    0.000    1.143    4.286    4.714    0.000    0.000 
#    0.000    0.714    0.000    0.857    0.000    0.000 
#    0.000    0.000    0.000    0.000    0.000    0.000 
#
# Total GULP energy -156064.947996 kJ/mol
# GULP energy per Si atom -5573.748143 kJ/mol
# Density = 1.800710 g / cm^3
# Si number density = 18.048175 Si / 1000 Ang^3
#
#
#
# Elastic Constant Matrix: (Units=GPa)
#
#
# Indices 1 2 3 4 5 6 
#
# 1 129.0444 35.5256 46.4899 0.0000 18.9867 0.0000
# 2 35.5256 89.1447 28.2126 0.0000 4.2491 0.0000
# 3 46.4899 28.2126 85.3842 0.0000 12.6423 0.0000
# 4 0.0000 0.0000 0.0000 32.8772 0.0000 7.9216
# 5 18.9867 4.2491 12.6423 0.0000 49.1158 0.0000
# 6 0.0000 0.0000 0.0000 7.9216 0.0000 30.6880
#
#
#
# Elastic Compliance Matrix: (Units=1/GPa)
#
#
# Indices 1 2 3 4 5 6 
#
# 1 0.010466 -0.002641 -0.004429 0.000000 -0.002677 0.000000
# 2 -0.002641 0.013194 -0.003019 0.000000 0.000657 0.000000
# 3 -0.004429 -0.003019 0.015416 0.000000 -0.001995 0.000000
# 4 0.000000 0.000000 0.000000 0.032433 0.000000 -0.008372
# 5 -0.002677 0.000657 -0.001995 0.000000 0.021852 0.000000
# 6 0.000000 0.000000 0.000000 -0.008372 0.000000 0.034747
#
#
# Mechanical properties :
#
#
# Convention : Reuss Voigt Hill
#
# Bulk Modulus (GPa) = 52.91652 58.22550 55.57101
# Shear Modulus (GPa) = 32.34414 35.42586 33.88500
#
# Velocity S-wave (km/s) = 4.23791 4.43521 4.33768
# Velocity P-wave (km/s) = 7.30272 7.65241 7.47961
#
# Compressibility (1/GPa) = 0.01889769
#
# Stress axis : x y z
#
# Youngs Moduli (GPa) = 95.54639 75.78943 64.86665
#
# Poissons Ratio (x) = 0.20020 0.28732
# Poissons Ratio (y) = 0.25238 0.19581
# Poissons Ratio (z) = 0.42321 0.22879
#
# Static dielectric constant tensor:
#      x y z
#    x 1.622880 0.000000 0.043560 
#    y 0.000000 1.634860 0.000000 
#    z 0.043560 0.000000 1.697890 
# 
# From -- ./inp_files/75276.got.cif
#   From: 2010.05.17/outbox.ucp.g08.bks.cvg/sg13_38_cif.got.tgz:75276.got - 2010.06.11 12:23:55.
