data_PCOD9238547
_publ_section_title
;
Structure prediction by ZEFSAII (Michael W. Deem and Ramdas Pophale) SiO2 
 PCOD9238547
Probable space group: P 2/C
;
_chemical_formula_sum "Si O2"
_cell_formula_units_Z 16
_cell_length_a 13.825702
_cell_length_b 5.962172
_cell_length_c 8.964825
_cell_angle_alpha 90.000000
_cell_angle_beta 114.818827
_cell_angle_gamma 90.000000
_cell_volume 670.728785
_symmetry_space_group_name_H-M "P 2/C"
_symmetry_group_IT_number 13
_symmetry_cell_setting 'monoclinic'
loop_
_space_group_symop_operation_xyz
x,y,z
-x,y,1/2-z
-x,-y,-z
x,-y,1/2+z
loop_
_atom_site_type_symbol
_atom_site_label
_atom_site_fract_x
_atom_site_fract_y
_atom_site_fract_z
Si Si1 0.423314 0.122196 0.328839
Si Si2 0.281364 0.260963 0.670478
Si Si3 0.375939 0.499250 0.476652
Si Si4 0.966851 0.249641 0.052397
O O1 0.500000 0.221931 0.250000
O O2 0.343064 0.269457 0.373340
O O3 0.500000 0.000000 0.500000
O O4 0.350825 0.956331 0.188075
O O5 0.345024 0.454684 0.624378
O O6 0.304172 0.309994 0.858982
O O7 0.160734 0.251046 0.546984
O O8 0.500000 0.500000 0.500000
O O9 0.000000 0.250341 0.250000
O O10 0.000000 0.500000 0.000000
O O11 0.000000 0.000000 0.000000
#
# Coordination Sequence:
#
# PCOD9238547 Si02
#       4
#     4   4   4   4
#     4  12  23  41  64 104 150 186 235 292 369 471
#     4  12  27  43  76 101 146 202 242 315 394 449
#     4  12  24  44  68 109 151 190 242 298 382 484
#     4  12  30  57  83 118 157 209 284 349 401 473
#
# _framework density 23.854649999999999
#
# number of rings (size 3 to 8) (size 9 to 14) (size 15 to 20)
#    0.000    0.000    5.000    4.500    7.000    0.000 
#    0.000    0.000    0.000    0.000    0.000    0.000 
#    0.000    0.000    0.000    0.000    0.000    0.000 
#
# Total GULP energy -89110.423841 kJ/mol
# GULP energy per Si atom -5569.401490 kJ/mol
# Density = 2.380036 g / cm^3
# Si number density = 23.854650 Si / 1000 Ang^3
#
#
#
# Elastic Constant Matrix: (Units=GPa)
#
#
# Indices 1 2 3 4 5 6 
#
# 1 139.8172 55.4170 54.9315 0.0000 39.3238 0.0000
# 2 55.4170 115.1822 46.0877 0.0000 0.5851 0.0000
# 3 54.9315 46.0877 145.1743 0.0000 7.4673 0.0000
# 4 0.0000 0.0000 0.0000 48.9325 0.0000 -9.2596
# 5 39.3238 0.5851 7.4673 0.0000 54.1626 0.0000
# 6 0.0000 0.0000 0.0000 -9.2596 0.0000 40.4009
#
#
#
# Elastic Compliance Matrix: (Units=1/GPa)
#
#
# Indices 1 2 3 4 5 6 
#
# 1 0.012662 -0.004938 -0.002773 0.000000 -0.008757 0.000000
# 2 -0.004938 0.011877 -0.002095 0.000000 0.003746 0.000000
# 3 -0.002773 -0.002095 0.008558 0.000000 0.000856 0.000000
# 4 0.000000 0.000000 0.000000 0.021363 0.000000 0.004896
# 5 -0.008757 0.003746 0.000856 0.000000 0.024662 0.000000
# 6 0.000000 0.000000 0.000000 0.004896 0.000000 0.025874
#
#
# Mechanical properties :
#
#
# Convention : Reuss Voigt Hill
#
# Bulk Modulus (GPa) = 74.15129 79.22735 76.68932
# Shear Modulus (GPa) = 38.72887 44.94838 41.83862
#
# Velocity S-wave (km/s) = 4.03368 4.34552 4.19250
# Velocity P-wave (km/s) = 7.26954 7.64609 7.46019
#
# Compressibility (1/GPa) = 0.01348594
#
# Stress axis : x y z
#
# Youngs Moduli (GPa) = 78.97809 84.19818 116.84324
#
# Poissons Ratio (x) = 0.41576 0.32400
# Poissons Ratio (y) = 0.38998 0.24475
# Poissons Ratio (z) = 0.21900 0.17637
#
# Static dielectric constant tensor:
#      x y z
#    x 1.810220 0.000000 -0.207920 
#    y 0.000000 2.153230 0.000000 
#    z -0.207920 0.000000 1.033320 
# 
# From -- ./inp_files/17637.got.cif
#   From: 2010.05.17/outbox.cif.g08.bks.cpg/sg13_9_cif.got.tgz:17637.got - 2010.06.03 16:44:36.
