data_PCOD9238507
_publ_section_title
;
Structure prediction by ZEFSAII (Michael W. Deem and Ramdas Pophale) SiO2 
 PCOD9238507
Probable space group: P 2/C
;
_chemical_formula_sum "Si O2"
_cell_formula_units_Z 28
_cell_length_a 32.828490
_cell_length_b 8.730397
_cell_length_c 32.411905
_cell_angle_alpha 90.000000
_cell_angle_beta 9.138190
_cell_angle_gamma 90.000000
_cell_volume 1475.313153
_symmetry_space_group_name_H-M "P 2/C"
_symmetry_group_IT_number 13
_symmetry_cell_setting 'monoclinic'
loop_
_space_group_symop_operation_xyz
x,y,z
-x,y,1/2-z
-x,-y,-z
x,-y,1/2+z
loop_
_atom_site_type_symbol
_atom_site_label
_atom_site_fract_x
_atom_site_fract_y
_atom_site_fract_z
Si Si1 0.000012 0.987991 0.372763
Si Si2 0.000000 0.464035 0.250000
Si Si3 0.999970 0.862292 0.033573
Si Si4 0.499996 0.502798 0.623008
Si Si5 0.500000 0.314791 0.250000
Si Si6 0.500005 0.831415 0.836245
Si Si7 0.500029 0.640564 0.967762
Si Si8 0.000000 0.663978 0.657340
O O1 0.000030 0.943501 0.421264
O O2 0.749230 0.915348 0.603413
O O3 0.000006 0.163734 0.359216
O O4 0.250775 0.915351 0.101864
O O5 0.749259 0.574221 0.500740
O O6 0.999996 0.365984 0.207130
O O7 0.749743 0.751816 0.279602
O O8 0.250177 0.751799 0.779168
O O9 0.000000 0.000000 0.000000
O O10 0.500002 0.662780 0.645792
O O11 0.499975 0.550323 0.575511
O O12 0.750029 0.413684 0.387732
O O13 0.249981 0.413678 0.887782
O O14 0.499980 0.200155 0.211793
O O15 0.500000 0.500000 0.000000
#
# Coordination Sequence:
#
# PCOD9238507 Si02
#       8
#     4   2   4   4   2   4   4   4
#     4  12  26  45  67  99 138 176 216 271 339 394
#     4  12  22  42  62 102 130 166 224 280 316 376
#     4  12  26  46  68  99 138 175 216 276 339 396
#     4  12  23  45  69  96 133 179 222 265 326 395
#     4  12  24  38  72  96 128 170 230 272 326 382
#     4  12  23  45  68  96 129 178 221 271 325 389
#     4  12  27  44  71 102 132 170 226 281 319 395
#     4  12  26  41  70  97 135 178 217 271 331 396
#
# _framework density 18.979019999999998
#
# number of rings (size 3 to 8) (size 9 to 14) (size 15 to 20)
#    0.000    0.000    5.714    4.286    4.000    1.143 
#    0.000    0.000    0.000    0.000    0.000    0.000 
#    0.000    0.000    0.000    0.000    0.000    0.000 
#
# Total GULP energy -156514.457038 kJ/mol
# GULP energy per Si atom -5589.802037 kJ/mol
# Density = 1.893582 g / cm^3
# Si number density = 18.979020 Si / 1000 Ang^3
#
#
#
# Elastic Constant Matrix: (Units=GPa)
#
#
# Indices 1 2 3 4 5 6 
#
# 1 233.6469 109.3080 85.9362 0.0000 12.4215 0.0000
# 2 109.3080 207.9049 121.9111 0.0000 -1.6581 0.0000
# 3 85.9362 121.9111 221.4440 0.0000 -10.7932 0.0000
# 4 0.0000 0.0000 0.0000 46.9555 0.0000 -0.3774
# 5 12.4215 -1.6581 -10.7932 0.0000 29.9336 0.0000
# 6 0.0000 0.0000 0.0000 -0.3774 0.0000 44.0545
#
#
#
# Elastic Compliance Matrix: (Units=1/GPa)
#
#
# Indices 1 2 3 4 5 6 
#
# 1 0.006039 -0.002567 -0.001078 0.000000 -0.003037 0.000000
# 2 -0.002567 0.008225 -0.003520 0.000000 0.000252 0.000000
# 3 -0.001078 -0.003520 0.007008 0.000000 0.002779 0.000000
# 4 0.000000 0.000000 0.000000 0.021298 0.000000 0.000182
# 5 -0.003037 0.000252 0.002779 0.000000 0.035684 0.000000
# 6 0.000000 0.000000 0.000000 0.000182 0.000000 0.022701
#
#
# Mechanical properties :
#
#
# Convention : Reuss Voigt Hill
#
# Bulk Modulus (GPa) = 144.06089 144.14513 144.10301
# Shear Modulus (GPa) = 42.51737 47.24476 44.88106
#
# Velocity S-wave (km/s) = 4.73824 4.99472 4.86817
# Velocity P-wave (km/s) = 10.29586 10.45837 10.37743
#
# Compressibility (1/GPa) = 0.00694151
#
# Stress axis : x y z
#
# Youngs Moduli (GPa) = 165.59183 121.57318 142.70180
#
# Poissons Ratio (x) = 0.31206 0.15389
# Poissons Ratio (y) = 0.42506 0.50231
# Poissons Ratio (z) = 0.17858 0.42793
#
# Static dielectric constant tensor:
#      x y z
#    x 1.662160 0.000000 0.004660 
#    y 0.000000 1.608260 0.000000 
#    z 0.004660 0.000000 1.626850 
# 
# From -- ./inp_files/97997.got.cif
#   From: 2010.05.17/outbox.cif.g08.bks.cpg/sg13_49_cif.got.tgz:97997.got - 2010.06.03 16:44:36.
