data_PCOD9238549
_publ_section_title
;
Structure prediction by ZEFSAII (Michael W. Deem and Ramdas Pophale) SiO2 
 PCOD9238549
Probable space group: P 2/C
;
_chemical_formula_sum "Si O2"
_cell_formula_units_Z 16
_cell_length_a 9.209242
_cell_length_b 11.312107
_cell_length_c 8.766162
_cell_angle_alpha 90.000000
_cell_angle_beta 124.120927
_cell_angle_gamma 90.000000
_cell_volume 756.016763
_symmetry_space_group_name_H-M "P 2/C"
_symmetry_group_IT_number 13
_symmetry_cell_setting 'monoclinic'
loop_
_space_group_symop_operation_xyz
x,y,z
-x,y,1/2-z
-x,-y,-z
x,-y,1/2+z
loop_
_atom_site_type_symbol
_atom_site_label
_atom_site_fract_x
_atom_site_fract_y
_atom_site_fract_z
Si Si1 0.137331 0.037302 0.455543
Si Si2 0.687921 0.213301 0.436745
Si Si3 0.974560 0.368757 0.418831
Si Si4 0.673221 0.754830 0.275310
O O1 0.288825 0.118272 0.618511
O O2 0.000000 0.090839 0.250000
O O3 0.221820 0.911565 0.463445
O O4 0.000000 0.000000 0.500000
O O5 0.500000 0.191224 0.250000
O O6 0.809233 0.296054 0.397305
O O7 0.651713 0.263386 0.582804
O O8 0.000000 0.371449 0.250000
O O9 0.000000 0.500000 0.500000
O O10 0.143769 0.302898 0.579440
O O11 0.500000 0.703800 0.250000
#
# Coordination Sequence:
#
# PCOD9238549 Si02
#       4
#     4   4   4   4
#     4  12  23  41  70  99 139 182 225 274 337 400
#     4  12  26  44  68 102 138 179 227 277 334 401
#     4  12  26  48  74  98 133 175 224 281 340 399
#     4  12  26  43  69 102 139 178 227 276 335 400
#
# _framework density 21.163553
#
# number of rings (size 3 to 8) (size 9 to 14) (size 15 to 20)
#    0.000    0.000    5.000    5.250    3.500    3.000 
#    0.000    5.000    0.000    0.000    0.000    0.000 
#    0.000    0.000    0.000    0.000    0.000    0.000 
#
# Total GULP energy -89142.771293 kJ/mol
# GULP energy per Si atom -5571.423206 kJ/mol
# Density = 2.111538 g / cm^3
# Si number density = 21.163553 Si / 1000 Ang^3
#
#
#
# Elastic Constant Matrix: (Units=GPa)
#
#
# Indices 1 2 3 4 5 6 
#
# 1 122.4528 5.9929 35.2246 0.0000 -0.6179 0.0000
# 2 5.9929 69.3315 -13.7565 0.0000 0.9607 0.0000
# 3 35.2246 -13.7565 140.5872 0.0000 -12.9568 0.0000
# 4 0.0000 0.0000 0.0000 17.6233 0.0000 -12.5293
# 5 -0.6179 0.9607 -12.9568 0.0000 54.5413 0.0000
# 6 0.0000 0.0000 0.0000 -12.5293 0.0000 3.4550
#
#
#
# Elastic Compliance Matrix: (Units=1/GPa)
#
#
# Indices 1 2 3 4 5 6 
#
# 1 0.008914 -0.001240 -0.002396 0.000000 -0.000446 0.000000
# 2 -0.001240 0.014882 0.001780 0.000000 0.000147 0.000000
# 3 -0.002396 0.001780 0.008059 0.000000 0.001856 0.000000
# 4 0.000000 0.000000 0.000000 -0.035955 0.000000 -0.130385
# 5 -0.000446 0.000147 0.001856 0.000000 0.018768 0.000000
# 6 0.000000 0.000000 0.000000 -0.130385 0.000000 -0.183395
#
#
# Mechanical properties :
#
#
# Convention : Reuss Voigt Hill
#
# Bulk Modulus (GPa) = 35.53167 43.03262 39.28215
# Shear Modulus (GPa) = -32.12637 35.45129 1.66246
#
# Velocity S-wave (km/s) = -3.90038 4.09725 0.88726
# Velocity P-wave (km/s) = 1.85969 6.53917 4.43296
#
# Compressibility (1/GPa) = 0.02814390
#
# Stress axis : x y z
#
# Youngs Moduli (GPa) = 112.18272 67.19600 124.09155
#
# Poissons Ratio (x) = 0.08330 0.29731
# Poissons Ratio (y) = 0.13907 -0.22092
# Poissons Ratio (z) = 0.26878 -0.11963
#
# Static dielectric constant tensor:
#      x y z
#    x 1.830490 0.000000 -0.294110 
#    y 0.000000 -3.717160 0.000000 
#    z -0.294110 0.000000 2.306610 
# 
# From -- ./inp_files/11164.got.cif
#   From: 2010.05.17/outbox.cif.g08.bks.cpg/sg13_6_cif.got.tgz:11164.got - 2010.06.03 16:44:36.
