data_PCOD9238662
_publ_section_title
;
Structure prediction by ZEFSAII (Michael W. Deem and Ramdas Pophale) SiO2 
 PCOD9238662
Probable space group: P 2/C
;
_chemical_formula_sum "Si O2"
_cell_formula_units_Z 14
_cell_length_a 8.213239
_cell_length_b 9.445899
_cell_length_c 12.036502
_cell_angle_alpha 90.000000
_cell_angle_beta 37.148932
_cell_angle_gamma 90.000000
_cell_volume 563.916906
_symmetry_space_group_name_H-M "P 2/C"
_symmetry_group_IT_number 13
_symmetry_cell_setting 'monoclinic'
loop_
_space_group_symop_operation_xyz
x,y,z
-x,y,1/2-z
-x,-y,-z
x,-y,1/2+z
loop_
_atom_site_type_symbol
_atom_site_label
_atom_site_fract_x
_atom_site_fract_y
_atom_site_fract_z
Si Si1 0.000000 0.548546 0.750000
Si Si2 0.757333 0.746326 0.035063
Si Si3 0.275562 0.948707 0.035898
Si Si4 0.774549 0.341631 0.056987
O O1 0.235691 0.662264 0.586816
O O2 0.049809 0.438424 0.621789
O O3 0.500000 0.715333 0.250000
O O4 0.027400 0.699207 0.951100
O O5 0.767123 0.915075 0.017720
O O6 0.000000 0.923960 0.250000
O O7 0.326917 0.801986 0.946732
O O8 0.500000 0.000000 0.000000
O O9 0.500000 0.412786 0.250000
#
# Coordination Sequence:
#
# PCOD9238662 Si02
#       4
#     2   4   4   4
#     4  12  28  48  76 104 158 182 246 290 366 436
#     4  12  27  48  75 109 145 191 242 296 363 426
#     4  12  24  48  78 105 143 190 242 303 356 418
#     4  12  27  48  75 109 145 191 242 296 363 426
#
# _framework density 24.826352
#
# number of rings (size 3 to 8) (size 9 to 14) (size 15 to 20)
#    0.000    0.000    2.857    6.857    0.000    2.286 
#    0.000    0.000    0.000    0.000    0.000    0.000 
#    0.000    0.000    0.000    0.000    0.000    0.000 
#
# Total GULP energy -78305.404814 kJ/mol
# GULP energy per Si atom -5593.243201 kJ/mol
# Density = 2.476985 g / cm^3
# Si number density = 24.826352 Si / 1000 Ang^3
#
#
#
# Elastic Constant Matrix: (Units=GPa)
#
#
# Indices 1 2 3 4 5 6 
#
# 1 88.5832 3.4065 18.0340 0.0000 -7.6344 0.0000
# 2 3.4065 178.4536 21.1597 0.0000 33.4264 0.0000
# 3 18.0340 21.1597 196.2578 0.0000 6.6768 0.0000
# 4 0.0000 0.0000 0.0000 90.4059 0.0000 -9.2931
# 5 -7.6344 33.4264 6.6768 0.0000 30.0516 0.0000
# 6 0.0000 0.0000 0.0000 -9.2931 0.0000 -37.7783
#
#
#
# Elastic Compliance Matrix: (Units=1/GPa)
#
#
# Indices 1 2 3 4 5 6 
#
# 1 0.011925 -0.000893 -0.001145 0.000000 0.004277 0.000000
# 2 -0.000893 0.007194 -0.000417 0.000000 -0.008136 0.000000
# 3 -0.001145 -0.000417 0.005280 0.000000 -0.001000 0.000000
# 4 0.000000 0.000000 0.000000 0.010788 0.000000 -0.002654
# 5 0.004277 -0.008136 -0.001000 0.000000 0.043635 0.000000
# 6 0.000000 0.000000 0.000000 -0.002654 0.000000 -0.025817
#
#
# Mechanical properties :
#
#
# Convention : Reuss Voigt Hill
#
# Bulk Modulus (GPa) = 51.31104 60.94391 56.12747
# Shear Modulus (GPa) = 77.62697 44.58213 61.10455
#
# Velocity S-wave (km/s) = 5.59784 4.24224 4.96651
# Velocity P-wave (km/s) = 7.90531 6.97114 7.45288
#
# Compressibility (1/GPa) = 0.01948898
#
# Stress axis : x y z
#
# Youngs Moduli (GPa) = 83.85820 139.00081 189.41120
#
# Poissons Ratio (x) = 0.12413 0.21688
# Poissons Ratio (y) = 0.07489 0.07894
# Poissons Ratio (z) = 0.09602 0.05793
#
# Static dielectric constant tensor:
#      x y z
#    x 2.006210 0.000000 0.082250 
#    y 0.000000 2.024210 0.000000 
#    z 0.082250 0.000000 1.942020 
# 
# From -- ./inp_files/25237.got.cif
#   From: 2010.05.17/outbox.cif.g08.bks.cpg/sg13_13_cif.got.tgz:25237.got - 2010.06.03 16:44:36.
