data_PCOD9238429
_publ_section_title
;
Structure prediction by ZEFSAII (Michael W. Deem and Ramdas Pophale) SiO2 
 PCOD9238429
Probable space group: P 2/C
;
_chemical_formula_sum "Si O2"
_cell_formula_units_Z 20
_cell_length_a 10.326774
_cell_length_b 9.278050
_cell_length_c 11.943789
_cell_angle_alpha 90.000000
_cell_angle_beta 127.101246
_cell_angle_gamma 90.000000
_cell_volume 912.709887
_symmetry_space_group_name_H-M "P 2/C"
_symmetry_group_IT_number 13
_symmetry_cell_setting 'monoclinic'
loop_
_space_group_symop_operation_xyz
x,y,z
-x,y,1/2-z
-x,-y,-z
x,-y,1/2+z
loop_
_atom_site_type_symbol
_atom_site_label
_atom_site_fract_x
_atom_site_fract_y
_atom_site_fract_z
Si Si1 0.180846 0.743980 0.892435
Si Si2 0.643592 0.742411 0.888446
Si Si3 0.349538 0.562803 0.807578
Si Si4 0.679294 0.758113 0.296121
Si Si5 0.805149 0.939034 0.157189
O O1 0.278177 0.614819 0.886479
O O2 0.000000 0.734672 0.750000
O O3 0.252758 0.896966 0.888400
O O4 0.200479 0.744288 0.035585
O O5 0.500000 0.830712 0.750000
O O6 0.534326 0.620351 0.893007
O O7 0.735184 0.657395 0.836946
O O8 0.741128 0.839076 0.023330
O O9 0.332762 0.396609 0.771225
O O10 0.500000 0.791120 0.250000
O O11 0.743352 0.873604 0.241034
O O12 0.000000 0.940045 0.250000
#
# Coordination Sequence:
#
# PCOD9238429 Si02
#       5
#     4   4   4   4   4
#     4  11  28  45  66 102 145 180 228 284 341 413
#     4   8  20  41  72  88 135 180 217 278 339 390
#     4   9  22  43  69  95 137 174 226 285 334 398
#     4  12  26  44  74 104 133 182 238 280 345 410
#     4  11  27  45  68 102 146 181 227 283 345 409
#
# _framework density 21.912766000000001
#
# number of rings (size 3 to 8) (size 9 to 14) (size 15 to 20)
#    1.200    0.400    2.000    1.200    8.400    8.800 
#    0.000    0.000    0.000    0.000    0.000    0.000 
#    0.000    0.000    0.000    0.000    0.000    0.000 
#
# Total GULP energy -111749.611708 kJ/mol
# GULP energy per Si atom -5587.480585 kJ/mol
# Density = 2.186289 g / cm^3
# Si number density = 21.912766 Si / 1000 Ang^3
#
#
#
# Elastic Constant Matrix: (Units=GPa)
#
#
# Indices 1 2 3 4 5 6 
#
# 1 58.0082 43.5584 27.6330 0.0000 -17.6530 0.0000
# 2 43.5584 117.7532 42.2569 0.0000 -9.1401 0.0000
# 3 27.6330 42.2569 130.5902 0.0000 -6.2207 0.0000
# 4 0.0000 0.0000 0.0000 33.5836 0.0000 8.0175
# 5 -17.6530 -9.1401 -6.2207 0.0000 28.1717 0.0000
# 6 0.0000 0.0000 0.0000 8.0175 0.0000 61.1601
#
#
#
# Elastic Compliance Matrix: (Units=1/GPa)
#
#
# Indices 1 2 3 4 5 6 
#
# 1 0.029828 -0.008879 -0.002714 0.000000 0.015211 0.000000
# 2 -0.008879 0.012422 -0.002237 0.000000 -0.002028 0.000000
# 3 -0.002714 -0.002237 0.008934 0.000000 -0.000454 0.000000
# 4 0.000000 0.000000 0.000000 0.030738 0.000000 -0.004030
# 5 0.015211 -0.002028 -0.000454 0.000000 0.044270 0.000000
# 6 0.000000 0.000000 0.000000 -0.004030 0.000000 0.016879
#
#
# Mechanical properties :
#
#
# Convention : Reuss Voigt Hill
#
# Bulk Modulus (GPa) = 42.51048 59.24980 50.88014
# Shear Modulus (GPa) = 27.99956 37.44331 32.72144
#
# Velocity S-wave (km/s) = 3.57847 4.13818 3.86846
# Velocity P-wave (km/s) = 6.04284 7.06614 6.57443
#
# Compressibility (1/GPa) = 0.02352361
#
# Stress axis : x y z
#
# Youngs Moduli (GPa) = 33.52540 80.49965 111.92958
#
# Poissons Ratio (x) = 0.71477 0.30377
# Poissons Ratio (y) = 0.29768 0.25043
# Poissons Ratio (z) = 0.09099 0.18011
#
# Static dielectric constant tensor:
#      x y z
#    x 1.792270 0.000000 -0.011490 
#    y 0.000000 1.777510 0.000000 
#    z -0.011490 0.000000 1.836700 
# 
# From -- ./inp_files/32761.got.cif
#   From: 2010.05.17/outbox.cif.g08.bks.cpg/sg13_17_cif.got.tgz:32761.got - 2010.06.03 16:44:36.
