data_PCOD9238723
_publ_section_title
;
Structure prediction by ZEFSAII (Michael W. Deem and Ramdas Pophale) SiO2 
 PCOD9238723
Probable space group: P 2/C
;
_chemical_formula_sum "Si O2"
_cell_formula_units_Z 14
_cell_length_a 24.095860
_cell_length_b 5.020665
_cell_length_c 17.677145
_cell_angle_alpha 90.000000
_cell_angle_beta 164.473694
_cell_angle_gamma 90.000000
_cell_volume 572.443967
_symmetry_space_group_name_H-M "P 2/C"
_symmetry_group_IT_number 13
_symmetry_cell_setting 'monoclinic'
loop_
_space_group_symop_operation_xyz
x,y,z
-x,y,1/2-z
-x,-y,-z
x,-y,1/2+z
loop_
_atom_site_type_symbol
_atom_site_label
_atom_site_fract_x
_atom_site_fract_y
_atom_site_fract_z
Si Si1 0.728668 0.860142 0.026654
Si Si2 0.191541 0.336903 0.282452
Si Si3 0.638475 0.254956 0.158419
Si Si4 0.000000 0.192138 0.750000
O O1 0.728940 0.549201 0.049978
O O2 0.805709 0.916970 0.043378
O O3 0.869895 0.059087 0.260643
O O4 0.500000 0.956874 0.750000
O O5 0.327615 0.273522 0.387244
O O6 0.000000 0.500000 0.000000
O O7 0.859349 0.293697 0.493472
O O8 0.500000 0.500000 0.000000
O O9 0.500000 0.000000 0.000000
#
# Coordination Sequence:
#
# PCOD9238723 Si02
#       4
#     4   4   4   2
#     4  12  27  48  76 113 149 201 259 316 383 468
#     4  12  25  49  74 102 156 198 244 313 393 451
#     4  12  28  49  76 114 151 199 261 317 384 467
#     4  12  28  48  82 110 156 200 258 324 386 450
#
# _framework density 24.456544000000001
#
# number of rings (size 3 to 8) (size 9 to 14) (size 15 to 20)
#    0.000    0.000    2.857    6.857    4.000    4.571 
#    0.000    0.000    0.000    0.000    0.000    0.000 
#    0.000    0.000    0.000    0.000    0.000    0.000 
#
# Total GULP energy -78017.503685 kJ/mol
# GULP energy per Si atom -5572.678835 kJ/mol
# Density = 2.440088 g / cm^3
# Si number density = 24.456544 Si / 1000 Ang^3
#
#
#
# Elastic Constant Matrix: (Units=GPa)
#
#
# Indices 1 2 3 4 5 6 
#
# 1 238.4667 52.6954 -2.6477 0.0000 21.1831 0.0000
# 2 52.6954 155.1495 4.8272 0.0000 6.5978 0.0000
# 3 -2.6477 4.8272 93.1112 0.0000 2.3854 0.0000
# 4 0.0000 0.0000 0.0000 34.3528 0.0000 11.1553
# 5 21.1831 6.5978 2.3854 0.0000 44.6550 0.0000
# 6 0.0000 0.0000 0.0000 11.1553 0.0000 10.0440
#
#
#
# Elastic Compliance Matrix: (Units=1/GPa)
#
#
# Indices 1 2 3 4 5 6 
#
# 1 0.004713 -0.001523 0.000265 0.000000 -0.002025 0.000000
# 2 -0.001523 0.006987 -0.000398 0.000000 -0.000289 0.000000
# 3 0.000265 -0.000398 0.010784 0.000000 -0.000643 0.000000
# 4 0.000000 0.000000 0.000000 0.045531 0.000000 -0.050569
# 5 -0.002025 -0.000289 -0.000643 0.000000 0.023431 0.000000
# 6 0.000000 0.000000 0.000000 -0.050569 0.000000 0.155726
#
#
# Mechanical properties :
#
#
# Convention : Reuss Voigt Hill
#
# Bulk Modulus (GPa) = 52.15861 66.27526 59.21693
# Shear Modulus (GPa) = 19.46465 46.60053 33.03259
#
# Velocity S-wave (km/s) = 2.82421 4.36987 3.67913
# Velocity P-wave (km/s) = 5.65758 7.25390 6.50489
#
# Compressibility (1/GPa) = 0.01917229
#
# Stress axis : x y z
#
# Youngs Moduli (GPa) = 212.18993 143.11749 92.72574
#
# Poissons Ratio (x) = 0.21794 -0.02456
# Poissons Ratio (y) = 0.32312 0.03692
# Poissons Ratio (z) = -0.05619 0.05698
#
# Static dielectric constant tensor:
#      x y z
#    x 2.076660 0.000000 -0.009400 
#    y 0.000000 1.890820 0.000000 
#    z -0.009400 0.000000 2.198990 
# 
# From -- ./inp_files/44966.got.cif
#   From: 2010.05.17/outbox.cif.g08.bks.cpg/sg13_23_cif.got.tgz:44966.got - 2010.06.03 16:44:36.
