data_PCOD9238686
_publ_section_title
;
Structure prediction by ZEFSAII (Michael W. Deem and Ramdas Pophale) SiO2 
 PCOD9238686
Probable space group: P 2/C
;
_chemical_formula_sum "Si O2"
_cell_formula_units_Z 16
_cell_length_a 11.141068
_cell_length_b 5.037138
_cell_length_c 21.701481
_cell_angle_alpha 90.000000
_cell_angle_beta 26.736332
_cell_angle_gamma 90.000000
_cell_volume 547.900823
_symmetry_space_group_name_H-M "P 2/C"
_symmetry_group_IT_number 13
_symmetry_cell_setting 'monoclinic'
loop_
_space_group_symop_operation_xyz
x,y,z
-x,y,1/2-z
-x,-y,-z
x,-y,1/2+z
loop_
_atom_site_type_symbol
_atom_site_label
_atom_site_fract_x
_atom_site_fract_y
_atom_site_fract_z
Si Si1 0.124666 0.129026 0.134932
Si Si2 0.460934 0.446665 0.840220
Si Si3 0.452305 0.651397 0.571930
Si Si4 0.841191 0.956407 0.511020
O O1 0.337427 0.389809 0.047669
O O2 0.821499 0.145193 0.303776
O O3 0.314899 0.870122 0.040408
O O4 0.036277 0.110613 0.102728
O O5 0.500000 0.513256 0.750000
O O6 0.627162 0.511762 0.826122
O O7 0.211926 0.643984 0.970068
O O8 0.427588 0.129727 0.857148
O O9 0.000000 0.000000 0.500000
#
# Coordination Sequence:
#
# PCOD9238686 Si02
#       4
#     4   4   4   4
#     4   8  20  40  69 105 138 184 227 298 347 414
#     4  12  25  44  70 100 141 189 232 291 349 421
#     4   9  18  42  70 100 140 178 239 279 355 411
#     4  12  25  45  67 104 142 183 235 290 354 415
#
# _framework density 29.202366000000001
#
# number of rings (size 3 to 8) (size 9 to 14) (size 15 to 20)
#    1.500    0.000    2.500    3.000    0.000    1.000 
#    0.000    3.750    0.000    0.000    0.000    0.000 
#    0.000    0.000    0.000    0.000    0.000    0.000 
#
# Total GULP energy -89182.065075 kJ/mol
# GULP energy per Si atom -5573.879067 kJ/mol
# Density = 2.913590 g / cm^3
# Si number density = 29.202366 Si / 1000 Ang^3
#
#
#
# Elastic Constant Matrix: (Units=GPa)
#
#
# Indices 1 2 3 4 5 6 
#
# 1 203.8567 54.6778 84.6757 0.0000 48.9675 0.0000
# 2 54.6778 200.4412 81.1689 0.0000 -4.5184 0.0000
# 3 84.6757 81.1689 193.5705 0.0000 52.2818 0.0000
# 4 0.0000 0.0000 0.0000 30.0306 0.0000 0.9884
# 5 48.9675 -4.5184 52.2818 0.0000 70.8742 0.0000
# 6 0.0000 0.0000 0.0000 0.9884 0.0000 54.4640
#
#
#
# Elastic Compliance Matrix: (Units=1/GPa)
#
#
# Indices 1 2 3 4 5 6 
#
# 1 0.006736 -0.001370 -0.001363 0.000000 -0.003736 0.000000
# 2 -0.001370 0.006768 -0.003261 0.000000 0.003783 0.000000
# 3 -0.001363 -0.003261 0.008656 0.000000 -0.005651 0.000000
# 4 0.000000 0.000000 0.000000 0.033319 0.000000 -0.000605
# 5 -0.003736 0.003783 -0.005651 0.000000 0.021101 0.000000
# 6 0.000000 0.000000 0.000000 -0.000605 0.000000 0.018372
#
#
# Mechanical properties :
#
#
# Convention : Reuss Voigt Hill
#
# Bulk Modulus (GPa) = 98.29788 115.43480 106.86634
# Shear Modulus (GPa) = 45.31791 56.23016 50.77403
#
# Velocity S-wave (km/s) = 3.94364 4.39285 4.17429
# Velocity P-wave (km/s) = 7.38040 8.08360 7.73999
#
# Compressibility (1/GPa) = 0.01017316
#
# Stress axis : x y z
#
# Youngs Moduli (GPa) = 148.44532 147.74577 115.52394
#
# Poissons Ratio (x) = 0.20237 0.15751
# Poissons Ratio (y) = 0.20333 0.37670
# Poissons Ratio (z) = 0.20240 0.48177
#
# Static dielectric constant tensor:
#      x y z
#    x 2.694380 0.000000 -0.012670 
#    y 0.000000 2.115350 0.000000 
#    z -0.012670 0.000000 2.375340 
# 
# From -- ./inp_files/31261.got.cif
#   From: 2010.05.17/outbox.cif.g08.bks.cpg/sg13_16_cif.got.tgz:31261.got - 2010.06.03 16:44:36.
