data_PCOD9238332
_publ_section_title
;
Structure prediction by ZEFSAII (Michael W. Deem and Ramdas Pophale) SiO2 
 PCOD9238332
Probable space group: P 2/C
;
_chemical_formula_sum "Si O2"
_cell_formula_units_Z 16
_cell_length_a 7.643049
_cell_length_b 9.126646
_cell_length_c 11.159143
_cell_angle_alpha 90.000000
_cell_angle_beta 59.682937
_cell_angle_gamma 90.000000
_cell_volume 671.959186
_symmetry_space_group_name_H-M "P 2/C"
_symmetry_group_IT_number 13
_symmetry_cell_setting 'monoclinic'
loop_
_space_group_symop_operation_xyz
x,y,z
-x,y,1/2-z
-x,-y,-z
x,-y,1/2+z
loop_
_atom_site_type_symbol
_atom_site_label
_atom_site_fract_x
_atom_site_fract_y
_atom_site_fract_z
Si Si1 0.676746 0.948010 0.025518
Si Si2 0.000000 0.078284 0.750000
Si Si3 0.500000 0.820991 0.750000
Si Si4 0.827410 0.702431 0.117598
Si Si5 0.843497 0.621248 0.693262
O O1 0.672910 0.787387 0.083485
O O2 0.658451 0.069236 0.134695
O O3 0.500000 0.000000 0.000000
O O4 0.878323 0.974929 0.881368
O O5 0.868472 0.186583 0.712567
O O6 0.642546 0.718487 0.782188
O O7 0.773888 0.544000 0.187027
O O8 0.030693 0.676772 0.967055
O O9 0.000000 0.620113 0.750000
#
# Coordination Sequence:
#
# PCOD9238332 Si02
#       5
#     4   2   2   4   4
#     4  12  27  45  73 110 152 197 257 308 382 450
#     4  12  24  46  74 106 152 198 238 320 376 446
#     4  12  26  46  74 116 146 194 262 308 370 466
#     4  11  25  48  72 107 149 197 252 306 382 452
#     4  11  25  48  76 108 153 201 250 312 380 449
#
# _framework density 23.810970999999999
#
# number of rings (size 3 to 8) (size 9 to 14) (size 15 to 20)
#    0.000    0.500    3.750    3.750    5.250    3.000 
#    0.000    5.000    0.000    0.000    0.000    0.000 
#    0.000    0.000    0.000    0.000    0.000    0.000 
#
# Total GULP energy -89571.332335 kJ/mol
# GULP energy per Si atom -5598.208271 kJ/mol
# Density = 2.375678 g / cm^3
# Si number density = 23.810971 Si / 1000 Ang^3
#
#
#
# Elastic Constant Matrix: (Units=GPa)
#
#
# Indices 1 2 3 4 5 6 
#
# 1 113.5816 64.4614 4.8823 0.0000 11.5733 0.0000
# 2 64.4614 165.2317 33.5543 0.0000 6.9293 0.0000
# 3 4.8823 33.5543 97.4651 0.0000 -1.2851 0.0000
# 4 0.0000 0.0000 0.0000 108.1509 0.0000 -154.8950
# 5 11.5733 6.9293 -1.2851 0.0000 32.4888 0.0000
# 6 0.0000 0.0000 0.0000 -154.8950 0.0000 337.4699
#
#
#
# Elastic Compliance Matrix: (Units=1/GPa)
#
#
# Indices 1 2 3 4 5 6 
#
# 1 0.011713 -0.004634 0.000967 0.000000 -0.003146 0.000000
# 2 -0.004634 0.008412 -0.002667 0.000000 -0.000249 0.000000
# 3 0.000967 -0.002667 0.011139 0.000000 0.000665 0.000000
# 4 0.000000 0.000000 0.000000 0.026986 0.000000 0.012386
# 5 -0.003146 -0.000249 0.000665 0.000000 0.031980 0.000000
# 6 0.000000 0.000000 0.000000 0.012386 0.000000 0.008648
#
#
# Mechanical properties :
#
#
# Convention : Reuss Voigt Hill
#
# Bulk Modulus (GPa) = 53.77592 64.67492 59.22542
# Shear Modulus (GPa) = 42.46450 113.84730 78.15590
#
# Velocity S-wave (km/s) = 4.22761 6.92219 5.73539
# Velocity P-wave (km/s) = 6.81644 9.54514 8.29378
#
# Compressibility (1/GPa) = 0.01859568
#
# Stress axis : x y z
#
# Youngs Moduli (GPa) = 85.37346 118.87670 89.77763
#
# Poissons Ratio (x) = 0.55089 -0.08683
# Poissons Ratio (y) = 0.39563 0.23945
# Poissons Ratio (z) = -0.08257 0.31706
#
# Static dielectric constant tensor:
#      x y z
#    x 1.957140 0.000000 0.027320 
#    y 0.000000 1.878660 0.000000 
#    z 0.027320 0.000000 1.967350 
# 
# From -- ./inp_files/27587.got.cif
#   From: 2010.05.17/outbox.cif.g08.bks.cpg/sg13_14_cif.got.tgz:27587.got - 2010.06.03 16:44:36.
