data_PCOD9238075
_publ_section_title
;
Structure prediction by ZEFSAII (Michael W. Deem and Ramdas Pophale) SiO2 
 PCOD9238075
Probable space group: P 2/C
;
_chemical_formula_sum "Si O2"
_cell_formula_units_Z 22
_cell_length_a 20.576168
_cell_length_b 9.194532
_cell_length_c 12.846996
_cell_angle_alpha 90.000000
_cell_angle_beta 157.378572
_cell_angle_gamma 90.000000
_cell_volume 934.869089
_symmetry_space_group_name_H-M "P 2/C"
_symmetry_group_IT_number 13
_symmetry_cell_setting 'monoclinic'
loop_
_space_group_symop_operation_xyz
x,y,z
-x,y,1/2-z
-x,-y,-z
x,-y,1/2+z
loop_
_atom_site_type_symbol
_atom_site_label
_atom_site_fract_x
_atom_site_fract_y
_atom_site_fract_z
Si Si1 0.500000 0.939974 0.250000
Si Si2 0.609472 0.825571 0.067133
Si Si3 0.139908 0.507392 0.798389
Si Si4 0.500000 0.420335 0.250000
Si Si5 0.000000 0.272000 0.750000
Si Si6 0.052341 0.999744 0.457090
Si Si7 0.751211 0.189489 0.987185
O O1 0.661988 0.842515 0.465583
O O2 0.503967 0.046832 0.355580
O O3 0.798433 0.882964 0.326060
O O4 0.606733 0.799756 0.185809
O O5 0.560519 0.681872 0.933980
O O6 0.109026 0.378734 0.836808
O O7 0.137555 0.665611 0.847176
O O8 0.000000 0.500000 0.500000
O O9 0.330257 0.499317 0.035039
O O10 0.089373 0.158841 0.962724
O O11 0.877875 0.058183 0.148935
O O12 0.000000 0.000000 0.500000
#
# Coordination Sequence:
#
# PCOD9238075 Si02
#       7
#     2   4   4   2   2   4   4
#     4  11  25  42  70 106 148 188 248 324 370 452
#     4  11  24  43  75 106 147 185 259 315 382 437
#     4  12  30  51  77 113 161 207 257 317 397 470
#     4  11  27  52  76 112 160 204 256 328 388 466
#     4  12  28  46  80 114 150 208 260 318 396 462
#     4  12  23  46  77 106 142 198 260 320 383 456
#     4  12  25  45  74 105 146 199 251 308 387 458
#
# _framework density 23.532706000000001
#
# number of rings (size 3 to 8) (size 9 to 14) (size 15 to 20)
#    0.000    0.364    3.636    4.364    7.636    2.182 
#    0.000    0.000    0.000    0.000    0.000    0.000 
#    0.000    0.000    0.000    0.000    0.000    0.000 
#
# Total GULP energy -122904.585929 kJ/mol
# GULP energy per Si atom -5586.572088 kJ/mol
# Density = 2.347914 g / cm^3
# Si number density = 23.532706 Si / 1000 Ang^3
#
#
#
# Elastic Constant Matrix: (Units=GPa)
#
#
# Indices 1 2 3 4 5 6 
#
# 1 77.9404 33.7335 27.6989 0.0000 -1.5188 0.0000
# 2 33.7335 118.2129 21.9041 0.0000 -0.7571 0.0000
# 3 27.6989 21.9041 92.4001 0.0000 0.2650 0.0000
# 4 0.0000 0.0000 0.0000 13.4485 0.0000 19.7086
# 5 -1.5188 -0.7571 0.2650 0.0000 57.9020 0.0000
# 6 0.0000 0.0000 0.0000 19.7086 0.0000 21.3088
#
#
#
# Elastic Compliance Matrix: (Units=1/GPa)
#
#
# Indices 1 2 3 4 5 6 
#
# 1 0.015855 -0.003808 -0.003851 0.000000 0.000384 0.000000
# 2 -0.003808 0.009764 -0.001173 0.000000 0.000033 0.000000
# 3 -0.003851 -0.001173 0.012256 0.000000 -0.000172 0.000000
# 4 0.000000 0.000000 0.000000 -0.209203 0.000000 0.193493
# 5 0.000384 0.000033 -0.000172 0.000000 0.017282 0.000000
# 6 0.000000 0.000000 0.000000 0.193493 0.000000 -0.132033
#
#
# Mechanical properties :
#
#
# Convention : Reuss Voigt Hill
#
# Bulk Modulus (GPa) = 49.48288 50.58073 50.03180
# Shear Modulus (GPa) = -19.10734 32.21298 6.55282
#
# Velocity S-wave (km/s) = -2.85256 3.70382 1.67051
# Velocity P-wave (km/s) = 3.19741 6.31122 5.00275
#
# Compressibility (1/GPa) = 0.02020901
#
# Stress axis : x y z
#
# Youngs Moduli (GPa) = 63.07282 102.42100 81.59592
#
# Poissons Ratio (x) = 0.39005 0.31423
# Poissons Ratio (y) = 0.24020 0.09571
# Poissons Ratio (z) = 0.24290 0.12014
#
# Static dielectric constant tensor:
#      x y z
#    x 2.107780 0.000000 -0.035290 
#    y 0.000000 1.908960 0.000000 
#    z -0.035290 0.000000 1.966120 
# 
# From -- ./inp_files/58768.got.cif
#   From: 2010.05.17/outbox.cif.g08.bks.cpg/sg13_30_cif.got.tgz:58768.got - 2010.06.03 16:44:36.
