data_PCOD9238453
_publ_section_title
;
Structure prediction by ZEFSAII (Michael W. Deem and Ramdas Pophale) SiO2 
 PCOD9238453
Probable space group: P 2/C
;
_chemical_formula_sum "Si O2"
_cell_formula_units_Z 14
_cell_length_a 8.047794
_cell_length_b 4.798559
_cell_length_c 17.673772
_cell_angle_alpha 90.000000
_cell_angle_beta 46.268219
_cell_angle_gamma 90.000000
_cell_volume 493.179672
_symmetry_space_group_name_H-M "P 2/C"
_symmetry_group_IT_number 13
_symmetry_cell_setting 'monoclinic'
loop_
_space_group_symop_operation_xyz
x,y,z
-x,y,1/2-z
-x,-y,-z
x,-y,1/2+z
loop_
_atom_site_type_symbol
_atom_site_label
_atom_site_fract_x
_atom_site_fract_y
_atom_site_fract_z
Si Si1 0.500000 0.440858 0.250000
Si Si2 0.935229 0.797627 0.122520
Si Si3 0.341153 0.040660 0.163150
Si Si4 0.767766 0.715136 0.962888
O O1 0.715068 0.637504 0.158827
O O2 0.431739 0.244634 0.201161
O O3 0.845086 0.852419 0.235568
O O4 0.157637 0.601074 0.050300
O O5 0.022184 0.099937 0.069711
O O6 0.251134 0.216844 0.120474
O O7 0.535447 0.833471 0.070641
#
# Coordination Sequence:
#
# PCOD9238453 Si02
#       4
#     2   4   4   4
#     4  12  28  48  74 116 162 194 242 328 370 450
#     4  12  27  49  77 112 150 202 248 318 371 447
#     4  11  28  52  75 118 152 197 258 315 365 469
#     4  11  29  48  85 106 150 207 259 299 384 445
#
# _framework density 28.387219000000002
#
# number of rings (size 3 to 8) (size 9 to 14) (size 15 to 20)
#    0.000    0.571    2.857    1.714   12.000    4.571 
#    0.000    0.000    0.000    0.000    0.000    0.000 
#    0.000    0.000    0.000    0.000    0.000    0.000 
#
# Total GULP energy -78688.454736 kJ/mol
# GULP energy per Si atom -5620.603910 kJ/mol
# Density = 2.832261 g / cm^3
# Si number density = 28.387219 Si / 1000 Ang^3
#
#
#
# Elastic Constant Matrix: (Units=GPa)
#
#
# Indices 1 2 3 4 5 6 
#
# 1 146.8247 19.2747 -21.8874 0.0000 28.8035 0.0000
# 2 19.2747 129.0313 6.4781 0.0000 -7.5101 0.0000
# 3 -21.8874 6.4781 91.6181 0.0000 -11.0448 0.0000
# 4 0.0000 0.0000 0.0000 56.4302 0.0000 -8.3751
# 5 28.8035 -7.5101 -11.0448 0.0000 55.8179 0.0000
# 6 0.0000 0.0000 0.0000 -8.3751 0.0000 35.2578
#
#
#
# Elastic Compliance Matrix: (Units=1/GPa)
#
#
# Indices 1 2 3 4 5 6 
#
# 1 0.008032 -0.001512 0.001538 0.000000 -0.004044 0.000000
# 2 -0.001512 0.008113 -0.000727 0.000000 0.001728 0.000000
# 3 0.001538 -0.000727 0.011501 0.000000 0.001384 0.000000
# 4 0.000000 0.000000 0.000000 0.018369 0.000000 0.004363
# 5 -0.004044 0.001728 0.001384 0.000000 0.020509 0.000000
# 6 0.000000 0.000000 0.000000 0.004363 0.000000 0.029399
#
#
# Mechanical properties :
#
#
# Convention : Reuss Voigt Hill
#
# Bulk Modulus (GPa) = 38.10378 41.68945 39.89661
# Shear Modulus (GPa) = 47.13812 53.74176 50.43994
#
# Velocity S-wave (km/s) = 4.07939 4.35577 4.21985
# Velocity P-wave (km/s) = 5.96998 6.32573 6.15043
#
# Compressibility (1/GPa) = 0.02624412
#
# Stress axis : x y z
#
# Youngs Moduli (GPa) = 124.50200 123.25814 86.95199
#
# Poissons Ratio (x) = 0.18642 -0.13376
# Poissons Ratio (y) = 0.18830 0.06318
# Poissons Ratio (z) = -0.19152 0.08956
#
# Static dielectric constant tensor:
#      x y z
#    x 2.279240 0.000000 -0.004860 
#    y 0.000000 2.100250 0.000000 
#    z -0.004860 0.000000 2.182510 
# 
# From -- ./inp_files/44714.got.cif
#   From: 2010.05.17/outbox.cif.g08.bks.cpg/sg13_23_cif.got.tgz:44714.got - 2010.06.03 16:44:36.
