data_PCOD9238709
_publ_section_title
;
Structure prediction by ZEFSAII (Michael W. Deem and Ramdas Pophale) SiO2 
 PCOD9238709
Probable space group: P 2/C
;
_chemical_formula_sum "Si O2"
_cell_formula_units_Z 14
_cell_length_a 16.697245
_cell_length_b 5.108150
_cell_length_c 22.152941
_cell_angle_alpha 90.000000
_cell_angle_beta 19.689166
_cell_angle_gamma 90.000000
_cell_volume 636.594782
_symmetry_space_group_name_H-M "P 2/C"
_symmetry_group_IT_number 13
_symmetry_cell_setting 'monoclinic'
loop_
_space_group_symop_operation_xyz
x,y,z
-x,y,1/2-z
-x,-y,-z
x,-y,1/2+z
loop_
_atom_site_type_symbol
_atom_site_label
_atom_site_fract_x
_atom_site_fract_y
_atom_site_fract_z
Si Si1 0.333573 0.247339 0.119629
Si Si2 0.000000 0.372866 0.250000
Si Si3 0.739672 0.097794 0.197262
Si Si4 0.525813 0.410714 0.660439
O O1 0.144958 0.231513 0.200003
O O2 0.227421 0.230512 0.260922
O O3 0.500000 0.500000 0.000000
O O4 0.500000 0.000000 0.000000
O O5 0.779984 0.490797 0.447566
O O6 0.637057 0.332606 0.230224
O O7 0.570529 0.842531 0.308494
O O8 0.000000 0.000000 0.000000
O O9 0.500000 0.337947 0.750000
#
# Coordination Sequence:
#
# PCOD9238709 Si02
#       4
#     4   2   4   4
#     4  12  25  47  73 111 153 197 258 316 386 468
#     4  12  26  48  80 108 158 198 258 316 392 456
#     4  12  25  49  74 108 159 201 255 327 389 463
#     4  12  27  47  75 114 152 204 261 319 390 466
#
# _framework density 21.992011999999999
#
# number of rings (size 3 to 8) (size 9 to 14) (size 15 to 20)
#    0.000    0.000    5.714    3.429    0.000    6.857 
#    0.000    0.000    0.000    0.000    0.000    0.000 
#    0.000    0.000    0.000    0.000    0.000    0.000 
#
# Total GULP energy -78037.245500 kJ/mol
# GULP energy per Si atom -5574.088964 kJ/mol
# Density = 2.194196 g / cm^3
# Si number density = 21.992012 Si / 1000 Ang^3
#
#
#
# Elastic Constant Matrix: (Units=GPa)
#
#
# Indices 1 2 3 4 5 6 
#
# 1 147.6933 36.9753 68.8148 0.0000 -2.3422 0.0000
# 2 36.9753 144.0073 39.4915 0.0000 -17.9287 0.0000
# 3 68.8148 39.4915 130.3869 0.0000 9.5299 0.0000
# 4 0.0000 0.0000 0.0000 38.1174 0.0000 3.1097
# 5 -2.3422 -17.9287 9.5299 0.0000 52.7542 0.0000
# 6 0.0000 0.0000 0.0000 3.1097 0.0000 31.2780
#
#
#
# Elastic Compliance Matrix: (Units=1/GPa)
#
#
# Indices 1 2 3 4 5 6 
#
# 1 0.009181 -0.000978 -0.004615 0.000000 0.000909 0.000000
# 2 -0.000978 0.008187 -0.002192 0.000000 0.003135 0.000000
# 3 -0.004615 -0.002192 0.010984 0.000000 -0.002934 0.000000
# 4 0.000000 0.000000 0.000000 0.026449 0.000000 -0.002630
# 5 0.000909 0.003135 -0.002934 0.000000 0.020592 0.000000
# 6 0.000000 0.000000 0.000000 -0.002630 0.000000 0.032233
#
#
# Mechanical properties :
#
#
# Convention : Reuss Voigt Hill
#
# Bulk Modulus (GPa) = 78.25349 79.18340 78.71844
# Shear Modulus (GPa) = 39.22896 42.88366 41.05631
#
# Velocity S-wave (km/s) = 4.22807 4.42063 4.32542
# Velocity P-wave (km/s) = 7.71332 7.88287 7.79856
#
# Compressibility (1/GPa) = 0.01277898
#
# Stress axis : x y z
#
# Youngs Moduli (GPa) = 108.92566 122.14753 91.04281
#
# Poissons Ratio (x) = 0.11950 0.42020
# Poissons Ratio (y) = 0.10657 0.19960
# Poissons Ratio (z) = 0.50273 0.26780
#
# Static dielectric constant tensor:
#      x y z
#    x 2.222640 0.000000 0.224170 
#    y 0.000000 1.765600 0.000000 
#    z 0.224170 0.000000 1.910060 
# 
# From -- ./inp_files/27069.got.cif
#   From: 2010.05.17/outbox.cif.g08.bks.cpg/sg13_14_cif.got.tgz:27069.got - 2010.06.03 16:44:36.
