data_PCOD9238688
_publ_section_title
;
Structure prediction by ZEFSAII (Michael W. Deem and Ramdas Pophale) SiO2 
 PCOD9238688
Probable space group: P 2/C
;
_chemical_formula_sum "Si O2"
_cell_formula_units_Z 12
_cell_length_a 14.065923
_cell_length_b 4.960807
_cell_length_c 9.063072
_cell_angle_alpha 90.000000
_cell_angle_beta 124.261320
_cell_angle_gamma 90.000000
_cell_volume 522.670005
_symmetry_space_group_name_H-M "P 2/C"
_symmetry_group_IT_number 13
_symmetry_cell_setting 'monoclinic'
loop_
_space_group_symop_operation_xyz
x,y,z
-x,y,1/2-z
-x,-y,-z
x,-y,1/2+z
loop_
_atom_site_type_symbol
_atom_site_label
_atom_site_fract_x
_atom_site_fract_y
_atom_site_fract_z
Si Si1 0.949872 0.254096 0.043546
Si Si2 0.682191 0.729451 0.365703
Si Si3 0.400128 0.222701 0.375440
O O1 0.000000 0.236352 0.250000
O O2 0.813967 0.312595 0.937081
O O3 0.000000 0.500000 0.000000
O O4 0.000000 0.000000 0.000000
O O5 0.660487 0.716986 0.521551
O O6 0.664504 0.037936 0.300273
O O7 0.598366 0.514771 0.206490
O O8 0.500000 0.000000 0.500000
#
# Coordination Sequence:
#
# PCOD9238688 Si02
#       3
#     4   4   4
#     4  12  25  44  71 105 142 185 232 287 354 425
#     4  12  25  47  71 103 142 185 234 293 351 421
#     4  12  27  47  72 102 139 186 236 292 354 416
#
# _framework density 22.959036000000001
#
# number of rings (size 3 to 8) (size 9 to 14) (size 15 to 20)
#    0.000    0.000    0.000   11.000    0.000    2.667 
#    0.000    0.000    0.000    0.000    0.000    0.000 
#    0.000    0.000    0.000    0.000    0.000    0.000 
#
# Total GULP energy -66998.470743 kJ/mol
# GULP energy per Si atom -5583.205895 kJ/mol
# Density = 2.290678 g / cm^3
# Si number density = 22.959036 Si / 1000 Ang^3
#
#
#
# Elastic Constant Matrix: (Units=GPa)
#
#
# Indices 1 2 3 4 5 6 
#
# 1 111.5030 42.3748 10.6761 0.0000 -22.7204 0.0000
# 2 42.3748 204.7196 31.6808 0.0000 -30.4358 0.0000
# 3 10.6761 31.6808 60.0910 0.0000 -40.7801 0.0000
# 4 0.0000 0.0000 0.0000 40.9917 0.0000 -64.6012
# 5 -22.7204 -30.4358 -40.7801 0.0000 68.7313 0.0000
# 6 0.0000 0.0000 0.0000 -64.6012 0.0000 -342.6653
#
#
#
# Elastic Compliance Matrix: (Units=1/GPa)
#
#
# Indices 1 2 3 4 5 6 
#
# 1 0.010226 -0.001834 0.001495 0.000000 0.003455 0.000000
# 2 -0.001834 0.005703 -0.002308 0.000000 0.000550 0.000000
# 3 0.001495 -0.002308 0.028852 0.000000 0.016591 0.000000
# 4 0.000000 0.000000 0.000000 0.018807 0.000000 -0.003546
# 5 0.003455 0.000550 0.016591 0.000000 0.025779 0.000000
# 6 0.000000 0.000000 0.000000 -0.003546 0.000000 -0.002250
#
#
# Mechanical properties :
#
#
# Convention : Reuss Voigt Hill
#
# Bulk Modulus (GPa) = 25.32462 60.64190 42.98326
# Shear Modulus (GPa) = 47.36006 -27.14968 10.10519
#
# Velocity S-wave (km/s) = 4.54674 -3.44252 2.10023
# Velocity P-wave (km/s) = 6.21435 3.26637 4.96424
#
# Compressibility (1/GPa) = 0.03948726
#
# Stress axis : x y z
#
# Youngs Moduli (GPa) = 97.78584 175.33619 34.66015
#
# Poissons Ratio (x) = 0.32164 -0.05182
# Poissons Ratio (y) = 0.17938 0.07999
# Poissons Ratio (z) = -0.14621 0.40464
#
# Static dielectric constant tensor:
#      x y z
#    x 1.736100 0.000000 0.050110 
#    y 0.000000 1.838780 0.000000 
#    z 0.050110 0.000000 1.868990 
# 
# From -- ./inp_files/17557.got.cif
#   From: 2010.05.17/outbox.cif.g08.bks.cpg/sg13_9_cif.got.tgz:17557.got - 2010.06.03 16:44:36.
