data_PCOD9238747
_publ_section_title
;
Structure prediction by ZEFSAII (Michael W. Deem and Ramdas Pophale) SiO2 
 PCOD9238747
Probable space group: P 2/C
;
_chemical_formula_sum "Si O2"
_cell_formula_units_Z 16
_cell_length_a 8.696321
_cell_length_b 8.719380
_cell_length_c 17.887406
_cell_angle_alpha 90.000000
_cell_angle_beta 26.860951
_cell_angle_gamma 90.000000
_cell_volume 612.830728
_symmetry_space_group_name_H-M "P 2/C"
_symmetry_group_IT_number 13
_symmetry_cell_setting 'monoclinic'
loop_
_space_group_symop_operation_xyz
x,y,z
-x,y,1/2-z
-x,-y,-z
x,-y,1/2+z
loop_
_atom_site_type_symbol
_atom_site_label
_atom_site_fract_x
_atom_site_fract_y
_atom_site_fract_z
Si Si1 0.531984 0.413693 0.157527
Si Si2 0.654732 0.093522 0.853420
Si Si3 0.092612 0.883177 0.025614
Si Si4 0.831031 0.367663 0.402131
O O1 0.500000 0.502915 0.250000
O O2 0.174143 0.330692 0.297430
O O3 0.795756 0.278128 0.054706
O O4 0.648233 0.506774 0.033830
O O5 0.000000 0.056748 0.750000
O O6 0.789358 0.147736 0.714698
O O7 0.430298 0.226615 0.989559
O O8 0.400319 0.956723 0.941428
O O9 0.000000 0.000000 0.000000
O O10 0.000000 0.418034 0.250000
#
# Coordination Sequence:
#
# PCOD9238747 Si02
#       4
#     4   4   4   4
#     4  12  26  47  75 110 147 195 249 311 377 446
#     4  12  26  47  74 109 151 199 248 309 377 447
#     4  12  26  47  76 112 152 196 250 311 374 448
#     4  12  27  49  75 109 149 194 250 311 374 449
#
# _framework density 26.108350000000002
#
# number of rings (size 3 to 8) (size 9 to 14) (size 15 to 20)
#    0.000    0.000    0.000   10.500    0.000    6.000 
#    0.000    0.000    0.000    0.000    0.000    0.000 
#    0.000    0.000    0.000    0.000    0.000    0.000 
#
# Total GULP energy -89607.854921 kJ/mol
# GULP energy per Si atom -5600.490933 kJ/mol
# Density = 2.604893 g / cm^3
# Si number density = 26.108350 Si / 1000 Ang^3
#
#
#
# Elastic Constant Matrix: (Units=GPa)
#
#
# Indices 1 2 3 4 5 6 
#
# 1 147.8579 55.3060 84.5320 0.0000 34.7145 0.0000
# 2 55.3060 105.4098 61.4996 0.0000 14.2611 0.0000
# 3 84.5320 61.4996 200.0723 0.0000 24.1856 0.0000
# 4 0.0000 0.0000 0.0000 48.2859 0.0000 -7.9242
# 5 34.7145 14.2611 24.1856 0.0000 39.8148 0.0000
# 6 0.0000 0.0000 0.0000 -7.9242 0.0000 37.6816
#
#
#
# Elastic Compliance Matrix: (Units=1/GPa)
#
#
# Indices 1 2 3 4 5 6 
#
# 1 0.011278 -0.003280 -0.002925 0.000000 -0.006882 0.000000
# 2 -0.003280 0.012685 -0.002493 0.000000 -0.000170 0.000000
# 3 -0.002925 -0.002493 0.007106 0.000000 -0.000873 0.000000
# 4 0.000000 0.000000 0.000000 0.021450 0.000000 0.004511
# 5 -0.006882 -0.000170 -0.000873 0.000000 0.031708 0.000000
# 6 0.000000 0.000000 0.000000 0.004511 0.000000 0.027487
#
#
# Mechanical properties :
#
#
# Convention : Reuss Voigt Hill
#
# Bulk Modulus (GPa) = 73.13418 95.11281 84.12349
# Shear Modulus (GPa) = 37.40642 41.95660 39.68151
#
# Velocity S-wave (km/s) = 3.78926 4.01311 3.90279
# Velocity P-wave (km/s) = 6.87148 7.61463 7.25258
#
# Compressibility (1/GPa) = 0.01367350
#
# Stress axis : x y z
#
# Youngs Moduli (GPa) = 88.66827 78.83321 140.72805
#
# Poissons Ratio (x) = 0.25855 0.41163
# Poissons Ratio (y) = 0.29081 0.35083
# Poissons Ratio (z) = 0.25936 0.19653
#
# Static dielectric constant tensor:
#      x y z
#    x 2.093620 0.000000 0.046740 
#    y 0.000000 1.996740 0.000000 
#    z 0.046740 0.000000 2.073600 
# 
# From -- ./inp_files/63625.got.cif
#   From: 2010.05.17/outbox.cif.g08.bks.cpg/sg13_32_cif.got.tgz:63625.got - 2010.06.03 16:44:36.
