data_PCOD9238086
_publ_section_title
;
Structure prediction by ZEFSAII (Michael W. Deem and Ramdas Pophale) SiO2 
 PCOD9238086
Probable space group: P 2/C
;
_chemical_formula_sum "Si O2"
_cell_formula_units_Z 18
_cell_length_a 6.690616
_cell_length_b 8.267463
_cell_length_c 18.110131
_cell_angle_alpha 90.000000
_cell_angle_beta 58.304633
_cell_angle_gamma 90.000000
_cell_volume 852.343779
_symmetry_space_group_name_H-M "P 2/C"
_symmetry_group_IT_number 13
_symmetry_cell_setting 'monoclinic'
loop_
_space_group_symop_operation_xyz
x,y,z
-x,y,1/2-z
-x,-y,-z
x,-y,1/2+z
loop_
_atom_site_type_symbol
_atom_site_label
_atom_site_fract_x
_atom_site_fract_y
_atom_site_fract_z
Si Si1 0.314546 0.140660 0.552174
Si Si2 0.500000 0.846432 0.250000
Si Si3 0.647780 0.358711 0.584739
Si Si4 0.896058 0.072745 0.198318
Si Si5 0.832361 0.701720 0.572336
O O1 0.437299 0.284977 0.575612
O O2 0.235188 0.203204 0.488051
O O3 0.500000 0.000000 0.500000
O O4 0.093679 0.053238 0.632630
O O5 0.361613 0.741686 0.337173
O O6 0.673816 0.962670 0.260812
O O7 0.662077 0.546113 0.605477
O O8 0.890978 0.338781 0.492412
O O9 0.821312 0.191684 0.147717
O O10 0.000000 0.159422 0.250000
#
# Coordination Sequence:
#
# PCOD9238086 Si02
#       5
#     4   2   4   4   4
#     4  12  22  43  72 100 130 182 241 282 340 424
#     4  12  24  44  68  98 140 182 230 298 354 416
#     4  11  24  44  68  99 142 179 228 288 358 411
#     4  12  25  42  69 103 136 183 240 289 346 421
#     4  11  25  44  68 100 137 186 228 286 351 423
#
# _framework density 21.118241000000001
#
# number of rings (size 3 to 8) (size 9 to 14) (size 15 to 20)
#    0.000    0.444    6.667    2.667    0.000    0.889 
#    0.000    1.111    0.000    0.000    0.000    0.000 
#    0.000    0.000    0.000    0.000    0.000    0.000 
#
# Total GULP energy -100591.220442 kJ/mol
# GULP energy per Si atom -5588.401136 kJ/mol
# Density = 2.107017 g / cm^3
# Si number density = 21.118241 Si / 1000 Ang^3
#
#
#
# Elastic Constant Matrix: (Units=GPa)
#
#
# Indices 1 2 3 4 5 6 
#
# 1 112.7580 59.7578 22.9467 0.0000 30.2929 0.0000
# 2 59.7578 107.7587 35.8347 0.0000 14.9332 0.0000
# 3 22.9467 35.8347 51.0970 0.0000 17.4169 0.0000
# 4 0.0000 0.0000 0.0000 16.5954 0.0000 8.9822
# 5 30.2929 14.9332 17.4169 0.0000 55.5794 0.0000
# 6 0.0000 0.0000 0.0000 8.9822 0.0000 37.1487
#
#
#
# Elastic Compliance Matrix: (Units=1/GPa)
#
#
# Indices 1 2 3 4 5 6 
#
# 1 0.014195 -0.007303 0.000801 0.000000 -0.006025 0.000000
# 2 -0.007303 0.015882 -0.008689 0.000000 0.002436 0.000000
# 3 0.000801 -0.008689 0.027606 0.000000 -0.006753 0.000000
# 4 0.000000 0.000000 0.000000 0.069331 0.000000 -0.016763
# 5 -0.006025 0.002436 -0.006753 0.000000 0.022738 0.000000
# 6 0.000000 0.000000 0.000000 -0.016763 0.000000 0.030972
#
#
# Mechanical properties :
#
#
# Convention : Reuss Voigt Hill
#
# Bulk Modulus (GPa) = 36.62863 56.52134 46.57499
# Shear Modulus (GPa) = 22.70609 32.06966 27.38788
#
# Velocity S-wave (km/s) = 3.28256 3.90112 3.60513
# Velocity P-wave (km/s) = 5.63464 6.86396 6.27946
#
# Compressibility (1/GPa) = 0.02730105
#
# Stress axis : x y z
#
# Youngs Moduli (GPa) = 70.44896 62.96551 36.22379
#
# Poissons Ratio (x) = 0.45984 -0.02901
# Poissons Ratio (y) = 0.51449 0.31474
# Poissons Ratio (z) = -0.05643 0.54709
#
# Static dielectric constant tensor:
#      x y z
#    x 1.779500 0.000000 -0.013570 
#    y 0.000000 1.956360 0.000000 
#    z -0.013570 0.000000 1.744290 
# 
# From -- ./inp_files/60349.got.cif
#   From: 2010.05.17/outbox.cif.g08.bks.cpg/sg13_31_cif.got.tgz:60349.got - 2010.06.03 16:44:36.
