data_PCOD9238185
_publ_section_title
;
Structure prediction by ZEFSAII (Michael W. Deem and Ramdas Pophale) SiO2 
 PCOD9238185
Probable space group: P 2/C
;
_chemical_formula_sum "Si O2"
_cell_formula_units_Z 14
_cell_length_a 5.575574
_cell_length_b 7.622735
_cell_length_c 14.399655
_cell_angle_alpha 90.000000
_cell_angle_beta 116.502277
_cell_angle_gamma 90.000000
_cell_volume 547.690327
_symmetry_space_group_name_H-M "P 2/C"
_symmetry_group_IT_number 13
_symmetry_cell_setting 'monoclinic'
loop_
_space_group_symop_operation_xyz
x,y,z
-x,y,1/2-z
-x,-y,-z
x,-y,1/2+z
loop_
_atom_site_type_symbol
_atom_site_label
_atom_site_fract_x
_atom_site_fract_y
_atom_site_fract_z
Si Si1 0.629701 0.281441 0.068293
Si Si2 0.500000 0.232032 0.250000
Si Si3 0.015500 0.987234 0.111833
Si Si4 0.896854 0.388916 0.629462
O O1 0.531875 0.331401 0.156321
O O2 0.742739 0.085339 0.096370
O O3 0.868507 0.416255 0.081373
O O4 0.394120 0.310836 0.953218
O O5 0.753284 0.106218 0.306742
O O6 0.070348 0.783310 0.138751
O O7 0.000000 0.000000 0.000000
O O8 0.000000 0.428882 0.750000
#
# Coordination Sequence:
#
# PCOD9238185 Si02
#       4
#     4   2   4   4
#     4  11  26  49  69 105 147 182 236 299 353 418
#     4  12  24  48  76 100 148 192 230 298 362 416
#     4  12  26  45  73 107 144 186 235 292 355 423
#     4  11  24  47  72 101 140 185 237 292 347 422
#
# _framework density 25.561890999999999
#
# number of rings (size 3 to 8) (size 9 to 14) (size 15 to 20)
#    0.000    0.571    2.857    5.143    4.000    1.143 
#   10.286    2.857    0.000    0.000    0.000    0.000 
#    0.000    0.000    0.000    0.000    0.000    0.000 
#
# Total GULP energy -78079.541836 kJ/mol
# GULP energy per Si atom -5577.110131 kJ/mol
# Density = 2.550371 g / cm^3
# Si number density = 25.561891 Si / 1000 Ang^3
#
#
#
# Elastic Constant Matrix: (Units=GPa)
#
#
# Indices 1 2 3 4 5 6 
#
# 1 45.2419 7.7861 35.7132 0.0000 6.8954 0.0000
# 2 7.7861 127.6005 9.0846 0.0000 9.8255 0.0000
# 3 35.7132 9.0846 183.9721 0.0000 24.6847 0.0000
# 4 0.0000 0.0000 0.0000 22.4864 0.0000 1.9390
# 5 6.8954 9.8255 24.6847 0.0000 35.7619 0.0000
# 6 0.0000 0.0000 0.0000 1.9390 0.0000 31.7795
#
#
#
# Elastic Compliance Matrix: (Units=1/GPa)
#
#
# Indices 1 2 3 4 5 6 
#
# 1 0.026362 -0.001154 -0.004872 0.000000 -0.001403 0.000000
# 2 -0.001154 0.008059 0.000103 0.000000 -0.002063 0.000000
# 3 -0.004872 0.000103 0.006892 0.000000 -0.003846 0.000000
# 4 0.000000 0.000000 0.000000 0.044706 0.000000 -0.002728
# 5 -0.001403 -0.002063 -0.003846 0.000000 0.031455 0.000000
# 6 0.000000 0.000000 0.000000 -0.002728 0.000000 0.031633
#
#
# Mechanical properties :
#
#
# Convention : Reuss Voigt Hill
#
# Bulk Modulus (GPa) = 33.93645 51.33136 42.63390
# Shear Modulus (GPa) = 29.27808 38.28761 33.78285
#
# Velocity S-wave (km/s) = 3.38802 3.87439 3.63934
# Velocity P-wave (km/s) = 5.34882 6.33556 5.86299
#
# Compressibility (1/GPa) = 0.02946685
#
# Stress axis : x y z
#
# Youngs Moduli (GPa) = 37.93360 124.08689 145.08684
#
# Poissons Ratio (x) = 0.14316 0.70690
# Poissons Ratio (y) = 0.04376 -0.01491
# Poissons Ratio (z) = 0.18482 -0.01275
#
# Static dielectric constant tensor:
#      x y z
#    x 2.135200 0.000000 -0.074870 
#    y 0.000000 2.360650 0.000000 
#    z -0.074870 0.000000 2.059960 
# 
# From -- ./inp_files/43132.got.cif
#   From: 2010.05.17/outbox.cif.g08.bks.cpg/sg13_22_cif.got.tgz:43132.got - 2010.06.03 16:44:36.
