data_PCOD9238110
_publ_section_title
;
Structure prediction by ZEFSAII (Michael W. Deem and Ramdas Pophale) SiO2 
 PCOD9238110
Probable space group: P 2/C
;
_chemical_formula_sum "Si O2"
_cell_formula_units_Z 16
_cell_length_a 20.582410
_cell_length_b 4.811647
_cell_length_c 8.197871
_cell_angle_alpha 90.000000
_cell_angle_beta 137.242635
_cell_angle_gamma 90.000000
_cell_volume 551.180391
_symmetry_space_group_name_H-M "P 2/C"
_symmetry_group_IT_number 13
_symmetry_cell_setting 'monoclinic'
loop_
_space_group_symop_operation_xyz
x,y,z
-x,y,1/2-z
-x,-y,-z
x,-y,1/2+z
loop_
_atom_site_type_symbol
_atom_site_label
_atom_site_fract_x
_atom_site_fract_y
_atom_site_fract_z
Si Si1 0.804486 0.238745 0.030310
Si Si2 0.426275 0.591504 0.999159
Si Si3 0.063199 0.730858 0.208462
Si Si4 0.689814 0.153412 0.500802
O O1 0.839834 0.551852 0.099307
O O2 0.892298 0.034381 0.244255
O O3 0.717514 0.165228 0.994205
O O4 0.777740 0.190555 0.792511
O O5 0.384875 0.329245 0.023554
O O6 0.345009 0.748434 0.745895
O O7 0.500000 0.766738 0.250000
O O8 0.500000 0.500000 0.000000
O O9 0.000000 0.780943 0.250000
O O10 0.000000 0.500000 0.000000
#
# Coordination Sequence:
#
# PCOD9238110 Si02
#       4
#     4   4   4   4
#     4  12  26  45  75 113 152 204 257 321 390 459
#     4   9  21  47  78 112 153 204 257 319 394 470
#     4  12  25  46  72 107 153 203 255 316 386 466
#     4  11  24  44  76 114 156 201 261 324 389 469
#
# _framework density 29.028607000000001
#
# number of rings (size 3 to 8) (size 9 to 14) (size 15 to 20)
#    0.000    1.000    0.000    6.000    0.000    8.000 
#    0.000   16.250    0.000    0.000    0.000    0.000 
#    0.000    0.000    0.000    0.000    0.000    0.000 
#
# Total GULP energy -89077.616127 kJ/mol
# GULP energy per Si atom -5567.351008 kJ/mol
# Density = 2.896254 g / cm^3
# Si number density = 29.028607 Si / 1000 Ang^3
#
#
#
# Elastic Constant Matrix: (Units=GPa)
#
#
# Indices 1 2 3 4 5 6 
#
# 1 153.1160 62.2129 14.5772 0.0000 -0.5654 0.0000
# 2 62.2129 177.7762 34.9623 0.0000 14.2657 0.0000
# 3 14.5772 34.9623 181.8402 0.0000 -13.6600 0.0000
# 4 0.0000 0.0000 0.0000 35.3049 0.0000 -11.3278
# 5 -0.5654 14.2657 -13.6600 0.0000 55.2503 0.0000
# 6 0.0000 0.0000 0.0000 -11.3278 0.0000 44.1674
#
#
#
# Elastic Compliance Matrix: (Units=1/GPa)
#
#
# Indices 1 2 3 4 5 6 
#
# 1 0.007647 -0.002733 -0.000029 0.000000 0.000777 0.000000
# 2 -0.002733 0.007008 -0.001290 0.000000 -0.002157 0.000000
# 3 -0.000029 -0.001290 0.005884 0.000000 0.001788 0.000000
# 4 0.000000 0.000000 0.000000 0.030865 0.000000 0.007916
# 5 0.000777 -0.002157 0.001788 0.000000 0.019106 0.000000
# 6 0.000000 0.000000 0.000000 0.007916 0.000000 0.024671
#
#
# Mechanical properties :
#
#
# Convention : Reuss Voigt Hill
#
# Bulk Modulus (GPa) = 80.42077 81.80414 81.11245
# Shear Modulus (GPa) = 46.54161 53.67652 50.10906
#
# Velocity S-wave (km/s) = 4.00847 4.30477 4.15926
# Velocity P-wave (km/s) = 7.01341 7.27666 7.14625
#
# Compressibility (1/GPa) = 0.01243460
#
# Stress axis : x y z
#
# Youngs Moduli (GPa) = 130.77116 142.69088 169.95028
#
# Poissons Ratio (x) = 0.38992 0.00498
# Poissons Ratio (y) = 0.35735 0.21930
# Poissons Ratio (z) = 0.00383 0.18413
#
# Static dielectric constant tensor:
#      x y z
#    x 2.538080 0.000000 -0.201580 
#    y 0.000000 2.359550 0.000000 
#    z -0.201580 0.000000 2.197630 
# 
# From -- ./inp_files/22355.got.cif
#   From: 2010.05.17/outbox.cif.g08.bks.cpg/sg13_12_cif.got.tgz:22355.got - 2010.06.03 16:44:36.
