data_PCOD9238419
_publ_section_title
;
Structure prediction by ZEFSAII (Michael W. Deem and Ramdas Pophale) SiO2 
 PCOD9238419
Probable space group: P 2/C
;
_chemical_formula_sum "Si O2"
_cell_formula_units_Z 20
_cell_length_a 7.570406
_cell_length_b 7.354052
_cell_length_c 17.386881
_cell_angle_alpha 90.000000
_cell_angle_beta 127.924978
_cell_angle_gamma 90.000000
_cell_volume 763.560367
_symmetry_space_group_name_H-M "P 2/C"
_symmetry_group_IT_number 13
_symmetry_cell_setting 'monoclinic'
loop_
_space_group_symop_operation_xyz
x,y,z
-x,y,1/2-z
-x,-y,-z
x,-y,1/2+z
loop_
_atom_site_type_symbol
_atom_site_label
_atom_site_fract_x
_atom_site_fract_y
_atom_site_fract_z
Si Si1 0.614684 0.358441 0.709600
Si Si2 0.290614 0.007620 0.838051
Si Si3 0.212958 0.507172 0.502382
Si Si4 0.079574 0.666709 0.693349
Si Si5 0.196928 0.938872 0.489569
O O1 0.500000 0.255271 0.750000
O O2 0.442400 0.440583 0.601651
O O3 0.733913 0.526181 0.784456
O O4 0.761506 0.204818 0.709409
O O5 0.199933 0.848572 0.757372
O O6 0.195204 0.993639 0.899823
O O7 0.560585 0.997368 0.913575
O O8 0.217465 0.720462 0.484418
O O9 0.000000 0.500000 0.500000
O O10 0.135303 0.362482 0.417695
O O11 0.000000 0.573709 0.750000
O O12 0.000000 0.000000 0.500000
#
# Coordination Sequence:
#
# PCOD9238419 Si02
#       5
#     4   4   4   4   4
#     4  12  27  52  80 121 167 218 280 347 417 503
#     4  11  28  52  80 118 168 215 277 355 412 499
#     4  12  26  49  86 120 166 220 279 345 421 502
#     4  12  29  50  79 119 166 216 277 347 420 489
#     4  11  26  49  86 122 161 221 284 347 426 501
#
# _framework density 26.193083999999999
#
# number of rings (size 3 to 8) (size 9 to 14) (size 15 to 20)
#    0.000    0.400    4.000    2.400    8.400    6.400 
#    0.000    1.000    0.000    0.000    0.000    0.000 
#    0.000    0.000    0.000    0.000    0.000    0.000 
#
# Total GULP energy -111721.303191 kJ/mol
# GULP energy per Si atom -5586.065160 kJ/mol
# Density = 2.613347 g / cm^3
# Si number density = 26.193084 Si / 1000 Ang^3
#
#
#
# Elastic Constant Matrix: (Units=GPa)
#
#
# Indices 1 2 3 4 5 6 
#
# 1 131.6028 37.0079 38.5136 0.0000 1.1771 0.0000
# 2 37.0079 229.9966 74.3228 0.0000 -1.0788 0.0000
# 3 38.5136 74.3228 176.0227 0.0000 20.3979 0.0000
# 4 0.0000 0.0000 0.0000 10.4160 0.0000 -11.0758
# 5 1.1771 -1.0788 20.3979 0.0000 50.0859 0.0000
# 6 0.0000 0.0000 0.0000 -11.0758 0.0000 13.2864
#
#
#
# Elastic Compliance Matrix: (Units=1/GPa)
#
#
# Indices 1 2 3 4 5 6 
#
# 1 0.008271 -0.000845 -0.001499 0.000000 0.000398 0.000000
# 2 -0.000845 0.005171 -0.002114 0.000000 0.000992 0.000000
# 3 -0.001499 -0.002114 0.007245 0.000000 -0.002961 0.000000
# 4 0.000000 0.000000 0.000000 0.845352 0.000000 0.704707
# 5 0.000398 0.000992 -0.002961 0.000000 0.021184 0.000000
# 6 0.000000 0.000000 0.000000 0.704707 0.000000 0.662726
#
#
# Mechanical properties :
#
#
# Convention : Reuss Voigt Hill
#
# Bulk Modulus (GPa) = 84.94475 93.03452 88.98963
# Shear Modulus (GPa) = 3.19941 40.60951 21.90446
#
# Velocity S-wave (km/s) = 1.10640 3.94177 2.89497
# Velocity P-wave (km/s) = 5.84233 7.50417 6.72478
#
# Compressibility (1/GPa) = 0.01177236
#
# Stress axis : x y z
#
# Youngs Moduli (GPa) = 120.89962 193.36773 138.03139
#
# Poissons Ratio (x) = 0.16331 0.20695
# Poissons Ratio (y) = 0.10211 0.29177
# Poissons Ratio (z) = 0.18126 0.40873
#
# Static dielectric constant tensor:
#      x y z
#    x 2.057970 0.000000 -0.203200 
#    y 0.000000 3.440610 0.000000 
#    z -0.203200 0.000000 1.639530 
# 
# From -- ./inp_files/63916.got.cif
#   From: 2010.05.17/outbox.cif.g08.bks.cpg/sg13_32_cif.got.tgz:63916.got - 2010.06.03 16:44:36.
