data_PCOD9238265
_publ_section_title
;
Structure prediction by ZEFSAII (Michael W. Deem and Ramdas Pophale) SiO2 
 PCOD9238265
Probable space group: P 2/C
;
_chemical_formula_sum "Si O2"
_cell_formula_units_Z 22
_cell_length_a 5.448818
_cell_length_b 11.914221
_cell_length_c 16.270783
_cell_angle_alpha 90.000000
_cell_angle_beta 96.495080
_cell_angle_gamma 90.000000
_cell_volume 1049.493940
_symmetry_space_group_name_H-M "P 2/C"
_symmetry_group_IT_number 13
_symmetry_cell_setting 'monoclinic'
loop_
_space_group_symop_operation_xyz
x,y,z
-x,y,1/2-z
-x,-y,-z
x,-y,1/2+z
loop_
_atom_site_type_symbol
_atom_site_label
_atom_site_fract_x
_atom_site_fract_y
_atom_site_fract_z
Si Si1 0.437468 0.510780 0.338789
Si Si2 0.988092 0.805687 0.515407
Si Si3 0.035399 0.580969 0.077624
Si Si4 0.500000 0.929198 0.750000
Si Si5 0.326307 0.996949 0.572532
Si Si6 0.219439 0.275048 0.318879
O O1 0.500000 0.548758 0.250000
O O2 0.673550 0.562242 0.394175
O O3 0.421451 0.374265 0.335867
O O4 0.168411 0.547275 0.361926
O O5 0.032948 0.704398 0.455835
O O6 0.850655 0.756606 0.590355
O O7 0.214552 0.872046 0.563942
O O8 0.858082 0.902223 0.455985
O O9 0.000000 0.500000 0.000000
O O10 0.427884 0.004058 0.668640
O O11 0.698708 0.840621 0.721582
O O12 0.500000 0.000000 0.500000
O O13 0.000000 0.319007 0.250000
#
# Coordination Sequence:
#
# PCOD9238265 Si02
#       6
#     4   4   4   2   4   4
#     4  12  27  46  71 109 148 194 240 302 364 443
#     4  11  26  45  70 102 146 188 242 300 373 442
#     4  12  27  45  74 108 148 191 240 293 376 444
#     4  12  24  40  74 102 134 182 250 308 362 424
#     4  11  25  45  71 103 139 190 242 309 370 438
#     4  12  23  41  74 108 141 178 247 315 365 425
#
# _framework density 20.962485999999998
#
# number of rings (size 3 to 8) (size 9 to 14) (size 15 to 20)
#    0.000    0.364    6.364    2.182    5.091    0.000 
#    1.636    1.818    0.000    0.000    0.000    0.000 
#    0.000    0.000    0.000    0.000    0.000    0.000 
#
# Total GULP energy -122712.093852 kJ/mol
# GULP energy per Si atom -5577.822448 kJ/mol
# Density = 2.091477 g / cm^3
# Si number density = 20.962486 Si / 1000 Ang^3
#
#
#
# Elastic Constant Matrix: (Units=GPa)
#
#
# Indices 1 2 3 4 5 6 
#
# 1 58.7760 12.9043 25.8280 0.0000 -11.4732 0.0000
# 2 12.9043 89.2653 34.7386 0.0000 -1.9561 0.0000
# 3 25.8280 34.7386 133.3487 0.0000 -0.6243 0.0000
# 4 0.0000 0.0000 0.0000 33.2072 0.0000 -3.4967
# 5 -11.4732 -1.9561 -0.6243 0.0000 43.2884 0.0000
# 6 0.0000 0.0000 0.0000 -3.4967 0.0000 -23.3392
#
#
#
# Elastic Compliance Matrix: (Units=1/GPa)
#
#
# Indices 1 2 3 4 5 6 
#
# 1 0.019845 -0.001413 -0.003452 0.000000 0.005146 0.000000
# 2 -0.001413 0.012579 -0.003002 0.000000 0.000151 0.000000
# 3 -0.003452 -0.003002 0.008946 0.000000 -0.000921 0.000000
# 4 0.000000 0.000000 0.000000 0.029646 0.000000 -0.004442
# 5 0.005146 0.000151 -0.000921 0.000000 0.024458 0.000000
# 6 0.000000 0.000000 0.000000 -0.004442 0.000000 -0.042181
#
#
# Mechanical properties :
#
#
# Convention : Reuss Voigt Hill
#
# Bulk Modulus (GPa) = 39.00852 47.59243 43.30048
# Shear Modulus (GPa) = 64.45615 24.49254 44.47434
#
# Velocity S-wave (km/s) = 5.55113 3.42189 4.61110
# Velocity P-wave (km/s) = 7.72890 6.19398 7.00362
#
# Compressibility (1/GPa) = 0.02563542
#
# Stress axis : x y z
#
# Youngs Moduli (GPa) = 50.38995 79.50040 111.78767
#
# Poissons Ratio (x) = 0.11232 0.38585
# Poissons Ratio (y) = 0.07119 0.33564
# Poissons Ratio (z) = 0.17393 0.23870
#
# Static dielectric constant tensor:
#      x y z
#    x 1.860990 0.000000 0.103170 
#    y 0.000000 1.717820 0.000000 
#    z 0.103170 0.000000 2.012800 
# 
# From -- ./inp_files/43688.got.cif
#   From: 2010.05.17/outbox.cif.g08.bks.cpg/sg13_22_cif.got.tgz:43688.got - 2010.06.03 16:44:36.
