data_PCOD9238805
_publ_section_title
;
Structure prediction by ZEFSAII (Michael W. Deem and Ramdas Pophale) SiO2 
 PCOD9238805
Probable space group: P 2/C
;
_chemical_formula_sum "Si O2"
_cell_formula_units_Z 20
_cell_length_a 10.998231
_cell_length_b 5.001571
_cell_length_c 14.974891
_cell_angle_alpha 90.000000
_cell_angle_beta 82.916129
_cell_angle_gamma 90.000000
_cell_volume 817.457391
_symmetry_space_group_name_H-M "P 2/C"
_symmetry_group_IT_number 13
_symmetry_cell_setting 'monoclinic'
loop_
_space_group_symop_operation_xyz
x,y,z
-x,y,1/2-z
-x,-y,-z
x,-y,1/2+z
loop_
_atom_site_type_symbol
_atom_site_label
_atom_site_fract_x
_atom_site_fract_y
_atom_site_fract_z
Si Si1 0.361271 0.211497 0.791760
Si Si2 0.139202 0.156758 0.316111
Si Si3 0.587728 0.255230 0.508159
Si Si4 0.222336 0.424136 0.156424
Si Si5 0.990374 0.349671 0.594603
O O1 0.500000 0.153176 0.750000
O O2 0.278544 0.946484 0.806281
O O3 0.364594 0.294944 0.895266
O O4 0.304948 0.411756 0.721309
O O5 0.064935 0.942589 0.381905
O O6 0.132778 0.202158 0.209984
O O7 0.105609 0.452841 0.349110
O O8 0.500000 0.500000 0.500000
O O9 0.695685 0.280820 0.425668
O O10 0.500000 0.000000 0.500000
O O11 0.125981 0.629560 0.122651
O O12 0.000000 0.500000 0.500000
#
# Coordination Sequence:
#
# PCOD9238805 Si02
#       5
#     4   4   4   4   4
#     4  12  27  52  81 117 164 209 270 331 407 480
#     4  12  28  50  78 115 162 208 266 331 402 476
#     4  12  29  52  79 117 163 211 269 331 403 486
#     4  12  29  48  86 116 165 212 275 334 409 479
#     4  12  29  53  81 117 161 214 275 335 404 483
#
# _framework density 24.466108999999999
#
# number of rings (size 3 to 8) (size 9 to 14) (size 15 to 20)
#    0.000    0.000    4.000    3.600    8.400    0.800 
#    0.000    0.000    0.000    0.000    0.000    0.000 
#    0.000    0.000    0.000    0.000    0.000    0.000 
#
# Total GULP energy -111734.340501 kJ/mol
# GULP energy per Si atom -5586.717025 kJ/mol
# Density = 2.441042 g / cm^3
# Si number density = 24.466109 Si / 1000 Ang^3
#
#
#
# Elastic Constant Matrix: (Units=GPa)
#
#
# Indices 1 2 3 4 5 6 
#
# 1 97.2277 -11.8174 18.7062 0.0000 -4.5550 0.0000
# 2 -11.8174 59.7757 -24.6102 0.0000 14.6306 0.0000
# 3 18.7062 -24.6102 124.9121 0.0000 -6.7665 0.0000
# 4 0.0000 0.0000 0.0000 20.8507 0.0000 2.9938
# 5 -4.5550 14.6306 -6.7665 0.0000 66.2480 0.0000
# 6 0.0000 0.0000 0.0000 2.9938 0.0000 33.8867
#
#
#
# Elastic Compliance Matrix: (Units=1/GPa)
#
#
# Indices 1 2 3 4 5 6 
#
# 1 0.010732 0.001524 -0.001292 0.000000 0.000269 0.000000
# 2 0.001524 0.019358 0.003378 0.000000 -0.003825 0.000000
# 3 -0.001292 0.003378 0.008869 0.000000 0.000071 0.000000
# 4 0.000000 0.000000 0.000000 0.048576 0.000000 -0.004292
# 5 0.000269 -0.003825 0.000071 0.000000 0.015965 0.000000
# 6 0.000000 0.000000 0.000000 -0.004292 0.000000 0.029889
#
#
# Mechanical properties :
#
#
# Convention : Reuss Voigt Hill
#
# Bulk Modulus (GPa) = 21.65568 27.38585 24.52076
# Shear Modulus (GPa) = 35.32030 44.17288 39.74659
#
# Velocity S-wave (km/s) = 3.80365 4.25369 4.03495
# Velocity P-wave (km/s) = 5.30668 5.94499 5.63488
#
# Compressibility (1/GPa) = 0.04617726
#
# Stress axis : x y z
#
# Youngs Moduli (GPa) = 93.18298 51.65923 112.75700
#
# Poissons Ratio (x) = -0.07871 0.14572
# Poissons Ratio (y) = -0.14197 -0.38095
# Poissons Ratio (z) = 0.12042 -0.17453
#
# Static dielectric constant tensor:
#      x y z
#    x 2.007410 0.000000 0.048540 
#    y 0.000000 1.981120 0.000000 
#    z 0.048540 0.000000 1.588060 
# 
# From -- ./inp_files/48918.got.cif
#   From: 2010.05.17/outbox.cif.g08.bks.cpg/sg13_25_cif.got.tgz:48918.got - 2010.06.03 16:44:36.
