data_PCOD9238320
_publ_section_title
;
Structure prediction by ZEFSAII (Michael W. Deem and Ramdas Pophale) SiO2 
 PCOD9238320
Probable space group: P 2/C
;
_chemical_formula_sum "Si O2"
_cell_formula_units_Z 12
_cell_length_a 13.540560
_cell_length_b 5.120125
_cell_length_c 13.660891
_cell_angle_alpha 90.000000
_cell_angle_beta 149.417598
_cell_angle_gamma 90.000000
_cell_volume 481.863137
_symmetry_space_group_name_H-M "P 2/C"
_symmetry_group_IT_number 13
_symmetry_cell_setting 'monoclinic'
loop_
_space_group_symop_operation_xyz
x,y,z
-x,y,1/2-z
-x,-y,-z
x,-y,1/2+z
loop_
_atom_site_type_symbol
_atom_site_label
_atom_site_fract_x
_atom_site_fract_y
_atom_site_fract_z
Si Si1 0.867683 0.089872 0.774573
Si Si2 0.708814 0.133566 0.426099
Si Si3 0.697673 0.571577 0.724326
O O1 0.767161 0.182085 0.587828
O O2 0.843738 0.337247 0.824432
O O3 0.762221 0.842569 0.729948
O O4 0.090289 0.014492 0.942815
O O5 0.500000 0.990535 0.250000
O O6 0.675685 0.371382 0.321328
O O7 0.500000 0.500000 0.500000
#
# Coordination Sequence:
#
# PCOD9238320 Si02
#       3
#     4   4   4
#     4  11  27  49  70 109 146 192 242 298 362 432
#     4  11  25  47  75 108 145 193 242 302 359 431
#     4  12  25  49  74 105 147 193 240 297 365 431
#
# _framework density 24.903337000000001
#
# number of rings (size 3 to 8) (size 9 to 14) (size 15 to 20)
#    0.000    0.667    3.333    3.000    0.000    8.000 
#    0.000    0.000    0.000    0.000    0.000    0.000 
#    0.000    0.000    0.000    0.000    0.000    0.000 
#
# Total GULP energy -67136.332667 kJ/mol
# GULP energy per Si atom -5594.694389 kJ/mol
# Density = 2.484666 g / cm^3
# Si number density = 24.903337 Si / 1000 Ang^3
#
#
#
# Elastic Constant Matrix: (Units=GPa)
#
#
# Indices 1 2 3 4 5 6 
#
# 1 157.1768 88.9743 84.4869 0.0000 -18.9817 0.0000
# 2 88.9743 155.0623 41.8999 0.0000 -7.9687 0.0000
# 3 84.4869 41.8999 199.5455 0.0000 -9.1738 0.0000
# 4 0.0000 0.0000 0.0000 38.2991 0.0000 7.7424
# 5 -18.9817 -7.9687 -9.1738 0.0000 70.3628 0.0000
# 6 0.0000 0.0000 0.0000 7.7424 0.0000 7.5020
#
#
#
# Elastic Compliance Matrix: (Units=1/GPa)
#
#
# Indices 1 2 3 4 5 6 
#
# 1 0.011821 -0.005672 -0.003719 0.000000 0.002062 0.000000
# 2 -0.005672 0.009583 0.000371 0.000000 -0.000396 0.000000
# 3 -0.003719 0.000371 0.006503 0.000000 -0.000113 0.000000
# 4 0.000000 0.000000 0.000000 0.032994 0.000000 -0.034051
# 5 0.002062 -0.000396 -0.000113 0.000000 0.014709 0.000000
# 6 0.000000 0.000000 0.000000 -0.034051 0.000000 0.168440
#
#
# Mechanical properties :
#
#
# Convention : Reuss Voigt Hill
#
# Bulk Modulus (GPa) = 101.35074 104.72299 103.03687
# Shear Modulus (GPa) = 18.84095 42.99435 30.91765
#
# Velocity S-wave (km/s) = 2.75355 4.15956 3.52732
# Velocity P-wave (km/s) = 7.13410 8.07542 7.61931
#
# Compressibility (1/GPa) = 0.00986673
#
# Stress axis : x y z
#
# Youngs Moduli (GPa) = 84.59289 104.35160 153.77523
#
# Poissons Ratio (x) = 0.59189 0.57194
# Poissons Ratio (y) = 0.47982 -0.05707
# Poissons Ratio (z) = 0.31463 -0.03873
#
# Static dielectric constant tensor:
#      x y z
#    x 2.023420 0.000000 0.015700 
#    y 0.000000 1.900810 0.000000 
#    z 0.015700 0.000000 2.028300 
# 
# From -- ./inp_files/51803.got.cif
#   From: 2010.05.17/outbox.cif.g08.bks.cpg/sg13_26_cif.got.tgz:51803.got - 2010.06.03 16:44:36.
