data_PCOD9238082
_publ_section_title
;
Structure prediction by ZEFSAII (Michael W. Deem and Ramdas Pophale) SiO2 
 PCOD9238082
Probable space group: P 2/C
;
_chemical_formula_sum "Si O2"
_cell_formula_units_Z 20
_cell_length_a 16.586121
_cell_length_b 5.009477
_cell_length_c 9.148296
_cell_angle_alpha 90.000000
_cell_angle_beta 89.501975
_cell_angle_gamma 90.000000
_cell_volume 760.082998
_symmetry_space_group_name_H-M "P 2/C"
_symmetry_group_IT_number 13
_symmetry_cell_setting 'monoclinic'
loop_
_space_group_symop_operation_xyz
x,y,z
-x,y,1/2-z
-x,-y,-z
x,-y,1/2+z
loop_
_atom_site_type_symbol
_atom_site_label
_atom_site_fract_x
_atom_site_fract_y
_atom_site_fract_z
Si Si1 0.020355 0.780306 0.610568
Si Si2 0.859962 0.459522 0.568980
Si Si3 0.237293 0.763020 0.158037
Si Si4 0.345609 0.735707 0.645606
Si Si5 0.557684 0.898931 0.129343
O O1 0.110565 0.696303 0.576897
O O2 0.000000 0.949082 0.750000
O O3 0.948718 0.561552 0.617947
O O4 0.000000 0.000000 0.500000
O O5 0.805256 0.687038 0.495622
O O6 0.817552 0.300148 0.699123
O O7 0.313889 0.562056 0.171670
O O8 0.270697 0.060174 0.152321
O O9 0.402570 0.863310 0.772614
O O10 0.379160 0.748761 0.477758
O O11 0.500000 0.751588 0.250000
O O12 0.500000 0.000000 0.000000
#
# Coordination Sequence:
#
# PCOD9238082 Si02
#       5
#     4   4   4   4   4
#     4  11  26  44  67  95 135 175 250 289 346 417
#     4  11  26  42  64  97 132 187 230 291 350 406
#     4  12  26  43  70  97 144 179 226 281 352 410
#     4  11  24  44  66 103 136 177 226 277 336 418
#     4   9  20  44  72 100 136 178 224 276 334 399
#
# _framework density 26.312916999999999
#
# number of rings (size 3 to 8) (size 9 to 14) (size 15 to 20)
#    0.000    1.200    2.000    2.400    8.400    0.000 
#    0.000   20.000    0.000    0.000    0.000    0.000 
#    0.000    0.000    0.000    0.000    0.000    0.000 
#
# Total GULP energy -111695.198806 kJ/mol
# GULP energy per Si atom -5584.759940 kJ/mol
# Density = 2.625303 g / cm^3
# Si number density = 26.312917 Si / 1000 Ang^3
#
#
#
# Elastic Constant Matrix: (Units=GPa)
#
#
# Indices 1 2 3 4 5 6 
#
# 1 120.1372 17.7817 50.5493 0.0000 -6.6995 0.0000
# 2 17.7817 52.2765 6.6813 0.0000 -7.8654 0.0000
# 3 50.5493 6.6813 213.0979 0.0000 -39.2655 0.0000
# 4 0.0000 0.0000 0.0000 -11.1069 0.0000 37.9148
# 5 -6.6995 -7.8654 -39.2655 0.0000 66.7903 0.0000
# 6 0.0000 0.0000 0.0000 37.9148 0.0000 -5.8279
#
#
#
# Elastic Compliance Matrix: (Units=1/GPa)
#
#
# Indices 1 2 3 4 5 6 
#
# 1 0.009734 -0.003127 -0.002354 0.000000 -0.000776 0.000000
# 2 -0.003127 0.020487 0.000545 0.000000 0.002419 0.000000
# 3 -0.002354 0.000545 0.005834 0.000000 0.003258 0.000000
# 4 0.000000 0.000000 0.000000 0.004245 0.000000 0.027619
# 5 -0.000776 0.002419 0.003258 0.000000 0.017095 0.000000
# 6 0.000000 0.000000 0.000000 0.027619 0.000000 0.008091
#
#
# Mechanical properties :
#
#
# Convention : Reuss Voigt Hill
#
# Bulk Modulus (GPa) = 38.19112 59.50402 48.84757
# Shear Modulus (GPa) = 59.46397 30.67106 45.06752
#
# Velocity S-wave (km/s) = 4.75897 3.41783 4.14303
# Velocity P-wave (km/s) = 6.68901 6.18373 6.44133
#
# Compressibility (1/GPa) = 0.02618410
#
# Stress axis : x y z
#
# Youngs Moduli (GPa) = 102.73502 48.81156 171.40107
#
# Poissons Ratio (x) = 0.15262 0.40345
# Poissons Ratio (y) = 0.32123 -0.09345
# Poissons Ratio (z) = 0.24182 -0.02661
#
# Static dielectric constant tensor:
#      x y z
#    x 2.154150 0.000000 0.221450 
#    y 0.000000 1.997720 0.000000 
#    z 0.221450 0.000000 2.215900 
# 
# From -- ./inp_files/20460.got.cif
#   From: 2010.05.17/outbox.cif.g08.bks.cpg/sg13_11_cif.got.tgz:20460.got - 2010.06.03 16:44:36.
