data_PCOD9238931
_publ_section_title
;
Structure prediction by ZEFSAII (Michael W. Deem and Ramdas Pophale) SiO2 
 PCOD9238931
Probable space group: P 2/C
;
_chemical_formula_sum "Si O2"
_cell_formula_units_Z 20
_cell_length_a 18.000000
_cell_length_b 12.000000
_cell_length_c 9.000000
_cell_angle_alpha 90.000000
_cell_angle_beta 30.000000
_cell_angle_gamma 90.000000
_cell_volume 972.000000
_symmetry_space_group_name_H-M "P 2/C"
_symmetry_group_IT_number 13
_symmetry_cell_setting 'monoclinic'
loop_
_space_group_symop_operation_xyz
x,y,z
-x,y,1/2-z
-x,-y,-z
x,-y,1/2+z
loop_
_atom_site_type_symbol
_atom_site_label
_atom_site_fract_x
_atom_site_fract_y
_atom_site_fract_z
Si Si1 0.335071 0.350080 0.345405
Si Si2 0.846225 0.857621 0.440786
Si Si3 0.159879 0.083291 0.895114
Si Si4 0.884857 0.544953 0.818678
Si Si5 0.323050 0.703504 0.209087
O O1 0.263408 0.244630 0.388424
O O2 0.249396 0.456610 0.428627
O O3 0.299490 0.349852 0.584696
O O4 0.512014 0.332914 0.029392
O O5 0.862773 0.902659 0.242491
O O6 0.000000 0.818901 0.250000
O O7 0.796027 0.959334 0.631717
O O8 0.284197 0.168486 0.740846
O O9 0.000000 0.105934 0.250000
O O10 0.000000 0.561983 0.750000
O O11 0.000000 0.500000 0.500000
O O12 0.794694 0.659944 0.965769
#
# Coordination Sequence:
#
# PCOD9238931 Si02
#       5
#     4   4   4   4   4
#     4  10  22  40  61  88 125 159 197 247 302 360
#     4  10  20  37  61  90 120 156 200 246 291 351
#     4  10  20  36  62  87 120 158 199 244 294 352
#     4  12  23  41  66  89 116 157 205 249 297 359
#     4  10  22  40  61  88 124 161 194 247 310 352
#
# _framework density 20.576132000000001
#
# number of rings (size 3 to 8) (size 9 to 14) (size 15 to 20)
#    0.000    1.600    2.000    4.200    2.800    0.800 
#    3.600    0.000    0.000    0.000    0.000    0.000 
#    0.000    0.000    0.000    0.000    0.000    0.000 
#
# Total GULP energy -111490.369325 kJ/mol
# GULP energy per Si atom -5574.518466 kJ/mol
# Density = 2.052930 g / cm^3
# Si number density = 20.576132 Si / 1000 Ang^3
#
#
#
# Elastic Constant Matrix: (Units=GPa)
#
#
# Indices 1 2 3 4 5 6 
#
# 1 71.8746 35.2192 40.3452 0.0000 -34.3791 0.0000
# 2 35.2192 66.6840 25.7472 0.0000 -31.7198 0.0000
# 3 40.3452 25.7472 59.6465 0.0000 -18.7141 0.0000
# 4 0.0000 0.0000 0.0000 19.1374 0.0000 -5.7365
# 5 -34.3791 -31.7198 -18.7141 0.0000 38.6789 0.0000
# 6 0.0000 0.0000 0.0000 -5.7365 0.0000 28.9404
#
#
#
# Elastic Compliance Matrix: (Units=1/GPa)
#
#
# Indices 1 2 3 4 5 6 
#
# 1 0.033240 -0.001856 -0.015198 0.000000 0.020670 0.000000
# 2 -0.001856 0.026055 -0.004486 0.000000 0.017547 0.000000
# 3 -0.015198 -0.004486 0.027811 0.000000 -0.003731 0.000000
# 4 0.000000 0.000000 0.000000 0.055555 0.000000 0.011012
# 5 0.020670 0.017547 -0.003731 0.000000 0.056811 0.000000
# 6 0.000000 0.000000 0.000000 0.011012 0.000000 0.036737
#
#
# Mechanical properties :
#
#
# Convention : Reuss Voigt Hill
#
# Bulk Modulus (GPa) = 22.71326 44.53649 33.62487
# Shear Modulus (GPa) = 17.00889 23.81088 20.40988
#
# Velocity S-wave (km/s) = 2.87824 3.40547 3.15289
# Velocity P-wave (km/s) = 4.70195 6.09546 5.44348
#
# Compressibility (1/GPa) = 0.04402715
#
# Stress axis : x y z
#
# Youngs Moduli (GPa) = 30.08407 38.37991 35.95697
#
# Poissons Ratio (x) = 0.07122 0.54646
# Poissons Ratio (y) = 0.05583 0.16132
# Poissons Ratio (z) = 0.45720 0.17219
#
# Static dielectric constant tensor:
#      x y z
#    x 1.745240 0.000000 0.053820 
#    y 0.000000 1.760800 0.000000 
#    z 0.053820 0.000000 1.708320 
# 
# From -- ./inp_files/21698.got.cif
#   From: 2010.05.17/outbox.ucp.g08.bks.cvg/sg13_11_cif.got.tgz:21698.got - 2010.06.11 12:23:55.
