data_PCOD9238080
_publ_section_title
;
Structure prediction by ZEFSAII (Michael W. Deem and Ramdas Pophale) SiO2 
 PCOD9238080
Probable space group: P 2/C
;
_chemical_formula_sum "Si O2"
_cell_formula_units_Z 14
_cell_length_a 5.757438
_cell_length_b 9.798816
_cell_length_c 9.401333
_cell_angle_alpha 90.000000
_cell_angle_beta 101.103379
_cell_angle_gamma 90.000000
_cell_volume 520.458175
_symmetry_space_group_name_H-M "P 2/C"
_symmetry_group_IT_number 13
_symmetry_cell_setting 'monoclinic'
loop_
_space_group_symop_operation_xyz
x,y,z
-x,y,1/2-z
-x,-y,-z
x,-y,1/2+z
loop_
_atom_site_type_symbol
_atom_site_label
_atom_site_fract_x
_atom_site_fract_y
_atom_site_fract_z
Si Si1 0.841694 0.064326 0.356926
Si Si2 0.236592 0.762362 0.190423
Si Si3 0.852879 0.399795 0.087608
Si Si4 0.500000 0.699579 0.750000
O O1 0.660548 0.188826 0.357402
O O2 0.000000 0.120912 0.250000
O O3 0.739560 0.923742 0.279914
O O4 0.000000 0.000000 0.500000
O O5 0.500000 0.703105 0.250000
O O6 0.000000 0.717516 0.250000
O O7 0.176431 0.728725 0.020548
O O8 0.597436 0.398983 0.136650
O O9 0.000000 0.397340 0.250000
O O10 0.000000 0.500000 0.000000
#
# Coordination Sequence:
#
# PCOD9238080 Si02
#       4
#     4   4   4   2
#     4  11  24  43  76 123 171 212 265 339 430 517
#     4  11  26  50  84 126 173 219 279 349 434 517
#     4  12  30  56  79 118 163 228 295 353 417 509
#     4  12  26  48  88 116 168 218 278 352 434 502
#
# _framework density 26.899376
#
# number of rings (size 3 to 8) (size 9 to 14) (size 15 to 20)
#    0.000    0.571    1.429    5.143   12.000    3.429 
#    5.143    0.000    0.000    0.000    0.000    0.000 
#    0.000    0.000    0.000    0.000    0.000    0.000 
#
# Total GULP energy -77964.827754 kJ/mol
# GULP energy per Si atom -5568.916268 kJ/mol
# Density = 2.683815 g / cm^3
# Si number density = 26.899376 Si / 1000 Ang^3
#
#
#
# Elastic Constant Matrix: (Units=GPa)
#
#
# Indices 1 2 3 4 5 6 
#
# 1 179.7012 62.6781 85.8803 0.0000 -20.5452 0.0000
# 2 62.6781 165.7312 42.1104 0.0000 -26.6306 0.0000
# 3 85.8803 42.1104 203.6492 0.0000 -21.0962 0.0000
# 4 0.0000 0.0000 0.0000 -24.0415 0.0000 -110.0292
# 5 -20.5452 -26.6306 -21.0962 0.0000 67.8861 0.0000
# 6 0.0000 0.0000 0.0000 -110.0292 0.0000 -93.4338
#
#
#
# Elastic Compliance Matrix: (Units=1/GPa)
#
#
# Indices 1 2 3 4 5 6 
#
# 1 0.007681 -0.002105 -0.002737 0.000000 0.000648 0.000000
# 2 -0.002105 0.007267 -0.000398 0.000000 0.002090 0.000000
# 3 -0.002737 -0.000398 0.006246 0.000000 0.000956 0.000000
# 4 0.000000 0.000000 0.000000 0.009476 0.000000 -0.011159
# 5 0.000648 0.002090 0.000956 0.000000 0.016044 0.000000
# 6 0.000000 0.000000 0.000000 -0.011159 0.000000 0.002438
#
#
# Mechanical properties :
#
#
# Convention : Reuss Voigt Hill
#
# Bulk Modulus (GPa) = 93.34159 103.37991 98.36075
# Shear Modulus (GPa) = 79.10874 13.97633 46.54253
#
# Velocity S-wave (km/s) = 5.42890 2.28190 4.16414
# Velocity P-wave (km/s) = 8.60656 6.74227 7.73082
#
# Compressibility (1/GPa) = 0.01071334
#
# Stress axis : x y z
#
# Youngs Moduli (GPa) = 130.18913 137.60594 160.10416
#
# Poissons Ratio (x) = 0.28972 0.43815
# Poissons Ratio (y) = 0.27410 0.06378
# Poissons Ratio (z) = 0.35629 0.05481
#
# Static dielectric constant tensor:
#      x y z
#    x 2.640890 0.000000 0.153490 
#    y 0.000000 2.105470 0.000000 
#    z 0.153490 0.000000 2.031520 
# 
# From -- ./inp_files/8605.got.cif
#   From: 2010.05.17/outbox.cif.g08.bks.cpg/sg13_5_cif.got.tgz:8605.got - 2010.06.03 16:44:36.
