data_PCOD9238704
_publ_section_title
;
Structure prediction by ZEFSAII (Michael W. Deem and Ramdas Pophale) SiO2 
 PCOD9238704
Probable space group: P 2/C
;
_chemical_formula_sum "Si O2"
_cell_formula_units_Z 18
_cell_length_a 16.909579
_cell_length_b 8.381936
_cell_length_c 5.386972
_cell_angle_alpha 90.000000
_cell_angle_beta 81.615758
_cell_angle_gamma 90.000000
_cell_volume 755.362357
_symmetry_space_group_name_H-M "P 2/C"
_symmetry_group_IT_number 13
_symmetry_cell_setting 'monoclinic'
loop_
_space_group_symop_operation_xyz
x,y,z
-x,y,1/2-z
-x,-y,-z
x,-y,1/2+z
loop_
_atom_site_type_symbol
_atom_site_label
_atom_site_fract_x
_atom_site_fract_y
_atom_site_fract_z
Si Si1 0.380331 0.900311 0.305619
Si Si2 0.500000 0.607961 0.250000
Si Si3 0.893518 0.405229 0.224424
Si Si4 0.086136 0.128231 0.594463
Si Si5 0.804101 0.183158 0.552366
O O1 0.425432 0.731278 0.284213
O O2 0.285176 0.869568 0.354596
O O3 0.400145 0.000122 0.546685
O O4 0.500000 0.500000 0.500000
O O5 0.913297 0.488138 0.475471
O O6 0.807762 0.322337 0.343311
O O7 0.933819 0.239217 0.128217
O O8 0.147844 0.238481 0.725584
O O9 0.000000 0.092495 0.750000
O O10 0.141213 0.973912 0.523423
#
# Coordination Sequence:
#
# PCOD9238704 Si02
#       5
#     4   2   4   4   4
#     4  12  25  48  82 113 153 194 255 306 363 453
#     4  12  28  52  78 122 160 196 238 298 386 454
#     4  12  27  46  67 101 143 189 247 309 381 440
#     4  12  25  46  75 105 147 199 264 320 368 436
#     4  12  25  46  77 110 144 199 260 311 375 439
#
# _framework density 23.829622000000001
#
# number of rings (size 3 to 8) (size 9 to 14) (size 15 to 20)
#    0.000    0.000    6.667    2.667    0.000    2.667 
#    0.000    0.000    0.000    0.000    0.000    0.000 
#    0.000    0.000    0.000    0.000    0.000    0.000 
#
# Total GULP energy -100323.994518 kJ/mol
# GULP energy per Si atom -5573.555251 kJ/mol
# Density = 2.377538 g / cm^3
# Si number density = 23.829622 Si / 1000 Ang^3
#
#
#
# Elastic Constant Matrix: (Units=GPa)
#
#
# Indices 1 2 3 4 5 6 
#
# 1 165.3341 73.6420 56.5669 0.0000 -10.0336 0.0000
# 2 73.6420 150.7693 110.2154 0.0000 -1.2707 0.0000
# 3 56.5669 110.2154 229.1233 0.0000 7.1861 0.0000
# 4 0.0000 0.0000 0.0000 70.6578 0.0000 -11.2239
# 5 -10.0336 -1.2707 7.1861 0.0000 18.5939 0.0000
# 6 0.0000 0.0000 0.0000 -11.2239 0.0000 17.2676
#
#
#
# Elastic Compliance Matrix: (Units=1/GPa)
#
#
# Indices 1 2 3 4 5 6 
#
# 1 0.008047 -0.003617 -0.000380 0.000000 0.004242 0.000000
# 2 -0.003617 0.011985 -0.004896 0.000000 0.000759 0.000000
# 3 -0.000380 -0.004896 0.006914 0.000000 -0.003212 0.000000
# 4 0.000000 0.000000 0.000000 0.015782 0.000000 0.010258
# 5 0.004242 0.000759 -0.003212 0.000000 0.057363 0.000000
# 6 0.000000 0.000000 0.000000 0.010258 0.000000 0.064580
#
#
# Mechanical properties :
#
#
# Convention : Reuss Voigt Hill
#
# Bulk Modulus (GPa) = 109.16747 114.00835 111.58791
# Shear Modulus (GPa) = 26.95283 41.62403 34.28843
#
# Velocity S-wave (km/s) = 3.36678 4.18393 3.79740
# Velocity P-wave (km/s) = 7.81183 8.44318 8.13364
#
# Compressibility (1/GPa) = 0.00916024
#
# Stress axis : x y z
#
# Youngs Moduli (GPa) = 124.27341 83.43961 144.63413
#
# Poissons Ratio (x) = 0.30180 0.05493
# Poissons Ratio (y) = 0.44950 0.70811
# Poissons Ratio (z) = 0.04719 0.40851
#
# Static dielectric constant tensor:
#      x y z
#    x 1.901110 0.000000 0.060670 
#    y 0.000000 2.029540 0.000000 
#    z 0.060670 0.000000 2.328540 
# 
# From -- ./inp_files/5823.got.cif
#   From: 2010.05.17/outbox.cif.g08.bks.cpg/sg13_3_cif.got.tgz:5823.got - 2010.06.03 16:44:36.
