data_PCOD9238379
_publ_section_title
;
Structure prediction by ZEFSAII (Michael W. Deem and Ramdas Pophale) SiO2 
 PCOD9238379
Probable space group: P 2/C
;
_chemical_formula_sum "Si O2"
_cell_formula_units_Z 20
_cell_length_a 9.828513
_cell_length_b 8.932981
_cell_length_c 11.389988
_cell_angle_alpha 90.000000
_cell_angle_beta 106.885397
_cell_angle_gamma 90.000000
_cell_volume 956.904154
_symmetry_space_group_name_H-M "P 2/C"
_symmetry_group_IT_number 13
_symmetry_cell_setting 'monoclinic'
loop_
_space_group_symop_operation_xyz
x,y,z
-x,y,1/2-z
-x,-y,-z
x,-y,1/2+z
loop_
_atom_site_type_symbol
_atom_site_label
_atom_site_fract_x
_atom_site_fract_y
_atom_site_fract_z
Si Si1 0.565981 0.839488 0.549103
Si Si2 0.636743 0.607733 0.362146
Si Si3 0.285808 0.714244 0.547919
Si Si4 0.158000 0.225312 0.763422
Si Si5 0.849748 0.876769 0.769333
O O1 0.584480 0.732234 0.441398
O O2 0.447462 0.768760 0.603522
O O3 0.718217 0.851220 0.648588
O O4 0.500000 0.000000 0.500000
O O5 0.500000 0.563034 0.250000
O O6 0.704966 0.464592 0.442534
O O7 0.753426 0.678204 0.305627
O O8 0.237091 0.770762 0.408222
O O9 0.186181 0.786878 0.621671
O O10 0.000000 0.283112 0.750000
O O11 0.145282 0.056240 0.710899
O O12 0.000000 0.832015 0.750000
#
# Coordination Sequence:
#
# PCOD9238379 Si02
#       5
#     4   4   4   4   4
#     4  12  23  45  73 100 134 184 231 280 338 407
#     4  12  25  44  71 100 140 178 231 285 345 406
#     4  12  26  45  72 100 138 182 229 283 344 411
#     4  11  27  46  68 102 139 181 228 284 343 408
#     4  11  26  45  71 102 138 180 232 282 342 406
#
# _framework density 20.900736999999999
#
# number of rings (size 3 to 8) (size 9 to 14) (size 15 to 20)
#    0.000    0.400    4.000    3.600    5.600    3.200 
#    0.000    0.000    0.000    0.000    0.000    0.000 
#    0.000    0.000    0.000    0.000    0.000    0.000 
#
# Total GULP energy -111931.100318 kJ/mol
# GULP energy per Si atom -5596.555016 kJ/mol
# Density = 2.085317 g / cm^3
# Si number density = 20.900737 Si / 1000 Ang^3
#
#
#
# Elastic Constant Matrix: (Units=GPa)
#
#
# Indices 1 2 3 4 5 6 
#
# 1 176.1250 43.4071 20.5052 0.0000 -20.5893 0.0000
# 2 43.4071 120.7610 34.2239 0.0000 -32.0102 0.0000
# 3 20.5052 34.2239 42.5245 0.0000 -19.0493 0.0000
# 4 0.0000 0.0000 0.0000 28.8789 0.0000 -3.8931
# 5 -20.5893 -32.0102 -19.0493 0.0000 37.6165 0.0000
# 6 0.0000 0.0000 0.0000 -3.8931 0.0000 30.2536
#
#
#
# Elastic Compliance Matrix: (Units=1/GPa)
#
#
# Indices 1 2 3 4 5 6 
#
# 1 0.006377 -0.001552 -0.001104 0.000000 0.001610 0.000000
# 2 -0.001552 0.012332 -0.006281 0.000000 0.006464 0.000000
# 3 -0.001104 -0.006281 0.034196 0.000000 0.011368 0.000000
# 4 0.000000 0.000000 0.000000 0.035239 0.000000 0.004535
# 5 0.001610 0.006464 0.011368 0.000000 0.038723 0.000000
# 6 0.000000 0.000000 0.000000 0.004535 0.000000 0.033637
#
#
# Mechanical properties :
#
#
# Convention : Reuss Voigt Hill
#
# Bulk Modulus (GPa) = 28.54732 59.52032 44.03382
# Shear Modulus (GPa) = 26.30811 35.43476 30.87143
#
# Velocity S-wave (km/s) = 3.55169 4.12197 3.84741
# Velocity P-wave (km/s) = 5.52336 7.15497 6.39144
#
# Compressibility (1/GPa) = 0.03502956
#
# Stress axis : x y z
#
# Youngs Moduli (GPa) = 156.80841 81.08828 29.24359
#
# Poissons Ratio (x) = 0.12589 0.03229
# Poissons Ratio (y) = 0.24344 0.18368
# Poissons Ratio (z) = 0.17317 0.50931
#
# Static dielectric constant tensor:
#      x y z
#    x 1.737670 0.000000 0.028590 
#    y 0.000000 1.765110 0.000000 
#    z 0.028590 0.000000 1.737360 
# 
# From -- ./inp_files/28101.got.cif
#   From: 2010.05.17/outbox.cif.g08.bks.cpg/sg13_15_cif.got.tgz:28101.got - 2010.06.03 16:44:36.
