data_PCOD9238562
_publ_section_title
;
Structure prediction by ZEFSAII (Michael W. Deem and Ramdas Pophale) SiO2 
 PCOD9238562
Probable space group: P 2/C
;
_chemical_formula_sum "Si O2"
_cell_formula_units_Z 18
_cell_length_a 16.799070
_cell_length_b 5.132253
_cell_length_c 8.894809
_cell_angle_alpha 90.000000
_cell_angle_beta 65.709567
_cell_angle_gamma 90.000000
_cell_volume 698.993673
_symmetry_space_group_name_H-M "P 2/C"
_symmetry_group_IT_number 13
_symmetry_cell_setting 'monoclinic'
loop_
_space_group_symop_operation_xyz
x,y,z
-x,y,1/2-z
-x,-y,-z
x,-y,1/2+z
loop_
_atom_site_type_symbol
_atom_site_label
_atom_site_fract_x
_atom_site_fract_y
_atom_site_fract_z
Si Si1 0.154277 0.339654 0.196764
Si Si2 0.598508 0.845902 0.627850
Si Si3 0.344145 0.364194 0.092336
Si Si4 0.099038 0.001043 0.482585
Si Si5 0.000000 0.621060 0.250000
O O1 0.246000 0.474985 0.142569
O O2 0.162015 0.097052 0.304902
O O3 0.059420 0.454242 0.316259
O O4 0.135654 0.245136 0.041973
O O5 0.500000 0.917680 0.750000
O O6 0.597387 0.607613 0.508387
O O7 0.641388 0.728997 0.747411
O O8 0.642011 0.106485 0.523266
O O9 0.080499 0.212718 0.625383
O O10 0.000000 0.000000 0.500000
#
# Coordination Sequence:
#
# PCOD9238562 Si02
#       5
#     4   4   4   4   2
#     4  12  27  41  67  98 140 182 238 291 350 414
#     4  12  26  53  80 112 149 194 241 304 384 457
#     4  12  28  46  78 116 150 193 246 311 366 448
#     4  12  23  44  61  93 132 188 239 288 345 410
#     4  12  24  40  68  90 134 190 236 282 342 410
#
# _framework density 25.751308999999999
#
# number of rings (size 3 to 8) (size 9 to 14) (size 15 to 20)
#    0.000    0.000    4.444    5.333    6.222    0.000 
#    0.000    0.000    0.000    0.000    0.000    0.000 
#    0.000    0.000    0.000    0.000    0.000    0.000 
#
# Total GULP energy -100565.150885 kJ/mol
# GULP energy per Si atom -5586.952827 kJ/mol
# Density = 2.569270 g / cm^3
# Si number density = 25.751309 Si / 1000 Ang^3
#
#
#
# Elastic Constant Matrix: (Units=GPa)
#
#
# Indices 1 2 3 4 5 6 
#
# 1 95.3909 -14.1396 -2.2959 0.0000 -8.3483 0.0000
# 2 -14.1396 96.0616 17.2306 0.0000 -0.1036 0.0000
# 3 -2.2959 17.2306 72.9304 0.0000 3.9577 0.0000
# 4 0.0000 0.0000 0.0000 51.3579 0.0000 1.3499
# 5 -8.3483 -0.1036 3.9577 0.0000 34.9748 0.0000
# 6 0.0000 0.0000 0.0000 1.3499 0.0000 26.7249
#
#
#
# Elastic Compliance Matrix: (Units=1/GPa)
#
#
# Indices 1 2 3 4 5 6 
#
# 1 0.010954 0.001649 -0.000188 0.000000 0.002641 0.000000
# 2 0.001649 0.011123 -0.002615 0.000000 0.000722 0.000000
# 3 -0.000188 -0.002615 0.014415 0.000000 -0.001684 0.000000
# 4 0.000000 0.000000 0.000000 0.019497 0.000000 -0.000985
# 5 0.002641 0.000722 -0.001684 0.000000 0.029415 0.000000
# 6 0.000000 0.000000 0.000000 -0.000985 0.000000 0.037468
#
#
# Mechanical properties :
#
#
# Convention : Reuss Voigt Hill
#
# Bulk Modulus (GPa) = 29.25401 29.55256 29.40328
# Shear Modulus (GPa) = 36.60995 40.18402 38.39699
#
# Velocity S-wave (km/s) = 3.77460 3.95456 3.86563
# Velocity P-wave (km/s) = 5.51196 5.68792 5.60063
#
# Compressibility (1/GPa) = 0.03418335
#
# Stress axis : x y z
#
# Youngs Moduli (GPa) = 91.28918 89.90742 69.37211
#
# Poissons Ratio (x) = -0.14825 0.01305
# Poissons Ratio (y) = -0.15053 0.18142
# Poissons Ratio (z) = 0.01717 0.23512
#
# Static dielectric constant tensor:
#      x y z
#    x 1.876050 0.000000 -0.104590 
#    y 0.000000 3.997210 0.000000 
#    z -0.104590 0.000000 1.834650 
# 
# From -- ./inp_files/20331.got.cif
#   From: 2010.05.17/outbox.cif.g08.bks.cpg/sg13_11_cif.got.tgz:20331.got - 2010.06.03 16:44:36.
