data_PCOD9238630
_publ_section_title
;
Structure prediction by ZEFSAII (Michael W. Deem and Ramdas Pophale) SiO2 
 PCOD9238630
Probable space group: P 2/C
;
_chemical_formula_sum "Si O2"
_cell_formula_units_Z 16
_cell_length_a 6.902796
_cell_length_b 7.165731
_cell_length_c 18.937975
_cell_angle_alpha 90.000000
_cell_angle_beta 56.553631
_cell_angle_gamma 90.000000
_cell_volume 781.617837
_symmetry_space_group_name_H-M "P 2/C"
_symmetry_group_IT_number 13
_symmetry_cell_setting 'monoclinic'
loop_
_space_group_symop_operation_xyz
x,y,z
-x,y,1/2-z
-x,-y,-z
x,-y,1/2+z
loop_
_atom_site_type_symbol
_atom_site_label
_atom_site_fract_x
_atom_site_fract_y
_atom_site_fract_z
Si Si1 0.203335 0.992263 0.152143
Si Si2 0.958560 0.820900 0.960348
Si Si3 0.485834 0.621904 0.074002
Si Si4 0.528025 0.292241 0.160853
O O1 0.311168 0.796170 0.105149
O O2 0.000000 0.963420 0.250000
O O3 0.107279 0.106969 0.104683
O O4 0.403333 0.117158 0.148511
O O5 0.198754 0.709998 0.910601
O O6 0.741323 0.706761 0.033166
O O7 0.000000 0.000000 0.000000
O O8 0.422286 0.480788 0.149529
O O9 0.500000 0.500000 0.000000
O O10 0.500000 0.280034 0.250000
#
# Coordination Sequence:
#
# PCOD9238630 Si02
#       4
#     4   4   4   4
#     4  12  26  47  72 103 147 186 230 295 358 416
#     4  12  24  45  76 100 140 188 233 283 353 422
#     4  12  26  45  74 107 142 183 236 296 351 414
#     4  12  26  46  72 105 141 188 238 287 355 423
#
# _framework density 20.470362999999999
#
# number of rings (size 3 to 8) (size 9 to 14) (size 15 to 20)
#    0.000    0.000    7.500    3.000    0.000    6.000 
#    0.000    0.000    0.000    0.000    0.000    0.000 
#    0.000    0.000    0.000    0.000    0.000    0.000 
#
# Total GULP energy -89573.625696 kJ/mol
# GULP energy per Si atom -5598.351606 kJ/mol
# Density = 2.042377 g / cm^3
# Si number density = 20.470363 Si / 1000 Ang^3
#
#
#
# Elastic Constant Matrix: (Units=GPa)
#
#
# Indices 1 2 3 4 5 6 
#
# 1 83.2999 31.1077 12.9850 0.0000 10.6999 0.0000
# 2 31.1077 115.9570 16.6556 0.0000 3.7306 0.0000
# 3 12.9850 16.6556 58.5892 0.0000 1.4399 0.0000
# 4 0.0000 0.0000 0.0000 30.0927 0.0000 8.2237
# 5 10.6999 3.7306 1.4399 0.0000 52.3422 0.0000
# 6 0.0000 0.0000 0.0000 8.2237 0.0000 40.0303
#
#
#
# Elastic Compliance Matrix: (Units=1/GPa)
#
#
# Indices 1 2 3 4 5 6 
#
# 1 0.013906 -0.003352 -0.002066 0.000000 -0.002547 0.000000
# 2 -0.003352 0.009816 -0.002049 0.000000 0.000042 0.000000
# 3 -0.002066 -0.002049 0.018107 0.000000 0.000070 0.000000
# 4 0.000000 0.000000 0.000000 0.035207 0.000000 -0.007233
# 5 -0.002547 0.000042 0.000070 0.000000 0.019621 0.000000
# 6 0.000000 0.000000 0.000000 -0.007233 0.000000 0.026467
#
#
# Mechanical properties :
#
#
# Convention : Reuss Voigt Hill
#
# Bulk Modulus (GPa) = 37.18215 42.14918 39.66566
# Shear Modulus (GPa) = 34.00853 37.63290 35.82071
#
# Velocity S-wave (km/s) = 4.08039 4.29232 4.18770
# Velocity P-wave (km/s) = 6.35632 6.72312 6.54229
#
# Compressibility (1/GPa) = 0.02689463
#
# Stress axis : x y z
#
# Youngs Moduli (GPa) = 71.91264 101.87485 55.22841
#
# Poissons Ratio (x) = 0.34146 0.11413
# Poissons Ratio (y) = 0.24103 0.11314
# Poissons Ratio (z) = 0.14861 0.20871
#
# Static dielectric constant tensor:
#      x y z
#    x 1.707900 0.000000 -0.008270 
#    y 0.000000 1.836610 0.000000 
#    z -0.008270 0.000000 1.707900 
# 
# From -- ./inp_files/60503.got.cif
#   From: 2010.05.17/outbox.cif.g08.bks.cpg/sg13_31_cif.got.tgz:60503.got - 2010.06.03 16:44:36.
