data_PCOD9238599
_publ_section_title
;
Structure prediction by ZEFSAII (Michael W. Deem and Ramdas Pophale) SiO2 
 PCOD9238599
Probable space group: P 2/C
;
_chemical_formula_sum "Si O2"
_cell_formula_units_Z 16
_cell_length_a 23.120737
_cell_length_b 4.761825
_cell_length_c 8.243830
_cell_angle_alpha 90.000000
_cell_angle_beta 44.511449
_cell_angle_gamma 90.000000
_cell_volume 636.288720
_symmetry_space_group_name_H-M "P 2/C"
_symmetry_group_IT_number 13
_symmetry_cell_setting 'monoclinic'
loop_
_space_group_symop_operation_xyz
x,y,z
-x,y,1/2-z
-x,-y,-z
x,-y,1/2+z
loop_
_atom_site_type_symbol
_atom_site_label
_atom_site_fract_x
_atom_site_fract_y
_atom_site_fract_z
Si Si1 0.155550 0.579266 0.196527
Si Si2 0.906960 0.900777 0.490655
Si Si3 0.655550 0.420733 0.181274
Si Si4 0.593040 0.099224 0.618495
O O1 0.138017 0.734865 0.063333
O O2 0.097234 0.314422 0.349087
O O3 0.137546 0.815412 0.367950
O O4 0.250000 0.483140 0.014968
O O5 0.000000 0.953475 0.250000
O O6 0.638017 0.265136 0.384601
O O7 0.597234 0.685577 0.261979
O O8 0.637545 0.184587 0.081869
O O9 0.500000 0.046526 0.750000
#
# Coordination Sequence:
#
# PCOD9238599 Si02
#       4
#     4   4   4   4
#     4  12  24  42  66  96 130 170 214 264 318 378
#     4  12  25  44  67  96 130 170 214 264 319 380
#     4  12  24  42  66  96 130 170 214 264 318 378
#     4  12  25  44  67  96 130 170 214 264 319 380
#
# _framework density 25.145820000000001
#
# number of rings (size 3 to 8) (size 9 to 14) (size 15 to 20)
#    0.000    0.000    0.000   12.000    0.000    0.000 
#    0.000    0.000    0.000    0.000    0.000    0.000 
#    0.000    0.000    0.000    0.000    0.000    0.000 
#
# Total GULP energy -89887.915534 kJ/mol
# GULP energy per Si atom -5617.994721 kJ/mol
# Density = 2.508859 g / cm^3
# Si number density = 25.145820 Si / 1000 Ang^3
#
#
#
# Elastic Constant Matrix: (Units=GPa)
#
#
# Indices 1 2 3 4 5 6 
#
# 1 87.7108 5.3647 3.0981 0.0000 -2.8492 0.0000
# 2 5.3647 100.0252 2.8557 0.0000 8.2300 0.0000
# 3 3.0981 2.8557 89.0441 0.0000 -1.5237 0.0000
# 4 0.0000 0.0000 0.0000 -194.1109 0.0000 205.5066
# 5 -2.8492 8.2300 -1.5237 0.0000 38.3926 0.0000
# 6 0.0000 0.0000 0.0000 205.5066 0.0000 -131.4429
#
#
#
# Elastic Compliance Matrix: (Units=1/GPa)
#
#
# Indices 1 2 3 4 5 6 
#
# 1 0.011488 -0.000687 -0.000361 0.000000 0.000985 0.000000
# 2 -0.000687 0.010230 -0.000343 0.000000 -0.002257 0.000000
# 3 -0.000361 -0.000343 0.011262 0.000000 0.000494 0.000000
# 4 0.000000 0.000000 0.000000 0.007862 0.000000 0.012292
# 5 0.000985 -0.002257 0.000494 0.000000 0.026623 0.000000
# 6 0.000000 0.000000 0.000000 0.012292 0.000000 0.011611
#
#
# Mechanical properties :
#
#
# Convention : Reuss Voigt Hill
#
# Bulk Modulus (GPa) = 33.11363 33.26859 33.19111
# Shear Modulus (GPa) = 54.39303 -39.73481 7.32911
#
# Velocity S-wave (km/s) = 4.65596 -3.97945 1.70908
# Velocity P-wave (km/s) = 6.48855 2.80281 4.13796
#
# Compressibility (1/GPa) = 0.03019904
#
# Stress axis : x y z
#
# Youngs Moduli (GPa) = 87.04831 97.75313 88.79116
#
# Poissons Ratio (x) = 0.06715 0.03204
# Poissons Ratio (y) = 0.05980 0.03044
# Poissons Ratio (z) = 0.03141 0.03351
#
# Static dielectric constant tensor:
#      x y z
#    x 1.991830 0.000000 0.112900 
#    y 0.000000 1.916320 0.000000 
#    z 0.112900 0.000000 1.957410 
# 
# From -- ./inp_files/6584.got.cif
#   From: 2010.05.17/outbox.cif.g08.bks.cpg/sg13_4_cif.got.tgz:6584.got - 2010.06.03 16:44:36.
