data_PCOD9238513
_publ_section_title
;
Structure prediction by ZEFSAII (Michael W. Deem and Ramdas Pophale) SiO2 
 PCOD9238513
Probable space group: P 2/C
;
_chemical_formula_sum "Si O2"
_cell_formula_units_Z 28
_cell_length_a 18.461184
_cell_length_b 5.610864
_cell_length_c 27.072943
_cell_angle_alpha 90.000000
_cell_angle_beta 27.625917
_cell_angle_gamma 90.000000
_cell_volume 1300.345945
_symmetry_space_group_name_H-M "P 2/C"
_symmetry_group_IT_number 13
_symmetry_cell_setting 'monoclinic'
loop_
_space_group_symop_operation_xyz
x,y,z
-x,y,1/2-z
-x,-y,-z
x,-y,1/2+z
loop_
_atom_site_type_symbol
_atom_site_label
_atom_site_fract_x
_atom_site_fract_y
_atom_site_fract_z
Si Si1 0.000000 0.417392 0.250000
Si Si2 0.500000 0.863654 0.750000
Si Si3 0.721868 0.960161 0.335373
Si Si4 0.275096 0.762580 0.064230
Si Si5 0.404573 0.524661 0.242183
Si Si6 0.712216 0.245571 0.593209
Si Si7 0.391749 0.465382 0.141294
Si Si8 0.067246 0.935130 0.619643
O O1 0.147605 0.588441 0.165165
O O2 0.026126 0.252654 0.187180
O O3 0.513552 0.719479 0.792212
O O4 0.661912 0.001775 0.649067
O O5 0.697579 0.958441 0.409385
O O6 0.634129 0.717352 0.370800
O O7 0.675218 0.221194 0.342430
O O8 0.903864 0.931070 0.210095
O O9 0.197052 0.886913 0.063976
O O10 0.426566 0.605692 0.962393
O O11 0.293188 0.577333 0.356694
O O12 0.554758 0.700773 0.155910
O O13 0.329797 0.512138 0.234197
O O14 0.860760 0.207607 0.469792
#
# Coordination Sequence:
#
# PCOD9238513 Si02
#       8
#     2   2   4   4   4   4   4   4
#     4  12  22  42  72  98 144 166 254 288 342 400
#     4   8  16  36  66  96 130 156 244 298 332 406
#     4  12  27  47  63 108 148 188 228 291 353 432
#     4  12  25  45  71 101 137 193 246 285 347 419
#     4   9  20  41  62 106 124 179 235 302 334 430
#     4   9  20  37  71  97 131 169 247 290 357 394
#     4  12  28  44  74  98 150 186 230 286 367 416
#     4  12  24  43  71 101 137 190 232 303 343 422
#
# _framework density 21.532731999999999
#
# number of rings (size 3 to 8) (size 9 to 14) (size 15 to 20)
#    0.000    1.429    2.857    3.429    8.000    1.143 
#    0.000    1.429    0.000    0.000    0.000    0.000 
#    0.000    0.000    0.000    0.000    0.000    0.000 
#
# Total GULP energy -156179.883860 kJ/mol
# GULP energy per Si atom -5577.852995 kJ/mol
# Density = 2.148372 g / cm^3
# Si number density = 21.532732 Si / 1000 Ang^3
#
#
#
# Elastic Constant Matrix: (Units=GPa)
#
#
# Indices 1 2 3 4 5 6 
#
# 1 48.6034 24.8323 32.0464 0.0000 -5.6385 0.0000
# 2 24.8323 100.3510 30.9164 0.0000 -9.7156 0.0000
# 3 32.0464 30.9164 120.3184 0.0000 12.8183 0.0000
# 4 0.0000 0.0000 0.0000 16.7325 0.0000 -9.7961
# 5 -5.6385 -9.7156 12.8183 0.0000 26.3801 0.0000
# 6 0.0000 0.0000 0.0000 -9.7961 0.0000 15.8147
#
#
#
# Elastic Compliance Matrix: (Units=1/GPa)
#
#
# Indices 1 2 3 4 5 6 
#
# 1 0.028457 -0.003951 -0.007442 0.000000 0.008244 0.000000
# 2 -0.003951 0.012225 -0.002614 0.000000 0.004928 0.000000
# 3 -0.007442 -0.002614 0.011851 0.000000 -0.008312 0.000000
# 4 0.000000 0.000000 0.000000 0.093770 0.000000 0.058084
# 5 0.008244 0.004928 -0.008312 0.000000 0.045523 0.000000
# 6 0.000000 0.000000 0.000000 0.058084 0.000000 0.099212
#
#
# Mechanical properties :
#
#
# Convention : Reuss Voigt Hill
#
# Bulk Modulus (GPa) = 40.78621 49.42923 45.10772
# Shear Modulus (GPa) = 15.28001 23.88395 19.58198
#
# Velocity S-wave (km/s) = 2.66676 3.33407 3.01891
# Velocity P-wave (km/s) = 5.33523 6.15033 5.75723
#
# Compressibility (1/GPa) = 0.02451809
#
# Stress axis : x y z
#
# Youngs Moduli (GPa) = 35.14112 81.79869 84.38269
#
# Poissons Ratio (x) = 0.32317 0.62801
# Poissons Ratio (y) = 0.13883 0.22058
# Poissons Ratio (z) = 0.26154 0.21383
#
# Static dielectric constant tensor:
#      x y z
#    x 1.856270 0.000000 -0.011940 
#    y 0.000000 1.865070 0.000000 
#    z -0.011940 0.000000 1.799300 
# 
# From -- ./inp_files/93169.got.cif
#   From: 2010.05.17/outbox.cif.g08.bks.cpg/sg13_47_cif.got.tgz:93169.got - 2010.06.03 16:44:36.
