data_PCOD9238054
_publ_section_title
;
Structure prediction by ZEFSAII (Michael W. Deem and Ramdas Pophale) SiO2 
 PCOD9238054
Probable space group: P 2/C
;
_chemical_formula_sum "Si O2"
_cell_formula_units_Z 30
_cell_length_a 18.020908
_cell_length_b 6.154268
_cell_length_c 13.573729
_cell_angle_alpha 90.000000
_cell_angle_beta 116.640448
_cell_angle_gamma 90.000000
_cell_volume 1345.584645
_symmetry_space_group_name_H-M "P 2/C"
_symmetry_group_IT_number 13
_symmetry_cell_setting 'monoclinic'
loop_
_space_group_symop_operation_xyz
x,y,z
-x,y,1/2-z
-x,-y,-z
x,-y,1/2+z
loop_
_atom_site_type_symbol
_atom_site_label
_atom_site_fract_x
_atom_site_fract_y
_atom_site_fract_z
Si Si1 0.790736 0.696842 0.908371
Si Si2 0.717120 0.957399 0.515971
Si Si3 0.183235 0.445061 0.388790
Si Si4 0.323299 0.498024 0.324620
Si Si5 0.592135 0.177225 0.775119
Si Si6 0.000000 0.383934 0.250000
Si Si7 0.025637 0.754924 0.551881
Si Si8 0.414056 0.090238 0.407657
O O1 0.727239 0.646387 0.784581
O O2 0.876558 0.757346 0.909054
O O3 0.757619 0.871266 0.966577
O O4 0.806886 0.493694 0.989868
O O5 0.790110 0.806603 0.603031
O O6 0.651720 0.835021 0.404484
O O7 0.659262 0.024682 0.573104
O O8 0.253018 0.559475 0.362823
O O9 0.089466 0.504185 0.302049
O O10 0.367491 0.673281 0.283847
O O11 0.393243 0.342944 0.413225
O O12 0.500000 0.247293 0.750000
O O13 0.584666 0.953314 0.708813
O O14 0.999267 0.248881 0.149688
O O15 0.000000 0.500000 0.500000
O O16 0.000000 0.000000 0.500000
O O17 0.500000 0.000000 0.500000
#
# Coordination Sequence:
#
# PCOD9238054 Si02
#       8
#     4   4   4   4   4   2   4   4
#     4  12  23  44  72  99 140 191 237 299 373 447
#     4  11  24  43  67  98 139 186 235 295 363 437
#     4  11  24  46  68 102 142 183 239 301 370 440
#     4  11  25  42  68 104 138 181 236 298 365 436
#     4  12  24  42  68 100 138 186 237 296 360 442
#     4  12  24  48  76 112 150 194 264 314 390 470
#     4  12  28  50  76 112 155 202 255 323 392 463
#     4  11  24  44  66  96 138 179 236 292 357 435
#
# _framework density 22.295142999999999
#
# number of rings (size 3 to 8) (size 9 to 14) (size 15 to 20)
#    0.000    0.533    6.667    1.600    0.000    2.667 
#    2.400    0.000    0.000    0.000    0.000    0.000 
#    0.000    0.000    0.000    0.000    0.000    0.000 
#
# Total GULP energy -167238.224611 kJ/mol
# GULP energy per Si atom -5574.607487 kJ/mol
# Density = 2.224440 g / cm^3
# Si number density = 22.295143 Si / 1000 Ang^3
#
#
#
# Elastic Constant Matrix: (Units=GPa)
#
#
# Indices 1 2 3 4 5 6 
#
# 1 157.2411 36.0763 23.9741 0.0000 -10.1693 0.0000
# 2 36.0763 55.3951 21.8131 0.0000 0.6967 0.0000
# 3 23.9741 21.8131 81.8861 0.0000 -15.5392 0.0000
# 4 0.0000 0.0000 0.0000 28.5359 0.0000 -10.0718
# 5 -10.1693 0.6967 -15.5392 0.0000 54.0721 0.0000
# 6 0.0000 0.0000 0.0000 -10.0718 0.0000 14.3101
#
#
#
# Elastic Compliance Matrix: (Units=1/GPa)
#
#
# Indices 1 2 3 4 5 6 
#
# 1 0.007633 -0.004696 -0.000740 0.000000 0.001283 0.000000
# 2 -0.004696 0.023244 -0.005332 0.000000 -0.002715 0.000000
# 3 -0.000740 -0.005332 0.014634 0.000000 0.004135 0.000000
# 4 0.000000 0.000000 0.000000 0.046626 0.000000 0.032817
# 5 0.001283 -0.002715 0.004135 0.000000 0.019958 0.000000
# 6 0.000000 0.000000 0.000000 0.032817 0.000000 0.092978
#
#
# Mechanical properties :
#
#
# Convention : Reuss Voigt Hill
#
# Bulk Modulus (GPa) = 41.71116 50.91660 46.31388
# Shear Modulus (GPa) = 21.31277 33.56088 27.43683
#
# Velocity S-wave (km/s) = 3.09518 3.88403 3.51182
# Velocity P-wave (km/s) = 5.61451 6.55754 6.10426
#
# Compressibility (1/GPa) = 0.02397440
#
# Stress axis : x y z
#
# Youngs Moduli (GPa) = 131.01279 43.02183 68.33414
#
# Poissons Ratio (x) = 0.20201 0.05059
# Poissons Ratio (y) = 0.61517 0.36438
# Poissons Ratio (z) = 0.09700 0.22941
#
# Static dielectric constant tensor:
#      x y z
#    x 1.821620 0.000000 0.002240 
#    y 0.000000 1.913050 0.000000 
#    z 0.002240 0.000000 1.844260 
# 
# From -- ./inp_files/54686.got.cif
#   From: 2010.05.17/outbox.cif.g08.bks.cpg/sg13_28_cif.got.tgz:54686.got - 2010.06.03 16:44:36.
