data_PCOD9238213
_publ_section_title
;
Structure prediction by ZEFSAII (Michael W. Deem and Ramdas Pophale) SiO2 
 PCOD9238213
Probable space group: P 2/C
;
_chemical_formula_sum "Si O2"
_cell_formula_units_Z 22
_cell_length_a 11.553603
_cell_length_b 5.235925
_cell_length_c 25.194014
_cell_angle_alpha 90.000000
_cell_angle_beta 144.843466
_cell_angle_gamma 90.000000
_cell_volume 877.584854
_symmetry_space_group_name_H-M "P 2/C"
_symmetry_group_IT_number 13
_symmetry_cell_setting 'monoclinic'
loop_
_space_group_symop_operation_xyz
x,y,z
-x,y,1/2-z
-x,-y,-z
x,-y,1/2+z
loop_
_atom_site_type_symbol
_atom_site_label
_atom_site_fract_x
_atom_site_fract_y
_atom_site_fract_z
Si Si1 0.474069 0.449660 0.051187
Si Si2 0.493745 0.144319 0.647602
Si Si3 0.069269 0.306346 0.114581
Si Si4 0.837610 0.803234 0.005516
Si Si5 0.500000 0.490978 0.250000
Si Si6 0.146532 0.839466 0.756807
O O1 0.428428 0.696854 0.070531
O O2 0.289520 0.253651 0.988813
O O3 0.678373 0.333082 0.151762
O O4 0.500000 0.500000 0.000000
O O5 0.466372 0.325866 0.686984
O O6 0.349707 0.897975 0.600452
O O7 0.723990 0.064205 0.722798
O O8 0.985714 0.039732 0.062550
O O9 0.304031 0.332827 0.191650
O O10 0.040037 0.303838 0.167707
O O11 0.960965 0.544068 0.045254
O O12 0.000000 0.916233 0.750000
#
# Coordination Sequence:
#
# PCOD9238213 Si02
#       6
#     4   4   4   4   2   4
#     4  11  24  48  77 114 161 207 261 329 397 480
#     4  11  26  52  78 115 158 214 264 330 399 473
#     4  12  26  49  78 114 153 209 259 328 390 471
#     4  11  26  48  77 114 150 202 267 314 400 458
#     4  12  28  54  78 114 164 212 274 328 398 482
#     4  11  26  44  78 120 159 203 265 329 406 472
#
# _framework density 25.068801000000001
#
# number of rings (size 3 to 8) (size 9 to 14) (size 15 to 20)
#    0.000    0.727    3.636    2.182    2.545    6.545 
#    0.000    0.000    0.000    0.000    0.000    0.000 
#    0.000    0.000    0.000    0.000    0.000    0.000 
#
# Total GULP energy -123262.264722 kJ/mol
# GULP energy per Si atom -5602.830215 kJ/mol
# Density = 2.501174 g / cm^3
# Si number density = 25.068801 Si / 1000 Ang^3
#
#
#
# Elastic Constant Matrix: (Units=GPa)
#
#
# Indices 1 2 3 4 5 6 
#
# 1 152.2546 48.4994 61.1682 0.0000 -14.0104 0.0000
# 2 48.4994 142.8087 49.2112 0.0000 3.9016 0.0000
# 3 61.1682 49.2112 84.6060 0.0000 0.1965 0.0000
# 4 0.0000 0.0000 0.0000 38.3853 0.0000 16.2293
# 5 -14.0104 3.9016 0.1965 0.0000 60.3644 0.0000
# 6 0.0000 0.0000 0.0000 16.2293 0.0000 43.1148
#
#
#
# Elastic Compliance Matrix: (Units=1/GPa)
#
#
# Indices 1 2 3 4 5 6 
#
# 1 0.009705 -0.001176 -0.006338 0.000000 0.002349 0.000000
# 2 -0.001176 0.008919 -0.004335 0.000000 -0.000835 0.000000
# 3 -0.006338 -0.004335 0.018926 0.000000 -0.001252 0.000000
# 4 0.000000 0.000000 0.000000 0.030983 0.000000 -0.011662
# 5 0.002349 -0.000835 -0.001252 0.000000 0.017169 0.000000
# 6 0.000000 0.000000 0.000000 -0.011662 0.000000 0.027584
#
#
# Mechanical properties :
#
#
# Convention : Reuss Voigt Hill
#
# Bulk Modulus (GPa) = 72.19573 77.49188 74.84381
# Shear Modulus (GPa) = 35.31054 43.09228 39.20141
#
# Velocity S-wave (km/s) = 3.75713 4.15053 3.95872
# Velocity P-wave (km/s) = 6.90528 7.34493 7.12850
#
# Compressibility (1/GPa) = 0.01385124
#
# Stress axis : x y z
#
# Youngs Moduli (GPa) = 103.03990 112.12631 52.83711
#
# Poissons Ratio (x) = 0.13187 0.33487
# Poissons Ratio (y) = 0.12119 0.22906
# Poissons Ratio (z) = 0.65305 0.48609
#
# Static dielectric constant tensor:
#      x y z
#    x 1.930950 0.000000 0.018370 
#    y 0.000000 2.017630 0.000000 
#    z 0.018370 0.000000 2.033910 
# 
# From -- ./inp_files/65435.got.cif
#   From: 2010.05.17/outbox.cif.g08.bks.cpg/sg13_33_cif.got.tgz:65435.got - 2010.06.03 16:44:36.
