data_PCOD9238459
_publ_section_title
;
Structure prediction by ZEFSAII (Michael W. Deem and Ramdas Pophale) SiO2 
 PCOD9238459
Probable space group: P 2/C
;
_chemical_formula_sum "Si O2"
_cell_formula_units_Z 26
_cell_length_a 7.577504
_cell_length_b 18.043377
_cell_length_c 9.881432
_cell_angle_alpha 90.000000
_cell_angle_beta 129.672937
_cell_angle_gamma 90.000000
_cell_volume 1039.886736
_symmetry_space_group_name_H-M "P 2/C"
_symmetry_group_IT_number 13
_symmetry_cell_setting 'monoclinic'
loop_
_space_group_symop_operation_xyz
x,y,z
-x,y,1/2-z
-x,-y,-z
x,-y,1/2+z
loop_
_atom_site_type_symbol
_atom_site_label
_atom_site_fract_x
_atom_site_fract_y
_atom_site_fract_z
Si Si1 0.145265 0.717883 0.513219
Si Si2 0.637314 0.881572 0.605248
Si Si3 0.000000 0.999829 0.250000
Si Si4 0.369155 0.722110 0.905647
Si Si5 0.190207 0.443984 0.038861
Si Si6 0.138893 0.876691 0.486648
Si Si7 0.727487 0.432203 0.121673
O O1 0.180678 0.717460 0.692851
O O2 0.391882 0.725776 0.559785
O O3 0.076676 0.634307 0.442642
O O4 0.026709 0.794941 0.415674
O O5 0.667128 0.802142 0.545732
O O6 0.367925 0.888499 0.506244
O O7 0.762024 0.877200 0.813436
O O8 0.779805 0.948520 0.611624
O O9 0.975081 0.943374 0.363975
O O10 0.372630 0.644552 0.987481
O O11 0.327113 0.430430 0.245555
O O12 0.299832 0.489665 0.968479
O O13 0.000000 0.500000 0.000000
O O14 0.000000 0.420485 0.250000
#
# Coordination Sequence:
#
# PCOD9238459 Si02
#       7
#     4   4   2   4   4   4   4
#     4   8  15  31  50  66  97 133 174 200 258 319
#     4   9  19  34  54  74 109 136 179 223 267 316
#     4  12  20  30  54  86 100 130 180 226 276 318
#     4   8  15  29  50  71  90 133 170 214 253 310
#     4   9  17  30  46  72  97 133 167 216 258 304
#     4   9  19  36  51  76 106 145 173 218 266 332
#     4   9  17  28  46  70 102 124 171 213 264 305
#
# _framework density 25.002723
#
# number of rings (size 3 to 8) (size 9 to 14) (size 15 to 20)
#    0.000    3.077    0.000    2.769    1.077    0.615 
#    4.154    0.000    0.000    0.000    0.000    0.000 
#    0.000    0.000    0.000    0.000    0.000    0.000 
#
# Total GULP energy -144901.831883 kJ/mol
# GULP energy per Si atom -5573.147380 kJ/mol
# Density = 2.494582 g / cm^3
# Si number density = 25.002723 Si / 1000 Ang^3
#
#
#
# Elastic Constant Matrix: (Units=GPa)
#
#
# Indices 1 2 3 4 5 6 
#
# 1 64.2507 16.8089 -4.9383 0.0000 -15.0206 0.0000
# 2 16.8089 250.6849 15.2250 0.0000 -9.0205 0.0000
# 3 -4.9383 15.2250 37.0233 0.0000 -9.3668 0.0000
# 4 0.0000 0.0000 0.0000 18.8698 0.0000 -4.1539
# 5 -15.0206 -9.0205 -9.3668 0.0000 20.7224 0.0000
# 6 0.0000 0.0000 0.0000 -4.1539 0.0000 31.2126
#
#
#
# Elastic Compliance Matrix: (Units=1/GPa)
#
#
# Indices 1 2 3 4 5 6 
#
# 1 0.020690 -0.001214 0.007813 0.000000 0.018000 0.000000
# 2 -0.001214 0.004187 -0.001858 0.000000 0.000103 0.000000
# 3 0.007813 -0.001858 0.033924 0.000000 0.020189 0.000000
# 4 0.000000 0.000000 0.000000 0.054594 0.000000 0.007266
# 5 0.018000 0.000103 0.020189 0.000000 0.070475 0.000000
# 6 0.000000 0.000000 0.000000 0.007266 0.000000 0.033005
#
#
# Mechanical properties :
#
#
# Convention : Reuss Voigt Hill
#
# Bulk Modulus (GPa) = 14.64480 45.12781 29.88630
# Shear Modulus (GPa) = 21.72455 35.81851 28.77153
#
# Velocity S-wave (km/s) = 2.95089 3.78906 3.39593
# Velocity P-wave (km/s) = 4.18095 6.10172 5.23026
#
# Compressibility (1/GPa) = 0.06828363
#
# Stress axis : x y z
#
# Youngs Moduli (GPa) = 48.33177 238.83403 29.47780
#
# Poissons Ratio (x) = 0.28997 -0.23031
# Poissons Ratio (y) = 0.05868 0.05476
# Poissons Ratio (z) = -0.37762 0.44369
#
# Static dielectric constant tensor:
#      x y z
#    x 2.018780 0.000000 -0.040790 
#    y 0.000000 2.145850 0.000000 
#    z -0.040790 0.000000 1.944720 
# 
# From -- ./inp_files/30231.got.cif
#   From: 2010.05.17/outbox.cif.g08.bks.cpg/sg13_16_cif.got.tgz:30231.got - 2010.06.03 16:44:36.
