data_PCOD9238201
_publ_section_title
;
Structure prediction by ZEFSAII (Michael W. Deem and Ramdas Pophale) SiO2 
 PCOD9238201
Probable space group: P 2/C
;
_chemical_formula_sum "Si O2"
_cell_formula_units_Z 20
_cell_length_a 12.344140
_cell_length_b 7.986892
_cell_length_c 11.628740
_cell_angle_alpha 90.000000
_cell_angle_beta 130.129907
_cell_angle_gamma 90.000000
_cell_volume 876.591247
_symmetry_space_group_name_H-M "P 2/C"
_symmetry_group_IT_number 13
_symmetry_cell_setting 'monoclinic'
loop_
_space_group_symop_operation_xyz
x,y,z
-x,y,1/2-z
-x,-y,-z
x,-y,1/2+z
loop_
_atom_site_type_symbol
_atom_site_label
_atom_site_fract_x
_atom_site_fract_y
_atom_site_fract_z
Si Si1 0.133596 0.924697 0.929613
Si Si2 0.143136 0.418064 0.556285
Si Si3 0.158834 0.712025 0.410051
Si Si4 0.544822 0.929823 0.404789
Si Si5 0.382839 0.367517 0.883125
O O1 0.000000 0.913209 0.750000
O O2 0.146566 0.119177 0.978691
O O3 0.122714 0.777648 0.015718
O O4 0.287447 0.895057 0.978178
O O5 0.187374 0.528321 0.478369
O O6 0.257205 0.456159 0.730478
O O7 0.000000 0.500000 0.500000
O O8 0.294175 0.735025 0.419193
O O9 0.000000 0.702616 0.250000
O O10 0.500000 0.013869 0.250000
O O11 0.455847 0.758723 0.344982
O O12 0.500000 0.000000 0.500000
O O13 0.500000 0.500000 0.000000
#
# Coordination Sequence:
#
# PCOD9238201 Si02
#       5
#     4   4   4   4   4
#     4  11  26  48  77 111 152 205 263 321 399 480
#     4  12  26  47  75 108 152 201 261 326 393 471
#     4  11  24  48  72 109 149 196 261 317 394 477
#     4  12  26  51  76 112 161 204 262 330 399 472
#     4  12  27  46  73 107 153 203 260 328 396 476
#
# _framework density 22.815650000000002
#
# number of rings (size 3 to 8) (size 9 to 14) (size 15 to 20)
#    0.000    0.400    6.000    1.800    2.800    2.400 
#    0.000    0.000    0.000    0.000    0.000    0.000 
#    0.000    0.000    0.000    0.000    0.000    0.000 
#
# Total GULP energy -111513.002062 kJ/mol
# GULP energy per Si atom -5575.650103 kJ/mol
# Density = 2.276372 g / cm^3
# Si number density = 22.815650 Si / 1000 Ang^3
#
#
#
# Elastic Constant Matrix: (Units=GPa)
#
#
# Indices 1 2 3 4 5 6 
#
# 1 135.5354 20.2018 47.5756 0.0000 21.9044 0.0000
# 2 20.2018 102.3322 30.4372 0.0000 -4.1891 0.0000
# 3 47.5756 30.4372 137.9736 0.0000 28.3898 0.0000
# 4 0.0000 0.0000 0.0000 20.9384 0.0000 -11.4016
# 5 21.9044 -4.1891 28.3898 0.0000 47.8367 0.0000
# 6 0.0000 0.0000 0.0000 -11.4016 0.0000 36.1812
#
#
#
# Elastic Compliance Matrix: (Units=1/GPa)
#
#
# Indices 1 2 3 4 5 6 
#
# 1 0.008780 -0.001201 -0.002180 0.000000 -0.002832 0.000000
# 2 -0.001201 0.010915 -0.002624 0.000000 0.003063 0.000000
# 3 -0.002180 -0.002624 0.009591 0.000000 -0.004924 0.000000
# 4 0.000000 0.000000 0.000000 0.057652 0.000000 0.018168
# 5 -0.002832 0.003063 -0.004924 0.000000 0.025392 0.000000
# 6 0.000000 0.000000 0.000000 0.018168 0.000000 0.033364
#
#
# Mechanical properties :
#
#
# Convention : Reuss Voigt Hill
#
# Bulk Modulus (GPa) = 57.88085 63.58561 60.73323
# Shear Modulus (GPa) = 30.58807 39.49970 35.04389
#
# Velocity S-wave (km/s) = 3.66548 4.16535 3.92338
# Velocity P-wave (km/s) = 6.58318 7.14586 6.87028
#
# Compressibility (1/GPa) = 0.01727687
#
# Stress axis : x y z
#
# Youngs Moduli (GPa) = 113.89554 91.61683 104.25957
#
# Poissons Ratio (x) = 0.11002 0.22728
# Poissons Ratio (y) = 0.13677 0.27358
# Poissons Ratio (z) = 0.24828 0.24041
#
# Static dielectric constant tensor:
#      x y z
#    x 1.795880 0.000000 -0.028100 
#    y 0.000000 1.897100 0.000000 
#    z -0.028100 0.000000 1.909790 
# 
# From -- ./inp_files/32763.got.cif
#   From: 2010.05.17/outbox.cif.g08.bks.cpg/sg13_17_cif.got.tgz:32763.got - 2010.06.03 16:44:36.
