data_PCOD9238694
_publ_section_title
;
Structure prediction by ZEFSAII (Michael W. Deem and Ramdas Pophale) SiO2 
 PCOD9238694
Probable space group: P 2/C
;
_chemical_formula_sum "Si O2"
_cell_formula_units_Z 28
_cell_length_a 18.873413
_cell_length_b 6.506760
_cell_length_c 11.830804
_cell_angle_alpha 90.000000
_cell_angle_beta 120.772974
_cell_angle_gamma 90.000000
_cell_volume 1248.315695
_symmetry_space_group_name_H-M "P 2/C"
_symmetry_group_IT_number 13
_symmetry_cell_setting 'monoclinic'
loop_
_space_group_symop_operation_xyz
x,y,z
-x,y,1/2-z
-x,-y,-z
x,-y,1/2+z
loop_
_atom_site_type_symbol
_atom_site_label
_atom_site_fract_x
_atom_site_fract_y
_atom_site_fract_z
Si Si1 0.862451 0.829440 0.144130
Si Si2 0.000000 0.866520 0.750000
Si Si3 0.500000 0.364173 0.250000
Si Si4 0.417517 0.085110 0.991034
Si Si5 0.266459 0.844636 0.978360
Si Si6 0.212518 0.480109 0.263059
Si Si7 0.356581 0.387692 0.751424
Si Si8 0.071539 0.514006 0.966033
O O1 0.810281 0.686250 0.186264
O O2 0.914452 0.674302 0.108331
O O3 0.931296 0.984671 0.250127
O O4 0.792559 0.970555 0.028117
O O5 0.048566 0.717314 0.876002
O O6 0.552305 0.226216 0.379850
O O7 0.562814 0.506110 0.231974
O O8 0.377359 0.210658 0.856519
O O9 0.347946 0.933079 0.982969
O O10 0.500000 0.000000 0.000000
O O11 0.210432 0.707633 0.848567
O O12 0.300930 0.702533 0.105841
O O13 0.302623 0.460628 0.282833
O O14 0.152296 0.498304 0.108415
O O15 0.000000 0.500000 0.000000
#
# Coordination Sequence:
#
# PCOD9238694 Si02
#       8
#     4   2   2   4   4   4   4   4
#     4  12  26  47  73 107 149 190 252 303 370 456
#     4  12  26  48  72 108 146 190 248 300 368 458
#     4  12  26  46  74 110 152 194 258 316 366 454
#     4  12  25  46  72 107 150 198 250 306 381 442
#     4  12  27  45  73 110 147 193 257 307 367 458
#     4  12  26  47  72 107 148 195 247 309 376 435
#     4  12  25  45  73 107 148 199 245 314 377 432
#     4  12  27  46  75 107 149 193 242 309 375 437
#
# _framework density 22.430223999999999
#
# number of rings (size 3 to 8) (size 9 to 14) (size 15 to 20)
#    0.000    0.000    1.429    9.429    4.000    4.571 
#    0.000    0.000    0.000    0.000    0.000    0.000 
#    0.000    0.000    0.000    0.000    0.000    0.000 
#
# Total GULP energy -156566.590053 kJ/mol
# GULP energy per Si atom -5591.663930 kJ/mol
# Density = 2.237917 g / cm^3
# Si number density = 22.430224 Si / 1000 Ang^3
#
#
#
# Elastic Constant Matrix: (Units=GPa)
#
#
# Indices 1 2 3 4 5 6 
#
# 1 155.4045 49.3282 17.2999 0.0000 -4.4427 0.0000
# 2 49.3282 102.5109 41.9801 0.0000 -6.3525 0.0000
# 3 17.2999 41.9801 86.6179 0.0000 -4.9447 0.0000
# 4 0.0000 0.0000 0.0000 29.5774 0.0000 11.8767
# 5 -4.4427 -6.3525 -4.9447 0.0000 31.9887 0.0000
# 6 0.0000 0.0000 0.0000 11.8767 0.0000 63.4237
#
#
#
# Elastic Compliance Matrix: (Units=1/GPa)
#
#
# Indices 1 2 3 4 5 6 
#
# 1 0.007606 -0.003773 0.000330 0.000000 0.000358 0.000000
# 2 -0.003773 0.014116 -0.006011 0.000000 0.001350 0.000000
# 3 0.000330 -0.006011 0.014454 0.000000 0.001086 0.000000
# 4 0.000000 0.000000 0.000000 0.036559 0.000000 -0.006846
# 5 0.000358 0.001350 0.001086 0.000000 0.031747 0.000000
# 6 0.000000 0.000000 0.000000 -0.006846 0.000000 0.017049
#
#
# Mechanical properties :
#
#
# Convention : Reuss Voigt Hill
#
# Bulk Modulus (GPa) = 57.90885 62.41665 60.16275
# Shear Modulus (GPa) = 34.20121 40.72630 37.46376
#
# Velocity S-wave (km/s) = 3.90908 4.26571 4.09129
# Velocity P-wave (km/s) = 6.80058 7.22144 7.01417
#
# Compressibility (1/GPa) = 0.01726852
#
# Stress axis : x y z
#
# Youngs Moduli (GPa) = 131.47672 70.84298 69.18388
#
# Poissons Ratio (x) = 0.26728 -0.02282
# Poissons Ratio (y) = 0.49604 0.41584
# Poissons Ratio (z) = -0.04337 0.42582
#
# Static dielectric constant tensor:
#      x y z
#    x 78.449370 0.000000 4.829810 
#    y 0.000000 2.033080 0.000000 
#    z 4.829810 0.000000 2.116140 
# 
# From -- ./inp_files/40222.got.cif
#   From: 2010.05.17/outbox.cif.g08.bks.cpg/sg13_21_cif.got.tgz:40222.got - 2010.06.03 16:44:36.
