data_PCOD9238443
_publ_section_title
;
Structure prediction by ZEFSAII (Michael W. Deem and Ramdas Pophale) SiO2 
 PCOD9238443
Probable space group: P 2/C
;
_chemical_formula_sum "Si O2"
_cell_formula_units_Z 18
_cell_length_a 6.209574
_cell_length_b 9.661840
_cell_length_c 12.970746
_cell_angle_alpha 90.000000
_cell_angle_beta 59.231181
_cell_angle_gamma 90.000000
_cell_volume 668.652227
_symmetry_space_group_name_H-M "P 2/C"
_symmetry_group_IT_number 13
_symmetry_cell_setting 'monoclinic'
loop_
_space_group_symop_operation_xyz
x,y,z
-x,y,1/2-z
-x,-y,-z
x,-y,1/2+z
loop_
_atom_site_type_symbol
_atom_site_label
_atom_site_fract_x
_atom_site_fract_y
_atom_site_fract_z
Si Si1 0.642723 0.174158 0.380319
Si Si2 0.500000 0.041920 0.750000
Si Si3 0.903758 0.841925 0.014243
Si Si4 0.204560 0.744064 0.109608
Si Si5 0.686441 0.516008 0.802954
O O1 0.647237 0.060921 0.290284
O O2 0.872091 0.183831 0.402521
O O3 0.402456 0.146320 0.514405
O O4 0.611756 0.326966 0.343505
O O5 0.345038 0.142656 0.859058
O O6 0.049594 0.724238 0.041567
O O7 0.000000 0.000000 0.000000
O O8 0.361440 0.613136 0.109288
O O9 0.000000 0.782996 0.250000
O O10 0.500000 0.483491 0.750000
O O11 0.000000 0.516909 0.750000
#
# Coordination Sequence:
#
# PCOD9238443 Si02
#       5
#     4   2   4   4   4
#     4  12  27  49  80 111 159 211 269 338 403 485
#     4  12  26  50  74 118 164 204 278 328 410 482
#     4  12  28  45  75 111 155 210 264 327 401 484
#     4  11  27  50  77 112 159 206 267 329 408 478
#     4  11  28  51  84 121 161 211 271 342 411 481
#
# _framework density 26.919822
#
# number of rings (size 3 to 8) (size 9 to 14) (size 15 to 20)
#    0.000    0.444    3.333    2.667   15.556    0.889 
#    0.000    0.000    0.000    0.000    0.000    0.000 
#    0.000    0.000    0.000    0.000    0.000    0.000 
#
# Total GULP energy -100348.337141 kJ/mol
# GULP energy per Si atom -5574.907619 kJ/mol
# Density = 2.685855 g / cm^3
# Si number density = 26.919822 Si / 1000 Ang^3
#
#
#
# Elastic Constant Matrix: (Units=GPa)
#
#
# Indices 1 2 3 4 5 6 
#
# 1 139.5841 46.1564 70.7105 0.0000 53.0759 0.0000
# 2 46.1564 131.7620 33.8814 0.0000 43.4356 0.0000
# 3 70.7105 33.8814 86.0790 0.0000 40.2006 0.0000
# 4 0.0000 0.0000 0.0000 46.8938 0.0000 22.6684
# 5 53.0759 43.4356 40.2006 0.0000 97.8989 0.0000
# 6 0.0000 0.0000 0.0000 22.6684 0.0000 63.0668
#
#
#
# Elastic Compliance Matrix: (Units=1/GPa)
#
#
# Indices 1 2 3 4 5 6 
#
# 1 0.013291 -0.001384 -0.009026 0.000000 -0.002886 0.000000
# 2 -0.001384 0.009336 -0.001180 0.000000 -0.002907 0.000000
# 3 -0.009026 -0.001180 0.020992 0.000000 -0.003203 0.000000
# 4 0.000000 0.000000 0.000000 0.025809 0.000000 -0.009277
# 5 -0.002886 -0.002907 -0.003203 0.000000 0.014384 0.000000
# 6 0.000000 0.000000 0.000000 -0.009277 0.000000 0.019191
#
#
# Mechanical properties :
#
#
# Convention : Reuss Voigt Hill
#
# Bulk Modulus (GPa) = 48.92496 73.21353 61.06924
# Shear Modulus (GPa) = 37.59491 55.35036 46.47264
#
# Velocity S-wave (km/s) = 3.74110 4.53936 4.15943
# Velocity P-wave (km/s) = 6.07247 7.39800 6.76776
#
# Compressibility (1/GPa) = 0.02043947
#
# Stress axis : x y z
#
# Youngs Moduli (GPa) = 75.23696 107.11131 47.63682
#
# Poissons Ratio (x) = 0.14822 0.42997
# Poissons Ratio (y) = 0.10411 0.05622
# Poissons Ratio (z) = 0.67909 0.12642
#
# Static dielectric constant tensor:
#      x y z
#    x 2.141810 0.000000 0.294990 
#    y 0.000000 2.009860 0.000000 
#    z 0.294990 0.000000 1.737520 
# 
# From -- ./inp_files/25734.got.cif
#   From: 2010.05.17/outbox.cif.g08.bks.cpg/sg13_13_cif.got.tgz:25734.got - 2010.06.03 16:44:36.
