data_PCOD9238648
_publ_section_title
;
Structure prediction by ZEFSAII (Michael W. Deem and Ramdas Pophale) SiO2 
 PCOD9238648
Probable space group: P 2/C
;
_chemical_formula_sum "Si O2"
_cell_formula_units_Z 18
_cell_length_a 9.239863
_cell_length_b 5.283095
_cell_length_c 17.282512
_cell_angle_alpha 90.000000
_cell_angle_beta 60.854021
_cell_angle_gamma 90.000000
_cell_volume 736.825911
_symmetry_space_group_name_H-M "P 2/C"
_symmetry_group_IT_number 13
_symmetry_cell_setting 'monoclinic'
loop_
_space_group_symop_operation_xyz
x,y,z
-x,y,1/2-z
-x,-y,-z
x,-y,1/2+z
loop_
_atom_site_type_symbol
_atom_site_label
_atom_site_fract_x
_atom_site_fract_y
_atom_site_fract_z
Si Si1 0.867439 0.154697 0.387849
Si Si2 0.795033 0.403575 0.165707
Si Si3 0.381922 0.711370 0.414558
Si Si4 0.500000 0.075344 0.250000
Si Si5 0.234396 0.651530 0.175214
O O1 0.727114 0.169433 0.489933
O O2 0.838716 0.394958 0.340255
O O3 0.045450 0.224216 0.378901
O O4 0.841416 0.896894 0.347127
O O5 0.726341 0.494819 0.100497
O O6 0.645099 0.249894 0.243658
O O7 0.808201 0.639268 0.222005
O O8 0.567606 0.640125 0.391984
O O9 0.421614 0.910535 0.337184
#
# Coordination Sequence:
#
# PCOD9238648 Si02
#       5
#     4   4   4   2   4
#     4  12  31  47  80 116 158 196 262 329 387 452
#     4  12  27  49  79 113 153 213 263 316 386 475
#     4  12  26  50  78 112 153 209 262 316 384 473
#     4  12  24  46  84 102 156 202 270 306 390 454
#     4  12  26  51  74 116 155 205 251 322 399 462
#
# _framework density 24.429110000000001
#
# number of rings (size 3 to 8) (size 9 to 14) (size 15 to 20)
#    0.000    0.000    4.444    4.000    6.222    4.444 
#    0.000    0.000    0.000    0.000    0.000    0.000 
#    0.000    0.000    0.000    0.000    0.000    0.000 
#
# Total GULP energy -100862.395157 kJ/mol
# GULP energy per Si atom -5603.466398 kJ/mol
# Density = 2.437351 g / cm^3
# Si number density = 24.429110 Si / 1000 Ang^3
#
#
#
# Elastic Constant Matrix: (Units=GPa)
#
#
# Indices 1 2 3 4 5 6 
#
# 1 142.8978 36.8871 11.6369 0.0000 -31.3497 0.0000
# 2 36.8871 115.8386 3.9504 0.0000 4.2882 0.0000
# 3 11.6369 3.9504 100.0919 0.0000 -23.7511 0.0000
# 4 0.0000 0.0000 0.0000 30.3487 0.0000 4.4871
# 5 -31.3497 4.2882 -23.7511 0.0000 37.2080 0.0000
# 6 0.0000 0.0000 0.0000 4.4871 0.0000 50.8021
#
#
#
# Elastic Compliance Matrix: (Units=1/GPa)
#
#
# Indices 1 2 3 4 5 6 
#
# 1 0.009910 -0.003553 0.001257 0.000000 0.009562 0.000000
# 2 -0.003553 0.009983 -0.001136 0.000000 -0.004869 0.000000
# 3 0.001257 -0.001136 0.011988 0.000000 0.008842 0.000000
# 4 0.000000 0.000000 0.000000 0.033386 0.000000 -0.002949
# 5 0.009562 -0.004869 0.008842 0.000000 0.041138 0.000000
# 6 0.000000 0.000000 0.000000 -0.002949 0.000000 0.019945
#
#
# Mechanical properties :
#
#
# Convention : Reuss Voigt Hill
#
# Bulk Modulus (GPa) = 39.97281 51.53079 45.75180
# Shear Modulus (GPa) = 35.32239 44.09534 39.70887
#
# Velocity S-wave (km/s) = 3.80664 4.25318 4.03609
# Velocity P-wave (km/s) = 5.97654 6.72749 6.36310
#
# Compressibility (1/GPa) = 0.02501701
#
# Stress axis : x y z
#
# Youngs Moduli (GPa) = 100.90339 100.17025 83.41866
#
# Poissons Ratio (x) = 0.35587 -0.10486
# Poissons Ratio (y) = 0.35848 0.09480
# Poissons Ratio (z) = -0.12683 0.11383
#
# Static dielectric constant tensor:
#      x y z
#    x 2.083310 0.000000 0.018920 
#    y 0.000000 1.955820 0.000000 
#    z 0.018920 0.000000 1.901230 
# 
# From -- ./inp_files/62270.got.cif
#   From: 2010.05.17/outbox.cif.g08.bks.cpg/sg13_32_cif.got.tgz:62270.got - 2010.06.03 16:44:36.
