data_PCOD9238433
_publ_section_title
;
Structure prediction by ZEFSAII (Michael W. Deem and Ramdas Pophale) SiO2 
 PCOD9238433
Probable space group: P 2/C
;
_chemical_formula_sum "Si O2"
_cell_formula_units_Z 14
_cell_length_a 5.007937
_cell_length_b 8.484492
_cell_length_c 13.441368
_cell_angle_alpha 90.000000
_cell_angle_beta 75.111434
_cell_angle_gamma 90.000000
_cell_volume 551.947023
_symmetry_space_group_name_H-M "P 2/C"
_symmetry_group_IT_number 13
_symmetry_cell_setting 'monoclinic'
loop_
_space_group_symop_operation_xyz
x,y,z
-x,y,1/2-z
-x,-y,-z
x,-y,1/2+z
loop_
_atom_site_type_symbol
_atom_site_label
_atom_site_fract_x
_atom_site_fract_y
_atom_site_fract_z
Si Si1 0.576683 0.123508 0.856844
Si Si2 0.000000 0.644837 0.250000
Si Si3 0.296880 0.221359 0.077932
Si Si4 0.803818 0.422065 0.104136
O O1 0.500000 0.132809 0.750000
O O2 0.833249 0.242009 0.840170
O O3 0.643243 0.943766 0.875457
O O4 0.354811 0.186808 0.956310
O O5 0.191597 0.537574 0.301902
O O6 0.510443 0.357577 0.093613
O O7 0.983323 0.272171 0.121857
O O8 0.000000 0.500000 0.000000
#
# Coordination Sequence:
#
# PCOD9238433 Si02
#       4
#     4   2   4   4
#     4  11  27  47  74 107 145 197 244 301 360 443
#     4  12  28  42  80 106 150 190 252 302 366 426
#     4  11  28  49  74 104 152 194 240 299 371 434
#     4  12  26  49  73 110 146 190 243 307 366 430
#
# _framework density 25.364750000000001
#
# number of rings (size 3 to 8) (size 9 to 14) (size 15 to 20)
#    0.000    0.571    2.857    2.571   12.000    2.286 
#    0.000    0.000    0.000    0.000    0.000    0.000 
#    0.000    0.000    0.000    0.000    0.000    0.000 
#
# Total GULP energy -78547.183726 kJ/mol
# GULP energy per Si atom -5610.513123 kJ/mol
# Density = 2.530702 g / cm^3
# Si number density = 25.364750 Si / 1000 Ang^3
#
#
#
# Elastic Constant Matrix: (Units=GPa)
#
#
# Indices 1 2 3 4 5 6 
#
# 1 79.7051 21.2421 29.3842 0.0000 17.2794 0.0000
# 2 21.2421 116.5263 54.6607 0.0000 6.1651 0.0000
# 3 29.3842 54.6607 115.5281 0.0000 21.6104 0.0000
# 4 0.0000 0.0000 0.0000 30.0200 0.0000 -18.8468
# 5 17.2794 6.1651 21.6104 0.0000 39.5766 0.0000
# 6 0.0000 0.0000 0.0000 -18.8468 0.0000 27.6044
#
#
#
# Elastic Compliance Matrix: (Units=1/GPa)
#
#
# Indices 1 2 3 4 5 6 
#
# 1 0.014817 -0.001427 -0.002144 0.000000 -0.005076 0.000000
# 2 -0.001427 0.011224 -0.005276 0.000000 0.001755 0.000000
# 3 -0.002144 -0.005276 0.012662 0.000000 -0.005156 0.000000
# 4 0.000000 0.000000 0.000000 0.058301 0.000000 0.039805
# 5 -0.005076 0.001755 -0.005156 0.000000 0.030026 0.000000
# 6 0.000000 0.000000 0.000000 0.039805 0.000000 0.063402
#
#
# Mechanical properties :
#
#
# Convention : Reuss Voigt Hill
#
# Bulk Modulus (GPa) = 47.59726 58.03707 52.81717
# Shear Modulus (GPa) = 23.24189 33.20503 28.22346
#
# Velocity S-wave (km/s) = 3.03034 3.62208 3.33934
# Velocity P-wave (km/s) = 5.57224 6.35793 5.97800
#
# Compressibility (1/GPa) = 0.02100961
#
# Stress axis : x y z
#
# Youngs Moduli (GPa) = 67.48792 89.09628 78.97690
#
# Poissons Ratio (x) = 0.12712 0.16934
# Poissons Ratio (y) = 0.09629 0.41667
# Poissons Ratio (z) = 0.14470 0.47006
#
# Static dielectric constant tensor:
#      x y z
#    x 2.003620 0.000000 0.005630 
#    y 0.000000 1.987550 0.000000 
#    z 0.005630 0.000000 2.042470 
# 
# From -- ./inp_files/25259.got.cif
#   From: 2010.05.17/outbox.cif.g08.bks.cpg/sg13_13_cif.got.tgz:25259.got - 2010.06.03 16:44:36.
