data_PCOD9238579
_publ_section_title
;
Structure prediction by ZEFSAII (Michael W. Deem and Ramdas Pophale) SiO2 
 PCOD9238579
Probable space group: P 2/C
;
_chemical_formula_sum "Si O2"
_cell_formula_units_Z 24
_cell_length_a 10.793771
_cell_length_b 9.299530
_cell_length_c 11.395957
_cell_angle_alpha 90.000000
_cell_angle_beta 118.272876
_cell_angle_gamma 90.000000
_cell_volume 1007.427568
_symmetry_space_group_name_H-M "P 2/C"
_symmetry_group_IT_number 13
_symmetry_cell_setting 'monoclinic'
loop_
_space_group_symop_operation_xyz
x,y,z
-x,y,1/2-z
-x,-y,-z
x,-y,1/2+z
loop_
_atom_site_type_symbol
_atom_site_label
_atom_site_fract_x
_atom_site_fract_y
_atom_site_fract_z
Si Si1 0.500000 0.329886 0.250000
Si Si2 0.000000 0.256475 0.750000
Si Si3 0.879584 0.890326 0.421476
Si Si4 0.531752 0.205451 0.626598
Si Si5 0.778778 0.737860 0.590610
Si Si6 0.280667 0.409512 0.946841
Si Si7 0.686557 0.917949 0.724752
O O1 0.612999 0.407530 0.390353
O O2 0.404468 0.218357 0.279323
O O3 0.909632 0.172459 0.806765
O O4 0.874463 0.335316 0.618930
O O5 0.864214 0.767152 0.511021
O O6 0.744564 0.995493 0.363664
O O7 0.000000 0.000000 0.500000
O O8 0.500000 0.229024 0.750000
O O9 0.379262 0.209305 0.502906
O O10 0.628184 0.329185 0.612476
O O11 0.603814 0.052552 0.633386
O O12 0.760898 0.570970 0.608199
O O13 0.816903 0.848101 0.711458
#
# Coordination Sequence:
#
# PCOD9238579 Si02
#       7
#     2   2   4   4   4   4   4
#     4  12  26  42  74 118 154 196 262 314 386 456
#     4  12  26  52  74 104 156 204 254 304 398 464
#     4  12  26  46  76 107 149 204 256 325 380 462
#     4  12  23  46  76 108 148 195 254 325 385 448
#     4  12  27  46  74 110 149 197 258 316 393 460
#     4  12  29  47  76 112 159 204 247 323 391 475
#     4  12  24  42  74 106 146 194 257 319 373 451
#
# _framework density 23.823053999999999
#
# number of rings (size 3 to 8) (size 9 to 14) (size 15 to 20)
#    0.000    0.000    5.833    3.000    3.500    3.333 
#    0.000    0.000    0.000    0.000    0.000    0.000 
#    0.000    0.000    0.000    0.000    0.000    0.000 
#
# Total GULP energy -133901.864468 kJ/mol
# GULP energy per Si atom -5579.244353 kJ/mol
# Density = 2.376883 g / cm^3
# Si number density = 23.823054 Si / 1000 Ang^3
#
#
#
# Elastic Constant Matrix: (Units=GPa)
#
#
# Indices 1 2 3 4 5 6 
#
# 1 86.0369 29.4790 29.0313 0.0000 -6.2470 0.0000
# 2 29.4790 125.9944 27.4212 0.0000 -14.8207 0.0000
# 3 29.0313 27.4212 86.0029 0.0000 -5.9124 0.0000
# 4 0.0000 0.0000 0.0000 16.3107 0.0000 -6.3553
# 5 -6.2470 -14.8207 -5.9124 0.0000 62.3746 0.0000
# 6 0.0000 0.0000 0.0000 -6.3553 0.0000 33.9399
#
#
#
# Elastic Compliance Matrix: (Units=1/GPa)
#
#
# Indices 1 2 3 4 5 6 
#
# 1 0.013759 -0.002322 -0.003872 0.000000 0.000459 0.000000
# 2 -0.002322 0.009122 -0.002004 0.000000 0.001745 0.000000
# 3 -0.003872 -0.002004 0.013603 0.000000 0.000425 0.000000
# 4 0.000000 0.000000 0.000000 0.066135 0.000000 0.012384
# 5 0.000459 0.001745 0.000425 0.000000 0.016533 0.000000
# 6 0.000000 0.000000 0.000000 0.012384 0.000000 0.031783
#
#
# Mechanical properties :
#
#
# Convention : Reuss Voigt Hill
#
# Bulk Modulus (GPa) = 49.78848 52.21081 50.99965
# Shear Modulus (GPa) = 28.73115 36.66521 32.69818
#
# Velocity S-wave (km/s) = 3.47655 3.92735 3.70880
# Velocity P-wave (km/s) = 6.08768 6.52143 6.30829
#
# Compressibility (1/GPa) = 0.02008497
#
# Stress axis : x y z
#
# Youngs Moduli (GPa) = 72.68172 109.62849 73.51303
#
# Poissons Ratio (x) = 0.25459 0.28467
# Poissons Ratio (y) = 0.16879 0.14736
# Poissons Ratio (z) = 0.28145 0.21975
#
# Static dielectric constant tensor:
#      x y z
#    x 0.916810 0.000000 0.691330 
#    y 0.000000 1.937440 0.000000 
#    z 0.691330 0.000000 1.920950 
# 
# From -- ./inp_files/32714.got.cif
#   From: 2010.05.17/outbox.cif.g08.bks.cpg/sg13_17_cif.got.tgz:32714.got - 2010.06.03 16:44:36.
