data_PCOD9238551
_publ_section_title
;
Structure prediction by ZEFSAII (Michael W. Deem and Ramdas Pophale) SiO2 
 PCOD9238551
Probable space group: P 2/C
;
_chemical_formula_sum "Si O2"
_cell_formula_units_Z 12
_cell_length_a 9.006024
_cell_length_b 5.600225
_cell_length_c 19.618439
_cell_angle_alpha 90.000000
_cell_angle_beta 26.803338
_cell_angle_gamma 90.000000
_cell_volume 446.181657
_symmetry_space_group_name_H-M "P 2/C"
_symmetry_group_IT_number 13
_symmetry_cell_setting 'monoclinic'
loop_
_space_group_symop_operation_xyz
x,y,z
-x,y,1/2-z
-x,-y,-z
x,-y,1/2+z
loop_
_atom_site_type_symbol
_atom_site_label
_atom_site_fract_x
_atom_site_fract_y
_atom_site_fract_z
Si Si1 0.019939 0.823274 0.816389
Si Si2 0.175947 0.187516 0.873607
Si Si3 0.409567 0.560893 0.412384
O O1 0.276586 0.603973 0.704881
O O2 0.000000 0.933715 0.750000
O O3 0.150605 0.002472 0.819070
O O4 0.679285 0.723422 0.986908
O O5 0.443830 0.293886 0.826642
O O6 0.907089 0.393716 0.970113
O O7 0.000000 0.000000 0.000000
#
# Coordination Sequence:
#
# PCOD9238551 Si02
#       3
#     4   4   4
#     4  12  23  42  67  97 129 165 211 267 317 370
#     4   8  23  40  64  92 126 166 213 256 313 375
#     4   9  24  41  66  95 129 167 213 258 317 382
#
# _framework density 26.894877999999999
#
# number of rings (size 3 to 8) (size 9 to 14) (size 15 to 20)
#    2.000    0.000    0.000    2.000    4.667   10.667 
#    0.000    0.000    0.000    0.000    0.000    0.000 
#    0.000    0.000    0.000    0.000    0.000    0.000 
#
# Total GULP energy -67127.744788 kJ/mol
# GULP energy per Si atom -5593.978732 kJ/mol
# Density = 2.683366 g / cm^3
# Si number density = 26.894878 Si / 1000 Ang^3
#
#
#
# Elastic Constant Matrix: (Units=GPa)
#
#
# Indices 1 2 3 4 5 6 
#
# 1 78.3257 15.7343 88.7850 0.0000 24.4733 0.0000
# 2 15.7343 92.2818 69.9039 0.0000 -0.5715 0.0000
# 3 88.7850 69.9039 206.1482 0.0000 31.4790 0.0000
# 4 0.0000 0.0000 0.0000 83.5491 0.0000 -24.7958
# 5 24.4733 -0.5715 31.4790 0.0000 63.3918 0.0000
# 6 0.0000 0.0000 0.0000 -24.7958 0.0000 48.7333
#
#
#
# Elastic Compliance Matrix: (Units=1/GPa)
#
#
# Indices 1 2 3 4 5 6 
#
# 1 0.027945 0.005165 -0.013144 0.000000 -0.004215 0.000000
# 2 0.005165 0.016011 -0.007976 0.000000 0.002111 0.000000
# 3 -0.013144 -0.007976 0.013474 0.000000 -0.001689 0.000000
# 4 0.000000 0.000000 0.000000 0.014098 0.000000 0.007173
# 5 -0.004215 0.002111 -0.001689 0.000000 0.018260 0.000000
# 6 0.000000 0.000000 0.000000 0.007173 0.000000 0.024170
#
#
# Mechanical properties :
#
#
# Convention : Reuss Voigt Hill
#
# Bulk Modulus (GPa) = 39.18247 80.62248 59.90247
# Shear Modulus (GPa) = 32.38903 52.62368 42.50635
#
# Velocity S-wave (km/s) = 3.47404 4.42819 3.97982
# Velocity P-wave (km/s) = 5.54007 7.49581 6.59088
#
# Compressibility (1/GPa) = 0.02552162
#
# Stress axis : x y z
#
# Youngs Moduli (GPa) = 35.78412 62.45817 74.21619
#
# Poissons Ratio (x) = -0.32262 0.97546
# Poissons Ratio (y) = -0.18484 0.59196
# Poissons Ratio (z) = 0.47033 0.49818
#
# Static dielectric constant tensor:
#      x y z
#    x 3.229050 0.000000 1.229240 
#    y 0.000000 2.088970 0.000000 
#    z 1.229240 0.000000 3.440370 
# 
# From -- ./inp_files/27013.got.cif
#   From: 2010.05.17/outbox.cif.g08.bks.cpg/sg13_14_cif.got.tgz:27013.got - 2010.06.03 16:44:36.
