data_PCOD9238544
_publ_section_title
;
Structure prediction by ZEFSAII (Michael W. Deem and Ramdas Pophale) SiO2 
 PCOD9238544
Probable space group: P 2/C
;
_chemical_formula_sum "Si O2"
_cell_formula_units_Z 20
_cell_length_a 11.220022
_cell_length_b 9.443152
_cell_length_c 8.209666
_cell_angle_alpha 90.000000
_cell_angle_beta 71.624054
_cell_angle_gamma 90.000000
_cell_volume 825.479428
_symmetry_space_group_name_H-M "P 2/C"
_symmetry_group_IT_number 13
_symmetry_cell_setting 'monoclinic'
loop_
_space_group_symop_operation_xyz
x,y,z
-x,y,1/2-z
-x,-y,-z
x,-y,1/2+z
loop_
_atom_site_type_symbol
_atom_site_label
_atom_site_fract_x
_atom_site_fract_y
_atom_site_fract_z
Si Si1 0.575242 0.124273 0.563351
Si Si2 0.758786 0.295889 0.271914
Si Si3 0.851526 0.531735 0.034359
Si Si4 0.121928 0.214068 0.780270
Si Si5 0.173872 0.030756 0.446867
O O1 0.500000 0.186044 0.750000
O O2 0.631014 0.239922 0.412330
O O3 0.500000 0.000000 0.500000
O O4 0.692019 0.047449 0.601629
O O5 0.766900 0.394099 0.107182
O O6 0.831677 0.393154 0.370025
O O7 0.826668 0.150881 0.190953
O O8 0.805276 0.655985 0.176969
O O9 0.000000 0.500000 0.000000
O O10 0.170103 0.112366 0.618842
O O11 0.000000 0.279719 0.750000
O O12 0.087093 0.103920 0.939249
#
# Coordination Sequence:
#
# PCOD9238544 Si02
#       5
#     4   4   4   4   4
#     4  12  24  47  78 104 140 187 251 324 385 406
#     4  12  25  46  75 107 148 195 252 300 373 452
#     4  12  26  47  70 105 159 203 231 295 377 466
#     4  12  23  40  67 106 147 190 238 295 372 445
#     4  12  23  44  72 107 141 186 252 316 359 439
#
# _framework density 24.228345000000001
#
# number of rings (size 3 to 8) (size 9 to 14) (size 15 to 20)
#    0.000    0.000    6.000    4.800    0.000    1.600 
#    0.000    1.000    0.000    0.000    0.000    0.000 
#    0.000    0.000    0.000    0.000    0.000    0.000 
#
# Total GULP energy -111692.853147 kJ/mol
# GULP energy per Si atom -5584.642657 kJ/mol
# Density = 2.417320 g / cm^3
# Si number density = 24.228345 Si / 1000 Ang^3
#
#
#
# Elastic Constant Matrix: (Units=GPa)
#
#
# Indices 1 2 3 4 5 6 
#
# 1 33.7753 10.2012 17.9285 0.0000 -2.8666 0.0000
# 2 10.2012 160.4780 49.0735 0.0000 -1.5975 0.0000
# 3 17.9285 49.0735 115.2582 0.0000 -17.7426 0.0000
# 4 0.0000 0.0000 0.0000 79.2054 0.0000 5.8618
# 5 -2.8666 -1.5975 -17.7426 0.0000 45.6635 0.0000
# 6 0.0000 0.0000 0.0000 5.8618 0.0000 38.1920
#
#
#
# Elastic Compliance Matrix: (Units=1/GPa)
#
#
# Indices 1 2 3 4 5 6 
#
# 1 0.032323 -0.000602 -0.004746 0.000000 0.000164 0.000000
# 2 -0.000602 0.007218 -0.003134 0.000000 -0.001003 0.000000
# 3 -0.004746 -0.003134 0.011366 0.000000 0.004009 0.000000
# 4 0.000000 0.000000 0.000000 0.012770 0.000000 -0.001960
# 5 0.000164 -0.001003 0.004009 0.000000 0.023432 0.000000
# 6 0.000000 0.000000 0.000000 -0.001960 0.000000 0.026484
#
#
# Mechanical properties :
#
#
# Convention : Reuss Voigt Hill
#
# Bulk Modulus (GPa) = 29.46171 51.54643 40.50407
# Shear Modulus (GPa) = 35.24315 48.09942 41.67129
#
# Velocity S-wave (km/s) = 3.81809 4.46045 4.15171
# Velocity P-wave (km/s) = 5.62348 6.91729 6.30367
#
# Compressibility (1/GPa) = 0.03394236
#
# Stress axis : x y z
#
# Youngs Moduli (GPa) = 30.93818 138.54226 87.98219
#
# Poissons Ratio (x) = 0.08335 0.41760
# Poissons Ratio (y) = 0.01861 0.27574
# Poissons Ratio (z) = 0.14685 0.43420
#
# Static dielectric constant tensor:
#      x y z
#    x 2.013070 0.000000 -0.010410 
#    y 0.000000 1.907110 0.000000 
#    z -0.010410 0.000000 2.084000 
# 
# From -- ./inp_files/14855.got.cif
#   From: 2010.05.17/outbox.cif.g08.bks.cpg/sg13_8_cif.got.tgz:14855.got - 2010.06.03 16:44:36.
