data_PCOD9238266
_publ_section_title
;
Structure prediction by ZEFSAII (Michael W. Deem and Ramdas Pophale) SiO2 
 PCOD9238266
Probable space group: P 2/C
;
_chemical_formula_sum "Si O2"
_cell_formula_units_Z 24
_cell_length_a 7.759394
_cell_length_b 14.841969
_cell_length_c 9.745362
_cell_angle_alpha 90.000000
_cell_angle_beta 109.164395
_cell_angle_gamma 90.000000
_cell_volume 1060.123108
_symmetry_space_group_name_H-M "P 2/C"
_symmetry_group_IT_number 13
_symmetry_cell_setting 'monoclinic'
loop_
_space_group_symop_operation_xyz
x,y,z
-x,y,1/2-z
-x,-y,-z
x,-y,1/2+z
loop_
_atom_site_type_symbol
_atom_site_label
_atom_site_fract_x
_atom_site_fract_y
_atom_site_fract_z
Si Si1 0.519574 0.254039 0.595826
Si Si2 0.673189 0.066727 0.560859
Si Si3 0.219284 0.245667 0.299761
Si Si4 0.184661 0.409738 0.852549
Si Si5 0.287899 0.567214 0.683378
Si Si6 0.829063 0.946109 0.810593
O O1 0.500000 0.232665 0.750000
O O2 0.619486 0.170494 0.549357
O O3 0.323959 0.261647 0.470231
O O4 0.641897 0.343573 0.617145
O O5 0.816085 0.050104 0.472688
O O6 0.500000 0.000000 0.500000
O O7 0.743864 0.037203 0.728737
O O8 0.276314 0.328327 0.220155
O O9 0.272685 0.147736 0.254124
O O10 0.000000 0.250036 0.250000
O O11 0.197068 0.498766 0.764229
O O12 0.000000 0.362114 0.750000
O O13 0.194790 0.440551 0.011905
O O14 0.500000 0.542152 0.750000
O O15 0.000000 0.937648 0.750000
#
# Coordination Sequence:
#
# PCOD9238266 Si02
#       6
#     4   4   4   4   4   4
#     4  12  27  46  73 109 149 190 250 313 373 439
#     4  12  24  44  74 103 145 193 245 305 373 442
#     4  11  26  46  73 101 144 191 247 301 375 440
#     4  12  28  46  73 106 148 188 245 302 377 439
#     4  12  25  47  74 103 140 195 240 305 369 445
#     4  11  25  45  71 104 145 190 249 303 371 445
#
# _framework density 22.638881999999999
#
# number of rings (size 3 to 8) (size 9 to 14) (size 15 to 20)
#    0.000    0.333    3.333    5.000    4.667    0.667 
#    0.000    0.000    0.000    0.000    0.000    0.000 
#    0.000    0.000    0.000    0.000    0.000    0.000 
#
# Total GULP energy -134075.649154 kJ/mol
# GULP energy per Si atom -5586.485381 kJ/mol
# Density = 2.258735 g / cm^3
# Si number density = 22.638882 Si / 1000 Ang^3
#
#
#
# Elastic Constant Matrix: (Units=GPa)
#
#
# Indices 1 2 3 4 5 6 
#
# 1 81.5353 23.1714 49.6546 0.0000 13.1092 0.0000
# 2 23.1714 101.1954 32.0460 0.0000 -3.4145 0.0000
# 3 49.6546 32.0460 193.2619 0.0000 0.0954 0.0000
# 4 0.0000 0.0000 0.0000 29.2228 0.0000 3.1823
# 5 13.1092 -3.4145 0.0954 0.0000 39.0066 0.0000
# 6 0.0000 0.0000 0.0000 3.1823 0.0000 28.2664
#
#
#
# Elastic Compliance Matrix: (Units=1/GPa)
#
#
# Indices 1 2 3 4 5 6 
#
# 1 0.016213 -0.002729 -0.003710 0.000000 -0.005678 0.000000
# 2 -0.002729 0.010922 -0.001111 0.000000 0.001876 0.000000
# 3 -0.003710 -0.001111 0.006311 0.000000 0.001134 0.000000
# 4 0.000000 0.000000 0.000000 0.034645 0.000000 -0.003900
# 5 -0.005678 0.001876 0.001134 0.000000 0.027707 0.000000
# 6 0.000000 0.000000 0.000000 -0.003900 0.000000 0.035817
#
#
# Mechanical properties :
#
#
# Convention : Reuss Voigt Hill
#
# Bulk Modulus (GPa) = 54.50865 65.08187 59.79526
# Shear Modulus (GPa) = 32.71636 37.37387 35.04512
#
# Velocity S-wave (km/s) = 3.80562 4.06750 3.93874
# Velocity P-wave (km/s) = 6.59091 7.13230 6.86694
#
# Compressibility (1/GPa) = 0.01834571
#
# Stress axis : x y z
#
# Youngs Moduli (GPa) = 61.68028 91.55999 158.44841
#
# Poissons Ratio (x) = 0.24987 0.58787
# Poissons Ratio (y) = 0.16833 0.17600
# Poissons Ratio (z) = 0.22884 0.10170
#
# Static dielectric constant tensor:
#      x y z
#    x 1.853620 0.000000 -0.044900 
#    y 0.000000 1.801150 0.000000 
#    z -0.044900 0.000000 1.772000 
# 
# From -- ./inp_files/12562.got.cif
#   From: 2010.05.17/outbox.cif.g08.bks.cpg/sg13_7_cif.got.tgz:12562.got - 2010.06.03 16:44:36.
