data_PCOD9238274
_publ_section_title
;
Structure prediction by ZEFSAII (Michael W. Deem and Ramdas Pophale) SiO2 
 PCOD9238274
Probable space group: P 2/C
;
_chemical_formula_sum "Si O2"
_cell_formula_units_Z 20
_cell_length_a 12.000793
_cell_length_b 4.868611
_cell_length_c 13.661732
_cell_angle_alpha 90.000000
_cell_angle_beta 100.192309
_cell_angle_gamma 90.000000
_cell_volume 785.620288
_symmetry_space_group_name_H-M "P 2/C"
_symmetry_group_IT_number 13
_symmetry_cell_setting 'monoclinic'
loop_
_space_group_symop_operation_xyz
x,y,z
-x,y,1/2-z
-x,-y,-z
x,-y,1/2+z
loop_
_atom_site_type_symbol
_atom_site_label
_atom_site_fract_x
_atom_site_fract_y
_atom_site_fract_z
Si Si1 0.172002 0.010731 0.519106
Si Si2 0.834312 0.367905 0.796618
Si Si3 0.921645 0.461182 0.602464
Si Si4 0.387359 0.644464 0.797140
Si Si5 0.611117 0.134256 0.564420
O O1 0.174064 0.114821 0.630449
O O2 0.144709 0.276765 0.447656
O O3 0.291175 0.886093 0.501538
O O4 0.081632 0.776870 0.478777
O O5 0.858382 0.324108 0.685591
O O6 0.718472 0.535709 0.782076
O O7 0.950380 0.518896 0.845850
O O8 0.500000 0.653560 0.750000
O O9 0.360233 0.938930 0.838826
O O10 0.404540 0.433763 0.890900
O O11 0.500000 0.000000 0.500000
#
# Coordination Sequence:
#
# PCOD9238274 Si02
#       5
#     4   4   4   4   4
#     4  12  24  46  71 106 145 185 236 288 357 417
#     4  11  25  45  74 103 144 191 230 295 350 414
#     4  11  26  45  69 108 146 183 240 284 349 430
#     4  12  26  47  70 104 140 185 239 290 354 421
#     4  12  25  46  69 103 143 182 236 297 348 422
#
# _framework density 25.457591000000001
#
# number of rings (size 3 to 8) (size 9 to 14) (size 15 to 20)
#    0.000    0.400    4.000    3.600    0.000    9.600 
#    0.000    0.000    0.000    0.000    0.000    0.000 
#    0.000    0.000    0.000    0.000    0.000    0.000 
#
# Total GULP energy -112213.820311 kJ/mol
# GULP energy per Si atom -5610.691016 kJ/mol
# Density = 2.539965 g / cm^3
# Si number density = 25.457591 Si / 1000 Ang^3
#
#
#
# Elastic Constant Matrix: (Units=GPa)
#
#
# Indices 1 2 3 4 5 6 
#
# 1 138.3330 -7.3377 34.6993 0.0000 -7.4699 0.0000
# 2 -7.3377 95.6746 33.9085 0.0000 -3.7155 0.0000
# 3 34.6993 33.9085 131.0673 0.0000 -20.8989 0.0000
# 4 0.0000 0.0000 0.0000 39.9780 0.0000 -7.3500
# 5 -7.4699 -3.7155 -20.8989 0.0000 60.7599 0.0000
# 6 0.0000 0.0000 0.0000 -7.3500 0.0000 28.4039
#
#
#
# Elastic Compliance Matrix: (Units=1/GPa)
#
#
# Indices 1 2 3 4 5 6 
#
# 1 0.007934 0.001485 -0.002449 0.000000 0.000224 0.000000
# 2 0.001485 0.011792 -0.003491 0.000000 -0.000297 0.000000
# 3 -0.002449 -0.003491 0.009627 0.000000 0.002797 0.000000
# 4 0.000000 0.000000 0.000000 0.026263 0.000000 0.006796
# 5 0.000224 -0.000297 0.002797 0.000000 0.017430 0.000000
# 6 0.000000 0.000000 0.000000 0.006796 0.000000 0.036965
#
#
# Mechanical properties :
#
#
# Convention : Reuss Voigt Hill
#
# Bulk Modulus (GPa) = 48.91670 54.17946 51.54808
# Shear Modulus (GPa) = 39.76605 46.08203 42.92404
#
# Velocity S-wave (km/s) = 3.95657 4.25920 4.11067
# Velocity P-wave (km/s) = 6.33476 6.74657 6.54391
#
# Compressibility (1/GPa) = 0.02044291
#
# Stress axis : x y z
#
# Youngs Moduli (GPa) = 126.03797 84.80463 103.87226
#
# Poissons Ratio (x) = -0.12595 0.25439
# Poissons Ratio (y) = -0.18719 0.36264
# Poissons Ratio (z) = 0.30867 0.29607
#
# Static dielectric constant tensor:
#      x y z
#    x 2.014700 0.000000 0.002520 
#    y 0.000000 1.942890 0.000000 
#    z 0.002520 0.000000 2.041110 
# 
# From -- ./inp_files/48982.got.cif
#   From: 2010.05.17/outbox.cif.g08.bks.cpg/sg13_25_cif.got.tgz:48982.got - 2010.06.03 16:44:36.
