data_PCOD9238458
_publ_section_title
;
Structure prediction by ZEFSAII (Michael W. Deem and Ramdas Pophale) SiO2 
 PCOD9238458
Probable space group: P 2/C
;
_chemical_formula_sum "Si O2"
_cell_formula_units_Z 24
_cell_length_a 12.180363
_cell_length_b 11.246531
_cell_length_c 9.071040
_cell_angle_alpha 90.000000
_cell_angle_beta 108.962782
_cell_angle_gamma 90.000000
_cell_volume 1175.176230
_symmetry_space_group_name_H-M "P 2/C"
_symmetry_group_IT_number 13
_symmetry_cell_setting 'monoclinic'
loop_
_space_group_symop_operation_xyz
x,y,z
-x,y,1/2-z
-x,-y,-z
x,-y,1/2+z
loop_
_atom_site_type_symbol
_atom_site_label
_atom_site_fract_x
_atom_site_fract_y
_atom_site_fract_z
Si Si1 0.288915 0.656437 0.318216
Si Si2 0.373814 0.759022 0.910651
Si Si3 0.500000 0.069200 0.250000
Si Si4 0.639112 0.436681 0.331140
Si Si5 0.500000 0.714071 0.250000
Si Si6 0.134658 0.133105 0.775583
Si Si7 0.260559 0.955862 0.044319
O O1 0.291443 0.548348 0.203586
O O2 0.332829 0.601909 0.491350
O O3 0.382272 0.749413 0.288450
O O4 0.172124 0.729000 0.287925
O O5 0.465489 0.847305 0.871998
O O6 0.333091 0.673353 0.763859
O O7 0.432434 0.682031 0.066317
O O8 0.278870 0.844306 0.942822
O O9 0.388769 0.991235 0.158800
O O10 0.500000 0.463357 0.250000
O O11 0.174313 0.076587 0.638155
O O12 0.000000 0.117309 0.750000
O O13 0.210115 0.066754 0.932692
#
# Coordination Sequence:
#
# PCOD9238458 Si02
#       7
#     4   4   2   4   2   4   4
#     4  12  25  41  67  97 135 177 225 272 335 401
#     4  12  22  36  62 100 142 175 210 265 345 414
#     4  12  23  39  64 110 144 169 211 284 350 408
#     4  12  23  40  65 100 142 174 210 272 346 413
#     4  12  19  35  62  98 136 171 209 272 340 400
#     4  12  28  49  69  93 134 186 235 278 320 394
#     4  12  25  42  71 100 137 175 224 278 345 402
#
# _framework density 20.422470000000001
#
# number of rings (size 3 to 8) (size 9 to 14) (size 15 to 20)
#    0.000    0.000    6.667    5.000    0.000    0.000 
#    0.000    0.833    0.000    0.000    0.000    0.000 
#    0.000    0.000    0.000    0.000    0.000    0.000 
#
# Total GULP energy -133898.214467 kJ/mol
# GULP energy per Si atom -5579.092269 kJ/mol
# Density = 2.037599 g / cm^3
# Si number density = 20.422470 Si / 1000 Ang^3
#
#
#
# Elastic Constant Matrix: (Units=GPa)
#
#
# Indices 1 2 3 4 5 6 
#
# 1 136.6989 46.6839 40.2075 0.0000 -18.4543 0.0000
# 2 46.6839 112.0450 37.8984 0.0000 -12.6672 0.0000
# 3 40.2075 37.8984 103.9511 0.0000 -32.3553 0.0000
# 4 0.0000 0.0000 0.0000 27.1825 0.0000 -14.4533
# 5 -18.4543 -12.6672 -32.3553 0.0000 33.5052 0.0000
# 6 0.0000 0.0000 0.0000 -14.4533 0.0000 24.5480
#
#
#
# Elastic Compliance Matrix: (Units=1/GPa)
#
#
# Indices 1 2 3 4 5 6 
#
# 1 0.009146 -0.002962 -0.001770 0.000000 0.002208 0.000000
# 2 -0.002962 0.011143 -0.003022 0.000000 -0.000337 0.000000
# 3 -0.001770 -0.003022 0.015366 0.000000 0.012721 0.000000
# 4 0.000000 0.000000 0.000000 0.053554 0.000000 0.031532
# 5 0.002208 -0.000337 0.012721 0.000000 0.043219 0.000000
# 6 0.000000 0.000000 0.000000 0.031532 0.000000 0.059302
#
#
# Mechanical properties :
#
#
# Convention : Reuss Voigt Hill
#
# Bulk Modulus (GPa) = 49.63652 66.91939 58.27796
# Shear Modulus (GPa) = 23.36958 32.24082 27.80520
#
# Velocity S-wave (km/s) = 3.38643 3.97759 3.69385
# Velocity P-wave (km/s) = 6.29668 7.34395 6.84039
#
# Compressibility (1/GPa) = 0.02014646
#
# Stress axis : x y z
#
# Youngs Moduli (GPa) = 109.34049 89.74117 65.07995
#
# Poissons Ratio (x) = 0.26583 0.11521
# Poissons Ratio (y) = 0.32389 0.19664
# Poissons Ratio (z) = 0.19357 0.27116
#
# Static dielectric constant tensor:
#      x y z
#    x 1.693190 0.000000 -0.004290 
#    y 0.000000 1.963970 0.000000 
#    z -0.004290 0.000000 1.723750 
# 
# From -- ./inp_files/15981.got.cif
#   From: 2010.05.17/outbox.cif.g08.bks.cpg/sg13_8_cif.got.tgz:15981.got - 2010.06.03 16:44:36.
