data_PCOD9238115
_publ_section_title
;
Structure prediction by ZEFSAII (Michael W. Deem and Ramdas Pophale) SiO2 
 PCOD9238115
Probable space group: P 2/C
;
_chemical_formula_sum "Si O2"
_cell_formula_units_Z 20
_cell_length_a 5.314623
_cell_length_b 7.109196
_cell_length_c 24.872988
_cell_angle_alpha 90.000000
_cell_angle_beta 80.933204
_cell_angle_gamma 90.000000
_cell_volume 928.026429
_symmetry_space_group_name_H-M "P 2/C"
_symmetry_group_IT_number 13
_symmetry_cell_setting 'monoclinic'
loop_
_space_group_symop_operation_xyz
x,y,z
-x,y,1/2-z
-x,-y,-z
x,-y,1/2+z
loop_
_atom_site_type_symbol
_atom_site_label
_atom_site_fract_x
_atom_site_fract_y
_atom_site_fract_z
Si Si1 0.584148 0.957631 0.140710
Si Si2 0.490971 0.805662 0.468075
Si Si3 0.829643 0.478970 0.453754
Si Si4 0.000000 0.539599 0.750000
Si Si5 0.500000 0.711061 0.250000
Si Si6 0.078684 0.208256 0.144554
O O1 0.340749 0.088484 0.133300
O O2 0.832474 0.076049 0.148451
O O3 0.648598 0.842959 0.083800
O O4 0.508064 0.833741 0.195003
O O5 0.738229 0.687343 0.441321
O O6 0.383028 0.664097 0.516499
O O7 0.500000 0.000000 0.500000
O O8 0.947687 0.364175 0.401129
O O9 0.000000 0.500000 0.500000
O O10 0.243690 0.413495 0.757245
O O11 0.079829 0.675288 0.699102
#
# Coordination Sequence:
#
# PCOD9238115 Si02
#       6
#     4   4   4   2   2   4
#     4  12  26  45  73  99 142 182 241 282 356 416
#     4  11  24  45  67 104 141 188 233 289 345 419
#     4  11  26  41  71 101 144 185 237 284 354 411
#     4  12  26  46  72 100 144 176 240 290 354 412
#     4  12  26  46  72 104 134 188 232 294 348 424
#     4  12  26  46  70 103 139 187 231 295 346 421
#
# _framework density 21.551109
#
# number of rings (size 3 to 8) (size 9 to 14) (size 15 to 20)
#    0.000    0.400    2.000    6.000    8.400    1.600 
#    0.000    0.000    0.000    0.000    0.000    0.000 
#    0.000    0.000    0.000    0.000    0.000    0.000 
#
# Total GULP energy -111731.423239 kJ/mol
# GULP energy per Si atom -5586.571162 kJ/mol
# Density = 2.150206 g / cm^3
# Si number density = 21.551109 Si / 1000 Ang^3
#
#
#
# Elastic Constant Matrix: (Units=GPa)
#
#
# Indices 1 2 3 4 5 6 
#
# 1 100.0004 31.3365 -23.1965 0.0000 6.1092 0.0000
# 2 31.3365 112.2134 18.9869 0.0000 6.2274 0.0000
# 3 -23.1965 18.9869 113.1543 0.0000 10.3774 0.0000
# 4 0.0000 0.0000 0.0000 50.0122 0.0000 14.1215
# 5 6.1092 6.2274 10.3774 0.0000 32.9937 0.0000
# 6 0.0000 0.0000 0.0000 14.1215 0.0000 18.0773
#
#
#
# Elastic Compliance Matrix: (Units=1/GPa)
#
#
# Indices 1 2 3 4 5 6 
#
# 1 0.012134 -0.003814 0.003364 0.000000 -0.002585 0.000000
# 2 -0.003814 0.010424 -0.002487 0.000000 -0.000479 0.000000
# 3 0.003364 -0.002487 0.010254 0.000000 -0.003379 0.000000
# 4 0.000000 0.000000 0.000000 0.025654 0.000000 -0.020040
# 5 -0.002585 -0.000479 -0.003379 0.000000 0.031941 0.000000
# 6 0.000000 0.000000 0.000000 -0.020040 0.000000 0.070973
#
#
# Mechanical properties :
#
#
# Convention : Reuss Voigt Hill
#
# Bulk Modulus (GPa) = 37.12179 42.18020 39.65100
# Shear Modulus (GPa) = 28.37167 40.09940 34.23553
#
# Velocity S-wave (km/s) = 3.63227 4.31822 3.99002
# Velocity P-wave (km/s) = 5.90369 6.66914 6.29806
#
# Compressibility (1/GPa) = 0.02693835
#
# Stress axis : x y z
#
# Youngs Moduli (GPa) = 82.41610 95.93107 97.51909
#
# Poissons Ratio (x) = 0.36590 -0.32810
# Poissons Ratio (y) = 0.31435 0.24254
# Poissons Ratio (z) = -0.27728 0.23859
#
# Static dielectric constant tensor:
#      x y z
#    x 1.850930 0.000000 -0.095980 
#    y 0.000000 1.795580 0.000000 
#    z -0.095980 0.000000 1.920250 
# 
# From -- ./inp_files/89834.got.cif
#   From: 2010.05.17/outbox.cif.g08.bks.cpg/sg13_45_cif.got.tgz:89834.got - 2010.06.03 16:44:36.
