data_PCOD9238593
_publ_section_title
;
Structure prediction by ZEFSAII (Michael W. Deem and Ramdas Pophale) SiO2 
 PCOD9238593
Probable space group: P 2/C
;
_chemical_formula_sum "Si O2"
_cell_formula_units_Z 20
_cell_length_a 12.925777
_cell_length_b 7.522132
_cell_length_c 9.639463
_cell_angle_alpha 90.000000
_cell_angle_beta 96.744751
_cell_angle_gamma 90.000000
_cell_volume 930.752786
_symmetry_space_group_name_H-M "P 2/C"
_symmetry_group_IT_number 13
_symmetry_cell_setting 'monoclinic'
loop_
_space_group_symop_operation_xyz
x,y,z
-x,y,1/2-z
-x,-y,-z
x,-y,1/2+z
loop_
_atom_site_type_symbol
_atom_site_label
_atom_site_fract_x
_atom_site_fract_y
_atom_site_fract_z
Si Si1 0.620610 0.721464 0.279563
Si Si2 0.691446 0.406002 0.092498
Si Si3 0.243951 0.076718 0.240624
Si Si4 0.104666 0.081258 0.950255
Si Si5 0.928236 0.476270 0.619832
O O1 0.500000 0.771986 0.250000
O O2 0.645504 0.576150 0.164794
O O3 0.643844 0.638014 0.435010
O O4 0.692613 0.894309 0.269817
O O5 0.684166 0.236673 0.193856
O O6 0.814483 0.442539 0.091123
O O7 0.158938 0.046509 0.348090
O O8 0.184811 0.118746 0.088491
O O9 0.085643 0.264989 0.867367
O O10 0.000000 0.000000 0.000000
O O11 0.000000 0.556637 0.750000
O O12 0.000000 0.500000 0.500000
#
# Coordination Sequence:
#
# PCOD9238593 Si02
#       5
#     4   4   4   4   4
#     4  12  28  50  75 104 140 192 247 306 363 416
#     4  12  26  48  74 105 146 186 245 299 359 433
#     4  12  25  47  69 107 146 184 241 296 353 430
#     4  12  24  42  69 103 148 190 230 284 353 431
#     4  12  24  41  68 106 144 187 232 284 357 430
#
# _framework density 21.487984000000001
#
# number of rings (size 3 to 8) (size 9 to 14) (size 15 to 20)
#    0.000    0.000    4.000    7.200    0.000    1.600 
#    0.000    0.000    0.000    0.000    0.000    0.000 
#    0.000    0.000    0.000    0.000    0.000    0.000 
#
# Total GULP energy -112000.146300 kJ/mol
# GULP energy per Si atom -5600.007315 kJ/mol
# Density = 2.143908 g / cm^3
# Si number density = 21.487984 Si / 1000 Ang^3
#
#
#
# Elastic Constant Matrix: (Units=GPa)
#
#
# Indices 1 2 3 4 5 6 
#
# 1 103.9201 20.2584 43.3972 0.0000 14.7545 0.0000
# 2 20.2584 97.8502 -3.6232 0.0000 -0.8176 0.0000
# 3 43.3972 -3.6232 120.9550 0.0000 13.5909 0.0000
# 4 0.0000 0.0000 0.0000 64.3437 0.0000 0.4093
# 5 14.7545 -0.8176 13.5909 0.0000 29.7963 0.0000
# 6 0.0000 0.0000 0.0000 0.4093 0.0000 23.2869
#
#
#
# Elastic Compliance Matrix: (Units=1/GPa)
#
#
# Indices 1 2 3 4 5 6 
#
# 1 0.012488 -0.002773 -0.004069 0.000000 -0.004404 0.000000
# 2 -0.002773 0.010847 0.001193 0.000000 0.001126 0.000000
# 3 -0.004069 0.001193 0.010048 0.000000 -0.002536 0.000000
# 4 0.000000 0.000000 0.000000 0.015543 0.000000 -0.000273
# 5 -0.004404 0.001126 -0.002536 0.000000 0.036930 0.000000
# 6 0.000000 0.000000 0.000000 -0.000273 0.000000 0.042947
#
#
# Mechanical properties :
#
#
# Convention : Reuss Voigt Hill
#
# Bulk Modulus (GPa) = 45.27650 49.19887 47.23769
# Shear Modulus (GPa) = 33.90707 40.99823 37.45265
#
# Velocity S-wave (km/s) = 3.97666 4.37276 4.17940
# Velocity P-wave (km/s) = 6.49626 6.95991 6.73208
#
# Compressibility (1/GPa) = 0.02208651
#
# Stress axis : x y z
#
# Youngs Moduli (GPa) = 80.07909 92.18822 99.52252
#
# Poissons Ratio (x) = 0.25562 0.40492
# Poissons Ratio (y) = 0.22205 -0.11875
# Poissons Ratio (z) = 0.32581 -0.11000
#
# Static dielectric constant tensor:
#      x y z
#    x 1.750430 0.000000 0.014530 
#    y 0.000000 1.639020 0.000000 
#    z 0.014530 0.000000 1.735360 
# 
# From -- ./inp_files/14947.got.cif
#   From: 2010.05.17/outbox.cif.g08.bks.cpg/sg13_8_cif.got.tgz:14947.got - 2010.06.03 16:44:36.
