data_PCOD9238536
_publ_section_title
;
Structure prediction by ZEFSAII (Michael W. Deem and Ramdas Pophale) SiO2 
 PCOD9238536
Probable space group: P 2/C
;
_chemical_formula_sum "Si O2"
_cell_formula_units_Z 24
_cell_length_a 15.591411
_cell_length_b 8.466743
_cell_length_c 16.175712
_cell_angle_alpha 90.000000
_cell_angle_beta 30.590378
_cell_angle_gamma 90.000000
_cell_volume 1086.663235
_symmetry_space_group_name_H-M "P 2/C"
_symmetry_group_IT_number 13
_symmetry_cell_setting 'monoclinic'
loop_
_space_group_symop_operation_xyz
x,y,z
-x,y,1/2-z
-x,-y,-z
x,-y,1/2+z
loop_
_atom_site_type_symbol
_atom_site_label
_atom_site_fract_x
_atom_site_fract_y
_atom_site_fract_z
Si Si1 0.897319 0.703807 0.915340
Si Si2 0.253583 0.704225 0.146240
Si Si3 0.366257 0.776601 0.642999
Si Si4 0.245549 0.485670 0.826224
Si Si5 0.374195 0.408054 0.962814
Si Si6 0.917081 0.001237 0.159062
O O1 0.000000 0.651813 0.750000
O O2 0.978714 0.867152 0.877158
O O3 0.890355 0.580855 0.996895
O O4 0.708724 0.706704 0.035277
O O5 0.238264 0.614783 0.247610
O O6 0.111036 0.838376 0.268227
O O7 0.442043 0.779686 0.986128
O O8 0.266520 0.569572 0.065175
O O9 0.249968 0.669924 0.800074
O O10 0.368175 0.680211 0.555655
O O11 0.271819 0.937220 0.703379
O O12 0.432107 0.455262 0.708924
O O13 0.000000 0.000000 0.000000
#
# Coordination Sequence:
#
# PCOD9238536 Si02
#       6
#     4   4   4   4   4   4
#     4  12  23  37  58  91 134 164 197 261 326 375
#     4   9  19  39  64  90 114 162 212 260 295 370
#     4   9  19  38  65  88 117 157 217 254 296 372
#     4   9  19  38  65  89 113 159 220 253 296 370
#     4   9  19  39  65  87 114 160 214 261 300 361
#     4  12  23  37  58  91 134 167 200 247 323 390
#
# _framework density 22.085961000000001
#
# number of rings (size 3 to 8) (size 9 to 14) (size 15 to 20)
#    0.000    2.000    3.333    3.000    0.000    2.000 
#    0.000    2.500    0.000    0.000    0.000    0.000 
#    0.000    0.000    0.000    0.000    0.000    0.000 
#
# Total GULP energy -133898.884763 kJ/mol
# GULP energy per Si atom -5579.120198 kJ/mol
# Density = 2.203569 g / cm^3
# Si number density = 22.085961 Si / 1000 Ang^3
#
#
#
# Elastic Constant Matrix: (Units=GPa)
#
#
# Indices 1 2 3 4 5 6 
#
# 1 60.1775 15.8035 14.6567 0.0000 -15.8635 0.0000
# 2 15.8035 82.4129 49.0936 0.0000 -7.5485 0.0000
# 3 14.6567 49.0936 91.0884 0.0000 16.7394 0.0000
# 4 0.0000 0.0000 0.0000 30.9462 0.0000 -12.0916
# 5 -15.8635 -7.5485 16.7394 0.0000 31.4126 0.0000
# 6 0.0000 0.0000 0.0000 -12.0916 0.0000 22.3919
#
#
#
# Elastic Compliance Matrix: (Units=1/GPa)
#
#
# Indices 1 2 3 4 5 6 
#
# 1 0.021988 0.001401 -0.007090 0.000000 0.015219 0.000000
# 2 0.001401 0.021705 -0.014425 0.000000 0.013610 0.000000
# 3 -0.007090 -0.014425 0.023489 0.000000 -0.019564 0.000000
# 4 0.000000 0.000000 0.000000 0.040955 0.000000 0.022116
# 5 0.015219 0.013610 -0.019564 0.000000 0.053216 0.000000
# 6 0.000000 0.000000 0.000000 0.022116 0.000000 0.056601
#
#
# Mechanical properties :
#
#
# Convention : Reuss Voigt Hill
#
# Bulk Modulus (GPa) = 37.09943 43.64294 40.37118
# Shear Modulus (GPa) = 18.71490 27.22513 22.97001
#
# Velocity S-wave (km/s) = 2.91411 3.51478 3.22844
# Velocity P-wave (km/s) = 5.30631 6.02287 5.67591
#
# Compressibility (1/GPa) = 0.02695459
#
# Stress axis : x y z
#
# Youngs Moduli (GPa) = 45.47867 46.07281 42.57340
#
# Poissons Ratio (x) = -0.06455 0.30184
# Poissons Ratio (y) = -0.06372 0.61411
# Poissons Ratio (z) = 0.32244 0.66459
#
# Static dielectric constant tensor:
#      x y z
#    x 1.858360 0.000000 -0.049690 
#    y 0.000000 1.797020 0.000000 
#    z -0.049690 0.000000 1.896190 
# 
# From -- ./inp_files/69411.got.cif
#   From: 2010.05.17/outbox.cif.g08.bks.cpg/sg13_35_cif.got.tgz:69411.got - 2010.06.03 16:44:36.
