data_PCOD9238816
_publ_section_title
;
Structure prediction by ZEFSAII (Michael W. Deem and Ramdas Pophale) SiO2 
 PCOD9238816
Probable space group: P 2/C
;
_chemical_formula_sum "Si O2"
_cell_formula_units_Z 18
_cell_length_a 5.400826
_cell_length_b 19.379111
_cell_length_c 9.205810
_cell_angle_alpha 90.000000
_cell_angle_beta 119.910350
_cell_angle_gamma 90.000000
_cell_volume 835.176559
_symmetry_space_group_name_H-M "P 2/C"
_symmetry_group_IT_number 13
_symmetry_cell_setting 'monoclinic'
loop_
_space_group_symop_operation_xyz
x,y,z
-x,y,1/2-z
-x,-y,-z
x,-y,1/2+z
loop_
_atom_site_type_symbol
_atom_site_label
_atom_site_fract_x
_atom_site_fract_y
_atom_site_fract_z
Si Si1 0.657100 0.557464 0.142226
Si Si2 0.462386 0.309723 0.078826
Si Si3 0.000000 0.791923 0.750000
Si Si4 0.672840 0.053110 0.648380
Si Si5 0.239342 0.830656 0.558662
O O1 0.500000 0.555689 0.250000
O O2 0.000000 0.546071 0.250000
O O3 0.500000 0.500000 0.000000
O O4 0.597178 0.631963 0.053158
O O5 0.500000 0.342548 0.250000
O O6 0.740569 0.261343 0.146665
O O7 0.221950 0.250167 0.012784
O O8 0.989857 0.840029 0.603318
O O9 0.500000 0.061391 0.750000
O O10 0.716668 0.122957 0.566975
O O11 0.000000 0.026226 0.750000
O O12 0.500000 0.000000 0.500000
O O13 0.500000 0.840600 0.750000
#
# Coordination Sequence:
#
# PCOD9238816 Si02
#       5
#     4   4   2   4   4
#     4  12  28  45  70 100 141 185 234 289 344 409
#     4   9  21  40  69 100 137 177 228 276 353 409
#     4   8  18  38  74 100 136 182 220 288 348 424
#     4  12  28  48  72 102 140 186 232 290 346 416
#     4   9  21  41  71 100 139 176 230 277 355 414
#
# _framework density 21.552326000000001
#
# number of rings (size 3 to 8) (size 9 to 14) (size 15 to 20)
#    0.000    2.222    0.000    2.667   14.000    1.778 
#    4.000    0.000    0.000    0.000    0.000    0.000 
#    0.000    0.000    0.000    0.000    0.000    0.000 
#
# Total GULP energy -100279.888172 kJ/mol
# GULP energy per Si atom -5571.104898 kJ/mol
# Density = 2.150327 g / cm^3
# Si number density = 21.552326 Si / 1000 Ang^3
#
#
#
# Elastic Constant Matrix: (Units=GPa)
#
#
# Indices 1 2 3 4 5 6 
#
# 1 165.3572 48.9631 91.9385 0.0000 -27.1297 0.0000
# 2 48.9631 102.9996 78.9570 0.0000 -26.8839 0.0000
# 3 91.9385 78.9570 140.7002 0.0000 -29.7165 0.0000
# 4 0.0000 0.0000 0.0000 30.9423 0.0000 2.2785
# 5 -27.1297 -26.8839 -29.7165 0.0000 55.5445 0.0000
# 6 0.0000 0.0000 0.0000 2.2785 0.0000 15.1010
#
#
#
# Elastic Compliance Matrix: (Units=1/GPa)
#
#
# Indices 1 2 3 4 5 6 
#
# 1 0.009638 0.000720 -0.006352 0.000000 0.001658 0.000000
# 2 0.000720 0.017729 -0.009620 0.000000 0.003786 0.000000
# 3 -0.006352 -0.009620 0.016931 0.000000 0.001299 0.000000
# 4 0.000000 0.000000 0.000000 0.032681 0.000000 -0.004931
# 5 0.001658 0.003786 0.001299 0.000000 0.021341 0.000000
# 6 0.000000 0.000000 0.000000 -0.004931 0.000000 0.066965
#
#
# Mechanical properties :
#
#
# Convention : Reuss Voigt Hill
#
# Bulk Modulus (GPa) = 72.49271 94.30828 83.40049
# Shear Modulus (GPa) = 24.95183 32.93078 28.94130
#
# Velocity S-wave (km/s) = 3.40624 3.91313 3.66845
# Velocity P-wave (km/s) = 7.01275 8.01684 7.53154
#
# Compressibility (1/GPa) = 0.01379449
#
# Stress axis : x y z
#
# Youngs Moduli (GPa) = 103.75821 56.40439 59.06421
#
# Poissons Ratio (x) = -0.04063 0.37516
# Poissons Ratio (y) = -0.07473 0.56820
# Poissons Ratio (z) = 0.65904 0.54262
#
# Static dielectric constant tensor:
#      x y z
#    x 2.144050 0.000000 -0.006900 
#    y 0.000000 1.758910 0.000000 
#    z -0.006900 0.000000 1.808490 
# 
# From -- ./inp_files/9654.got.cif
#   From: 2010.05.17/outbox.cif.g08.bks.cpg/sg13_5_cif.got.tgz:9654.got - 2010.06.03 16:44:36.
