data_PCOD9238263
_publ_section_title
;
Structure prediction by ZEFSAII (Michael W. Deem and Ramdas Pophale) SiO2 
 PCOD9238263
Probable space group: P 2/C
;
_chemical_formula_sum "Si O2"
_cell_formula_units_Z 24
_cell_length_a 8.532834
_cell_length_b 14.795644
_cell_length_c 8.862322
_cell_angle_alpha 90.000000
_cell_angle_beta 81.769514
_cell_angle_gamma 90.000000
_cell_volume 1107.333283
_symmetry_space_group_name_H-M "P 2/C"
_symmetry_group_IT_number 13
_symmetry_cell_setting 'monoclinic'
loop_
_space_group_symop_operation_xyz
x,y,z
-x,y,1/2-z
-x,-y,-z
x,-y,1/2+z
loop_
_atom_site_type_symbol
_atom_site_label
_atom_site_fract_x
_atom_site_fract_y
_atom_site_fract_z
Si Si1 0.386889 0.729162 0.631553
Si Si2 0.669749 0.955590 0.527162
Si Si3 0.826921 0.381266 0.709190
Si Si4 0.828247 0.565558 0.855040
Si Si5 0.383103 0.221062 0.647603
Si Si6 0.182085 0.900714 0.680722
O O1 0.500000 0.760049 0.750000
O O2 0.293864 0.639568 0.688496
O O3 0.504082 0.719114 0.475256
O O4 0.259021 0.806682 0.618170
O O5 0.689426 0.858949 0.441328
O O6 0.708902 0.937049 0.696076
O O7 0.500000 0.000000 0.500000
O O8 0.799408 0.025996 0.451677
O O9 0.768522 0.465956 0.818385
O O10 0.837638 0.414342 0.533515
O O11 0.729603 0.290331 0.750842
O O12 0.000000 0.362257 0.750000
O O13 0.000000 0.575219 0.750000
O O14 0.500000 0.174050 0.750000
O O15 0.000000 0.888359 0.750000
#
# Coordination Sequence:
#
# PCOD9238263 Si02
#       6
#     4   4   4   4   4   4
#     4  12  25  44  69  99 135 185 228 284 350 411
#     4  12  24  46  71  98 139 183 228 287 352 417
#     4  11  26  44  69 101 136 184 230 285 352 412
#     4  11  25  45  70  98 141 182 227 288 347 415
#     4  12  25  45  68 101 138 175 235 285 347 414
#     4  12  26  44  68 103 136 181 237 285 348 418
#
# _framework density 21.673691000000002
#
# number of rings (size 3 to 8) (size 9 to 14) (size 15 to 20)
#    0.000    0.333    5.000    4.500    4.667    3.333 
#    0.000    0.000    0.000    0.000    0.000    0.000 
#    0.000    0.000    0.000    0.000    0.000    0.000 
#
# Total GULP energy -134165.671385 kJ/mol
# GULP energy per Si atom -5590.236308 kJ/mol
# Density = 2.162436 g / cm^3
# Si number density = 21.673691 Si / 1000 Ang^3
#
#
#
# Elastic Constant Matrix: (Units=GPa)
#
#
# Indices 1 2 3 4 5 6 
#
# 1 66.8520 34.6413 11.8891 0.0000 -8.0160 0.0000
# 2 34.6413 111.2009 9.8880 0.0000 -13.1174 0.0000
# 3 11.8891 9.8880 88.1106 0.0000 0.1461 0.0000
# 4 0.0000 0.0000 0.0000 42.9923 0.0000 -1.8559
# 5 -8.0160 -13.1174 0.1461 0.0000 24.1277 0.0000
# 6 0.0000 0.0000 0.0000 -1.8559 0.0000 32.2518
#
#
#
# Elastic Compliance Matrix: (Units=1/GPa)
#
#
# Indices 1 2 3 4 5 6 
#
# 1 0.018369 -0.005163 -0.001905 0.000000 0.003307 0.000000
# 2 -0.005163 0.011165 -0.000564 0.000000 0.004358 0.000000
# 3 -0.001905 -0.000564 0.011671 0.000000 -0.001010 0.000000
# 4 0.000000 0.000000 0.000000 0.023318 0.000000 0.001342
# 5 0.003307 0.004358 -0.001010 0.000000 0.044921 0.000000
# 6 0.000000 0.000000 0.000000 0.001342 0.000000 0.031083
#
#
# Mechanical properties :
#
#
# Convention : Reuss Voigt Hill
#
# Bulk Modulus (GPa) = 38.54544 42.11116 40.32830
# Shear Modulus (GPa) = 30.40675 33.85738 32.13206
#
# Velocity S-wave (km/s) = 3.74964 3.95668 3.85455
# Velocity P-wave (km/s) = 6.04727 6.35182 6.20141
#
# Compressibility (1/GPa) = 0.02594340
#
# Stress axis : x y z
#
# Youngs Moduli (GPa) = 54.43958 89.56342 85.68027
#
# Poissons Ratio (x) = 0.46240 0.16320
# Poissons Ratio (y) = 0.28106 0.04829
# Poissons Ratio (z) = 0.10369 0.05048
#
# Static dielectric constant tensor:
#      x y z
#    x 1.792230 0.000000 0.018840 
#    y 0.000000 1.747850 0.000000 
#    z 0.018840 0.000000 1.850250 
# 
# From -- ./inp_files/12405.got.cif
#   From: 2010.05.17/outbox.cif.g08.bks.cpg/sg13_7_cif.got.tgz:12405.got - 2010.06.03 16:44:36.
