data_PCOD9238807
_publ_section_title
;
Structure prediction by ZEFSAII (Michael W. Deem and Ramdas Pophale) SiO2 
 PCOD9238807
Probable space group: P 2/C
;
_chemical_formula_sum "Si O2"
_cell_formula_units_Z 14
_cell_length_a 8.849077
_cell_length_b 5.008097
_cell_length_c 13.863308
_cell_angle_alpha 90.000000
_cell_angle_beta 113.343436
_cell_angle_gamma 90.000000
_cell_volume 564.091356
_symmetry_space_group_name_H-M "P 2/C"
_symmetry_group_IT_number 13
_symmetry_cell_setting 'monoclinic'
loop_
_space_group_symop_operation_xyz
x,y,z
-x,y,1/2-z
-x,-y,-z
x,-y,1/2+z
loop_
_atom_site_type_symbol
_atom_site_label
_atom_site_fract_x
_atom_site_fract_y
_atom_site_fract_z
Si Si1 0.497552 0.940079 0.637269
Si Si2 0.000000 0.264499 0.250000
Si Si3 0.706192 0.546027 0.136768
Si Si4 0.143751 0.070569 0.962423
O O1 0.500000 0.864473 0.750000
O O2 0.613630 0.193917 0.650921
O O3 0.574242 0.691779 0.597712
O O4 0.315491 0.008544 0.555620
O O5 0.151749 0.446872 0.253924
O O6 0.084065 0.083792 0.351924
O O7 0.808162 0.634013 0.066696
O O8 0.000000 0.000000 0.000000
#
# Coordination Sequence:
#
# PCOD9238807 Si02
#       4
#     4   2   4   4
#     4  12  28  52  84 119 162 215 273 333 409 482
#     4  12  28  50  82 116 168 206 274 332 404 476
#     4  12  27  53  77 118 164 212 269 339 398 485
#     4  12  29  52  84 120 162 216 271 335 410 482
#
# _framework density 24.818674999999999
#
# number of rings (size 3 to 8) (size 9 to 14) (size 15 to 20)
#    0.000    0.000    2.857    5.143    8.000    1.143 
#    0.000    0.000    0.000    0.000    0.000    0.000 
#    0.000    0.000    0.000    0.000    0.000    0.000 
#
# Total GULP energy -78386.524550 kJ/mol
# GULP energy per Si atom -5599.037468 kJ/mol
# Density = 2.476219 g / cm^3
# Si number density = 24.818675 Si / 1000 Ang^3
#
#
#
# Elastic Constant Matrix: (Units=GPa)
#
#
# Indices 1 2 3 4 5 6 
#
# 1 218.4851 94.0014 90.8960 0.0000 29.9424 0.0000
# 2 94.0014 158.8641 49.4444 0.0000 15.1650 0.0000
# 3 90.8960 49.4444 172.9600 0.0000 22.6833 0.0000
# 4 0.0000 0.0000 0.0000 29.5217 0.0000 16.0188
# 5 29.9424 15.1650 22.6833 0.0000 57.4014 0.0000
# 6 0.0000 0.0000 0.0000 16.0188 0.0000 42.6549
#
#
#
# Elastic Compliance Matrix: (Units=1/GPa)
#
#
# Indices 1 2 3 4 5 6 
#
# 1 0.007399 -0.003363 -0.002676 0.000000 -0.001914 0.000000
# 2 -0.003363 0.008504 -0.000632 0.000000 -0.000243 0.000000
# 3 -0.002676 -0.000632 0.007555 0.000000 -0.001423 0.000000
# 4 0.000000 0.000000 0.000000 0.042543 0.000000 -0.015977
# 5 -0.001914 -0.000243 -0.001423 0.000000 0.019046 0.000000
# 6 0.000000 0.000000 0.000000 -0.015977 0.000000 0.029444
#
#
# Mechanical properties :
#
#
# Convention : Reuss Voigt Hill
#
# Bulk Modulus (GPa) = 98.84367 113.22144 106.03256
# Shear Modulus (GPa) = 38.10799 46.98009 42.54404
#
# Velocity S-wave (km/s) = 3.92274 4.35550 4.14478
# Velocity P-wave (km/s) = 7.77367 8.42688 8.10686
#
# Compressibility (1/GPa) = 0.01011699
#
# Stress axis : x y z
#
# Youngs Moduli (GPa) = 135.14526 117.58722 132.35428
#
# Poissons Ratio (x) = 0.39540 0.35423
# Poissons Ratio (y) = 0.45445 0.08366
# Poissons Ratio (z) = 0.36170 0.07433
#
# Static dielectric constant tensor:
#      x y z
#    x 1.993720 0.000000 -0.013990 
#    y 0.000000 2.026130 0.000000 
#    z -0.013990 0.000000 1.964660 
# 
# From -- ./inp_files/62008.got.cif
#   From: 2010.05.17/outbox.cif.g08.bks.cpg/sg13_32_cif.got.tgz:62008.got - 2010.06.03 16:44:36.
