data_PCOD9238835
_publ_section_title
;
Structure prediction by ZEFSAII (Michael W. Deem and Ramdas Pophale) SiO2 
 PCOD9238835
Probable space group: P 2/C
;
_chemical_formula_sum "Si O2"
_cell_formula_units_Z 32
_cell_length_a 7.114891
_cell_length_b 11.459585
_cell_length_c 14.108458
_cell_angle_alpha 90.000000
_cell_angle_beta 79.552761
_cell_angle_gamma 90.000000
_cell_volume 1131.245187
_symmetry_space_group_name_H-M "P 2/C"
_symmetry_group_IT_number 13
_symmetry_cell_setting 'monoclinic'
loop_
_space_group_symop_operation_xyz
x,y,z
-x,y,1/2-z
-x,-y,-z
x,-y,1/2+z
loop_
_atom_site_type_symbol
_atom_site_label
_atom_site_fract_x
_atom_site_fract_y
_atom_site_fract_z
Si Si1 0.793407 0.992882 0.563774
Si Si2 0.227234 0.491222 0.727993
Si Si3 0.771189 0.259748 0.278341
Si Si4 0.822516 0.243572 0.551868
Si Si5 0.285606 0.240700 0.729276
Si Si6 0.708713 0.011776 0.279808
Si Si7 0.229032 0.505845 0.451624
Si Si8 0.257655 0.252242 0.440550
O O1 0.834645 0.979747 0.672714
O O2 0.680527 0.879334 0.538839
O O3 0.711107 0.121599 0.553282
O O4 0.000000 0.000000 0.500000
O O5 0.292403 0.613780 0.677717
O O6 0.277127 0.366011 0.680774
O O7 0.276565 0.493069 0.834685
O O8 0.000000 0.494952 0.750000
O O9 0.725152 0.135590 0.330305
O O10 0.700275 0.255547 0.176006
O O11 0.000000 0.263698 0.250000
O O12 0.849239 0.251018 0.664521
O O13 0.719548 0.361166 0.527764
O O14 0.027683 0.244063 0.481428
O O15 0.500000 0.234918 0.750000
O O16 0.250121 0.116407 0.682521
O O17 0.500000 0.008508 0.250000
O O18 0.309063 0.380018 0.475081
O O19 0.000000 0.500000 0.500000
#
# Coordination Sequence:
#
# PCOD9238835 Si02
#       8
#     4   4   4   4   4   4   4   4
#     4   8  13  22  37  57  79 102 131 168 206 244
#     4   9  17  28  42  63  88 112 140 177 219 257
#     4   9  17  28  42  63  86 111 142 173 211 260
#     4   8  13  22  37  57  77 101 131 168 204 239
#     4   9  17  28  42  63  86 111 142 173 211 260
#     4   9  17  28  42  63  88 112 140 177 219 257
#     4   8  13  22  37  57  79 102 131 168 206 244
#     4   8  13  22  37  57  77 101 131 168 204 239
#
# _framework density 28.287413000000001
#
# number of rings (size 3 to 8) (size 9 to 14) (size 15 to 20)
#    0.000    3.500    0.000    0.000    0.000    1.000 
#    0.000    0.000    0.000    0.000    0.000   61.250 
#    0.000    0.000    0.000    0.000    0.000    0.000 
#
# Total GULP energy -178533.794499 kJ/mol
# GULP energy per Si atom -5579.181078 kJ/mol
# Density = 2.822303 g / cm^3
# Si number density = 28.287413 Si / 1000 Ang^3
#
#
#
# Elastic Constant Matrix: (Units=GPa)
#
#
# Indices 1 2 3 4 5 6 
#
# 1 58.5024 27.7509 0.2559 0.0000 -16.1188 0.0000
# 2 27.7509 453.7311 -7.5819 0.0000 -1.4198 0.0000
# 3 0.2559 -7.5819 120.3120 0.0000 3.7996 0.0000
# 4 0.0000 0.0000 0.0000 -27.2749 0.0000 -13.9671
# 5 -16.1188 -1.4198 3.7996 0.0000 34.1230 0.0000
# 6 0.0000 0.0000 0.0000 -13.9671 0.0000 -1.6292
#
#
#
# Elastic Compliance Matrix: (Units=1/GPa)
#
#
# Indices 1 2 3 4 5 6 
#
# 1 0.020317 -0.001220 -0.000423 0.000000 0.009594 0.000000
# 2 -0.001220 0.002280 0.000162 0.000000 -0.000499 0.000000
# 3 -0.000423 0.000162 0.008358 0.000000 -0.001124 0.000000
# 4 0.000000 0.000000 0.000000 0.010815 0.000000 -0.092716
# 5 0.009594 -0.000499 -0.001124 0.000000 0.033942 0.000000
# 6 0.000000 0.000000 0.000000 -0.092716 0.000000 0.181055
#
#
# Mechanical properties :
#
#
# Convention : Reuss Voigt Hill
#
# Bulk Modulus (GPa) = 35.72246 74.82171 55.27209
# Shear Modulus (GPa) = 18.58325 41.85182 30.21754
#
# Velocity S-wave (km/s) = 2.56587 3.85063 3.27193
# Velocity P-wave (km/s) = 4.62970 6.80277 5.81858
#
# Compressibility (1/GPa) = 0.02799359
#
# Stress axis : x y z
#
# Youngs Moduli (GPa) = 49.21991 438.65605 119.64115
#
# Poissons Ratio (x) = 0.53502 0.05062
# Poissons Ratio (y) = 0.06003 -0.01939
# Poissons Ratio (z) = 0.02082 -0.07107
#
# Static dielectric constant tensor:
#      x y z
#    x 1.875350 0.000000 -0.005680 
#    y 0.000000 2.285680 0.000000 
#    z -0.005680 0.000000 2.159100 
# 
# From -- ./inp_files/76264.got.cif
#   From: 2010.05.17/outbox.cif.g08.bks.cpg/sg13_39_cif.got.tgz:76264.got - 2010.06.03 16:44:36.
