data_PCOD9238701
_publ_section_title
;
Structure prediction by ZEFSAII (Michael W. Deem and Ramdas Pophale) SiO2 
 PCOD9238701
Probable space group: P 2/C
;
_chemical_formula_sum "Si O2"
_cell_formula_units_Z 20
_cell_length_a 24.441428
_cell_length_b 6.655745
_cell_length_c 11.846775
_cell_angle_alpha 90.000000
_cell_angle_beta 152.244166
_cell_angle_gamma 90.000000
_cell_volume 897.498944
_symmetry_space_group_name_H-M "P 2/C"
_symmetry_group_IT_number 13
_symmetry_cell_setting 'monoclinic'
loop_
_space_group_symop_operation_xyz
x,y,z
-x,y,1/2-z
-x,-y,-z
x,-y,1/2+z
loop_
_atom_site_type_symbol
_atom_site_label
_atom_site_fract_x
_atom_site_fract_y
_atom_site_fract_z
Si Si1 0.112178 0.597954 0.144123
Si Si2 0.209182 0.880888 0.513995
Si Si3 0.000000 0.114586 0.250000
Si Si4 0.402046 0.953262 0.228656
Si Si5 0.327298 0.370377 0.423001
Si Si6 0.500000 0.291081 0.250000
O O1 0.175962 0.716506 0.360741
O O2 0.206288 0.450043 0.257864
O O3 0.064705 0.747647 0.960739
O O4 0.000000 0.500000 0.000000
O O5 0.291759 0.781142 0.759097
O O6 0.280674 0.046080 0.574928
O O7 0.095643 0.975691 0.363791
O O8 0.500000 0.000000 0.500000
O O9 0.420797 0.143484 0.180684
O O10 0.400281 0.753168 0.150743
O O11 0.404367 0.558548 0.520603
#
# Coordination Sequence:
#
# PCOD9238701 Si02
#       6
#     4   4   2   4   4   2
#     4  12  25  46  72 106 146 194 242 301 365 428
#     4  12  25  46  73 106 147 192 238 302 366 425
#     4  12  26  46  74 110 150 188 252 298 356 446
#     4  12  27  46  74 105 148 192 238 304 368 429
#     4  12  27  46  73 110 144 189 248 297 358 444
#     4  12  26  48  70 110 144 188 248 296 364 436
#
# _framework density 22.284148999999999
#
# number of rings (size 3 to 8) (size 9 to 14) (size 15 to 20)
#    0.000    0.000    2.000    8.400    5.600    1.600 
#    0.000    0.000    0.000    0.000    0.000    0.000 
#    0.000    0.000    0.000    0.000    0.000    0.000 
#
# Total GULP energy -111948.219633 kJ/mol
# GULP energy per Si atom -5597.410982 kJ/mol
# Density = 2.223343 g / cm^3
# Si number density = 22.284149 Si / 1000 Ang^3
#
#
#
# Elastic Constant Matrix: (Units=GPa)
#
#
# Indices 1 2 3 4 5 6 
#
# 1 129.4893 24.7621 3.6274 0.0000 22.0036 0.0000
# 2 24.7621 67.3398 5.4582 0.0000 -4.9130 0.0000
# 3 3.6274 5.4582 63.4172 0.0000 -13.8463 0.0000
# 4 0.0000 0.0000 0.0000 52.4401 0.0000 21.0907
# 5 22.0036 -4.9130 -13.8463 0.0000 50.7195 0.0000
# 6 0.0000 0.0000 0.0000 21.0907 0.0000 11.5180
#
#
#
# Elastic Compliance Matrix: (Units=1/GPa)
#
#
# Indices 1 2 3 4 5 6 
#
# 1 0.009255 -0.003646 -0.001243 0.000000 -0.004707 0.000000
# 2 -0.003646 0.016456 -0.000547 0.000000 0.003026 0.000000
# 3 -0.001243 -0.000547 0.017007 0.000000 0.005129 0.000000
# 4 0.000000 0.000000 0.000000 0.072356 0.000000 -0.132491
# 5 -0.004707 0.003026 0.005129 0.000000 0.023452 0.000000
# 6 0.000000 0.000000 0.000000 -0.132491 0.000000 0.329427
#
#
# Mechanical properties :
#
#
# Convention : Reuss Voigt Hill
#
# Bulk Modulus (GPa) = 31.40235 36.43795 33.92015
# Shear Modulus (GPa) = 10.21578 38.02875 24.12227
#
# Velocity S-wave (km/s) = 2.14343 4.13551 3.29368
# Velocity P-wave (km/s) = 4.49979 6.26021 5.45153
#
# Compressibility (1/GPa) = 0.03184475
#
# Stress axis : x y z
#
# Youngs Moduli (GPa) = 108.05464 60.76883 58.80036
#
# Poissons Ratio (x) = 0.22155 0.07311
# Poissons Ratio (y) = 0.39394 0.03217
# Poissons Ratio (z) = 0.13435 0.03324
#
# Static dielectric constant tensor:
#      x y z
#    x 1.849390 0.000000 0.032570 
#    y 0.000000 1.805570 0.000000 
#    z 0.032570 0.000000 1.806550 
# 
# From -- ./inp_files/39765.got.cif
#   From: 2010.05.17/outbox.cif.g08.bks.cpg/sg13_20_cif.got.tgz:39765.got - 2010.06.03 16:44:36.
