data_PCOD9238695
_publ_section_title
;
Structure prediction by ZEFSAII (Michael W. Deem and Ramdas Pophale) SiO2 
 PCOD9238695
Probable space group: P 2/C
;
_chemical_formula_sum "Si O2"
_cell_formula_units_Z 16
_cell_length_a 9.195216
_cell_length_b 7.938510
_cell_length_c 17.706067
_cell_angle_alpha 90.000000
_cell_angle_beta 29.119418
_cell_angle_gamma 90.000000
_cell_volume 628.960303
_symmetry_space_group_name_H-M "P 2/C"
_symmetry_group_IT_number 13
_symmetry_cell_setting 'monoclinic'
loop_
_space_group_symop_operation_xyz
x,y,z
-x,y,1/2-z
-x,-y,-z
x,-y,1/2+z
loop_
_atom_site_type_symbol
_atom_site_label
_atom_site_fract_x
_atom_site_fract_y
_atom_site_fract_z
Si Si1 0.301414 0.000577 0.904996
Si Si2 0.268037 0.429410 0.683227
Si Si3 0.185065 0.383905 0.480803
Si Si4 0.304650 0.843201 0.563924
O O1 0.500000 0.081301 0.750000
O O2 0.345914 0.799440 0.895147
O O3 0.256151 0.114519 0.998465
O O4 0.000000 0.000000 0.000000
O O5 0.531028 0.517375 0.612813
O O6 0.466452 0.311705 0.538582
O O7 0.000000 0.501603 0.750000
O O8 0.063386 0.348252 0.841936
O O9 0.000000 0.500000 0.500000
O O10 0.000000 0.840619 0.750000
O O11 0.500000 0.000000 0.500000
#
# Coordination Sequence:
#
# PCOD9238695 Si02
#       4
#     4   4   4   4
#     4  12  25  45  74 108 144 191 246 305 370 446
#     4  12  27  47  73 108 151 200 252 314 381 452
#     4  12  26  48  75 110 151 196 249 311 380 457
#     4  12  26  48  75 108 149 199 255 316 378 451
#
# _framework density 25.438808000000002
#
# number of rings (size 3 to 8) (size 9 to 14) (size 15 to 20)
#    0.000    0.000    0.000   11.250    0.000    5.000 
#    0.000    1.250    0.000    0.000    0.000    0.000 
#    0.000    0.000    0.000    0.000    0.000    0.000 
#
# Total GULP energy -89131.503139 kJ/mol
# GULP energy per Si atom -5570.718946 kJ/mol
# Density = 2.538091 g / cm^3
# Si number density = 25.438808 Si / 1000 Ang^3
#
#
#
# Elastic Constant Matrix: (Units=GPa)
#
#
# Indices 1 2 3 4 5 6 
#
# 1 167.6640 29.6951 57.2066 0.0000 -14.7593 0.0000
# 2 29.6951 106.4399 25.3236 0.0000 -15.4267 0.0000
# 3 57.2066 25.3236 254.1068 0.0000 15.5958 0.0000
# 4 0.0000 0.0000 0.0000 34.8778 0.0000 -5.0021
# 5 -14.7593 -15.4267 15.5958 0.0000 66.4942 0.0000
# 6 0.0000 0.0000 0.0000 -5.0021 0.0000 48.3736
#
#
#
# Elastic Compliance Matrix: (Units=1/GPa)
#
#
# Indices 1 2 3 4 5 6 
#
# 1 0.006851 -0.001326 -0.001506 0.000000 0.001566 0.000000
# 2 -0.001326 0.010305 -0.000870 0.000000 0.002300 0.000000
# 3 -0.001506 -0.000870 0.004458 0.000000 -0.001582 0.000000
# 4 0.000000 0.000000 0.000000 0.029103 0.000000 0.003009
# 5 0.001566 0.002300 -0.001582 0.000000 0.016291 0.000000
# 6 0.000000 0.000000 0.000000 0.003009 0.000000 0.020984
#
#
# Mechanical properties :
#
#
# Convention : Reuss Voigt Hill
#
# Bulk Modulus (GPa) = 70.37032 83.62901 76.99966
# Shear Modulus (GPa) = 49.93348 57.68149 53.80749
#
# Velocity S-wave (km/s) = 4.43525 4.76695 4.60409
# Velocity P-wave (km/s) = 7.34515 7.95263 7.65492
#
# Compressibility (1/GPa) = 0.01421054
#
# Stress axis : x y z
#
# Youngs Moduli (GPa) = 145.96430 97.03822 224.30449
#
# Poissons Ratio (x) = 0.12866 0.33788
# Poissons Ratio (y) = 0.19354 0.19507
# Poissons Ratio (z) = 0.21987 0.08439
#
# Static dielectric constant tensor:
#      x y z
#    x 1.756350 0.000000 -0.352770 
#    y 0.000000 1.917450 0.000000 
#    z -0.352770 0.000000 0.841540 
# 
# From -- ./inp_files/63624.got.cif
#   From: 2010.05.17/outbox.cif.g08.bks.cpg/sg13_32_cif.got.tgz:63624.got - 2010.06.03 16:44:36.
