data_PCOD9238338
_publ_section_title
;
Structure prediction by ZEFSAII (Michael W. Deem and Ramdas Pophale) SiO2 
 PCOD9238338
Probable space group: P 2/C
;
_chemical_formula_sum "Si O2"
_cell_formula_units_Z 24
_cell_length_a 20.302968
_cell_length_b 4.975837
_cell_length_c 27.931102
_cell_angle_alpha 90.000000
_cell_angle_beta 160.394787
_cell_angle_gamma 90.000000
_cell_volume 946.791884
_symmetry_space_group_name_H-M "P 2/C"
_symmetry_group_IT_number 13
_symmetry_cell_setting 'monoclinic'
loop_
_space_group_symop_operation_xyz
x,y,z
-x,y,1/2-z
-x,-y,-z
x,-y,1/2+z
loop_
_atom_site_type_symbol
_atom_site_label
_atom_site_fract_x
_atom_site_fract_y
_atom_site_fract_z
Si Si1 0.397154 0.011538 0.980692
Si Si2 0.752204 0.122884 0.294616
Si Si3 0.991624 0.619646 0.063528
Si Si4 0.971777 0.814275 0.159601
Si Si5 0.381441 0.750633 0.216746
Si Si6 0.274570 0.663772 0.977706
O O1 0.558759 0.118146 0.128797
O O2 0.190768 0.147772 0.828027
O O3 0.335060 0.738597 0.965344
O O4 0.500000 0.000000 0.000000
O O5 0.853077 0.403143 0.350965
O O6 0.689143 0.020417 0.304135
O O7 0.085771 0.103797 0.608134
O O8 0.979406 0.694126 0.111223
O O9 0.790338 0.459582 0.913463
O O10 0.146524 0.597300 0.391982
O O11 0.851661 0.092255 0.084866
O O12 0.500000 0.820173 0.250000
O O13 0.533765 0.623479 0.358625
#
# Coordination Sequence:
#
# PCOD9238338 Si02
#       6
#     4   4   4   4   4   4
#     4  11  26  49  79 111 153 207 261 327 384 467
#     4  11  27  49  72 113 152 200 257 316 389 459
#     4  12  25  49  76 108 155 200 253 318 386 463
#     4  12  26  50  77 112 156 206 260 320 398 461
#     4  11  25  48  77 112 152 204 256 321 384 462
#     4  11  28  51  73 116 157 204 263 320 397 466
#
# _framework density 25.348759000000001
#
# number of rings (size 3 to 8) (size 9 to 14) (size 15 to 20)
#    0.000    0.667    3.333    2.500    0.000   11.333 
#    0.000    0.000    0.000    0.000    0.000    0.000 
#    0.000    0.000    0.000    0.000    0.000    0.000 
#
# Total GULP energy -134503.482520 kJ/mol
# GULP energy per Si atom -5604.311772 kJ/mol
# Density = 2.529106 g / cm^3
# Si number density = 25.348759 Si / 1000 Ang^3
#
#
#
# Elastic Constant Matrix: (Units=GPa)
#
#
# Indices 1 2 3 4 5 6 
#
# 1 154.4275 26.2349 52.6439 0.0000 5.7180 0.0000
# 2 26.2349 114.1597 70.6003 0.0000 -7.9280 0.0000
# 3 52.6439 70.6003 224.6001 0.0000 13.0686 0.0000
# 4 0.0000 0.0000 0.0000 274.6177 0.0000 -231.4284
# 5 5.7180 -7.9280 13.0686 0.0000 32.7235 0.0000
# 6 0.0000 0.0000 0.0000 -231.4284 0.0000 240.0713
#
#
#
# Elastic Compliance Matrix: (Units=1/GPa)
#
#
# Indices 1 2 3 4 5 6 
#
# 1 0.007114 -0.000870 -0.001341 0.000000 -0.000918 0.000000
# 2 -0.000870 0.011543 -0.003682 0.000000 0.004419 0.000000
# 3 -0.001341 -0.003682 0.006104 0.000000 -0.003095 0.000000
# 4 0.000000 0.000000 0.000000 0.019409 0.000000 0.018711
# 5 -0.000918 0.004419 -0.003095 0.000000 0.033026 0.000000
# 6 0.000000 0.000000 0.000000 0.018711 0.000000 0.022203
#
#
# Mechanical properties :
#
#
# Convention : Reuss Voigt Hill
#
# Bulk Modulus (GPa) = 77.05654 88.01618 82.53636
# Shear Modulus (GPa) = 43.28623 132.39638 87.84131
#
# Velocity S-wave (km/s) = 4.13683 7.23487 5.89307
# Velocity P-wave (km/s) = 7.29947 10.22685 8.88456
#
# Compressibility (1/GPa) = 0.01297748
#
# Stress axis : x y z
#
# Youngs Moduli (GPa) = 140.56161 86.63014 163.82527
#
# Poissons Ratio (x) = 0.07533 0.21965
# Poissons Ratio (y) = 0.12222 0.60317
# Poissons Ratio (z) = 0.18846 0.31896
#
# Static dielectric constant tensor:
#      x y z
#    x 1.995700 0.000000 -0.070980 
#    y 0.000000 1.897310 0.000000 
#    z -0.070980 0.000000 1.970870 
# 
# From -- ./inp_files/93443.got.cif
#   From: 2010.05.17/outbox.cif.g08.bks.cpg/sg13_47_cif.got.tgz:93443.got - 2010.06.03 16:44:36.
