data_PCOD9238731
_publ_section_title
;
Structure prediction by ZEFSAII (Michael W. Deem and Ramdas Pophale) SiO2 
 PCOD9238731
Probable space group: P 2/C
;
_chemical_formula_sum "Si O2"
_cell_formula_units_Z 14
_cell_length_a 10.437790
_cell_length_b 7.304733
_cell_length_c 10.702752
_cell_angle_alpha 90.000000
_cell_angle_beta 128.781114
_cell_angle_gamma 90.000000
_cell_volume 636.134949
_symmetry_space_group_name_H-M "P 2/C"
_symmetry_group_IT_number 13
_symmetry_cell_setting 'monoclinic'
loop_
_space_group_symop_operation_xyz
x,y,z
-x,y,1/2-z
-x,-y,-z
x,-y,1/2+z
loop_
_atom_site_type_symbol
_atom_site_label
_atom_site_fract_x
_atom_site_fract_y
_atom_site_fract_z
Si Si1 0.792340 0.620933 0.839389
Si Si2 0.127138 0.777427 0.078702
Si Si3 0.403538 0.030840 0.313531
Si Si4 0.000000 0.256397 0.250000
O O1 0.772350 0.413117 0.867982
O O2 0.641635 0.757851 0.740434
O O3 0.870356 0.622734 0.747591
O O4 0.944417 0.713862 0.009378
O O5 0.230230 0.923864 0.216304
O O6 0.094622 0.848526 0.917565
O O7 0.500000 0.961135 0.250000
O O8 0.500000 0.000000 0.500000
#
# Coordination Sequence:
#
# PCOD9238731 Si02
#       4
#     4   4   4   2
#     4   9  20  40  63  89 113 161 210 254 298 350
#     4   9  20  40  62  89 116 158 211 255 296 352
#     4  12  26  41  59  94 131 165 197 244 315 375
#     4   8  16  36  64  88 114 144 210 260 296 338
#
# _framework density 22.007909000000001
#
# number of rings (size 3 to 8) (size 9 to 14) (size 15 to 20)
#    1.714    0.571    0.000    2.571    0.000    4.571 
#    0.000    0.000    0.000    0.000    0.000    0.000 
#    0.000    0.000    0.000    0.000    0.000    0.000 
#
# Total GULP energy -77943.757835 kJ/mol
# GULP energy per Si atom -5567.411274 kJ/mol
# Density = 2.195782 g / cm^3
# Si number density = 22.007909 Si / 1000 Ang^3
#
#
#
# Elastic Constant Matrix: (Units=GPa)
#
#
# Indices 1 2 3 4 5 6 
#
# 1 63.3562 6.1824 15.7913 0.0000 -2.2087 0.0000
# 2 6.1824 106.9015 51.1790 0.0000 10.4177 0.0000
# 3 15.7913 51.1790 158.9732 0.0000 -8.6847 0.0000
# 4 0.0000 0.0000 0.0000 20.9738 0.0000 11.9306
# 5 -2.2087 10.4177 -8.6847 0.0000 11.2719 0.0000
# 6 0.0000 0.0000 0.0000 11.9306 0.0000 19.0508
#
#
#
# Elastic Compliance Matrix: (Units=1/GPa)
#
#
# Indices 1 2 3 4 5 6 
#
# 1 0.016255 -0.000601 -0.001270 0.000000 0.002762 0.000000
# 2 -0.000601 0.013489 -0.005189 0.000000 -0.016583 0.000000
# 3 -0.001270 -0.005189 0.008702 0.000000 0.011251 0.000000
# 4 0.000000 0.000000 0.000000 0.074062 0.000000 -0.046381
# 5 0.002762 -0.016583 0.011251 0.000000 0.113252 0.000000
# 6 0.000000 0.000000 0.000000 -0.046381 0.000000 0.081538
#
#
# Mechanical properties :
#
#
# Convention : Reuss Voigt Hill
#
# Bulk Modulus (GPa) = 41.10863 52.83738 46.97300
# Shear Modulus (GPa) = 15.17325 27.33118 21.25221
#
# Velocity S-wave (km/s) = 2.62858 3.52785 3.11088
# Velocity P-wave (km/s) = 5.28509 6.37611 5.85606
#
# Compressibility (1/GPa) = 0.02432579
#
# Stress axis : x y z
#
# Youngs Moduli (GPa) = 61.51825 74.13232 114.92016
#
# Poissons Ratio (x) = 0.04456 0.14598
# Poissons Ratio (y) = 0.03698 0.59631
# Poissons Ratio (z) = 0.07815 0.38467
#
# Static dielectric constant tensor:
#      x y z
#    x 1.900580 0.000000 0.008890 
#    y 0.000000 1.825330 0.000000 
#    z 0.008890 0.000000 1.837300 
# 
# From -- ./inp_files/27485.got.cif
#   From: 2010.05.17/outbox.cif.g08.bks.cpg/sg13_14_cif.got.tgz:27485.got - 2010.06.03 16:44:36.
