data_PCOD9238724
_publ_section_title
;
Structure prediction by ZEFSAII (Michael W. Deem and Ramdas Pophale) SiO2 
 PCOD9238724
Probable space group: P 2/C
;
_chemical_formula_sum "Si O2"
_cell_formula_units_Z 14
_cell_length_a 11.801943
_cell_length_b 8.865431
_cell_length_c 8.487155
_cell_angle_alpha 90.000000
_cell_angle_beta 139.351634
_cell_angle_gamma 90.000000
_cell_volume 578.459826
_symmetry_space_group_name_H-M "P 2/C"
_symmetry_group_IT_number 13
_symmetry_cell_setting 'monoclinic'
loop_
_space_group_symop_operation_xyz
x,y,z
-x,y,1/2-z
-x,-y,-z
x,-y,1/2+z
loop_
_atom_site_type_symbol
_atom_site_label
_atom_site_fract_x
_atom_site_fract_y
_atom_site_fract_z
Si Si1 0.156423 0.082800 0.303146
Si Si2 0.395464 0.799420 0.474946
Si Si3 0.040996 0.337226 0.610618
Si Si4 0.500000 0.781695 0.250000
O O1 0.301034 0.162698 0.563011
O O2 0.000000 0.022421 0.250000
O O3 0.278710 0.954949 0.351445
O O4 0.061553 0.205013 0.091571
O O5 0.248119 0.675373 0.321826
O O6 0.520830 0.754095 0.462416
O O7 0.500000 0.809706 0.750000
O O8 0.000000 0.327145 0.750000
O O9 0.000000 0.500000 0.500000
#
# Coordination Sequence:
#
# PCOD9238724 Si02
#       4
#     4   4   4   2
#     4  12  25  49  80 114 157 200 258 326 388 459
#     4  12  27  50  79 122 155 201 260 329 393 462
#     4  12  28  51  78 109 155 211 260 314 392 466
#     4  12  26  44  80 114 164 188 264 314 400 448
#
# _framework density 24.202200000000001
#
# number of rings (size 3 to 8) (size 9 to 14) (size 15 to 20)
#    0.000    0.000    4.286    5.143    4.000    0.000 
#    2.571    2.857    0.000    0.000    0.000    0.000 
#    0.000    0.000    0.000    0.000    0.000    0.000 
#
# Total GULP energy -77936.006704 kJ/mol
# GULP energy per Si atom -5566.857622 kJ/mol
# Density = 2.414711 g / cm^3
# Si number density = 24.202200 Si / 1000 Ang^3
#
#
#
# Elastic Constant Matrix: (Units=GPa)
#
#
# Indices 1 2 3 4 5 6 
#
# 1 171.7764 31.4071 27.7564 0.0000 -16.1419 0.0000
# 2 31.4071 114.6281 53.8573 0.0000 -17.2878 0.0000
# 3 27.7564 53.8573 160.3065 0.0000 6.2641 0.0000
# 4 0.0000 0.0000 0.0000 -61.8563 0.0000 -59.8153
# 5 -16.1419 -17.2878 6.2641 0.0000 56.3011 0.0000
# 6 0.0000 0.0000 0.0000 -59.8153 0.0000 -38.8290
#
#
#
# Elastic Compliance Matrix: (Units=1/GPa)
#
#
# Indices 1 2 3 4 5 6 
#
# 1 0.006298 -0.001130 -0.000771 0.000000 0.001544 0.000000
# 2 -0.001130 0.011336 -0.003752 0.000000 0.003574 0.000000
# 3 -0.000771 -0.003752 0.007719 0.000000 -0.002232 0.000000
# 4 0.000000 0.000000 0.000000 0.033016 0.000000 -0.050861
# 5 0.001544 0.003574 -0.002232 0.000000 0.019550 0.000000
# 6 0.000000 0.000000 0.000000 -0.050861 0.000000 0.052596
#
#
# Mechanical properties :
#
#
# Convention : Reuss Voigt Hill
#
# Bulk Modulus (GPa) = 71.19729 74.75031 72.97380
# Shear Modulus (GPa) = 34.12856 13.36918 23.74887
#
# Velocity S-wave (km/s) = 3.75926 2.35286 3.13592
# Velocity P-wave (km/s) = 6.95157 6.19145 6.58249
#
# Compressibility (1/GPa) = 0.01404548
#
# Stress axis : x y z
#
# Youngs Moduli (GPa) = 158.78291 88.21753 129.54360
#
# Poissons Ratio (x) = 0.09972 0.09988
# Poissons Ratio (y) = 0.17949 0.48609
# Poissons Ratio (z) = 0.12243 0.33102
#
# Static dielectric constant tensor:
#      x y z
#    x 2.011810 0.000000 -0.087970 
#    y 0.000000 2.023310 0.000000 
#    z -0.087970 0.000000 1.959280 
# 
# From -- ./inp_files/14664.got.cif
#   From: 2010.05.17/outbox.cif.g08.bks.cpg/sg13_8_cif.got.tgz:14664.got - 2010.06.03 16:44:36.
