data_PCOD9238752
_publ_section_title
;
Structure prediction by ZEFSAII (Michael W. Deem and Ramdas Pophale) SiO2 
 PCOD9238752
Probable space group: P 2/C
;
_chemical_formula_sum "Si O2"
_cell_formula_units_Z 28
_cell_length_a 18.701298
_cell_length_b 6.631836
_cell_length_c 11.773013
_cell_angle_alpha 90.000000
_cell_angle_beta 122.322188
_cell_angle_gamma 90.000000
_cell_volume 1233.894549
_symmetry_space_group_name_H-M "P 2/C"
_symmetry_group_IT_number 13
_symmetry_cell_setting 'monoclinic'
loop_
_space_group_symop_operation_xyz
x,y,z
-x,y,1/2-z
-x,-y,-z
x,-y,1/2+z
loop_
_atom_site_type_symbol
_atom_site_label
_atom_site_fract_x
_atom_site_fract_y
_atom_site_fract_z
Si Si1 0.000000 0.930545 0.750000
Si Si2 0.275577 0.787852 0.855170
Si Si3 0.839947 0.137295 0.734384
Si Si4 0.500000 0.362831 0.250000
Si Si5 0.358076 0.443818 0.772042
Si Si6 0.583743 0.095123 0.511463
Si Si7 0.928274 0.619034 0.504589
Si Si8 0.213979 0.526068 0.468602
O O1 0.965781 0.788741 0.619510
O O2 0.922426 0.058653 0.736637
O O3 0.324240 0.625916 0.820918
O O4 0.212484 0.956047 0.753028
O O5 0.352015 0.919456 0.971463
O O6 0.213279 0.657017 0.879693
O O7 0.869313 0.282063 0.859412
O O8 0.782240 0.265605 0.597262
O O9 0.553447 0.498273 0.209605
O O10 0.557592 0.223740 0.379430
O O11 0.371622 0.243452 0.858109
O O12 0.290748 0.455662 0.613216
O O13 0.500000 0.000000 0.500000
O O14 0.871051 0.471691 0.531099
O O15 0.000000 0.500000 0.500000
#
# Coordination Sequence:
#
# PCOD9238752 Si02
#       8
#     2   4   4   2   4   4   4   4
#     4  12  26  48  74 112 154 200 248 308 380 438
#     4  12  26  49  73 107 152 191 258 302 373 455
#     4  12  27  47  76 111 148 197 256 305 375 453
#     4  12  26  48  76 106 152 192 244 310 380 434
#     4  12  28  47  75 109 149 197 249 316 372 447
#     4  12  28  48  74 112 147 196 251 308 376 455
#     4  12  26  47  77 111 155 195 251 315 373 447
#     4  12  27  48  76 107 151 200 246 312 382 434
#
# _framework density 22.692375999999999
#
# number of rings (size 3 to 8) (size 9 to 14) (size 15 to 20)
#    0.000    0.000    2.857    6.857    8.000    2.286 
#    0.000    0.000    0.000    0.000    0.000    0.000 
#    0.000    0.000    0.000    0.000    0.000    0.000 
#
# Total GULP energy -156702.117938 kJ/mol
# GULP energy per Si atom -5596.504212 kJ/mol
# Density = 2.264073 g / cm^3
# Si number density = 22.692376 Si / 1000 Ang^3
#
#
#
# Elastic Constant Matrix: (Units=GPa)
#
#
# Indices 1 2 3 4 5 6 
#
# 1 121.4709 28.8992 -12.3148 0.0000 -13.8827 0.0000
# 2 28.8992 89.7438 27.7741 0.0000 -6.2656 0.0000
# 3 -12.3148 27.7741 84.7820 0.0000 -3.1345 0.0000
# 4 0.0000 0.0000 0.0000 23.5238 0.0000 11.0939
# 5 -13.8827 -6.2656 -3.1345 0.0000 30.8606 0.0000
# 6 0.0000 0.0000 0.0000 11.0939 0.0000 51.6190
#
#
#
# Elastic Compliance Matrix: (Units=1/GPa)
#
#
# Indices 1 2 3 4 5 6 
#
# 1 0.009868 -0.003773 0.002816 0.000000 0.003959 0.000000
# 2 -0.003773 0.013981 -0.005105 0.000000 0.000623 0.000000
# 3 0.002816 -0.005105 0.013937 0.000000 0.001646 0.000000
# 4 0.000000 0.000000 0.000000 0.047305 0.000000 -0.010167
# 5 0.003959 0.000623 0.001646 0.000000 0.034478 0.000000
# 6 0.000000 0.000000 0.000000 -0.010167 0.000000 0.021558
#
#
# Mechanical properties :
#
#
# Convention : Reuss Voigt Hill
#
# Bulk Modulus (GPa) = 38.96816 42.74596 40.85706
# Shear Modulus (GPa) = 30.90135 37.97656 34.43896
#
# Velocity S-wave (km/s) = 3.69419 4.09533 3.89992
# Velocity P-wave (km/s) = 5.95027 6.42186 6.19056
#
# Compressibility (1/GPa) = 0.02566198
#
# Stress axis : x y z
#
# Youngs Moduli (GPa) = 101.33870 71.52507 71.75058
#
# Poissons Ratio (x) = 0.26984 -0.20202
# Poissons Ratio (y) = 0.38231 0.36629
# Poissons Ratio (z) = -0.28533 0.36514
#
# Static dielectric constant tensor:
#      x y z
#    x 1.847450 0.000000 0.024330 
#    y 0.000000 1.830210 0.000000 
#    z 0.024330 0.000000 1.990340 
# 
# From -- ./inp_files/40223.got.cif
#   From: 2010.05.17/outbox.cif.g08.bks.cpg/sg13_21_cif.got.tgz:40223.got - 2010.06.03 16:44:36.
