data_PCOD9238192
_publ_section_title
;
Structure prediction by ZEFSAII (Michael W. Deem and Ramdas Pophale) SiO2 
 PCOD9238192
Probable space group: P 2/C
;
_chemical_formula_sum "Si O2"
_cell_formula_units_Z 16
_cell_length_a 19.517050
_cell_length_b 5.112090
_cell_length_c 10.561852
_cell_angle_alpha 90.000000
_cell_angle_beta 138.083040
_cell_angle_gamma 90.000000
_cell_volume 703.985256
_symmetry_space_group_name_H-M "P 2/C"
_symmetry_group_IT_number 13
_symmetry_cell_setting 'monoclinic'
loop_
_space_group_symop_operation_xyz
x,y,z
-x,y,1/2-z
-x,-y,-z
x,-y,1/2+z
loop_
_atom_site_type_symbol
_atom_site_label
_atom_site_fract_x
_atom_site_fract_y
_atom_site_fract_z
Si Si1 0.767499 0.485430 0.819172
Si Si2 0.729613 0.121576 0.082165
Si Si3 0.878828 0.984251 0.093473
Si Si4 0.387499 0.882827 0.337183
O O1 0.753016 0.577514 0.653889
O O2 0.650290 0.420546 0.701889
O O3 0.835140 0.237915 0.957397
O O4 0.825596 0.727718 0.963044
O O5 0.838171 0.013854 0.181458
O O6 0.672663 0.003103 0.124968
O O7 0.656738 0.062975 0.863037
O O8 0.000000 0.970683 0.250000
O O9 0.500000 0.000000 0.500000
#
# Coordination Sequence:
#
# PCOD9238192 Si02
#       4
#     4   4   4   4
#     4  11  24  47  74 110 153 193 255 312 370 459
#     4  11  24  48  73 111 155 194 258 315 370 464
#     4  11  26  47  77 115 154 204 251 315 384 446
#     4  11  26  48  79 108 150 201 253 320 388 445
#
# _framework density 22.72775
#
# number of rings (size 3 to 8) (size 9 to 14) (size 15 to 20)
#    0.000    1.000    5.000    1.500    7.000    3.000 
#    0.000    2.500    0.000    0.000    0.000    0.000 
#    0.000    0.000    0.000    0.000    0.000    0.000 
#
# Total GULP energy -89089.350255 kJ/mol
# GULP energy per Si atom -5568.084391 kJ/mol
# Density = 2.267602 g / cm^3
# Si number density = 22.727750 Si / 1000 Ang^3
#
#
#
# Elastic Constant Matrix: (Units=GPa)
#
#
# Indices 1 2 3 4 5 6 
#
# 1 197.0848 66.1764 102.7177 0.0000 14.7182 0.0000
# 2 66.1764 160.8938 73.1113 0.0000 10.8114 0.0000
# 3 102.7177 73.1113 136.3954 0.0000 0.7997 0.0000
# 4 0.0000 0.0000 0.0000 45.6815 0.0000 -6.7606
# 5 14.7182 10.8114 0.7997 0.0000 53.3826 0.0000
# 6 0.0000 0.0000 0.0000 -6.7606 0.0000 32.7038
#
#
#
# Elastic Compliance Matrix: (Units=1/GPa)
#
#
# Indices 1 2 3 4 5 6 
#
# 1 0.008665 -0.000606 -0.006188 0.000000 -0.002174 0.000000
# 2 -0.000606 0.008398 -0.004036 0.000000 -0.001473 0.000000
# 3 -0.006188 -0.004036 0.014141 0.000000 0.002312 0.000000
# 4 0.000000 0.000000 0.000000 0.022582 0.000000 0.004668
# 5 -0.002174 -0.001473 0.002312 0.000000 0.019596 0.000000
# 6 0.000000 0.000000 0.000000 0.004668 0.000000 0.031543
#
#
# Mechanical properties :
#
#
# Convention : Reuss Voigt Hill
#
# Bulk Modulus (GPa) = 104.78018 108.70940 106.74479
# Shear Modulus (GPa) = 38.53120 43.17815 40.85468
#
# Velocity S-wave (km/s) = 4.12191 4.36340 4.24437
# Velocity P-wave (km/s) = 8.29795 8.56275 8.43139
#
# Compressibility (1/GPa) = 0.00954379
#
# Stress axis : x y z
#
# Youngs Moduli (GPa) = 115.41083 119.08064 70.71395
#
# Poissons Ratio (x) = 0.07217 0.43755
# Poissons Ratio (y) = 0.06995 0.28542
# Poissons Ratio (z) = 0.71412 0.48065
#
# Static dielectric constant tensor:
#      x y z
#    x 1.880600 0.000000 -0.033880 
#    y 0.000000 2.047580 0.000000 
#    z -0.033880 0.000000 1.882240 
# 
# From -- ./inp_files/20597.got.cif
#   From: 2010.05.17/outbox.cif.g08.bks.cpg/sg13_11_cif.got.tgz:20597.got - 2010.06.03 16:44:36.
