data_PCOD9238424
_publ_section_title
;
Structure prediction by ZEFSAII (Michael W. Deem and Ramdas Pophale) SiO2 
 PCOD9238424
Probable space group: P 2/C
;
_chemical_formula_sum "Si O2"
_cell_formula_units_Z 20
_cell_length_a 32.076508
_cell_length_b 5.123357
_cell_length_c 32.847497
_cell_angle_alpha 90.000000
_cell_angle_beta 171.187110
_cell_angle_gamma 90.000000
_cell_volume 827.038776
_symmetry_space_group_name_H-M "P 2/C"
_symmetry_group_IT_number 13
_symmetry_cell_setting 'monoclinic'
loop_
_space_group_symop_operation_xyz
x,y,z
-x,y,1/2-z
-x,-y,-z
x,-y,1/2+z
loop_
_atom_site_type_symbol
_atom_site_label
_atom_site_fract_x
_atom_site_fract_y
_atom_site_fract_z
Si Si1 0.739838 0.691948 0.744538
Si Si2 0.359921 0.515245 0.038521
Si Si3 0.000000 0.833693 0.250000
Si Si4 0.036601 0.965341 0.467230
Si Si5 0.938494 0.525880 0.561618
Si Si6 0.500000 0.131079 0.750000
O O1 0.500000 0.500000 0.500000
O O2 0.731799 0.846248 0.779538
O O3 0.000000 0.500000 0.000000
O O4 0.809723 0.909904 0.778141
O O5 0.161110 0.599681 0.810380
O O6 0.650789 0.427888 0.302023
O O7 0.432237 0.720494 0.143286
O O8 0.183902 0.314796 0.895011
O O9 0.222312 0.982980 0.490741
O O10 0.123021 0.213558 0.523690
O O11 0.947679 0.716856 0.354750
#
# Coordination Sequence:
#
# PCOD9238424 Si02
#       6
#     4   4   2   4   4   2
#     4  11  26  50  83 111 153 214 261 321 382 483
#     4  12  29  50  74 117 151 208 265 323 400 464
#     4  12  26  50  82 108 152 208 268 328 386 486
#     4  11  28  52  76 120 158 206 264 320 400 470
#     4  12  29  47  80 114 165 204 255 336 398 463
#     4  12  26  50  82 108 152 208 268 328 386 486
#
# _framework density 24.182663999999999
#
# number of rings (size 3 to 8) (size 9 to 14) (size 15 to 20)
#    0.000    0.400    2.000    4.800   11.200    6.400 
#    0.000    0.000    0.000    0.000    0.000    0.000 
#    0.000    0.000    0.000    0.000    0.000    0.000 
#
# Total GULP energy -111972.951456 kJ/mol
# GULP energy per Si atom -5598.647573 kJ/mol
# Density = 2.412762 g / cm^3
# Si number density = 24.182664 Si / 1000 Ang^3
#
#
#
# Elastic Constant Matrix: (Units=GPa)
#
#
# Indices 1 2 3 4 5 6 
#
# 1 134.6219 72.9295 72.3141 0.0000 -26.0243 0.0000
# 2 72.9295 165.0675 82.6694 0.0000 -23.7650 0.0000
# 3 72.3141 82.6694 216.3053 0.0000 -21.8327 0.0000
# 4 0.0000 0.0000 0.0000 56.1895 0.0000 -3.7376
# 5 -26.0243 -23.7650 -21.8327 0.0000 24.0943 0.0000
# 6 0.0000 0.0000 0.0000 -3.7376 0.0000 56.2165
#
#
#
# Elastic Compliance Matrix: (Units=1/GPa)
#
#
# Indices 1 2 3 4 5 6 
#
# 1 0.011625 -0.003044 -0.001936 0.000000 0.007800 0.000000
# 2 -0.003044 0.008953 -0.002030 0.000000 0.003703 0.000000
# 3 -0.001936 -0.002030 0.006200 0.000000 0.001525 0.000000
# 4 0.000000 0.000000 0.000000 0.017876 0.000000 0.001188
# 5 0.007800 0.003703 0.001525 0.000000 0.054962 0.000000
# 6 0.000000 0.000000 0.000000 0.001188 0.000000 0.017867
#
#
# Mechanical properties :
#
#
# Convention : Reuss Voigt Hill
#
# Bulk Modulus (GPa) = 78.38110 107.98008 93.18059
# Shear Modulus (GPa) = 36.83093 46.50552 41.66823
#
# Velocity S-wave (km/s) = 3.90684 4.39007 4.15548
# Velocity P-wave (km/s) = 7.26867 8.39319 7.85109
#
# Compressibility (1/GPa) = 0.01275818
#
# Stress axis : x y z
#
# Youngs Moduli (GPa) = 86.02410 111.69638 161.28639
#
# Poissons Ratio (x) = 0.33995 0.31222
# Poissons Ratio (y) = 0.26182 0.32747
# Poissons Ratio (z) = 0.16653 0.22679
#
# Static dielectric constant tensor:
#      x y z
#    x 1.973590 0.000000 0.024710 
#    y 0.000000 1.999020 0.000000 
#    z 0.024710 0.000000 1.886410 
# 
# From -- ./inp_files/97948.got.cif
#   From: 2010.05.17/outbox.cif.g08.bks.cpg/sg13_49_cif.got.tgz:97948.got - 2010.06.03 16:44:36.
