data_PCOD9238854
_publ_section_title
;
Structure prediction by ZEFSAII (Michael W. Deem and Ramdas Pophale) SiO2 
 PCOD9238854
Probable space group: P 2/C
;
_chemical_formula_sum "Si O2"
_cell_formula_units_Z 16
_cell_length_a 13.869429
_cell_length_b 5.677854
_cell_length_c 8.366669
_cell_angle_alpha 90.000000
_cell_angle_beta 111.906934
_cell_angle_gamma 90.000000
_cell_volume 611.287614
_symmetry_space_group_name_H-M "P 2/C"
_symmetry_group_IT_number 13
_symmetry_cell_setting 'monoclinic'
loop_
_space_group_symop_operation_xyz
x,y,z
-x,y,1/2-z
-x,-y,-z
x,-y,1/2+z
loop_
_atom_site_type_symbol
_atom_site_label
_atom_site_fract_x
_atom_site_fract_y
_atom_site_fract_z
Si Si1 0.078456 0.593983 0.417183
Si Si2 0.215066 0.725177 0.779253
Si Si3 0.391649 0.992009 0.033181
Si Si4 0.395797 0.506619 0.538131
O O1 0.163299 0.732527 0.573732
O O2 0.130990 0.372819 0.356362
O O3 0.000000 0.731061 0.250000
O O4 0.000000 0.500000 0.500000
O O5 0.300679 0.519103 0.855950
O O6 0.284596 0.952234 0.867286
O O7 0.389006 0.242311 0.118259
O O8 0.500000 0.000000 0.000000
O O9 0.392363 0.743442 0.127235
O O10 0.500000 0.500000 0.500000
#
# Coordination Sequence:
#
# PCOD9238854 Si02
#       4
#     4   4   4   4
#     4   9  18  36  61  90 124 170 230 276 321 382
#     4   9  18  32  62  88 125 168 205 270 329 375
#     4   8  15  30  58  88 124 159 204 250 314 393
#     4   8  15  30  56  88 126 155 204 248 318 388
#
# _framework density 26.174261000000001
#
# number of rings (size 3 to 8) (size 9 to 14) (size 15 to 20)
#    1.500    2.000    0.000    0.000    0.000    0.000 
#    0.000    3.750    0.000   33.000    0.000    5.250 
#    0.000    0.000    0.000    0.000    0.000    0.000 
#
# Total GULP energy -89124.849642 kJ/mol
# GULP energy per Si atom -5570.303103 kJ/mol
# Density = 2.611469 g / cm^3
# Si number density = 26.174261 Si / 1000 Ang^3
#
#
#
# Elastic Constant Matrix: (Units=GPa)
#
#
# Indices 1 2 3 4 5 6 
#
# 1 172.3184 20.2016 59.8741 0.0000 9.6679 0.0000
# 2 20.2016 228.3236 32.5404 0.0000 -6.5565 0.0000
# 3 59.8741 32.5404 171.7156 0.0000 47.2636 0.0000
# 4 0.0000 0.0000 0.0000 18.0479 0.0000 4.4953
# 5 9.6679 -6.5565 47.2636 0.0000 59.6657 0.0000
# 6 0.0000 0.0000 0.0000 4.4953 0.0000 25.7571
#
#
#
# Elastic Compliance Matrix: (Units=1/GPa)
#
#
# Indices 1 2 3 4 5 6 
#
# 1 0.006656 -0.000202 -0.002531 0.000000 0.000905 0.000000
# 2 -0.000202 0.004614 -0.001218 0.000000 0.001505 0.000000
# 3 -0.002531 -0.001218 0.008774 0.000000 -0.006674 0.000000
# 4 0.000000 0.000000 0.000000 0.057926 0.000000 -0.010110
# 5 0.000905 0.001505 -0.006674 0.000000 0.022066 0.000000
# 6 0.000000 0.000000 0.000000 -0.010110 0.000000 0.040589
#
#
# Mechanical properties :
#
#
# Convention : Reuss Voigt Hill
#
# Bulk Modulus (GPa) = 82.36646 88.62108 85.49377
# Shear Modulus (GPa) = 32.77082 51.34358 42.05720
#
# Velocity S-wave (km/s) = 3.54223 4.43381 4.01286
# Velocity P-wave (km/s) = 6.94742 7.75520 7.36240
#
# Compressibility (1/GPa) = 0.01214086
#
# Stress axis : x y z
#
# Youngs Moduli (GPa) = 150.24665 216.71049 113.97273
#
# Poissons Ratio (x) = 0.04381 0.28851
# Poissons Ratio (y) = 0.03037 0.13883
# Poissons Ratio (z) = 0.38033 0.26398
#
# Static dielectric constant tensor:
#      x y z
#    x 2.083390 0.000000 0.078870 
#    y 0.000000 2.046510 0.000000 
#    z 0.078870 0.000000 2.144690 
# 
# From -- ./inp_files/17630.got.cif
#   From: 2010.05.17/outbox.cif.g08.bks.cpg/sg13_9_cif.got.tgz:17630.got - 2010.06.03 16:44:36.
