data_PCOD9238169
_publ_section_title
;
Structure prediction by ZEFSAII (Michael W. Deem and Ramdas Pophale) SiO2 
 PCOD9238169
Probable space group: P 2/C
;
_chemical_formula_sum "Si O2"
_cell_formula_units_Z 18
_cell_length_a 5.556322
_cell_length_b 5.523776
_cell_length_c 24.675868
_cell_angle_alpha 90.000000
_cell_angle_beta 59.767367
_cell_angle_gamma 90.000000
_cell_volume 654.340342
_symmetry_space_group_name_H-M "P 2/C"
_symmetry_group_IT_number 13
_symmetry_cell_setting 'monoclinic'
loop_
_space_group_symop_operation_xyz
x,y,z
-x,y,1/2-z
-x,-y,-z
x,-y,1/2+z
loop_
_atom_site_type_symbol
_atom_site_label
_atom_site_fract_x
_atom_site_fract_y
_atom_site_fract_z
Si Si1 0.759424 0.298051 0.514143
Si Si2 0.206127 0.649513 0.134399
Si Si3 0.000000 0.990091 0.250000
Si Si4 0.556159 0.340946 0.297931
Si Si5 0.904734 0.011441 0.098642
O O1 0.448902 0.385739 0.562308
O O2 0.000000 0.500000 0.500000
O O3 0.820658 0.159771 0.450989
O O4 0.776953 0.088147 0.557786
O O5 0.266239 0.435862 0.170615
O O6 0.181111 0.851390 0.184823
O O7 0.958172 0.764352 0.126095
O O8 0.764005 0.146167 0.248475
O O9 0.500000 0.503680 0.250000
O O10 0.289737 0.214747 0.353807
#
# Coordination Sequence:
#
# PCOD9238169 Si02
#       5
#     4   4   2   4   4
#     4  11  24  46  75 111 154 210 264 333 413 481
#     4  12  26  45  77 113 152 208 269 328 413 486
#     4  12  26  48  72 112 152 206 262 332 412 476
#     4  12  26  48  77 110 156 211 270 334 408 488
#     4  11  25  47  74 109 160 202 265 342 401 485
#
# _framework density 27.508621000000002
#
# number of rings (size 3 to 8) (size 9 to 14) (size 15 to 20)
#    0.000    0.444    6.667    1.333    0.000    7.111 
#    0.000    0.000    0.000    0.000    0.000    0.000 
#    0.000    0.000    0.000    0.000    0.000    0.000 
#
# Total GULP energy -100348.560314 kJ/mol
# GULP energy per Si atom -5574.920017 kJ/mol
# Density = 2.744601 g / cm^3
# Si number density = 27.508621 Si / 1000 Ang^3
#
#
#
# Elastic Constant Matrix: (Units=GPa)
#
#
# Indices 1 2 3 4 5 6 
#
# 1 60.6511 28.2387 45.9858 0.0000 0.3189 0.0000
# 2 28.2387 88.4352 61.9768 0.0000 -5.0532 0.0000
# 3 45.9858 61.9768 156.6417 0.0000 -9.7434 0.0000
# 4 0.0000 0.0000 0.0000 23.5250 0.0000 -2.6563
# 5 0.3189 -5.0532 -9.7434 0.0000 43.7409 0.0000
# 6 0.0000 0.0000 0.0000 -2.6563 0.0000 28.1212
#
#
#
# Elastic Compliance Matrix: (Units=1/GPa)
#
#
# Indices 1 2 3 4 5 6 
#
# 1 0.022070 -0.003501 -0.005201 0.000000 -0.001724 0.000000
# 2 -0.003501 0.016210 -0.005342 0.000000 0.000708 0.000000
# 3 -0.005201 -0.005342 0.010129 0.000000 0.001677 0.000000
# 4 0.000000 0.000000 0.000000 0.042966 0.000000 0.004059
# 5 -0.001724 0.000708 0.001677 0.000000 0.023330 0.000000
# 6 0.000000 0.000000 0.000000 0.004059 0.000000 0.035944
#
#
# Mechanical properties :
#
#
# Convention : Reuss Voigt Hill
#
# Bulk Modulus (GPa) = 49.20979 64.23673 56.72326
# Shear Modulus (GPa) = 26.95272 30.37921 28.66597
#
# Velocity S-wave (km/s) = 3.13356 3.32678 3.23162
# Velocity P-wave (km/s) = 5.56956 6.17728 5.88128
#
# Compressibility (1/GPa) = 0.02032116
#
# Stress axis : x y z
#
# Youngs Moduli (GPa) = 45.30940 61.69200 98.72827
#
# Poissons Ratio (x) = 0.21596 0.51353
# Poissons Ratio (y) = 0.15861 0.52738
# Poissons Ratio (z) = 0.23567 0.32954
#
# Static dielectric constant tensor:
#      x y z
#    x 2.984270 0.000000 0.156050 
#    y 0.000000 2.304600 0.000000 
#    z 0.156050 0.000000 2.194060 
# 
# From -- ./inp_files/82891.got.cif
#   From: 2010.05.17/outbox.cif.g08.bks.cpg/sg13_42_cif.got.tgz:82891.got - 2010.06.03 16:44:36.
