data_PCOD9238467
_publ_section_title
;
Structure prediction by ZEFSAII (Michael W. Deem and Ramdas Pophale) SiO2 
 PCOD9238467
Probable space group: P 2/C
;
_chemical_formula_sum "Si O2"
_cell_formula_units_Z 20
_cell_length_a 7.933882
_cell_length_b 6.967860
_cell_length_c 15.768445
_cell_angle_alpha 90.000000
_cell_angle_beta 77.592405
_cell_angle_gamma 90.000000
_cell_volume 851.354077
_symmetry_space_group_name_H-M "P 2/C"
_symmetry_group_IT_number 13
_symmetry_cell_setting 'monoclinic'
loop_
_space_group_symop_operation_xyz
x,y,z
-x,y,1/2-z
-x,-y,-z
x,-y,1/2+z
loop_
_atom_site_type_symbol
_atom_site_label
_atom_site_fract_x
_atom_site_fract_y
_atom_site_fract_z
Si Si1 0.500000 0.604703 0.250000
Si Si2 0.000000 0.549127 0.250000
Si Si3 0.809622 0.119901 0.723498
Si Si4 0.805354 0.225466 0.350519
Si Si5 0.554751 0.632142 0.572568
Si Si6 0.889259 0.147528 0.066091
O O1 0.353007 0.751962 0.236342
O O2 0.440529 0.479769 0.337592
O O3 0.052536 0.709908 0.313647
O O4 0.158176 0.406768 0.214738
O O5 0.839700 0.972940 0.798209
O O6 0.787868 0.980101 0.646703
O O7 0.609464 0.225543 0.401963
O O8 0.957686 0.259530 0.401866
O O9 0.500000 0.500000 0.500000
O O10 0.741609 0.727279 0.538387
O O11 0.000000 0.000000 0.000000
#
# Coordination Sequence:
#
# PCOD9238467 Si02
#       6
#     2   2   4   4   4   4
#     4  12  26  48  80 108 158 204 268 320 402 470
#     4  12  20  44  80 106 140 198 260 320 384 460
#     4  12  24  46  79 109 147 208 259 319 398 466
#     4  12  25  50  78 107 159 197 263 326 388 475
#     4  12  30  50  78 118 156 208 265 329 391 474
#     4  12  28  47  74 114 160 203 260 324 396 473
#
# _framework density 23.491986000000001
#
# number of rings (size 3 to 8) (size 9 to 14) (size 15 to 20)
#    0.000    0.000    6.000    3.600    8.400    1.600 
#    0.000    0.000    0.000    0.000    0.000    0.000 
#    0.000    0.000    0.000    0.000    0.000    0.000 
#
# Total GULP energy -111629.532001 kJ/mol
# GULP energy per Si atom -5581.476600 kJ/mol
# Density = 2.343852 g / cm^3
# Si number density = 23.491986 Si / 1000 Ang^3
#
#
#
# Elastic Constant Matrix: (Units=GPa)
#
#
# Indices 1 2 3 4 5 6 
#
# 1 176.5277 72.2363 39.1587 0.0000 -1.0992 0.0000
# 2 72.2363 120.1118 20.3898 0.0000 11.9858 0.0000
# 3 39.1587 20.3898 65.6839 0.0000 11.0022 0.0000
# 4 0.0000 0.0000 0.0000 4.3219 0.0000 -8.5581
# 5 -1.0992 11.9858 11.0022 0.0000 25.7464 0.0000
# 6 0.0000 0.0000 0.0000 -8.5581 0.0000 61.0775
#
#
#
# Elastic Compliance Matrix: (Units=1/GPa)
#
#
# Indices 1 2 3 4 5 6 
#
# 1 0.008690 -0.004931 -0.004412 0.000000 0.004552 0.000000
# 2 -0.004931 0.011831 0.000242 0.000000 -0.005822 0.000000
# 3 -0.004412 0.000242 0.019205 0.000000 -0.008508 0.000000
# 4 0.000000 0.000000 0.000000 0.320230 0.000000 0.044870
# 5 0.004552 -0.005822 -0.008508 0.000000 0.045381 0.000000
# 6 0.000000 0.000000 0.000000 0.044870 0.000000 0.022660
#
#
# Mechanical properties :
#
#
# Convention : Reuss Voigt Hill
#
# Bulk Modulus (GPa) = 46.46128 69.54366 58.00247
# Shear Modulus (GPa) = 11.02843 33.59841 22.31342
#
# Velocity S-wave (km/s) = 2.16904 3.78591 3.08528
# Velocity P-wave (km/s) = 5.10817 6.98414 6.11848
#
# Compressibility (1/GPa) = 0.02152330
#
# Stress axis : x y z
#
# Youngs Moduli (GPa) = 115.07559 84.52230 52.07036
#
# Poissons Ratio (x) = 0.41682 0.22975
# Poissons Ratio (y) = 0.56749 -0.01263
# Poissons Ratio (z) = 0.50775 -0.02050
#
# Static dielectric constant tensor:
#      x y z
#    x 2.176230 0.000000 0.121000 
#    y 0.000000 1.912870 0.000000 
#    z 0.121000 0.000000 2.135140 
# 
# From -- ./inp_files/62363.got.cif
#   From: 2010.05.17/outbox.cif.g08.bks.cpg/sg13_32_cif.got.tgz:62363.got - 2010.06.03 16:44:36.
