data_PCOD9238783
_publ_section_title
;
Structure prediction by ZEFSAII (Michael W. Deem and Ramdas Pophale) SiO2 
 PCOD9238783
Probable space group: P 2/C
;
_chemical_formula_sum "Si O2"
_cell_formula_units_Z 18
_cell_length_a 5.091406
_cell_length_b 7.688665
_cell_length_c 19.571428
_cell_angle_alpha 90.000000
_cell_angle_beta 71.309807
_cell_angle_gamma 90.000000
_cell_volume 725.742805
_symmetry_space_group_name_H-M "P 2/C"
_symmetry_group_IT_number 13
_symmetry_cell_setting 'monoclinic'
loop_
_space_group_symop_operation_xyz
x,y,z
-x,y,1/2-z
-x,-y,-z
x,-y,1/2+z
loop_
_atom_site_type_symbol
_atom_site_label
_atom_site_fract_x
_atom_site_fract_y
_atom_site_fract_z
Si Si1 0.866381 0.520700 0.113760
Si Si2 0.255204 0.990925 0.179625
Si Si3 0.851351 0.864514 0.462043
Si Si4 0.500000 0.693769 0.250000
Si Si5 0.406334 0.703550 0.589944
O O1 0.749387 0.581463 0.197513
O O2 0.987968 0.684516 0.063190
O O3 0.102253 0.372974 0.101625
O O4 0.605497 0.454046 0.092795
O O5 0.422273 0.167404 0.153929
O O6 0.000000 0.025069 0.250000
O O7 0.157958 0.946886 0.111849
O O8 0.410488 0.824842 0.197187
O O9 0.551921 0.807681 0.516225
O O10 0.000000 0.000000 0.500000
#
# Coordination Sequence:
#
# PCOD9238783 Si02
#       5
#     4   4   4   2   4
#     4  12  28  50  81 118 164 207 267 339 407 474
#     4  12  28  52  79 113 160 214 273 325 402 488
#     4  12  26  55  84 120 159 218 269 331 403 489
#     4  12  28  50  78 114 162 216 272 330 406 490
#     4  12  29  48  83 119 163 206 272 339 408 474
#
# _framework density 24.802178999999999
#
# number of rings (size 3 to 8) (size 9 to 14) (size 15 to 20)
#    0.000    0.000    2.222    6.000    6.222    3.556 
#    0.000    0.000    0.000    0.000    0.000    0.000 
#    0.000    0.000    0.000    0.000    0.000    0.000 
#
# Total GULP energy -101015.930096 kJ/mol
# GULP energy per Si atom -5611.996116 kJ/mol
# Density = 2.474573 g / cm^3
# Si number density = 24.802179 Si / 1000 Ang^3
#
#
#
# Elastic Constant Matrix: (Units=GPa)
#
#
# Indices 1 2 3 4 5 6 
#
# 1 84.9270 27.8535 53.3313 0.0000 -15.8276 0.0000
# 2 27.8535 114.6075 62.3219 0.0000 -19.3654 0.0000
# 3 53.3313 62.3219 175.2271 0.0000 -17.8313 0.0000
# 4 0.0000 0.0000 0.0000 51.5237 0.0000 -3.0360
# 5 -15.8276 -19.3654 -17.8313 0.0000 58.0758 0.0000
# 6 0.0000 0.0000 0.0000 -3.0360 0.0000 28.7871
#
#
#
# Elastic Compliance Matrix: (Units=1/GPa)
#
#
# Indices 1 2 3 4 5 6 
#
# 1 0.015082 -0.001093 -0.003944 0.000000 0.002535 0.000000
# 2 -0.001093 0.011261 -0.003428 0.000000 0.002405 0.000000
# 3 -0.003944 -0.003428 0.008156 0.000000 0.000286 0.000000
# 4 0.000000 0.000000 0.000000 0.019530 0.000000 0.002060
# 5 0.002535 0.002405 0.000286 0.000000 0.018800 0.000000
# 6 0.000000 0.000000 0.000000 0.002060 0.000000 0.034955
#
#
# Mechanical properties :
#
#
# Convention : Reuss Voigt Hill
#
# Bulk Modulus (GPa) = 56.91376 73.53054 65.22215
# Shear Modulus (GPa) = 38.29388 43.09431 40.69409
#
# Velocity S-wave (km/s) = 3.93360 4.17288 4.05501
# Velocity P-wave (km/s) = 6.60514 7.27519 6.94825
#
# Compressibility (1/GPa) = 0.01757044
#
# Stress axis : x y z
#
# Youngs Moduli (GPa) = 66.30339 88.79870 122.61609
#
# Poissons Ratio (x) = 0.09702 0.48357
# Poissons Ratio (y) = 0.07244 0.42033
# Poissons Ratio (z) = 0.26149 0.30441
#
# Static dielectric constant tensor:
#      x y z
#    x 1.953910 0.000000 0.049890 
#    y 0.000000 1.991240 0.000000 
#    z 0.049890 0.000000 1.753520 
# 
# From -- ./inp_files/60365.got.cif
#   From: 2010.05.17/outbox.cif.g08.bks.cpg/sg13_31_cif.got.tgz:60365.got - 2010.06.03 16:44:36.
