data_PCOD9238060
_publ_section_title
;
Structure prediction by ZEFSAII (Michael W. Deem and Ramdas Pophale) SiO2 
 PCOD9238060
Probable space group: P 2/C
;
_chemical_formula_sum "Si O2"
_cell_formula_units_Z 26
_cell_length_a 12.124146
_cell_length_b 5.154121
_cell_length_c 21.360717
_cell_angle_alpha 90.000000
_cell_angle_beta 119.400012
_cell_angle_gamma 90.000000
_cell_volume 1162.910506
_symmetry_space_group_name_H-M "P 2/C"
_symmetry_group_IT_number 13
_symmetry_cell_setting 'monoclinic'
loop_
_space_group_symop_operation_xyz
x,y,z
-x,y,1/2-z
-x,-y,-z
x,-y,1/2+z
loop_
_atom_site_type_symbol
_atom_site_label
_atom_site_fract_x
_atom_site_fract_y
_atom_site_fract_z
Si Si1 0.641786 0.988954 0.065856
Si Si2 0.213652 0.476642 0.443172
Si Si3 0.925066 0.470796 0.838385
Si Si4 0.755264 0.882203 0.719940
Si Si5 0.000000 0.089377 0.750000
Si Si6 0.359310 0.050937 0.689020
Si Si7 0.251515 0.467847 0.099491
O O1 0.713379 0.211642 0.047983
O O2 0.642356 0.086451 0.138829
O O3 0.715107 0.711576 0.075510
O O4 0.500000 0.000000 0.000000
O O5 0.222907 0.544076 0.518799
O O6 0.066516 0.418322 0.386775
O O7 0.814420 0.632371 0.771610
O O8 0.868585 0.440300 0.892020
O O9 0.963260 0.242881 0.801772
O O10 0.719815 0.068181 0.768041
O O11 0.872251 0.934975 0.705906
O O12 0.500000 0.985939 0.750000
O O13 0.298611 0.813298 0.634519
O O14 0.353636 0.313373 0.647544
#
# Coordination Sequence:
#
# PCOD9238060 Si02
#       7
#     4   4   4   4   2   4   4
#     4  12  28  48  70 107 144 194 238 288 359 427
#     4  12  26  47  73 101 149 188 233 295 361 428
#     4  11  24  43  69 106 137 179 239 294 359 417
#     4  11  25  42  73 102 140 185 238 299 351 419
#     4  12  18  42  66  98 138 172 234 294 346 408
#     4  11  25  46  70 102 140 189 239 288 350 426
#     4  11  25  45  70 106 137 188 233 292 359 424
#
# _framework density 22.357696000000001
#
# number of rings (size 3 to 8) (size 9 to 14) (size 15 to 20)
#    0.000    0.615    3.077    4.615    4.308    0.000 
#    0.000    3.846    0.000    0.000    0.000    0.000 
#    0.000    0.000    0.000    0.000    0.000    0.000 
#
# Total GULP energy -144968.841813 kJ/mol
# GULP energy per Si atom -5575.724685 kJ/mol
# Density = 2.230681 g / cm^3
# Si number density = 22.357696 Si / 1000 Ang^3
#
#
#
# Elastic Constant Matrix: (Units=GPa)
#
#
# Indices 1 2 3 4 5 6 
#
# 1 26.8634 8.2792 -4.2376 0.0000 -13.4622 0.0000
# 2 8.2792 53.2818 15.5243 0.0000 -3.3232 0.0000
# 3 -4.2376 15.5243 117.3479 0.0000 -14.0889 0.0000
# 4 0.0000 0.0000 0.0000 -0.5924 0.0000 -4.1445
# 5 -13.4622 -3.3232 -14.0889 0.0000 36.0858 0.0000
# 6 0.0000 0.0000 0.0000 -4.1445 0.0000 17.7648
#
#
#
# Elastic Compliance Matrix: (Units=1/GPa)
#
#
# Indices 1 2 3 4 5 6 
#
# 1 0.050746 -0.008179 0.005348 0.000000 0.020266 0.000000
# 2 -0.008179 0.020863 -0.003348 0.000000 -0.002437 0.000000
# 3 0.005348 -0.003348 0.009821 0.000000 0.005521 0.000000
# 4 0.000000 0.000000 0.000000 -0.641331 0.000000 -0.149620
# 5 0.020266 -0.002437 0.005521 0.000000 0.037203 0.000000
# 6 0.000000 0.000000 0.000000 -0.149620 0.000000 0.021385
#
#
# Mechanical properties :
#
#
# Convention : Reuss Voigt Hill
#
# Bulk Modulus (GPa) = 14.47814 26.29167 20.38491
# Shear Modulus (GPa) = -10.73119 22.51346 5.89113
#
# Velocity S-wave (km/s) = -2.19322 3.17672 1.62501
# Velocity P-wave (km/s) = 0.27596 5.02399 3.55785
#
# Compressibility (1/GPa) = 0.06906964
#
# Stress axis : x y z
#
# Youngs Moduli (GPa) = 19.70613 47.93282 101.82752
#
# Poissons Ratio (x) = 0.39205 -0.54454
# Poissons Ratio (y) = 0.16118 0.34091
# Poissons Ratio (z) = -0.10538 0.16048
#
# Static dielectric constant tensor:
#      x y z
#    x 2.005540 0.000000 0.018810 
#    y 0.000000 1.888260 0.000000 
#    z 0.018810 0.000000 2.058550 
# 
# From -- ./inp_files/77324.got.cif
#   From: 2010.05.17/outbox.cif.g08.bks.cpg/sg13_39_cif.got.tgz:77324.got - 2010.06.03 16:44:36.
