data_PCOD9238070
_publ_section_title
;
Structure prediction by ZEFSAII (Michael W. Deem and Ramdas Pophale) SiO2 
 PCOD9238070
Probable space group: P 2/C
;
_chemical_formula_sum "Si O2"
_cell_formula_units_Z 26
_cell_length_a 7.482873
_cell_length_b 11.456503
_cell_length_c 13.733305
_cell_angle_alpha 90.000000
_cell_angle_beta 91.759325
_cell_angle_gamma 90.000000
_cell_volume 1176.767706
_symmetry_space_group_name_H-M "P 2/C"
_symmetry_group_IT_number 13
_symmetry_cell_setting 'monoclinic'
loop_
_space_group_symop_operation_xyz
x,y,z
-x,y,1/2-z
-x,-y,-z
x,-y,1/2+z
loop_
_atom_site_type_symbol
_atom_site_label
_atom_site_fract_x
_atom_site_fract_y
_atom_site_fract_z
Si Si1 0.167185 0.354550 0.420786
Si Si2 0.000000 0.212407 0.750000
Si Si3 0.638594 0.134851 0.836025
Si Si4 0.528780 0.701875 0.023284
Si Si5 0.269286 0.057366 0.009023
Si Si6 0.111031 0.604912 0.408504
Si Si7 0.930974 0.902462 0.639752
O O1 0.375692 0.347790 0.451858
O O2 0.109103 0.473771 0.366663
O O3 0.046436 0.367283 0.517138
O O4 0.133203 0.231418 0.368394
O O5 0.158457 0.145626 0.697708
O O6 0.099020 0.295354 0.828262
O O7 0.500000 0.101837 0.750000
O O8 0.639648 0.039889 0.921782
O O9 0.572808 0.258200 0.879530
O O10 0.619789 0.823905 0.992971
O O11 0.695666 0.616981 0.038258
O O12 0.089398 0.089882 0.063873
O O13 0.212189 0.996153 0.905807
O O14 0.000000 0.923264 0.750000
#
# Coordination Sequence:
#
# PCOD9238070 Si02
#       7
#     4   2   4   4   4   4   4
#     4  11  24  46  70  98 139 189 227 288 356 407
#     4  12  24  44  68 106 134 178 244 284 344 424
#     4  12  26  41  71 103 140 178 231 291 349 413
#     4  12  23  46  69 103 134 181 233 285 351 416
#     4  11  26  44  69 104 145 182 229 294 347 423
#     4  11  24  43  72 100 139 183 231 290 348 415
#     4  11  25  43  70 101 140 189 233 282 352 422
#
# _framework density 22.094422000000002
#
# number of rings (size 3 to 8) (size 9 to 14) (size 15 to 20)
#    0.000    0.615    6.154    0.923    6.462    0.000 
#    0.000    0.000    3.385    0.000    0.000    0.000 
#    0.000    0.000    0.000    0.000    0.000    0.000 
#
# Total GULP energy -145368.779167 kJ/mol
# GULP energy per Si atom -5591.106891 kJ/mol
# Density = 2.204413 g / cm^3
# Si number density = 22.094422 Si / 1000 Ang^3
#
#
#
# Elastic Constant Matrix: (Units=GPa)
#
#
# Indices 1 2 3 4 5 6 
#
# 1 112.1905 22.4309 17.4800 0.0000 6.2661 0.0000
# 2 22.4309 119.4003 29.7201 0.0000 3.9224 0.0000
# 3 17.4800 29.7201 87.6740 0.0000 21.5002 0.0000
# 4 0.0000 0.0000 0.0000 -6.5778 0.0000 -1.1002
# 5 6.2661 3.9224 21.5002 0.0000 36.9627 0.0000
# 6 0.0000 0.0000 0.0000 -1.1002 0.0000 19.8156
#
#
#
# Elastic Compliance Matrix: (Units=1/GPa)
#
#
# Indices 1 2 3 4 5 6 
#
# 1 0.009432 -0.001447 -0.001208 0.000000 -0.000743 0.000000
# 2 -0.001447 0.009399 -0.003165 0.000000 0.001089 0.000000
# 3 -0.001208 -0.003165 0.014681 0.000000 -0.007999 0.000000
# 4 0.000000 0.000000 0.000000 -0.150627 0.000000 -0.008363
# 5 -0.000743 0.001089 -0.007999 0.000000 0.031717 0.000000
# 6 0.000000 0.000000 0.000000 -0.008363 0.000000 0.050001
#
#
# Mechanical properties :
#
#
# Convention : Reuss Voigt Hill
#
# Bulk Modulus (GPa) = 45.71740 50.94743 48.33241
# Shear Modulus (GPa) = -303.65764 26.68236 -138.48764
#
# Velocity S-wave (km/s) = -11.73604 3.47890 -7.92565
# Velocity P-wave (km/s) = 12.76360 6.26466 7.86332
#
# Compressibility (1/GPa) = 0.02187351
#
# Stress axis : x y z
#
# Youngs Moduli (GPa) = 106.01763 106.39488 68.11505
#
# Poissons Ratio (x) = 0.15395 0.08228
# Poissons Ratio (y) = 0.15340 0.21556
# Poissons Ratio (z) = 0.12806 0.33670
#
# Static dielectric constant tensor:
#      x y z
#    x 1.870860 0.000000 0.001800 
#    y 0.000000 1.853020 0.000000 
#    z 0.001800 0.000000 1.813780 
# 
# From -- ./inp_files/46639.got.cif
#   From: 2010.05.17/outbox.cif.g08.bks.cpg/sg13_24_cif.got.tgz:46639.got - 2010.06.03 16:44:36.
