data_PCOD9238552
_publ_section_title
;
Structure prediction by ZEFSAII (Michael W. Deem and Ramdas Pophale) SiO2 
 PCOD9238552
Probable space group: P 2/C
;
_chemical_formula_sum "Si O2"
_cell_formula_units_Z 24
_cell_length_a 31.775099
_cell_length_b 4.919793
_cell_length_c 18.511962
_cell_angle_alpha 90.000000
_cell_angle_beta 157.769293
_cell_angle_gamma 90.000000
_cell_volume 1094.876015
_symmetry_space_group_name_H-M "P 2/C"
_symmetry_group_IT_number 13
_symmetry_cell_setting 'monoclinic'
loop_
_space_group_symop_operation_xyz
x,y,z
-x,y,1/2-z
-x,-y,-z
x,-y,1/2+z
loop_
_atom_site_type_symbol
_atom_site_label
_atom_site_fract_x
_atom_site_fract_y
_atom_site_fract_z
Si Si1 0.596703 0.282409 0.953763
Si Si2 0.047310 0.028637 0.744187
Si Si3 0.440056 0.644390 0.338556
Si Si4 0.712626 0.146559 0.426822
Si Si5 0.730425 0.199751 0.622967
Si Si6 0.036182 0.531825 0.974491
O O1 0.500000 0.158588 0.750000
O O2 0.536294 0.337985 0.932156
O O3 0.639897 0.560373 0.986948
O O4 0.692811 0.059412 0.109356
O O5 0.039081 0.742384 0.689763
O O6 0.000000 0.009331 0.750000
O O7 0.975313 0.246079 0.584227
O O8 0.175505 0.121915 0.941932
O O9 0.500000 0.500000 0.500000
O O10 0.339773 0.444788 0.157581
O O11 0.740567 0.098424 0.556139
O O12 0.619031 0.937126 0.249647
O O13 0.842398 0.336078 0.829430
O O14 0.000000 0.500000 0.000000
#
# Coordination Sequence:
#
# PCOD9238552 Si02
#       6
#     4   4   4   4   4   4
#     4  12  23  42  68 100 138 178 239 286 347 419
#     4  12  28  48  74 107 150 191 238 304 371 443
#     4  12  27  44  68 101 141 185 234 290 349 432
#     4  12  24  45  73  96 140 189 231 287 370 414
#     4  12  24  41  74 107 135 185 237 295 352 419
#     4  12  26  46  75 109 141 187 250 300 356 436
#
# _framework density 21.920290000000001
#
# number of rings (size 3 to 8) (size 9 to 14) (size 15 to 20)
#    0.000    0.000    5.000    5.000    2.333    4.000 
#    0.000    0.000    0.000    0.000    0.000    0.000 
#    0.000    0.000    0.000    0.000    0.000    0.000 
#
# Total GULP energy -134369.163542 kJ/mol
# GULP energy per Si atom -5598.715148 kJ/mol
# Density = 2.187040 g / cm^3
# Si number density = 21.920290 Si / 1000 Ang^3
#
#
#
# Elastic Constant Matrix: (Units=GPa)
#
#
# Indices 1 2 3 4 5 6 
#
# 1 179.0360 37.3375 38.5980 0.0000 4.0768 0.0000
# 2 37.3375 108.7204 1.5693 0.0000 5.1777 0.0000
# 3 38.5980 1.5693 52.2908 0.0000 -0.1161 0.0000
# 4 0.0000 0.0000 0.0000 47.9198 0.0000 17.3223
# 5 4.0768 5.1777 -0.1161 0.0000 32.5687 0.0000
# 6 0.0000 0.0000 0.0000 17.3223 0.0000 38.2354
#
#
#
# Elastic Compliance Matrix: (Units=1/GPa)
#
#
# Indices 1 2 3 4 5 6 
#
# 1 0.007230 -0.002381 -0.005266 0.000000 -0.000545 0.000000
# 2 -0.002381 0.010056 0.001453 0.000000 -0.001296 0.000000
# 3 -0.005266 0.001453 0.022969 0.000000 0.000510 0.000000
# 4 0.000000 0.000000 0.000000 0.024955 0.000000 -0.011306
# 5 -0.000545 -0.001296 0.000510 0.000000 0.030980 0.000000
# 6 0.000000 0.000000 0.000000 -0.011306 0.000000 0.031276
#
#
# Mechanical properties :
#
#
# Convention : Reuss Voigt Hill
#
# Bulk Modulus (GPa) = 35.88629 55.00630 45.44630
# Shear Modulus (GPa) = 33.52475 41.24761 37.38618
#
# Velocity S-wave (km/s) = 3.91499 4.34257 4.13431
# Velocity P-wave (km/s) = 6.06984 7.09170 6.60057
#
# Compressibility (1/GPa) = 0.02786579
#
# Stress axis : x y z
#
# Youngs Moduli (GPa) = 138.31675 99.44005 43.53752
#
# Poissons Ratio (x) = 0.23676 0.22928
# Poissons Ratio (y) = 0.32932 -0.06325
# Poissons Ratio (z) = 0.72843 -0.14447
#
# Static dielectric constant tensor:
#      x y z
#    x 1.751170 0.000000 -0.017750 
#    y 0.000000 1.590130 0.000000 
#    z -0.017750 0.000000 1.900190 
# 
# From -- ./inp_files/59706.got.cif
#   From: 2010.05.17/outbox.cif.g08.bks.cpg/sg13_30_cif.got.tgz:59706.got - 2010.06.03 16:44:36.
