data_PCOD9238349
_publ_section_title
;
Structure prediction by ZEFSAII (Michael W. Deem and Ramdas Pophale) SiO2 
 PCOD9238349
Probable space group: P 2/C
;
_chemical_formula_sum "Si O2"
_cell_formula_units_Z 20
_cell_length_a 5.105751
_cell_length_b 8.052959
_cell_length_c 22.305197
_cell_angle_alpha 90.000000
_cell_angle_beta 114.720441
_cell_angle_gamma 90.000000
_cell_volume 833.064686
_symmetry_space_group_name_H-M "P 2/C"
_symmetry_group_IT_number 13
_symmetry_cell_setting 'monoclinic'
loop_
_space_group_symop_operation_xyz
x,y,z
-x,y,1/2-z
-x,-y,-z
x,-y,1/2+z
loop_
_atom_site_type_symbol
_atom_site_label
_atom_site_fract_x
_atom_site_fract_y
_atom_site_fract_z
Si Si1 0.315733 0.340921 0.407573
Si Si2 0.237912 0.958888 0.822679
Si Si3 0.740243 0.371668 0.962979
Si Si4 0.186250 0.475173 0.207485
Si Si5 0.788639 0.169886 0.851937
O O1 0.394001 0.193124 0.370815
O O2 0.352951 0.303000 0.481171
O O3 0.483442 0.513396 0.412472
O O4 0.984157 0.376181 0.359670
O O5 0.000000 0.908992 0.750000
O O6 0.485072 0.074865 0.819232
O O7 0.051388 0.058768 0.854031
O O8 0.823088 0.232520 0.923555
O O9 0.000000 0.500000 0.000000
O O10 0.500000 0.403767 0.250000
O O11 0.215465 0.662993 0.187512
O O12 0.000000 0.474005 0.250000
#
# Coordination Sequence:
#
# PCOD9238349 Si02
#       5
#     4   4   4   4   4
#     4  11  27  46  73 108 144 188 246 306 357 424
#     4  12  28  47  70 110 152 186 232 299 371 435
#     4  11  25  49  76 103 142 193 255 299 346 430
#     4  12  24  43  75 106 139 194 249 297 358 430
#     4  12  26  46  72 103 146 190 238 295 362 432
#
# _framework density 24.007740999999999
#
# number of rings (size 3 to 8) (size 9 to 14) (size 15 to 20)
#    0.000    0.400    2.000    6.600    5.600    3.200 
#    0.000    0.000    0.000    0.000    0.000    0.000 
#    0.000    0.000    0.000    0.000    0.000    0.000 
#
# Total GULP energy -112196.344365 kJ/mol
# GULP energy per Si atom -5609.817218 kJ/mol
# Density = 2.395310 g / cm^3
# Si number density = 24.007741 Si / 1000 Ang^3
#
#
#
# Elastic Constant Matrix: (Units=GPa)
#
#
# Indices 1 2 3 4 5 6 
#
# 1 131.5469 26.8896 34.6089 0.0000 -8.3760 0.0000
# 2 26.8896 77.0528 43.2682 0.0000 -21.9587 0.0000
# 3 34.6089 43.2682 105.0839 0.0000 -17.0149 0.0000
# 4 0.0000 0.0000 0.0000 23.8642 0.0000 6.2435
# 5 -8.3760 -21.9587 -17.0149 0.0000 51.8042 0.0000
# 6 0.0000 0.0000 0.0000 6.2435 0.0000 24.0491
#
#
#
# Elastic Compliance Matrix: (Units=1/GPa)
#
#
# Indices 1 2 3 4 5 6 
#
# 1 0.008514 -0.001837 -0.002061 0.000000 -0.000079 0.000000
# 2 -0.001837 0.018685 -0.006183 0.000000 0.005592 0.000000
# 3 -0.002061 -0.006183 0.012951 0.000000 0.001300 0.000000
# 4 0.000000 0.000000 0.000000 0.044957 0.000000 -0.011672
# 5 -0.000079 0.005592 0.001300 0.000000 0.022088 0.000000
# 6 0.000000 0.000000 0.000000 -0.011672 0.000000 0.044612
#
#
# Mechanical properties :
#
#
# Convention : Reuss Voigt Hill
#
# Bulk Modulus (GPa) = 50.02580 58.13522 54.08051
# Shear Modulus (GPa) = 27.99059 33.87129 30.93094
#
# Velocity S-wave (km/s) = 3.41823 3.76020 3.59329
# Velocity P-wave (km/s) = 6.03835 6.56658 6.30799
#
# Compressibility (1/GPa) = 0.01998968
#
# Stress axis : x y z
#
# Youngs Moduli (GPa) = 117.44785 53.51946 77.21290
#
# Poissons Ratio (x) = 0.09829 0.15911
# Poissons Ratio (y) = 0.21570 0.47741
# Poissons Ratio (z) = 0.24203 0.33091
#
# Static dielectric constant tensor:
#      x y z
#    x 1.920380 0.000000 -0.005050 
#    y 0.000000 1.919810 0.000000 
#    z -0.005050 0.000000 1.920550 
# 
# From -- ./inp_files/83243.got.cif
#   From: 2010.05.17/outbox.cif.g08.bks.cpg/sg13_42_cif.got.tgz:83243.got - 2010.06.03 16:44:36.
