data_PCOD9238979
_publ_section_title
;
Structure prediction by ZEFSAII (Michael W. Deem and Ramdas Pophale) SiO2 
 PCOD9238979
Probable space group: P 2/C
;
_chemical_formula_sum "Si O2"
_cell_formula_units_Z 20
_cell_length_a 9.000000
_cell_length_b 12.000000
_cell_length_c 9.000000
_cell_angle_alpha 90.000000
_cell_angle_beta 100.000000
_cell_angle_gamma 90.000000
_cell_volume 957.233136
_symmetry_space_group_name_H-M "P 2/C"
_symmetry_group_IT_number 13
_symmetry_cell_setting 'monoclinic'
loop_
_space_group_symop_operation_xyz
x,y,z
-x,y,1/2-z
-x,-y,-z
x,-y,1/2+z
loop_
_atom_site_type_symbol
_atom_site_label
_atom_site_fract_x
_atom_site_fract_y
_atom_site_fract_z
Si Si1 0.136958 0.619624 0.063734
Si Si2 0.166125 0.773749 0.796083
Si Si3 0.212988 0.376592 0.025285
Si Si4 0.336163 0.769253 0.296613
Si Si5 0.619078 0.022198 0.145737
O O1 0.227945 0.502788 0.090312
O O2 0.210873 0.718175 0.168605
O O3 0.150054 0.667250 0.900183
O O4 0.958776 0.611349 0.068959
O O5 0.213047 0.717496 0.650856
O O6 0.000000 0.823837 0.750000
O O7 0.273316 0.873609 0.864490
O O8 0.327467 0.321675 0.928175
O O9 0.500000 0.767291 0.250000
O O10 0.303324 0.900722 0.318812
O O11 0.500000 0.056105 0.250000
O O12 0.500000 0.000000 0.000000
#
# Coordination Sequence:
#
# PCOD9238979 Si02
#       5
#     4   4   4   4   4
#     4  10  21  39  61  87 118 152 190 236 293 345
#     4  10  21  37  61  90 115 149 199 243 283 343
#     4  10  21  39  62  86 118 154 189 238 292 342
#     4  11  23  38  58  86 116 154 197 236 284 344
#     4  11  23  41  60  81 118 159 192 237 296 345
#
# _framework density 20.893552
#
# number of rings (size 3 to 8) (size 9 to 14) (size 15 to 20)
#    0.000    1.600    0.000    5.400    0.000    5.600 
#    0.000    9.000    0.000    0.000    0.000    0.000 
#    0.000    0.000    0.000    0.000    0.000    0.000 
#
# Total GULP energy -111364.399014 kJ/mol
# GULP energy per Si atom -5568.219951 kJ/mol
# Density = 2.084600 g / cm^3
# Si number density = 20.893552 Si / 1000 Ang^3
#
#
#
# Elastic Constant Matrix: (Units=GPa)
#
#
# Indices 1 2 3 4 5 6 
#
# 1 49.1559 47.6931 18.3837 0.0000 -7.7230 0.0000
# 2 47.6931 142.7763 -6.2867 0.0000 2.0726 0.0000
# 3 18.3837 -6.2867 45.1094 0.0000 -2.5389 0.0000
# 4 0.0000 0.0000 0.0000 -18.1844 0.0000 -3.8767
# 5 -7.7230 2.0726 -2.5389 0.0000 26.4134 0.0000
# 6 0.0000 0.0000 0.0000 -3.8767 0.0000 185.3615
#
#
#
# Elastic Compliance Matrix: (Units=1/GPa)
#
#
# Indices 1 2 3 4 5 6 
#
# 1 0.045793 -0.016372 -0.020228 0.000000 0.012730 0.000000
# 2 -0.016372 0.012906 0.008189 0.000000 -0.005013 0.000000
# 3 -0.020228 0.008189 0.031354 0.000000 -0.003543 0.000000
# 4 0.000000 0.000000 0.000000 -0.054748 0.000000 -0.001145
# 5 0.012730 -0.005013 -0.003543 0.000000 0.041634 0.000000
# 6 0.000000 0.000000 0.000000 -0.001145 0.000000 0.005371
#
#
# Mechanical properties :
#
#
# Convention : Reuss Voigt Hill
#
# Bulk Modulus (GPa) = 30.09228 39.62462 34.85845
# Shear Modulus (GPa) = 33.28675 50.53487 41.91081
#
# Velocity S-wave (km/s) = 3.99577 4.92335 4.48361
# Velocity P-wave (km/s) = 5.97680 7.16417 6.59725
#
# Compressibility (1/GPa) = 0.03323111
#
# Stress axis : x y z
#
# Youngs Moduli (GPa) = 21.83719 77.48138 31.89420
#
# Poissons Ratio (x) = 1.26855 0.64515
# Poissons Ratio (y) = 0.35753 -0.26118
# Poissons Ratio (z) = 0.44172 -0.63449
#
# Static dielectric constant tensor:
#      x y z
#    x 1.708580 0.000000 -0.159130 
#    y 0.000000 1.708020 0.000000 
#    z -0.159130 0.000000 0.336930 
# 
# From -- ./inp_files/11691.got.cif
#   From: 2010.05.17/outbox.ucp.g08.bks.cvg/sg13_6_cif.got.tgz:11691.got - 2010.06.11 12:23:55.
