data_PCOD9238996
_publ_section_title
;
Structure prediction by ZEFSAII (Michael W. Deem and Ramdas Pophale) SiO2 
 PCOD9238996
Probable space group: P 2/C
;
_chemical_formula_sum "Si O2"
_cell_formula_units_Z 32
_cell_length_a 18.000000
_cell_length_b 12.000000
_cell_length_c 15.000000
_cell_angle_alpha 90.000000
_cell_angle_beta 150.000000
_cell_angle_gamma 90.000000
_cell_volume 1620.000000
_symmetry_space_group_name_H-M "P 2/C"
_symmetry_group_IT_number 13
_symmetry_cell_setting 'monoclinic'
loop_
_space_group_symop_operation_xyz
x,y,z
-x,y,1/2-z
-x,-y,-z
x,-y,1/2+z
loop_
_atom_site_type_symbol
_atom_site_label
_atom_site_fract_x
_atom_site_fract_y
_atom_site_fract_z
Si Si1 0.707177 0.601321 0.661540
Si Si2 0.183907 0.156723 0.753837
Si Si3 0.328358 0.845293 0.598069
Si Si4 0.032414 0.521312 0.682706
Si Si5 0.636488 0.968702 0.207121
Si Si6 0.761968 0.377062 0.803819
Si Si7 0.550286 0.265600 0.701268
Si Si8 0.897319 0.280575 0.510710
O O1 0.805521 0.557697 0.680707
O O2 0.675086 0.485422 0.679076
O O3 0.572811 0.674980 0.487472
O O4 0.799259 0.678650 0.825384
O O5 0.230294 0.068189 0.723810
O O6 0.240101 0.275222 0.768855
O O7 0.011308 0.183185 0.598370
O O8 0.259017 0.126993 0.927722
O O9 0.500000 0.813744 0.750000
O O10 0.215745 0.755819 0.527446
O O11 0.334360 0.939477 0.684165
O O12 0.000000 0.556604 0.750000
O O13 0.925407 0.579905 0.498554
O O14 0.995365 0.389341 0.638696
O O15 0.583668 0.859056 0.204813
O O16 0.500000 0.000000 0.000000
O O17 0.696984 0.334146 0.829374
O O18 0.500000 0.269561 0.750000
#
# Coordination Sequence:
#
# PCOD9238996 Si02
#       8
#     4   4   4   4   4   4   4   4
#     4  11  21  40  66  94 137 180 211 261 339 401
#     4  11  22  43  72  94 134 168 220 281 335 397
#     4  12  25  43  69  99 125 177 232 278 339 391
#     4  11  20  38  66  94 139 179 213 263 332 398
#     4  11  24  45  69  92 128 174 220 288 343 386
#     4  10  21  40  61  98 136 175 212 266 327 396
#     4  11  24  40  63  95 130 170 225 272 324 404
#     4  11  23  42  65 104 132 176 222 274 328 402
#
# _framework density 19.753086
#
# number of rings (size 3 to 8) (size 9 to 14) (size 15 to 20)
#    0.000    1.000    3.750    4.125    1.750    0.500 
#    0.000    0.000    0.000    0.000    0.000    0.000 
#    0.000    0.000    0.000    0.000    0.000    0.000 
#
# Total GULP energy -178516.788785 kJ/mol
# GULP energy per Si atom -5578.649650 kJ/mol
# Density = 1.970813 g / cm^3
# Si number density = 19.753086 Si / 1000 Ang^3
#
#
#
# Elastic Constant Matrix: (Units=GPa)
#
#
# Indices 1 2 3 4 5 6 
#
# 1 154.1154 28.7106 17.0021 0.0000 -1.6922 0.0000
# 2 28.7106 56.9342 19.2714 0.0000 -0.5597 0.0000
# 3 17.0021 19.2714 55.2944 0.0000 -6.5234 0.0000
# 4 0.0000 0.0000 0.0000 22.1867 0.0000 -5.5460
# 5 -1.6922 -0.5597 -6.5234 0.0000 45.7784 0.0000
# 6 0.0000 0.0000 0.0000 -5.5460 0.0000 37.1850
#
#
#
# Elastic Compliance Matrix: (Units=1/GPa)
#
#
# Indices 1 2 3 4 5 6 
#
# 1 0.007218 -0.003277 -0.001068 0.000000 0.000075 0.000000
# 2 -0.003277 0.021427 -0.006554 0.000000 -0.000793 0.000000
# 3 -0.001068 -0.006554 0.021037 0.000000 0.002878 0.000000
# 4 0.000000 0.000000 0.000000 0.046817 0.000000 0.006983
# 5 0.000075 -0.000793 0.002878 0.000000 0.022248 0.000000
# 6 0.000000 0.000000 0.000000 0.006983 0.000000 0.027934
#
#
# Mechanical properties :
#
#
# Convention : Reuss Voigt Hill
#
# Bulk Modulus (GPa) = 35.86358 44.03468 39.94913
# Shear Modulus (GPa) = 28.12543 34.45403 31.28973
#
# Velocity S-wave (km/s) = 3.77749 4.18094 3.98432
# Velocity P-wave (km/s) = 6.10092 6.75632 6.43697
#
# Compressibility (1/GPa) = 0.02788344
#
# Stress axis : x y z
#
# Youngs Moduli (GPa) = 138.54470 46.66909 47.53487
#
# Poissons Ratio (x) = 0.15296 0.05078
# Poissons Ratio (y) = 0.45408 0.31153
# Poissons Ratio (z) = 0.14801 0.30586
#
# Static dielectric constant tensor:
#      x y z
#    x 1.713920 0.000000 0.026080 
#    y 0.000000 1.702040 0.000000 
#    z 0.026080 0.000000 1.698290 
# 
# From -- ./inp_files/55839.got.cif
#   From: 2010.05.17/outbox.ucp.g08.bks.cvg/sg13_28_cif.got.tgz:55839.got - 2010.06.11 12:23:55.
