data_PCOD9238134
_publ_section_title
;
Structure prediction by ZEFSAII (Michael W. Deem and Ramdas Pophale) SiO2 
 PCOD9238134
Probable space group: P 2/C
;
_chemical_formula_sum "Si O2"
_cell_formula_units_Z 22
_cell_length_a 14.822363
_cell_length_b 5.302924
_cell_length_c 11.486978
_cell_angle_alpha 90.000000
_cell_angle_beta 85.792352
_cell_angle_gamma 90.000000
_cell_volume 900.464301
_symmetry_space_group_name_H-M "P 2/C"
_symmetry_group_IT_number 13
_symmetry_cell_setting 'monoclinic'
loop_
_space_group_symop_operation_xyz
x,y,z
-x,y,1/2-z
-x,-y,-z
x,-y,1/2+z
loop_
_atom_site_type_symbol
_atom_site_label
_atom_site_fract_x
_atom_site_fract_y
_atom_site_fract_z
Si Si1 0.098176 0.064422 0.292214
Si Si2 0.649680 0.533014 0.734535
Si Si3 0.500000 0.767606 0.250000
Si Si4 0.829997 0.582281 0.105449
Si Si5 0.248119 0.861420 0.596563
Si Si6 0.409614 0.903221 0.941280
O O1 0.132411 0.305623 0.365110
O O2 0.165018 0.023902 0.175859
O O3 0.000000 0.116909 0.250000
O O4 0.102591 0.808206 0.366660
O O5 0.570281 0.401920 0.814932
O O6 0.739346 0.384303 0.691499
O O7 0.686406 0.751994 0.811714
O O8 0.604737 0.630974 0.617801
O O9 0.571658 0.928085 0.173898
O O10 0.795451 0.639592 0.978660
O O11 0.314781 0.030114 0.511641
O O12 0.500000 0.000000 0.000000
#
# Coordination Sequence:
#
# PCOD9238134 Si02
#       6
#     4   4   2   4   4   4
#     4  11  27  49  75 111 146 181 240 304 361 439
#     4  11  26  43  65 105 141 186 244 298 350 426
#     4  12  24  42  64  98 142 182 244 302 338 424
#     4  11  25  46  75 106 144 191 236 294 371 429
#     4  11  24  45  73 101 145 191 238 297 358 436
#     4  12  26  42  68  99 142 199 244 295 358 424
#
# _framework density 24.431837999999999
#
# number of rings (size 3 to 8) (size 9 to 14) (size 15 to 20)
#    0.000    0.727    1.818    5.455    5.091    7.273 
#    0.000    0.000    0.000    0.000    0.000    0.000 
#    0.000    0.000    0.000    0.000    0.000    0.000 
#
# Total GULP energy -122866.011939 kJ/mol
# GULP energy per Si atom -5584.818724 kJ/mol
# Density = 2.437623 g / cm^3
# Si number density = 24.431838 Si / 1000 Ang^3
#
#
#
# Elastic Constant Matrix: (Units=GPa)
#
#
# Indices 1 2 3 4 5 6 
#
# 1 117.9214 33.0042 25.0467 0.0000 19.6888 0.0000
# 2 33.0042 69.8075 13.7160 0.0000 13.1886 0.0000
# 3 25.0467 13.7160 77.2527 0.0000 12.5912 0.0000
# 4 0.0000 0.0000 0.0000 10.6116 0.0000 2.0878
# 5 19.6888 13.1886 12.5912 0.0000 35.4881 0.0000
# 6 0.0000 0.0000 0.0000 2.0878 0.0000 46.5134
#
#
#
# Elastic Compliance Matrix: (Units=1/GPa)
#
#
# Indices 1 2 3 4 5 6 
#
# 1 0.010650 -0.003914 -0.002157 0.000000 -0.003689 0.000000
# 2 -0.003914 0.017117 -0.001154 0.000000 -0.003780 0.000000
# 3 -0.002157 -0.001154 0.014417 0.000000 -0.003490 0.000000
# 4 0.000000 0.000000 0.000000 0.095076 0.000000 -0.004268
# 5 -0.003689 -0.003780 -0.003490 0.000000 0.032868 0.000000
# 6 0.000000 0.000000 0.000000 -0.004268 0.000000 0.021691
#
#
# Mechanical properties :
#
#
# Convention : Reuss Voigt Hill
#
# Bulk Modulus (GPa) = 36.05671 45.39059 40.72365
# Shear Modulus (GPa) = 23.20045 31.40361 27.30203
#
# Velocity S-wave (km/s) = 3.08490 3.58908 3.34650
# Velocity P-wave (km/s) = 5.24203 5.98282 5.62463
#
# Compressibility (1/GPa) = 0.02773409
#
# Stress axis : x y z
#
# Youngs Moduli (GPa) = 93.89900 58.42257 69.36046
#
# Poissons Ratio (x) = 0.22869 0.14959
# Poissons Ratio (y) = 0.36756 0.08003
# Poissons Ratio (z) = 0.20251 0.06741
#
# Static dielectric constant tensor:
#      x y z
#    x 1.872610 0.000000 0.031560 
#    y 0.000000 2.059120 0.000000 
#    z 0.031560 0.000000 1.761670 
# 
# From -- ./inp_files/35338.got.cif
#   From: 2010.05.17/outbox.cif.g08.bks.cpg/sg13_18_cif.got.tgz:35338.got - 2010.06.03 16:44:36.
