data_PCOD9238543
_publ_section_title
;
Structure prediction by ZEFSAII (Michael W. Deem and Ramdas Pophale) SiO2 
 PCOD9238543
Probable space group: P 2/C
;
_chemical_formula_sum "Si O2"
_cell_formula_units_Z 22
_cell_length_a 14.138689
_cell_length_b 6.791541
_cell_length_c 10.369959
_cell_angle_alpha 90.000000
_cell_angle_beta 82.023893
_cell_angle_gamma 90.000000
_cell_volume 986.126654
_symmetry_space_group_name_H-M "P 2/C"
_symmetry_group_IT_number 13
_symmetry_cell_setting 'monoclinic'
loop_
_space_group_symop_operation_xyz
x,y,z
-x,y,1/2-z
-x,-y,-z
x,-y,1/2+z
loop_
_atom_site_type_symbol
_atom_site_label
_atom_site_fract_x
_atom_site_fract_y
_atom_site_fract_z
Si Si1 0.898106 0.695650 0.223996
Si Si2 0.416355 0.884434 0.084649
Si Si3 0.500000 0.552502 0.250000
Si Si4 0.235450 0.931473 0.714768
Si Si5 0.312831 0.350361 0.394702
Si Si6 0.163023 0.380845 0.044472
O O1 0.874048 0.525856 0.334653
O O2 0.899767 0.626800 0.074128
O O3 0.000000 0.777343 0.250000
O O4 0.819043 0.867933 0.243050
O O5 0.462482 0.698321 0.146370
O O6 0.348607 0.018453 0.185362
O O7 0.342738 0.807534 0.993650
O O8 0.500000 0.000000 0.000000
O O9 0.409072 0.424845 0.308570
O O10 0.235976 0.755562 0.818524
O O11 0.186487 0.832468 0.599476
O O12 0.263559 0.531704 0.475788
#
# Coordination Sequence:
#
# PCOD9238543 Si02
#       6
#     4   4   2   4   4   4
#     4  12  28  49  77 110 144 191 243 307 373 440
#     4  12  23  40  64 101 141 186 241 293 353 424
#     4  12  24  40  66 102 144 190 248 292 352 432
#     4  12  25  46  73 106 147 190 245 301 365 433
#     4  12  23  44  67 102 143 192 236 296 361 423
#     4  12  25  50  75 107 148 190 243 301 369 442
#
# _framework density 22.309505999999999
#
# number of rings (size 3 to 8) (size 9 to 14) (size 15 to 20)
#    0.000    0.000    3.636    7.636    0.000    1.455 
#    0.000    0.000    0.000    0.000    0.000    0.000 
#    0.000    0.000    0.000    0.000    0.000    0.000 
#
# Total GULP energy -123059.560048 kJ/mol
# GULP energy per Si atom -5593.616366 kJ/mol
# Density = 2.225873 g / cm^3
# Si number density = 22.309506 Si / 1000 Ang^3
#
#
#
# Elastic Constant Matrix: (Units=GPa)
#
#
# Indices 1 2 3 4 5 6 
#
# 1 63.8888 -1.6157 14.4760 0.0000 8.0527 0.0000
# 2 -1.6157 71.6778 35.9564 0.0000 -5.1225 0.0000
# 3 14.4760 35.9564 109.2909 0.0000 30.5903 0.0000
# 4 0.0000 0.0000 0.0000 45.5289 0.0000 7.0818
# 5 8.0527 -5.1225 30.5903 0.0000 29.6135 0.0000
# 6 0.0000 0.0000 0.0000 7.0818 0.0000 31.6013
#
#
#
# Elastic Compliance Matrix: (Units=1/GPa)
#
#
# Indices 1 2 3 4 5 6 
#
# 1 0.016404 0.001172 -0.001922 0.000000 -0.002272 0.000000
# 2 0.001172 0.020537 -0.010996 0.000000 0.014593 0.000000
# 3 -0.001922 -0.010996 0.018862 0.000000 -0.020863 0.000000
# 4 0.000000 0.000000 0.000000 0.022757 0.000000 -0.005100
# 5 -0.002272 0.014593 -0.020863 0.000000 0.058462 0.000000
# 6 0.000000 0.000000 0.000000 -0.005100 0.000000 0.032787
#
#
# Mechanical properties :
#
#
# Convention : Reuss Voigt Hill
#
# Bulk Modulus (GPa) = 30.95128 38.05454 34.50291
# Shear Modulus (GPa) = 24.50114 34.41812 29.45963
#
# Velocity S-wave (km/s) = 3.31756 3.93205 3.63781
# Velocity P-wave (km/s) = 5.34590 6.14079 5.75708
#
# Compressibility (1/GPa) = 0.03230884
#
# Stress axis : x y z
#
# Youngs Moduli (GPa) = 60.96157 48.69320 53.01708
#
# Poissons Ratio (x) = -0.05705 0.10191
# Poissons Ratio (y) = -0.07142 0.58299
# Poissons Ratio (z) = 0.11718 0.53544
#
# Static dielectric constant tensor:
#      x y z
#    x 2.127620 0.000000 -0.400330 
#    y 0.000000 1.843480 0.000000 
#    z -0.400330 0.000000 2.223570 
# 
# From -- ./inp_files/35320.got.cif
#   From: 2010.05.17/outbox.cif.g08.bks.cpg/sg13_18_cif.got.tgz:35320.got - 2010.06.03 16:44:36.
