data_PCOD9238408
_publ_section_title
;
Structure prediction by ZEFSAII (Michael W. Deem and Ramdas Pophale) SiO2 
 PCOD9238408
Probable space group: P 2/C
;
_chemical_formula_sum "Si O2"
_cell_formula_units_Z 20
_cell_length_a 17.007776
_cell_length_b 5.114483
_cell_length_c 10.158304
_cell_angle_alpha 90.000000
_cell_angle_beta 113.208221
_cell_angle_gamma 90.000000
_cell_volume 812.125643
_symmetry_space_group_name_H-M "P 2/C"
_symmetry_group_IT_number 13
_symmetry_cell_setting 'monoclinic'
loop_
_space_group_symop_operation_xyz
x,y,z
-x,y,1/2-z
-x,-y,-z
x,-y,1/2+z
loop_
_atom_site_type_symbol
_atom_site_label
_atom_site_fract_x
_atom_site_fract_y
_atom_site_fract_z
Si Si1 0.864333 0.143594 0.986341
Si Si2 0.985917 0.275752 0.880090
Si Si3 0.351678 0.511763 0.865595
Si Si4 0.245540 0.352640 0.032525
Si Si5 0.482069 0.201085 0.599037
O O1 0.889310 0.190375 0.849563
O O2 0.826634 0.414747 0.019222
O O3 0.794609 0.926955 0.965399
O O4 0.951587 0.980021 0.083222
O O5 0.000000 0.406709 0.750000
O O6 0.000000 0.500000 0.000000
O O7 0.300072 0.591764 0.701939
O O8 0.441916 0.411977 0.865068
O O9 0.295282 0.334792 0.926115
O O10 0.386980 0.706800 0.003096
O O11 0.500000 0.073120 0.750000
O O12 0.500000 0.000000 0.500000
#
# Coordination Sequence:
#
# PCOD9238408 Si02
#       5
#     4   4   4   4   4
#     4  11  28  48  74 111 149 197 248 308 376 440
#     4  11  26  51  78 110 151 206 252 307 369 464
#     4  11  28  46  72 107 151 195 250 306 379 440
#     4  12  28  46  76 112 152 192 250 317 375 437
#     4  11  26  48  73 105 147 204 250 303 367 461
#
# _framework density 24.626732000000001
#
# number of rings (size 3 to 8) (size 9 to 14) (size 15 to 20)
#    0.000    0.800    4.000    0.000   14.000    3.200 
#    0.000    0.000    0.000    0.000    0.000    0.000 
#    0.000    0.000    0.000    0.000    0.000    0.000 
#
# Total GULP energy -111502.996329 kJ/mol
# GULP energy per Si atom -5575.149816 kJ/mol
# Density = 2.457068 g / cm^3
# Si number density = 24.626732 Si / 1000 Ang^3
#
#
#
# Elastic Constant Matrix: (Units=GPa)
#
#
# Indices 1 2 3 4 5 6 
#
# 1 79.7541 5.3491 16.7700 0.0000 -5.2832 0.0000
# 2 5.3491 89.7769 9.8718 0.0000 0.5629 0.0000
# 3 16.7700 9.8718 133.3286 0.0000 -14.6288 0.0000
# 4 0.0000 0.0000 0.0000 20.3025 0.0000 -10.2880
# 5 -5.2832 0.5629 -14.6288 0.0000 45.0491 0.0000
# 6 0.0000 0.0000 0.0000 -10.2880 0.0000 27.4167
#
#
#
# Elastic Compliance Matrix: (Units=1/GPa)
#
#
# Indices 1 2 3 4 5 6 
#
# 1 0.012958 -0.000617 -0.001469 0.000000 0.001050 0.000000
# 2 -0.000617 0.011267 -0.000809 0.000000 -0.000476 0.000000
# 3 -0.001469 -0.000809 0.008013 0.000000 0.002440 0.000000
# 4 0.000000 0.000000 0.000000 0.060820 0.000000 0.022823
# 5 0.001050 -0.000476 0.002440 0.000000 0.023119 0.000000
# 6 0.000000 0.000000 0.000000 0.022823 0.000000 0.045038
#
#
# Mechanical properties :
#
#
# Convention : Reuss Voigt Hill
#
# Bulk Modulus (GPa) = 37.80926 40.76015 39.28471
# Shear Modulus (GPa) = 28.43780 36.61157 32.52469
#
# Velocity S-wave (km/s) = 3.40185 3.85991 3.63810
# Velocity P-wave (km/s) = 5.55125 6.03757 5.79951
#
# Compressibility (1/GPa) = 0.02644855
#
# Stress axis : x y z
#
# Youngs Moduli (GPa) = 77.17009 88.75146 124.80323
#
# Poissons Ratio (x) = 0.05477 0.18333
# Poissons Ratio (y) = 0.04762 0.10095
# Poissons Ratio (z) = 0.11336 0.07179
#
# Static dielectric constant tensor:
#      x y z
#    x 2.933260 0.000000 0.145490 
#    y 0.000000 2.717440 0.000000 
#    z 0.145490 0.000000 2.055350 
# 
# From -- ./inp_files/20482.got.cif
#   From: 2010.05.17/outbox.cif.g08.bks.cpg/sg13_11_cif.got.tgz:20482.got - 2010.06.03 16:44:36.
