data_PCOD9238903
_publ_section_title
;
Structure prediction by ZEFSAII (Michael W. Deem and Ramdas Pophale) SiO2 
 PCOD9238903
Probable space group: P 2/C
;
_chemical_formula_sum "Si O2"
_cell_formula_units_Z 28
_cell_length_a 12.000000
_cell_length_b 15.000000
_cell_length_c 9.000000
_cell_angle_alpha 90.000000
_cell_angle_beta 60.000000
_cell_angle_gamma 90.000000
_cell_volume 1402.961154
_symmetry_space_group_name_H-M "P 2/C"
_symmetry_group_IT_number 13
_symmetry_cell_setting 'monoclinic'
loop_
_space_group_symop_operation_xyz
x,y,z
-x,y,1/2-z
-x,-y,-z
x,-y,1/2+z
loop_
_atom_site_type_symbol
_atom_site_label
_atom_site_fract_x
_atom_site_fract_y
_atom_site_fract_z
Si Si1 0.188614 0.753672 0.399760
Si Si2 0.851271 0.582186 0.868148
Si Si3 0.654613 0.926408 0.633454
Si Si4 0.500000 0.322698 0.250000
Si Si5 0.306153 0.890210 0.550080
Si Si6 0.000000 0.284262 0.750000
Si Si7 0.568282 0.798234 0.446675
Si Si8 0.219272 0.401071 0.431419
O O1 0.159339 0.664919 0.512275
O O2 0.211531 0.826552 0.517479
O O3 0.082119 0.762359 0.334629
O O4 0.330903 0.751757 0.229499
O O5 0.802231 0.599552 0.732841
O O6 0.000000 0.558987 0.750000
O O7 0.788880 0.498723 0.992153
O O8 0.500000 0.938376 0.750000
O O9 0.711972 0.902590 0.757956
O O10 0.659645 0.851622 0.502275
O O11 0.706366 0.016076 0.525998
O O12 0.513105 0.265010 0.390965
O O13 0.364991 0.370587 0.361238
O O14 0.456895 0.857673 0.444122
O O15 0.110646 0.341574 0.589162
#
# Coordination Sequence:
#
# PCOD9238903 Si02
#       8
#     4   4   4   2   4   2   4   4
#     4  12  25  40  68  98 130 177 233 283 333 401
#     4  12  25  46  73  97 130 183 231 279 327 422
#     4  10  19  35  65  95 142 182 218 271 341 412
#     4  12  24  42  68 102 142 174 216 294 346 388
#     4  11  21  38  62 105 135 177 226 279 339 404
#     4  12  24  46  70  92 130 188 232 280 334 416
#     4  11  21  40  65 101 141 175 223 282 342 403
#     4  12  26  46  70  98 137 176 233 278 346 403
#
# _framework density 19.957787
#
# number of rings (size 3 to 8) (size 9 to 14) (size 15 to 20)
#    0.000    0.571    5.714    6.000    0.000    0.571 
#    2.571    0.000    0.000    3.429    1.857    0.000 
#    0.000    0.000    0.000    0.000    0.000    0.000 
#
# Total GULP energy -156155.775113 kJ/mol
# GULP energy per Si atom -5576.991968 kJ/mol
# Density = 1.991236 g / cm^3
# Si number density = 19.957787 Si / 1000 Ang^3
#
#
#
# Elastic Constant Matrix: (Units=GPa)
#
#
# Indices 1 2 3 4 5 6 
#
# 1 121.7312 43.0447 42.9687 0.0000 29.1778 0.0000
# 2 43.0447 91.2535 47.3153 0.0000 4.9567 0.0000
# 3 42.9687 47.3153 100.0508 0.0000 19.6259 0.0000
# 4 0.0000 0.0000 0.0000 -21.4892 0.0000 -48.6475
# 5 29.1778 4.9567 19.6259 0.0000 53.3571 0.0000
# 6 0.0000 0.0000 0.0000 -48.6475 0.0000 -36.9153
#
#
#
# Elastic Compliance Matrix: (Units=1/GPa)
#
#
# Indices 1 2 3 4 5 6 
#
# 1 0.011656 -0.004175 -0.002002 0.000000 -0.005250 0.000000
# 2 -0.004175 0.016094 -0.006437 0.000000 0.003156 0.000000
# 3 -0.002002 -0.006437 0.014622 0.000000 -0.003686 0.000000
# 4 0.000000 0.000000 0.000000 0.023464 0.000000 -0.030921
# 5 -0.005250 0.003156 -0.003686 0.000000 0.022675 0.000000
# 6 0.000000 0.000000 0.000000 -0.030921 0.000000 0.013659
#
#
# Mechanical properties :
#
#
# Convention : Reuss Voigt Hill
#
# Bulk Modulus (GPa) = 58.32871 64.41032 61.36951
# Shear Modulus (GPa) = 37.56250 10.97099 24.26675
#
# Velocity S-wave (km/s) = 4.34302 2.34713 3.49076
# Velocity P-wave (km/s) = 7.37825 6.29990 6.86030
#
# Compressibility (1/GPa) = 0.01714422
#
# Stress axis : x y z
#
# Youngs Moduli (GPa) = 85.79226 62.13434 68.39168
#
# Poissons Ratio (x) = 0.25942 0.13689
# Poissons Ratio (y) = 0.35820 0.44024
# Poissons Ratio (z) = 0.17172 0.39996
#
# Static dielectric constant tensor:
#      x y z
#    x 1.707720 0.000000 0.031700 
#    y 0.000000 1.788150 0.000000 
#    z 0.031700 0.000000 1.735610 
# 
# From -- ./inp_files/16689.got.cif
#   From: 2010.05.17/outbox.ucp.g08.bks.cvg/sg13_9_cif.got.tgz:16689.got - 2010.06.11 12:23:55.
