data_PCOD9238406
_publ_section_title
;
Structure prediction by ZEFSAII (Michael W. Deem and Ramdas Pophale) SiO2 
 PCOD9238406
Probable space group: P 2/C
;
_chemical_formula_sum "Si O2"
_cell_formula_units_Z 12
_cell_length_a 9.590506
_cell_length_b 4.936321
_cell_length_c 22.011617
_cell_angle_alpha 90.000000
_cell_angle_beta 28.283463
_cell_angle_gamma 90.000000
_cell_volume 493.768225
_symmetry_space_group_name_H-M "P 2/C"
_symmetry_group_IT_number 13
_symmetry_cell_setting 'monoclinic'
loop_
_space_group_symop_operation_xyz
x,y,z
-x,y,1/2-z
-x,-y,-z
x,-y,1/2+z
loop_
_atom_site_type_symbol
_atom_site_label
_atom_site_fract_x
_atom_site_fract_y
_atom_site_fract_z
Si Si1 0.640989 0.104284 0.566302
Si Si2 0.350262 0.593172 0.620013
Si Si3 0.203129 0.288562 0.385868
O O1 0.452349 0.375186 0.631540
O O2 0.981005 0.177229 0.419634
O O3 0.488908 0.881110 0.583318
O O4 0.685113 0.957671 0.614393
O O5 0.500000 0.500000 0.500000
O O6 0.000000 0.603423 0.750000
O O7 0.500000 0.425180 0.250000
O O8 0.000000 0.500000 0.500000
#
# Coordination Sequence:
#
# PCOD9238406 Si02
#       3
#     4   4   4
#     4  11  26  48  72 110 144 188 247 297 368 432
#     4  12  28  47  74 105 148 195 242 297 361 440
#     4  11  26  47  80 110 147 193 243 320 368 432
#
# _framework density 24.302899
#
# number of rings (size 3 to 8) (size 9 to 14) (size 15 to 20)
#    0.000    0.667    3.333    2.000    9.333    5.333 
#    0.000    0.000    0.000    0.000    0.000    0.000 
#    0.000    0.000    0.000    0.000    0.000    0.000 
#
# Total GULP energy -67184.451705 kJ/mol
# GULP energy per Si atom -5598.704309 kJ/mol
# Density = 2.424758 g / cm^3
# Si number density = 24.302899 Si / 1000 Ang^3
#
#
#
# Elastic Constant Matrix: (Units=GPa)
#
#
# Indices 1 2 3 4 5 6 
#
# 1 125.6116 40.0044 82.9467 0.0000 -47.8603 0.0000
# 2 40.0044 135.5523 60.4873 0.0000 -24.5421 0.0000
# 3 82.9467 60.4873 210.8660 0.0000 -59.6462 0.0000
# 4 0.0000 0.0000 0.0000 26.5455 0.0000 -11.1179
# 5 -47.8603 -24.5421 -59.6462 0.0000 52.8812 0.0000
# 6 0.0000 0.0000 0.0000 -11.1179 0.0000 63.9425
#
#
#
# Elastic Compliance Matrix: (Units=1/GPa)
#
#
# Indices 1 2 3 4 5 6 
#
# 1 0.013266 -0.001271 -0.002386 0.000000 0.008726 0.000000
# 2 -0.001271 0.008693 -0.001730 0.000000 0.000933 0.000000
# 3 -0.002386 -0.001730 0.007841 0.000000 0.005882 0.000000
# 4 0.000000 0.000000 0.000000 0.040630 0.000000 0.007064
# 5 0.008726 0.000933 0.005882 0.000000 0.033875 0.000000
# 6 0.000000 0.000000 0.000000 0.007064 0.000000 0.016867
#
#
# Mechanical properties :
#
#
# Convention : Reuss Voigt Hill
#
# Bulk Modulus (GPa) = 52.55561 93.21186 72.88373
# Shear Modulus (GPa) = 36.15688 47.91327 42.03508
#
# Velocity S-wave (km/s) = 3.86133 4.44498 4.16340
# Velocity P-wave (km/s) = 6.44609 8.04868 7.29155
#
# Compressibility (1/GPa) = 0.01902747
#
# Stress axis : x y z
#
# Youngs Moduli (GPa) = 75.38269 115.03379 127.53969
#
# Poissons Ratio (x) = 0.14617 0.30425
# Poissons Ratio (y) = 0.09579 0.22062
# Poissons Ratio (z) = 0.17983 0.19898
#
# Static dielectric constant tensor:
#      x y z
#    x 1.979410 0.000000 0.048020 
#    y 0.000000 1.938530 0.000000 
#    z 0.048020 0.000000 1.988750 
# 
# From -- ./inp_files/14074.got.cif
#   From: 2010.05.17/outbox.cif.g08.bks.cpg/sg13_8_cif.got.tgz:14074.got - 2010.06.03 16:44:36.
