data_PCOD9238421
_publ_section_title
;
Structure prediction by ZEFSAII (Michael W. Deem and Ramdas Pophale) SiO2 
 PCOD9238421
Probable space group: P 2/C
;
_chemical_formula_sum "Si O2"
_cell_formula_units_Z 18
_cell_length_a 14.759078
_cell_length_b 5.754893
_cell_length_c 14.544983
_cell_angle_alpha 90.000000
_cell_angle_beta 35.866253
_cell_angle_gamma 90.000000
_cell_volume 723.818364
_symmetry_space_group_name_H-M "P 2/C"
_symmetry_group_IT_number 13
_symmetry_cell_setting 'monoclinic'
loop_
_space_group_symop_operation_xyz
x,y,z
-x,y,1/2-z
-x,-y,-z
x,-y,1/2+z
loop_
_atom_site_type_symbol
_atom_site_label
_atom_site_fract_x
_atom_site_fract_y
_atom_site_fract_z
Si Si1 0.079610 0.151712 0.830014
Si Si2 0.542340 0.532153 0.312938
Si Si3 0.000000 0.487346 0.750000
Si Si4 0.162573 0.205462 0.963603
Si Si5 0.363839 0.192342 0.105405
O O1 0.107473 0.325506 0.724686
O O2 0.202516 0.941183 0.726844
O O3 0.097206 0.262969 0.915683
O O4 0.907068 0.049156 0.961595
O O5 0.500000 0.423118 0.250000
O O6 0.626170 0.351142 0.311921
O O7 0.404928 0.643097 0.485684
O O8 0.657359 0.744781 0.193287
O O9 0.094924 0.638009 0.599700
O O10 0.500000 0.000000 0.000000
#
# Coordination Sequence:
#
# PCOD9238421 Si02
#       5
#     4   4   2   4   4
#     4  11  27  49  75 107 147 194 245 299 364 433
#     4  11  28  46  77 107 145 194 242 298 365 434
#     4  12  28  42  78 108 146 192 246 302 354 438
#     4  11  27  48  72 108 149 192 241 303 362 427
#     4  11  26  50  73 108 151 188 237 308 363 428
#
# _framework density 24.868116000000001
#
# number of rings (size 3 to 8) (size 9 to 14) (size 15 to 20)
#    0.000    0.889    2.222    1.333   18.667    0.889 
#    0.000    0.000    0.000    0.000    0.000    0.000 
#    0.000    0.000    0.000    0.000    0.000    0.000 
#
# Total GULP energy -100883.505938 kJ/mol
# GULP energy per Si atom -5604.639219 kJ/mol
# Density = 2.481152 g / cm^3
# Si number density = 24.868116 Si / 1000 Ang^3
#
#
#
# Elastic Constant Matrix: (Units=GPa)
#
#
# Indices 1 2 3 4 5 6 
#
# 1 109.3780 43.0151 78.0209 0.0000 51.5413 0.0000
# 2 43.0151 59.3680 52.7588 0.0000 17.5237 0.0000
# 3 78.0209 52.7588 147.7824 0.0000 24.9960 0.0000
# 4 0.0000 0.0000 0.0000 34.4990 0.0000 13.3174
# 5 51.5413 17.5237 24.9960 0.0000 58.3785 0.0000
# 6 0.0000 0.0000 0.0000 13.3174 0.0000 39.6382
#
#
#
# Elastic Compliance Matrix: (Units=1/GPa)
#
#
# Indices 1 2 3 4 5 6 
#
# 1 0.025685 -0.005949 -0.008520 0.000000 -0.017243 0.000000
# 2 -0.005949 0.026909 -0.006456 0.000000 -0.000061 0.000000
# 3 -0.008520 -0.006456 0.012904 0.000000 0.003935 0.000000
# 4 0.000000 0.000000 0.000000 0.033306 0.000000 -0.011190
# 5 -0.017243 -0.000061 0.003935 0.000000 0.030687 0.000000
# 6 0.000000 0.000000 0.000000 -0.011190 0.000000 0.028988
#
#
# Mechanical properties :
#
#
# Convention : Reuss Voigt Hill
#
# Bulk Modulus (GPa) = 42.28487 73.79088 58.03787
# Shear Modulus (GPa) = 24.01420 36.01870 30.01645
#
# Velocity S-wave (km/s) = 3.11088 3.80990 3.47800
# Velocity P-wave (km/s) = 5.47211 7.00650 6.28630
#
# Compressibility (1/GPa) = 0.02364912
#
# Stress axis : x y z
#
# Youngs Moduli (GPa) = 38.93380 37.16165 77.49597
#
# Poissons Ratio (x) = 0.22107 0.66025
# Poissons Ratio (y) = 0.23161 0.50029
# Poissons Ratio (z) = 0.33171 0.23991
#
# Static dielectric constant tensor:
#      x y z
#    x 1.955440 0.000000 -0.017100 
#    y 0.000000 1.958030 0.000000 
#    z -0.017100 0.000000 1.933330 
# 
# From -- ./inp_files/52015.got.cif
#   From: 2010.05.17/outbox.cif.g08.bks.cpg/sg13_27_cif.got.tgz:52015.got - 2010.06.03 16:44:36.
