data_PCOD9238283
_publ_section_title
;
Structure prediction by ZEFSAII (Michael W. Deem and Ramdas Pophale) SiO2 
 PCOD9238283
Probable space group: P 2/C
;
_chemical_formula_sum "Si O2"
_cell_formula_units_Z 18
_cell_length_a 20.557602
_cell_length_b 5.178855
_cell_length_c 9.499767
_cell_angle_alpha 90.000000
_cell_angle_beta 141.048887
_cell_angle_gamma 90.000000
_cell_volume 635.818212
_symmetry_space_group_name_H-M "P 2/C"
_symmetry_group_IT_number 13
_symmetry_cell_setting 'monoclinic'
loop_
_space_group_symop_operation_xyz
x,y,z
-x,y,1/2-z
-x,-y,-z
x,-y,1/2+z
loop_
_atom_site_type_symbol
_atom_site_label
_atom_site_fract_x
_atom_site_fract_y
_atom_site_fract_z
Si Si1 0.613563 0.082918 0.740787
Si Si2 0.000000 0.782457 0.750000
Si Si3 0.384167 0.595434 0.603351
Si Si4 0.825190 0.153167 0.493715
Si Si5 0.842427 0.511627 0.788363
O O1 0.617573 0.904357 0.885946
O O2 0.712609 0.967788 0.828059
O O3 0.500000 0.000000 0.500000
O O4 0.622288 0.388250 0.778159
O O5 0.936445 0.622424 0.527661
O O6 0.914737 0.954862 0.684266
O O7 0.500000 0.530239 0.750000
O O8 0.273734 0.547166 0.346092
O O9 0.837677 0.397914 0.622181
O O10 0.847026 0.203855 0.364590
#
# Coordination Sequence:
#
# PCOD9238283 Si02
#       5
#     4   2   4   4   4
#     4  11  25  45  79 116 163 207 266 328 405 481
#     4  12  28  46  82 110 162 212 282 326 402 476
#     4  11  25  45  78 118 162 207 261 331 407 483
#     4  11  28  49  81 113 162 209 272 335 407 476
#     4  11  28  50  77 116 159 208 270 332 405 477
#
# _framework density 28.309981000000001
#
# number of rings (size 3 to 8) (size 9 to 14) (size 15 to 20)
#    0.000    0.889    0.000    4.000   15.556    3.556 
#    0.000    0.000    0.000    0.000    0.000    0.000 
#    0.000    0.000    0.000    0.000    0.000    0.000 
#
# Total GULP energy -100541.234677 kJ/mol
# GULP energy per Si atom -5585.624149 kJ/mol
# Density = 2.824555 g / cm^3
# Si number density = 28.309981 Si / 1000 Ang^3
#
#
#
# Elastic Constant Matrix: (Units=GPa)
#
#
# Indices 1 2 3 4 5 6 
#
# 1 147.9616 48.6737 54.5197 0.0000 9.9514 0.0000
# 2 48.6737 54.4889 25.1101 0.0000 13.3705 0.0000
# 3 54.5197 25.1101 222.4562 0.0000 34.8948 0.0000
# 4 0.0000 0.0000 0.0000 43.5856 0.0000 9.4786
# 5 9.9514 13.3705 34.8948 0.0000 55.4086 0.0000
# 6 0.0000 0.0000 0.0000 9.4786 0.0000 49.0510
#
#
#
# Elastic Compliance Matrix: (Units=1/GPa)
#
#
# Indices 1 2 3 4 5 6 
#
# 1 0.010126 -0.008579 -0.001723 0.000000 0.001337 0.000000
# 2 -0.008579 0.027319 -0.000209 0.000000 -0.004920 0.000000
# 3 -0.001723 -0.000209 0.005420 0.000000 -0.003053 0.000000
# 4 0.000000 0.000000 0.000000 0.023950 0.000000 -0.004628
# 5 0.001337 -0.004920 -0.003053 0.000000 0.020918 0.000000
# 6 0.000000 0.000000 0.000000 -0.004628 0.000000 0.021281
#
#
# Mechanical properties :
#
#
# Convention : Reuss Voigt Hill
#
# Bulk Modulus (GPa) = 45.78232 75.72376 60.75304
# Shear Modulus (GPa) = 36.41191 49.38259 42.89725
#
# Velocity S-wave (km/s) = 3.59023 4.18108 3.89687
# Velocity P-wave (km/s) = 5.77869 7.07917 6.46173
#
# Compressibility (1/GPa) = 0.02184249
#
# Stress axis : x y z
#
# Youngs Moduli (GPa) = 98.75943 36.60390 184.49737
#
# Poissons Ratio (x) = 0.31403 0.31787
# Poissons Ratio (y) = 0.84726 0.03865
# Poissons Ratio (z) = 0.17015 0.00767
#
# Static dielectric constant tensor:
#      x y z
#    x 2.285650 0.000000 -0.090270 
#    y 0.000000 2.229010 0.000000 
#    z -0.090270 0.000000 2.170940 
# 
# From -- ./inp_files/41157.got.cif
#   From: 2010.05.17/outbox.cif.g08.bks.cpg/sg13_21_cif.got.tgz:41157.got - 2010.06.03 16:44:36.
