data_PCOD9238626
_publ_section_title
;
Structure prediction by ZEFSAII (Michael W. Deem and Ramdas Pophale) SiO2 
 PCOD9238626
Probable space group: P 2/C
;
_chemical_formula_sum "Si O2"
_cell_formula_units_Z 20
_cell_length_a 17.354329
_cell_length_b 6.499348
_cell_length_c 10.020809
_cell_angle_alpha 90.000000
_cell_angle_beta 56.617505
_cell_angle_gamma 90.000000
_cell_volume 943.789634
_symmetry_space_group_name_H-M "P 2/C"
_symmetry_group_IT_number 13
_symmetry_cell_setting 'monoclinic'
loop_
_space_group_symop_operation_xyz
x,y,z
-x,y,1/2-z
-x,-y,-z
x,-y,1/2+z
loop_
_atom_site_type_symbol
_atom_site_label
_atom_site_fract_x
_atom_site_fract_y
_atom_site_fract_z
Si Si1 0.422745 0.874409 0.491871
Si Si2 0.136610 0.167995 0.619321
Si Si3 0.005366 0.245767 0.961654
Si Si4 0.346468 0.828199 0.838713
Si Si5 0.500000 0.488208 0.750000
Si Si6 0.000000 0.787496 0.750000
O O1 0.344310 0.861977 0.680747
O O2 0.465306 0.659300 0.402454
O O3 0.500000 0.000000 0.500000
O O4 0.391310 0.992173 0.387891
O O5 0.091167 0.936730 0.663146
O O6 0.081169 0.274194 0.552096
O O7 0.243673 0.188687 0.492587
O O8 0.100578 0.265632 0.791170
O O9 0.000792 0.660773 0.886004
O O10 0.000000 0.000000 0.000000
O O11 0.413915 0.633306 0.794240
#
# Coordination Sequence:
#
# PCOD9238626 Si02
#       6
#     4   4   4   4   2   2
#     4  12  24  45  63  92 123 169 214 265 320 377
#     4   8  16  29  47  85 119 160 200 251 300 362
#     4   7  13  27  47  76 120 158 195 253 300 352
#     4  12  25  37  68  93 128 170 215 260 312 382
#     4  12  24  46  64  88 130 166 212 268 324 372
#     4   8  14  26  50  82 120 164 198 252 308 348
#
# _framework density 21.191163
#
# number of rings (size 3 to 8) (size 9 to 14) (size 15 to 20)
#    0.000    2.800    4.000    0.600    8.400    0.000 
#    0.000    0.000    0.000    0.000    0.000   25.200 
#    0.000    0.000    0.000    0.000    0.000    0.000 
#
# Total GULP energy -111495.503880 kJ/mol
# GULP energy per Si atom -5574.775194 kJ/mol
# Density = 2.114293 g / cm^3
# Si number density = 21.191163 Si / 1000 Ang^3
#
#
#
# Elastic Constant Matrix: (Units=GPa)
#
#
# Indices 1 2 3 4 5 6 
#
# 1 66.3015 24.8279 82.6492 0.0000 -2.6460 0.0000
# 2 24.8279 86.5260 35.8744 0.0000 -9.9578 0.0000
# 3 82.6492 35.8744 204.9356 0.0000 1.9113 0.0000
# 4 0.0000 0.0000 0.0000 19.8503 0.0000 0.6445
# 5 -2.6460 -9.9578 1.9113 0.0000 59.1963 0.0000
# 6 0.0000 0.0000 0.0000 0.6445 0.0000 7.7053
#
#
#
# Elastic Compliance Matrix: (Units=1/GPa)
#
#
# Indices 1 2 3 4 5 6 
#
# 1 0.031689 -0.003944 -0.012100 0.000000 0.001144 0.000000
# 2 -0.003944 0.013237 -0.000746 0.000000 0.002074 0.000000
# 3 -0.012100 -0.000746 0.009899 0.000000 -0.000986 0.000000
# 4 0.000000 0.000000 0.000000 0.050514 0.000000 -0.004225
# 5 0.001144 0.002074 -0.000986 0.000000 0.017325 0.000000
# 6 0.000000 0.000000 0.000000 -0.004225 0.000000 0.130134
#
#
# Mechanical properties :
#
#
# Convention : Reuss Voigt Hill
#
# Bulk Modulus (GPa) = 47.07097 71.60733 59.33915
# Shear Modulus (GPa) = 17.03807 31.64448 24.34127
#
# Velocity S-wave (km/s) = 2.83860 3.86850 3.39285
# Velocity P-wave (km/s) = 5.74493 7.33609 6.58872
#
# Compressibility (1/GPa) = 0.02124452
#
# Stress axis : x y z
#
# Youngs Moduli (GPa) = 31.55674 75.54603 101.01800
#
# Poissons Ratio (x) = 0.29799 1.22233
# Poissons Ratio (y) = 0.12447 0.07533
# Poissons Ratio (z) = 0.38184 0.05634
#
# Static dielectric constant tensor:
#      x y z
#    x 1.753060 0.000000 0.075830 
#    y 0.000000 1.856860 0.000000 
#    z 0.075830 0.000000 1.840740 
# 
# From -- ./inp_files/38126.got.cif
#   From: 2010.05.17/outbox.cif.g08.bks.cpg/sg13_20_cif.got.tgz:38126.got - 2010.06.03 16:44:36.
