data_PCOD9238242
_publ_section_title
;
Structure prediction by ZEFSAII (Michael W. Deem and Ramdas Pophale) SiO2 
 PCOD9238242
Probable space group: P 2/C
;
_chemical_formula_sum "Si O2"
_cell_formula_units_Z 20
_cell_length_a 14.804000
_cell_length_b 6.718167
_cell_length_c 9.538002
_cell_angle_alpha 90.000000
_cell_angle_beta 128.194909
_cell_angle_gamma 90.000000
_cell_volume 745.523112
_symmetry_space_group_name_H-M "P 2/C"
_symmetry_group_IT_number 13
_symmetry_cell_setting 'monoclinic'
loop_
_space_group_symop_operation_xyz
x,y,z
-x,y,1/2-z
-x,-y,-z
x,-y,1/2+z
loop_
_atom_site_type_symbol
_atom_site_label
_atom_site_fract_x
_atom_site_fract_y
_atom_site_fract_z
Si Si1 0.288026 0.036656 0.242125
Si Si2 0.868880 0.554339 0.521527
Si Si3 0.876172 0.288469 0.291315
Si Si4 0.432115 0.630549 0.050666
Si Si5 0.272008 0.270975 0.952131
O O1 0.155772 0.090850 0.159268
O O2 0.368736 0.190840 0.406932
O O3 0.302889 0.101844 0.096518
O O4 0.296908 0.822700 0.323129
O O5 0.818665 0.459679 0.333630
O O6 0.827704 0.724193 0.587529
O O7 0.851936 0.362179 0.611573
O O8 0.992924 0.642852 0.597853
O O9 0.500000 0.716670 0.250000
O O10 0.353123 0.461208 0.047993
O O11 0.500000 0.500000 0.000000
#
# Coordination Sequence:
#
# PCOD9238242 Si02
#       5
#     4   4   4   4   4
#     4  11  25  43  69 103 136 176 225 279 335 400
#     4   9  18  36  64  94 128 170 215 259 324 392
#     4   9  18  36  64  94 127 172 213 262 321 392
#     4  12  26  46  69  99 132 180 226 280 347 400
#     4  11  25  43  69 104 135 176 226 277 336 401
#
# _framework density 26.826801
#
# number of rings (size 3 to 8) (size 9 to 14) (size 15 to 20)
#    0.000    1.600    4.000    0.000    2.800    3.200 
#    0.000    4.000    0.000   21.600    0.000    0.000 
#    0.000    0.000    0.000    0.000    0.000    0.000 
#
# Total GULP energy -111364.431329 kJ/mol
# GULP energy per Si atom -5568.221566 kJ/mol
# Density = 2.676574 g / cm^3
# Si number density = 26.826801 Si / 1000 Ang^3
#
#
#
# Elastic Constant Matrix: (Units=GPa)
#
#
# Indices 1 2 3 4 5 6 
#
# 1 81.7789 6.7723 5.0352 0.0000 -9.3341 0.0000
# 2 6.7723 96.9500 -2.4309 0.0000 25.7840 0.0000
# 3 5.0352 -2.4309 62.7821 0.0000 -10.3505 0.0000
# 4 0.0000 0.0000 0.0000 30.1201 0.0000 -5.1845
# 5 -9.3341 25.7840 -10.3505 0.0000 44.1315 0.0000
# 6 0.0000 0.0000 0.0000 -5.1845 0.0000 43.0288
#
#
#
# Elastic Compliance Matrix: (Units=1/GPa)
#
#
# Indices 1 2 3 4 5 6 
#
# 1 0.012838 -0.001895 -0.000492 0.000000 0.003707 0.000000
# 2 -0.001895 0.012524 -0.000661 0.000000 -0.007873 0.000000
# 3 -0.000492 -0.000661 0.016632 0.000000 0.004183 0.000000
# 4 0.000000 0.000000 0.000000 0.033904 0.000000 0.004085
# 5 0.003707 -0.007873 0.004183 0.000000 0.029025 0.000000
# 6 0.000000 0.000000 0.000000 0.004085 0.000000 0.023732
#
#
# Mechanical properties :
#
#
# Convention : Reuss Voigt Hill
#
# Bulk Modulus (GPa) = 27.85651 28.91825 28.38738
# Shear Modulus (GPa) = 34.07920 38.93172 36.50546
#
# Velocity S-wave (km/s) = 3.56805 3.81363 3.69288
# Velocity P-wave (km/s) = 5.23269 5.49497 5.36543
#
# Compressibility (1/GPa) = 0.03589826
#
# Stress axis : x y z
#
# Youngs Moduli (GPa) = 77.89102 79.84488 60.12665
#
# Poissons Ratio (x) = 0.15131 0.02957
# Poissons Ratio (y) = 0.14761 0.03975
# Poissons Ratio (z) = 0.03831 0.05278
#
# Static dielectric constant tensor:
#      x y z
#    x 2.225870 0.000000 0.054100 
#    y 0.000000 2.111220 0.000000 
#    z 0.054100 0.000000 2.240520 
# 
# From -- ./inp_files/38282.got.cif
#   From: 2010.05.17/outbox.cif.g08.bks.cpg/sg13_20_cif.got.tgz:38282.got - 2010.06.03 16:44:36.
