data_PCOD9238886
_publ_section_title
;
Structure prediction by ZEFSAII (Michael W. Deem and Ramdas Pophale) SiO2 
 PCOD9238886
Probable space group: P 2/C
;
_chemical_formula_sum "Si O2"
_cell_formula_units_Z 24
_cell_length_a 15.000000
_cell_length_b 15.000000
_cell_length_c 9.000000
_cell_angle_alpha 90.000000
_cell_angle_beta 140.000000
_cell_angle_gamma 90.000000
_cell_volume 1301.644910
_symmetry_space_group_name_H-M "P 2/C"
_symmetry_group_IT_number 13
_symmetry_cell_setting 'monoclinic'
loop_
_space_group_symop_operation_xyz
x,y,z
-x,y,1/2-z
-x,-y,-z
x,-y,1/2+z
loop_
_atom_site_type_symbol
_atom_site_label
_atom_site_fract_x
_atom_site_fract_y
_atom_site_fract_z
Si Si1 0.395484 0.710132 0.847886
Si Si2 0.224544 0.869597 0.759651
Si Si3 0.693630 0.331856 0.599217
Si Si4 0.940908 0.208703 0.007462
Si Si5 0.836890 0.960918 0.508682
Si Si6 0.392676 0.531248 0.985566
O O1 0.342263 0.797875 0.865680
O O2 0.341040 0.705324 0.609037
O O3 0.563273 0.697082 0.040116
O O4 0.329831 0.623444 0.847206
O O5 0.231981 0.919394 0.930417
O O6 0.075461 0.817018 0.579942
O O7 0.222911 0.948918 0.636372
O O8 0.839436 0.288849 0.833282
O O9 0.693373 0.440912 0.590337
O O10 0.846269 0.119364 0.900561
O O11 0.000000 0.224313 0.250000
O O12 0.000000 0.979196 0.750000
O O13 0.500000 0.556216 0.250000
O O14 0.500000 0.500000 0.000000
#
# Coordination Sequence:
#
# PCOD9238886 Si02
#       6
#     4   4   4   4   4   4
#     4  10  22  36  62  93 114 155 202 243 299 348
#     4  10  21  36  61  87 115 154 207 240 290 352
#     4  10  20  39  61  87 123 153 193 253 294 349
#     4   9  20  38  60  87 117 159 198 242 295 347
#     4   9  19  36  56  86 111 160 199 239 284 354
#     4  10  18  37  61  87 114 156 199 231 286 365
#
# _framework density 18.438207999999999
#
# number of rings (size 3 to 8) (size 9 to 14) (size 15 to 20)
#    0.000    2.667    3.333    2.000    4.667    5.333 
#    0.000    1.667    0.000    0.000    0.000    0.000 
#    0.000    0.000    0.000    0.000    0.000    0.000 
#
# Total GULP energy -133610.370556 kJ/mol
# GULP energy per Si atom -5567.098773 kJ/mol
# Density = 1.839624 g / cm^3
# Si number density = 18.438208 Si / 1000 Ang^3
#
#
#
# Elastic Constant Matrix: (Units=GPa)
#
#
# Indices 1 2 3 4 5 6 
#
# 1 87.2526 42.2288 17.6258 0.0000 -6.9551 0.0000
# 2 42.2288 126.3668 28.0788 0.0000 3.8545 0.0000
# 3 17.6258 28.0788 47.1076 0.0000 1.4903 0.0000
# 4 0.0000 0.0000 0.0000 14.6408 0.0000 -5.1058
# 5 -6.9551 3.8545 1.4903 0.0000 19.0446 0.0000
# 6 0.0000 0.0000 0.0000 -5.1058 0.0000 28.4445
#
#
#
# Elastic Compliance Matrix: (Units=1/GPa)
#
#
# Indices 1 2 3 4 5 6 
#
# 1 0.014755 -0.004446 -0.003077 0.000000 0.006529 0.000000
# 2 -0.004446 0.010500 -0.004488 0.000000 -0.003398 0.000000
# 3 -0.003077 -0.004488 0.025123 0.000000 -0.002182 0.000000
# 4 0.000000 0.000000 0.000000 0.072863 0.000000 0.013079
# 5 0.006529 -0.003398 -0.002182 0.000000 0.055751 0.000000
# 6 0.000000 0.000000 0.000000 0.013079 0.000000 0.037504
#
#
# Mechanical properties :
#
#
# Convention : Reuss Voigt Hill
#
# Bulk Modulus (GPa) = 37.94129 48.51042 43.22585
# Shear Modulus (GPa) = 20.05587 23.94557 22.00072
#
# Velocity S-wave (km/s) = 3.30166 3.60765 3.45804
# Velocity P-wave (km/s) = 5.92932 6.61214 6.28001
#
# Compressibility (1/GPa) = 0.02635651
#
# Stress axis : x y z
#
# Youngs Moduli (GPa) = 67.77405 95.23766 39.80393
#
# Poissons Ratio (x) = 0.42344 0.12248
# Poissons Ratio (y) = 0.30134 0.17862
# Poissons Ratio (z) = 0.20855 0.42738
#
# Static dielectric constant tensor:
#      x y z
#    x 1.637020 0.000000 -0.015370 
#    y 0.000000 1.545830 0.000000 
#    z -0.015370 0.000000 1.644710 
# 
# From -- ./inp_files/19767.got.cif
#   From: 2010.05.17/outbox.ucp.g08.bks.cvg/sg13_10_cif.got.tgz:19767.got - 2010.06.11 12:23:55.
