data_PCOD9238993
_publ_section_title
;
Structure prediction by ZEFSAII (Michael W. Deem and Ramdas Pophale) SiO2 
 PCOD9238993
Probable space group: P 2/C
;
_chemical_formula_sum "Si O2"
_cell_formula_units_Z 32
_cell_length_a 12.000000
_cell_length_b 15.000000
_cell_length_c 9.000000
_cell_angle_alpha 90.000000
_cell_angle_beta 90.000000
_cell_angle_gamma 90.000000
_cell_volume 1620.000000
_symmetry_space_group_name_H-M "P 2/C"
_symmetry_group_IT_number 13
_symmetry_cell_setting 'monoclinic'
loop_
_space_group_symop_operation_xyz
x,y,z
-x,y,1/2-z
-x,-y,-z
x,-y,1/2+z
loop_
_atom_site_type_symbol
_atom_site_label
_atom_site_fract_x
_atom_site_fract_y
_atom_site_fract_z
Si Si1 0.698285 0.439311 0.132486
Si Si2 0.619480 0.705614 0.815927
Si Si3 0.373874 0.086069 0.238219
Si Si4 0.615185 0.602861 0.308632
Si Si5 0.227954 0.020096 0.507598
Si Si6 0.922130 0.446037 0.608284
Si Si7 0.874099 0.885075 0.209289
Si Si8 0.762045 0.293323 0.602027
O O1 0.709038 0.348248 0.221162
O O2 0.625450 0.509260 0.224308
O O3 0.816111 0.488750 0.125984
O O4 0.636215 0.418440 0.979368
O O5 0.500000 0.673670 0.750000
O O6 0.620975 0.809257 0.785083
O O7 0.660417 0.694964 0.985294
O O8 0.500000 0.050101 0.250000
O O9 0.305464 0.067457 0.387057
O O10 0.307682 0.045335 0.100455
O O11 0.500000 0.643840 0.250000
O O12 0.715933 0.664872 0.254298
O O13 0.178416 0.083539 0.634282
O O14 0.137253 0.965760 0.410051
O O15 0.865995 0.354543 0.552837
O O16 0.000000 0.427427 0.750000
O O17 0.000000 0.500000 0.500000
O O18 0.804683 0.805035 0.135380
O O19 0.000000 0.860027 0.250000
#
# Coordination Sequence:
#
# PCOD9238993 Si02
#       8
#     4   4   4   4   4   4   4   4
#     4  11  22  37  61  86 121 158 207 248 296 369
#     4  11  22  39  61  88 126 159 195 250 310 362
#     4  10  21  39  65  94 130 162 201 254 315 377
#     4  11  22  38  60  89 122 161 200 243 306 368
#     4  10  22  42  65  94 123 165 213 251 317 378
#     4  11  22  40  61  84 119 161 202 251 303 353
#     4  11  23  42  67  90 126 166 210 267 311 362
#     4  11  23  41  60  93 122 159 204 257 305 367
#
# _framework density 19.753086
#
# number of rings (size 3 to 8) (size 9 to 14) (size 15 to 20)
#    0.000    1.250    1.250    6.375    1.750    0.000 
#    0.000    0.625    0.000    0.000    0.000    0.000 
#    0.000    0.000    0.000    0.000    0.000    0.000 
#
# Total GULP energy -178416.652169 kJ/mol
# GULP energy per Si atom -5575.520380 kJ/mol
# Density = 1.970813 g / cm^3
# Si number density = 19.753086 Si / 1000 Ang^3
#
#
#
# Elastic Constant Matrix: (Units=GPa)
#
#
# Indices 1 2 3 4 5 6 
#
# 1 85.5406 38.6028 28.5617 0.0000 7.8884 0.0000
# 2 38.6028 84.2419 31.6603 0.0000 -16.2413 0.0000
# 3 28.5617 31.6603 120.3148 0.0000 13.1090 0.0000
# 4 0.0000 0.0000 0.0000 9.6097 0.0000 9.6279
# 5 7.8884 -16.2413 13.1090 0.0000 32.7369 0.0000
# 6 0.0000 0.0000 0.0000 9.6279 0.0000 6.1750
#
#
#
# Elastic Compliance Matrix: (Units=1/GPa)
#
#
# Indices 1 2 3 4 5 6 
#
# 1 0.016740 -0.008983 -0.000716 0.000000 -0.008204 0.000000
# 2 -0.008983 0.020562 -0.004837 0.000000 0.014303 0.000000
# 3 -0.000716 -0.004837 0.010453 0.000000 -0.006413 0.000000
# 4 0.000000 0.000000 0.000000 -0.185129 0.000000 0.288646
# 5 -0.008204 0.014303 -0.006413 0.000000 0.042187 0.000000
# 6 0.000000 0.000000 0.000000 0.288646 0.000000 -0.288102
#
#
# Mechanical properties :
#
#
# Convention : Reuss Voigt Hill
#
# Bulk Modulus (GPa) = 53.52482 54.19409 53.85946
# Shear Modulus (GPa) = -14.36828 22.45583 4.04378
#
# Velocity S-wave (km/s) = -2.69995 3.37534 1.43234
# Velocity P-wave (km/s) = 4.17566 6.53345 5.48279
#
# Compressibility (1/GPa) = 0.01868292
#
# Stress axis : x y z
#
# Youngs Moduli (GPa) = 59.73695 48.63260 95.66640
#
# Poissons Ratio (x) = 0.43689 0.06851
# Poissons Ratio (y) = 0.53664 0.46271
# Poissons Ratio (z) = 0.04278 0.23522
#
# Static dielectric constant tensor:
#      x y z
#    x 1.727300 0.000000 -0.015920 
#    y 0.000000 1.725710 0.000000 
#    z -0.015920 0.000000 1.651500 
# 
# From -- ./inp_files/16766.got.cif
#   From: 2010.05.17/outbox.ucp.g08.bks.cvg/sg13_9_cif.got.tgz:16766.got - 2010.06.11 12:23:55.
