data_PCOD9238400
_publ_section_title
;
Structure prediction by ZEFSAII (Michael W. Deem and Ramdas Pophale) SiO2 
 PCOD9238400
Probable space group: P 2/C
;
_chemical_formula_sum "Si O2"
_cell_formula_units_Z 20
_cell_length_a 13.336442
_cell_length_b 4.774468
_cell_length_c 19.241410
_cell_angle_alpha 90.000000
_cell_angle_beta 144.111042
_cell_angle_gamma 90.000000
_cell_volume 718.223653
_symmetry_space_group_name_H-M "P 2/C"
_symmetry_group_IT_number 13
_symmetry_cell_setting 'monoclinic'
loop_
_space_group_symop_operation_xyz
x,y,z
-x,y,1/2-z
-x,-y,-z
x,-y,1/2+z
loop_
_atom_site_type_symbol
_atom_site_label
_atom_site_fract_x
_atom_site_fract_y
_atom_site_fract_z
Si Si1 0.414115 0.106620 0.766929
Si Si2 0.397184 0.263791 0.017556
Si Si3 0.869421 0.845507 0.976043
Si Si4 0.741901 0.400524 0.693507
Si Si5 0.104691 0.354367 0.418274
O O1 0.500000 0.271139 0.750000
O O2 0.307331 0.879253 0.664029
O O3 0.283727 0.264232 0.745076
O O4 0.549475 0.961451 0.894593
O O5 0.582631 0.387808 0.102682
O O6 0.299879 0.181578 0.891954
O O7 0.270879 0.509859 0.974814
O O8 0.887600 0.027875 0.058121
O O9 0.895530 0.526260 0.009645
O O10 0.000000 0.000000 0.000000
O O11 0.922340 0.553789 0.784260
#
# Coordination Sequence:
#
# PCOD9238400 Si02
#       5
#     4   4   4   4   4
#     4  12  24  42  72 106 147 195 242 321 372 454
#     4  11  26  47  71 110 146 205 254 312 377 465
#     4  12  25  45  73 110 149 191 251 311 379 439
#     4  11  26  47  73 103 154 198 256 311 384 452
#     4  12  26  49  76 109 149 201 251 310 375 453
#
# _framework density 27.846478000000001
#
# number of rings (size 3 to 8) (size 9 to 14) (size 15 to 20)
#    0.000    0.400    4.000    4.200    2.800    0.800 
#    0.000    2.000    0.000    0.000    0.000    0.000 
#    0.000    0.000    0.000    0.000    0.000    0.000 
#
# Total GULP energy -111982.547358 kJ/mol
# GULP energy per Si atom -5599.127368 kJ/mol
# Density = 2.778310 g / cm^3
# Si number density = 27.846478 Si / 1000 Ang^3
#
#
#
# Elastic Constant Matrix: (Units=GPa)
#
#
# Indices 1 2 3 4 5 6 
#
# 1 138.0358 20.6565 42.1414 0.0000 1.1105 0.0000
# 2 20.6565 100.7124 36.2222 0.0000 -4.2244 0.0000
# 3 42.1414 36.2222 183.1345 0.0000 13.0931 0.0000
# 4 0.0000 0.0000 0.0000 29.6451 0.0000 0.6301
# 5 1.1105 -4.2244 13.0931 0.0000 65.1624 0.0000
# 6 0.0000 0.0000 0.0000 0.6301 0.0000 35.3365
#
#
#
# Elastic Compliance Matrix: (Units=1/GPa)
#
#
# Indices 1 2 3 4 5 6 
#
# 1 0.007893 -0.001030 -0.001621 0.000000 0.000124 0.000000
# 2 -0.001030 0.010907 -0.002001 0.000000 0.001127 0.000000
# 3 -0.001621 -0.002001 0.006327 0.000000 -0.001373 0.000000
# 4 0.000000 0.000000 0.000000 0.033745 0.000000 -0.000602
# 5 0.000124 0.001127 -0.001373 0.000000 0.015693 0.000000
# 6 0.000000 0.000000 0.000000 -0.000602 0.000000 0.028310
#
#
# Mechanical properties :
#
#
# Convention : Reuss Voigt Hill
#
# Bulk Modulus (GPa) = 63.20120 68.88029 66.04075
# Shear Modulus (GPa) = 42.56936 47.55298 45.06117
#
# Velocity S-wave (km/s) = 3.91412 4.13690 4.02705
# Velocity P-wave (km/s) = 6.57059 6.89985 6.73724
#
# Compressibility (1/GPa) = 0.01582248
#
# Stress axis : x y z
#
# Youngs Moduli (GPa) = 126.69984 91.68005 158.04081
#
# Poissons Ratio (x) = 0.09448 0.25623
# Poissons Ratio (y) = 0.13056 0.31621
# Poissons Ratio (z) = 0.20541 0.18344
#
# Static dielectric constant tensor:
#      x y z
#    x 2.330640 0.000000 -0.001670 
#    y 0.000000 2.105560 0.000000 
#    z -0.001670 0.000000 2.200610 
# 
# From -- ./inp_files/79422.got.cif
#   From: 2010.05.17/outbox.cif.g08.bks.cpg/sg13_40_cif.got.tgz:79422.got - 2010.06.03 16:44:36.
