data_PCOD9238168
_publ_section_title
;
Structure prediction by ZEFSAII (Michael W. Deem and Ramdas Pophale) SiO2 
 PCOD9238168
Probable space group: P 2/C
;
_chemical_formula_sum "Si O2"
_cell_formula_units_Z 20
_cell_length_a 12.150480
_cell_length_b 8.223094
_cell_length_c 12.367132
_cell_angle_alpha 90.000000
_cell_angle_beta 132.892711
_cell_angle_gamma 90.000000
_cell_volume 905.278244
_symmetry_space_group_name_H-M "P 2/C"
_symmetry_group_IT_number 13
_symmetry_cell_setting 'monoclinic'
loop_
_space_group_symop_operation_xyz
x,y,z
-x,y,1/2-z
-x,-y,-z
x,-y,1/2+z
loop_
_atom_site_type_symbol
_atom_site_label
_atom_site_fract_x
_atom_site_fract_y
_atom_site_fract_z
Si Si1 0.172303 0.335720 0.387432
Si Si2 0.882535 0.780573 0.431759
Si Si3 0.270835 0.308490 0.891538
Si Si4 0.801266 0.145682 0.429250
Si Si5 0.581072 0.167909 0.086238
O O1 0.185583 0.341594 0.526127
O O2 0.206148 0.511368 0.360669
O O3 0.289584 0.212407 0.412481
O O4 0.000000 0.287332 0.250000
O O5 0.802507 0.771032 0.263139
O O6 0.059203 0.756262 0.529601
O O7 0.854875 0.958701 0.463852
O O8 0.230370 0.209116 0.972494
O O9 0.449953 0.301518 0.998839
O O10 0.659045 0.158215 0.255276
O O11 0.500000 0.000000 0.000000
#
# Coordination Sequence:
#
# PCOD9238168 Si02
#       5
#     4   4   4   4   4
#     4  12  27  47  75 105 153 193 240 299 372 437
#     4  11  25  45  77 107 142 193 250 294 356 441
#     4  12  27  46  73 110 147 189 245 303 369 429
#     4  11  24  46  75 104 146 192 244 301 359 429
#     4  12  25  50  74 107 144 194 244 305 365 427
#
# _framework density 22.092655000000001
#
# number of rings (size 3 to 8) (size 9 to 14) (size 15 to 20)
#    0.000    0.400    4.000    4.200    2.800    2.400 
#    3.600    0.000    0.000    0.000    0.000    0.000 
#    0.000    0.000    0.000    0.000    0.000    0.000 
#
# Total GULP energy -112037.282485 kJ/mol
# GULP energy per Si atom -5601.864124 kJ/mol
# Density = 2.204237 g / cm^3
# Si number density = 22.092655 Si / 1000 Ang^3
#
#
#
# Elastic Constant Matrix: (Units=GPa)
#
#
# Indices 1 2 3 4 5 6 
#
# 1 168.0253 54.1123 64.2154 0.0000 2.7725 0.0000
# 2 54.1123 74.6452 20.5471 0.0000 -0.2078 0.0000
# 3 64.2154 20.5471 130.5160 0.0000 -6.1677 0.0000
# 4 0.0000 0.0000 0.0000 16.5477 0.0000 -1.6895
# 5 2.7725 -0.2078 -6.1677 0.0000 49.9583 0.0000
# 6 0.0000 0.0000 0.0000 -1.6895 0.0000 47.1483
#
#
#
# Elastic Compliance Matrix: (Units=1/GPa)
#
#
# Indices 1 2 3 4 5 6 
#
# 1 0.009196 -0.005656 -0.003681 0.000000 -0.000988 0.000000
# 2 -0.005656 0.017485 0.000049 0.000000 0.000393 0.000000
# 3 -0.003681 0.000049 0.009530 0.000000 0.001381 0.000000
# 4 0.000000 0.000000 0.000000 0.060653 0.000000 0.002173
# 5 -0.000988 0.000393 0.001381 0.000000 0.020244 0.000000
# 6 0.000000 0.000000 0.000000 0.002173 0.000000 0.021288
#
#
# Mechanical properties :
#
#
# Convention : Reuss Voigt Hill
#
# Bulk Modulus (GPa) = 56.70547 72.32624 64.51585
# Shear Modulus (GPa) = 30.70310 38.35163 34.52737
#
# Velocity S-wave (km/s) = 3.73197 4.17099 3.95757
# Velocity P-wave (km/s) = 6.65530 7.48364 7.08159
#
# Compressibility (1/GPa) = 0.01763498
#
# Stress axis : x y z
#
# Youngs Moduli (GPa) = 108.74261 57.19328 104.92637
#
# Poissons Ratio (x) = 0.32349 0.38622
# Poissons Ratio (y) = 0.61505 -0.00512
# Poissons Ratio (z) = 0.40026 -0.00279
#
# Static dielectric constant tensor:
#      x y z
#    x 1.799880 0.000000 -0.001900 
#    y 0.000000 1.826870 0.000000 
#    z -0.001900 0.000000 1.785350 
# 
# From -- ./inp_files/32770.got.cif
#   From: 2010.05.17/outbox.cif.g08.bks.cpg/sg13_17_cif.got.tgz:32770.got - 2010.06.03 16:44:36.
