data_PCOD9238962
_publ_section_title
;
Structure prediction by ZEFSAII (Michael W. Deem and Ramdas Pophale) SiO2 
 PCOD9238962
Probable space group: P 2/C
;
_chemical_formula_sum "Si O2"
_cell_formula_units_Z 28
_cell_length_a 21.000000
_cell_length_b 9.000000
_cell_length_c 15.000000
_cell_angle_alpha 90.000000
_cell_angle_beta 150.000000
_cell_angle_gamma 90.000000
_cell_volume 1417.500000
_symmetry_space_group_name_H-M "P 2/C"
_symmetry_group_IT_number 13
_symmetry_cell_setting 'monoclinic'
loop_
_space_group_symop_operation_xyz
x,y,z
-x,y,1/2-z
-x,-y,-z
x,-y,1/2+z
loop_
_atom_site_type_symbol
_atom_site_label
_atom_site_fract_x
_atom_site_fract_y
_atom_site_fract_z
Si Si1 0.935234 0.217993 0.574326
Si Si2 0.645447 0.159788 0.944741
Si Si3 0.175543 0.417622 0.384414
Si Si4 0.117360 0.559291 0.012103
Si Si5 0.684246 0.023258 0.312187
Si Si6 0.818570 0.291361 0.721560
Si Si7 0.601308 0.905862 0.028109
O O1 0.885384 0.380307 0.484707
O O2 0.814045 0.108548 0.440783
O O3 0.000000 0.231272 0.750000
O O4 0.057362 0.191910 0.656378
O O5 0.500000 0.206408 0.750000
O O6 0.693909 0.059441 0.919366
O O7 0.736760 0.300292 0.059374
O O8 0.634167 0.063266 0.020829
O O9 0.193135 0.405156 0.512690
O O10 0.197061 0.583382 0.373310
O O11 0.027416 0.389553 0.182901
O O12 0.156489 0.630299 0.152887
O O13 0.649532 0.912675 0.188418
O O14 0.551466 0.117414 0.159399
O O15 0.687061 0.205437 0.575257
#
# Coordination Sequence:
#
# PCOD9238962 Si02
#       7
#     4   4   4   4   4   4   4
#     4  11  20  39  62  93 122 162 203 252 303 365
#     4  10  22  41  61  86 123 164 203 251 305 367
#     4  10  20  40  60  86 122 159 198 250 310 359
#     4  10  21  38  61  85 128 157 190 258 314 351
#     4  10  23  42  64  85 132 165 197 257 313 359
#     4  11  22  39  63  94 118 157 211 253 298 369
#     4  10  23  43  62  90 124 162 208 252 308 361
#
# _framework density 19.753086
#
# number of rings (size 3 to 8) (size 9 to 14) (size 15 to 20)
#    0.000    1.714    2.857    3.429    4.000    0.571 
#   12.857    0.714    0.000    0.000    0.000    0.000 
#    0.000    0.000    0.000    0.000    0.000    0.000 
#
# Total GULP energy -156234.173629 kJ/mol
# GULP energy per Si atom -5579.791915 kJ/mol
# Density = 1.970813 g / cm^3
# Si number density = 19.753086 Si / 1000 Ang^3
#
#
#
# Elastic Constant Matrix: (Units=GPa)
#
#
# Indices 1 2 3 4 5 6 
#
# 1 116.8637 22.0524 31.2615 0.0000 14.6065 0.0000
# 2 22.0524 38.5516 32.0823 0.0000 23.2031 0.0000
# 3 31.2615 32.0823 48.6914 0.0000 18.6732 0.0000
# 4 0.0000 0.0000 0.0000 18.4313 0.0000 7.5587
# 5 14.6065 23.2031 18.6732 0.0000 39.9484 0.0000
# 6 0.0000 0.0000 0.0000 7.5587 0.0000 37.5306
#
#
#
# Elastic Compliance Matrix: (Units=1/GPa)
#
#
# Indices 1 2 3 4 5 6 
#
# 1 0.010356 -0.000439 -0.006099 0.000000 -0.000681 0.000000
# 2 -0.000439 0.072537 -0.038278 0.000000 -0.024079 0.000000
# 3 -0.006099 -0.038278 0.049093 0.000000 0.001515 0.000000
# 4 0.000000 0.000000 0.000000 0.059140 0.000000 -0.011911
# 5 -0.000681 -0.024079 0.001515 0.000000 0.038559 0.000000
# 6 0.000000 0.000000 0.000000 -0.011911 0.000000 0.029044
#
#
# Mechanical properties :
#
#
# Convention : Reuss Voigt Hill
#
# Bulk Modulus (GPa) = 23.60988 41.65548 32.63268
# Shear Modulus (GPa) = 13.79386 27.09607 20.44497
#
# Velocity S-wave (km/s) = 2.64543 3.70772 3.22067
# Velocity P-wave (km/s) = 4.61622 6.28199 5.51239
#
# Compressibility (1/GPa) = 0.04235516
#
# Stress axis : x y z
#
# Youngs Moduli (GPa) = 96.55904 13.78600 20.36936
#
# Poissons Ratio (x) = 0.00605 0.12423
# Poissons Ratio (y) = 0.04237 0.77970
# Poissons Ratio (z) = 0.58890 0.52770
#
# Static dielectric constant tensor:
#      x y z
#    x 1.716810 0.000000 -0.008130 
#    y 0.000000 1.707140 0.000000 
#    z -0.008130 0.000000 1.690160 
# 
# From -- ./inp_files/57503.got.cif
#   From: 2010.05.17/outbox.ucp.g08.bks.cvg/sg13_29_cif.got.tgz:57503.got - 2010.06.11 12:23:55.
