data_PCOD9238438
_publ_section_title
;
Structure prediction by ZEFSAII (Michael W. Deem and Ramdas Pophale) SiO2 
 PCOD9238438
Probable space group: P 2/C
;
_chemical_formula_sum "Si O2"
_cell_formula_units_Z 28
_cell_length_a 8.847486
_cell_length_b 12.579342
_cell_length_c 11.920829
_cell_angle_alpha 90.000000
_cell_angle_beta 64.651846
_cell_angle_gamma 90.000000
_cell_volume 1199.001236
_symmetry_space_group_name_H-M "P 2/C"
_symmetry_group_IT_number 13
_symmetry_cell_setting 'monoclinic'
loop_
_space_group_symop_operation_xyz
x,y,z
-x,y,1/2-z
-x,-y,-z
x,-y,1/2+z
loop_
_atom_site_type_symbol
_atom_site_label
_atom_site_fract_x
_atom_site_fract_y
_atom_site_fract_z
Si Si1 0.659530 0.258213 0.254948
Si Si2 0.158776 0.135236 0.775921
Si Si3 0.578894 0.030892 0.351963
Si Si4 0.037302 0.230920 0.479742
Si Si5 0.862255 0.574777 0.389617
Si Si6 0.775094 0.653919 0.928364
Si Si7 0.569739 0.321932 0.844778
O O1 0.500000 0.311449 0.250000
O O2 0.780963 0.205860 0.124471
O O3 0.752749 0.342707 0.302197
O O4 0.594354 0.157626 0.345427
O O5 0.241067 0.026157 0.711492
O O6 0.311681 0.220056 0.720110
O O7 0.000000 0.165559 0.750000
O O8 0.070934 0.141570 0.924172
O O9 0.500000 0.003626 0.250000
O O10 0.500000 0.000000 0.500000
O O11 0.070391 0.332052 0.551266
O O12 0.922080 0.268558 0.415596
O O13 0.821745 0.462313 0.458982
O O14 0.690803 0.608305 0.382969
O O15 0.000000 0.558168 0.250000
O O16 0.601303 0.695303 0.034182
O O17 0.500000 0.367613 0.750000
#
# Coordination Sequence:
#
# PCOD9238438 Si02
#       7
#     4   4   4   4   4   4   4
#     4  11  27  48  70 105 156 192 245 314 388 450
#     4  12  25  45  78 104 143 195 246 313 373 451
#     4  11  28  51  79 115 153 198 256 317 386 466
#     4  12  24  45  71 104 147 192 248 311 376 449
#     4  12  23  44  66 104 143 189 252 304 378 445
#     4  12  26  42  71 100 146 197 244 309 373 457
#     4  12  22  42  66 101 135 186 247 298 365 447
#
# _framework density 23.352768999999999
#
# number of rings (size 3 to 8) (size 9 to 14) (size 15 to 20)
#    0.000    0.286    4.286    4.286    6.000    3.429 
#    0.000    0.000    0.000    0.000    0.000    0.000 
#    0.000    0.000    0.000    0.000    0.000    0.000 
#
# Total GULP energy -156393.672412 kJ/mol
# GULP energy per Si atom -5585.488300 kJ/mol
# Density = 2.329962 g / cm^3
# Si number density = 23.352769 Si / 1000 Ang^3
#
#
#
# Elastic Constant Matrix: (Units=GPa)
#
#
# Indices 1 2 3 4 5 6 
#
# 1 111.8772 5.7640 42.5416 0.0000 -14.9802 0.0000
# 2 5.7640 29.3030 9.4657 0.0000 10.2370 0.0000
# 3 42.5416 9.4657 124.1484 0.0000 -15.4561 0.0000
# 4 0.0000 0.0000 0.0000 16.2720 0.0000 -13.2137
# 5 -14.9802 10.2370 -15.4561 0.0000 39.8854 0.0000
# 6 0.0000 0.0000 0.0000 -13.2137 0.0000 16.0356
#
#
#
# Elastic Compliance Matrix: (Units=1/GPa)
#
#
# Indices 1 2 3 4 5 6 
#
# 1 0.010677 -0.002306 -0.003057 0.000000 0.003417 0.000000
# 2 -0.002306 0.040262 -0.003860 0.000000 -0.012696 0.000000
# 3 -0.003057 -0.003860 0.009853 0.000000 0.003660 0.000000
# 4 0.000000 0.000000 0.000000 0.185752 0.000000 0.153064
# 5 0.003417 -0.012696 0.003660 0.000000 0.031032 0.000000
# 6 0.000000 0.000000 0.000000 0.153064 0.000000 0.188490
#
#
# Mechanical properties :
#
#
# Convention : Reuss Voigt Hill
#
# Bulk Modulus (GPa) = 23.61609 42.31903 32.96756
# Shear Modulus (GPa) = 10.02750 28.27575 19.15163
#
# Velocity S-wave (km/s) = 2.07443 3.48344 2.86685
# Velocity P-wave (km/s) = 3.98401 5.86005 5.01061
#
# Compressibility (1/GPa) = 0.04234402
#
# Stress axis : x y z
#
# Youngs Moduli (GPa) = 93.65578 24.83733 101.49619
#
# Poissons Ratio (x) = 0.05729 0.31032
# Poissons Ratio (y) = 0.21602 0.39178
# Poissons Ratio (z) = 0.28635 0.09587
#
# Static dielectric constant tensor:
#      x y z
#    x 1.865270 0.000000 0.046380 
#    y 0.000000 1.869150 0.000000 
#    z 0.046380 0.000000 1.955250 
# 
# From -- ./inp_files/30255.got.cif
#   From: 2010.05.17/outbox.cif.g08.bks.cpg/sg13_16_cif.got.tgz:30255.got - 2010.06.03 16:44:36.
