data_PCOD9238798
_publ_section_title
;
Structure prediction by ZEFSAII (Michael W. Deem and Ramdas Pophale) SiO2 
 PCOD9238798
Probable space group: P 2/C
;
_chemical_formula_sum "Si O2"
_cell_formula_units_Z 18
_cell_length_a 5.993919
_cell_length_b 8.271237
_cell_length_c 18.331771
_cell_angle_alpha 90.000000
_cell_angle_beta 55.206206
_cell_angle_gamma 90.000000
_cell_volume 746.346546
_symmetry_space_group_name_H-M "P 2/C"
_symmetry_group_IT_number 13
_symmetry_cell_setting 'monoclinic'
loop_
_space_group_symop_operation_xyz
x,y,z
-x,y,1/2-z
-x,-y,-z
x,-y,1/2+z
loop_
_atom_site_type_symbol
_atom_site_label
_atom_site_fract_x
_atom_site_fract_y
_atom_site_fract_z
Si Si1 0.439941 0.771724 0.675860
Si Si2 0.248409 0.584036 0.588662
Si Si3 0.037796 0.184241 0.013954
Si Si4 0.000000 0.945811 0.250000
Si Si5 0.194260 0.310615 0.833185
O O1 0.500000 0.760131 0.750000
O O2 0.292561 0.623194 0.664858
O O3 0.726285 0.764468 0.580969
O O4 0.260891 0.934161 0.696858
O O5 0.500000 0.500000 0.500000
O O6 0.185236 0.753798 0.559363
O O7 0.991303 0.468215 0.632096
O O8 0.196288 0.259587 0.916999
O O9 0.000000 0.000000 0.000000
O O10 0.947085 0.828804 0.190453
O O11 0.500000 0.333788 0.750000
#
# Coordination Sequence:
#
# PCOD9238798 Si02
#       5
#     4   4   4   2   4
#     4  12  27  51  79 117 163 213 273 335 405 490
#     4  12  29  52  79 120 161 217 276 335 417 485
#     4  12  27  50  82 114 162 211 273 335 408 491
#     4  12  28  50  80 124 160 220 276 326 420 484
#     4  12  29  50  80 120 165 208 270 342 407 482
#
# _framework density 24.117483
#
# number of rings (size 3 to 8) (size 9 to 14) (size 15 to 20)
#    0.000    0.000    2.222    6.667    6.222    7.111 
#    0.000    0.000    0.000    0.000    0.000    0.000 
#    0.000    0.000    0.000    0.000    0.000    0.000 
#
# Total GULP energy -100878.480086 kJ/mol
# GULP energy per Si atom -5604.360005 kJ/mol
# Density = 2.406259 g / cm^3
# Si number density = 24.117483 Si / 1000 Ang^3
#
#
#
# Elastic Constant Matrix: (Units=GPa)
#
#
# Indices 1 2 3 4 5 6 
#
# 1 115.8079 54.1947 68.9242 0.0000 2.8652 0.0000
# 2 54.1947 120.8779 44.7855 0.0000 10.5019 0.0000
# 3 68.9242 44.7855 170.8875 0.0000 -14.6742 0.0000
# 4 0.0000 0.0000 0.0000 29.5659 0.0000 -7.9190
# 5 2.8652 10.5019 -14.6742 0.0000 57.4001 0.0000
# 6 0.0000 0.0000 0.0000 -7.9190 0.0000 29.6048
#
#
#
# Elastic Compliance Matrix: (Units=1/GPa)
#
#
# Indices 1 2 3 4 5 6 
#
# 1 0.013202 -0.004241 -0.004297 0.000000 -0.000982 0.000000
# 2 -0.004241 0.010844 -0.001312 0.000000 -0.002108 0.000000
# 3 -0.004297 -0.001312 0.008147 0.000000 0.002537 0.000000
# 4 0.000000 0.000000 0.000000 0.036433 0.000000 0.009746
# 5 -0.000982 -0.002108 0.002537 0.000000 0.018505 0.000000
# 6 0.000000 0.000000 0.000000 0.009746 0.000000 0.036385
#
#
# Mechanical properties :
#
#
# Convention : Reuss Voigt Hill
#
# Bulk Modulus (GPa) = 80.06192 82.59800 81.32996
# Shear Modulus (GPa) = 33.92574 39.29209 36.60891
#
# Velocity S-wave (km/s) = 3.75465 4.04071 3.90030
# Velocity P-wave (km/s) = 7.21562 7.48948 7.35383
#
# Compressibility (1/GPa) = 0.01249033
#
# Stress axis : x y z
#
# Youngs Moduli (GPa) = 75.74733 92.21941 122.74705
#
# Poissons Ratio (x) = 0.39114 0.52749
# Poissons Ratio (y) = 0.32128 0.16106
# Poissons Ratio (z) = 0.32552 0.12101
#
# Static dielectric constant tensor:
#      x y z
#    x -2.660660 0.000000 2.837040 
#    y 0.000000 1.979990 0.000000 
#    z 2.837040 0.000000 0.113790 
# 
# From -- ./inp_files/60551.got.cif
#   From: 2010.05.17/outbox.cif.g08.bks.cpg/sg13_31_cif.got.tgz:60551.got - 2010.06.03 16:44:36.
