data_PCOD9238796
_publ_section_title
;
Structure prediction by ZEFSAII (Michael W. Deem and Ramdas Pophale) SiO2 
 PCOD9238796
Probable space group: P 2/C
;
_chemical_formula_sum "Si O2"
_cell_formula_units_Z 18
_cell_length_a 8.382498
_cell_length_b 5.956431
_cell_length_c 21.048451
_cell_angle_alpha 90.000000
_cell_angle_beta 135.600980
_cell_angle_gamma 90.000000
_cell_volume 735.294382
_symmetry_space_group_name_H-M "P 2/C"
_symmetry_group_IT_number 13
_symmetry_cell_setting 'monoclinic'
loop_
_space_group_symop_operation_xyz
x,y,z
-x,y,1/2-z
-x,-y,-z
x,-y,1/2+z
loop_
_atom_site_type_symbol
_atom_site_label
_atom_site_fract_x
_atom_site_fract_y
_atom_site_fract_z
Si Si1 0.756456 0.893642 0.412340
Si Si2 0.316643 0.555364 0.000877
Si Si3 0.000000 0.030036 0.750000
Si Si4 0.867075 0.386731 0.820345
Si Si5 0.429766 0.253999 0.336494
O O1 0.662835 0.774107 0.449694
O O2 0.788655 0.722264 0.363784
O O3 0.565926 0.068928 0.336433
O O4 0.000000 0.000000 0.500000
O O5 0.366300 0.350963 0.062563
O O6 0.500000 0.500000 0.000000
O O7 0.073065 0.549139 0.898862
O O8 0.037334 0.194661 0.700145
O O9 0.223364 0.870717 0.814801
O O10 0.681405 0.539047 0.732400
#
# Coordination Sequence:
#
# PCOD9238796 Si02
#       5
#     4   4   2   4   4
#     4  12  29  52  79 119 161 219 273 332 420 486
#     4  12  27  50  79 114 162 211 271 336 404 490
#     4  12  28  50  80 124 156 220 274 328 418 482
#     4  12  28  51  79 120 163 205 280 334 403 494
#     4  12  28  50  80 113 163 213 264 343 402 480
#
# _framework density 24.479990999999998
#
# number of rings (size 3 to 8) (size 9 to 14) (size 15 to 20)
#    0.000    0.000    2.222    6.667    6.222    7.111 
#    0.000    0.000    0.000    0.000    0.000    0.000 
#    0.000    0.000    0.000    0.000    0.000    0.000 
#
# Total GULP energy -100879.144004 kJ/mol
# GULP energy per Si atom -5604.396889 kJ/mol
# Density = 2.442427 g / cm^3
# Si number density = 24.479991 Si / 1000 Ang^3
#
#
#
# Elastic Constant Matrix: (Units=GPa)
#
#
# Indices 1 2 3 4 5 6 
#
# 1 130.3081 53.3636 43.1298 0.0000 -3.0287 0.0000
# 2 53.3636 96.6230 29.0682 0.0000 -4.3128 0.0000
# 3 43.1298 29.0682 89.2466 0.0000 0.8663 0.0000
# 4 0.0000 0.0000 0.0000 27.9945 0.0000 13.3619
# 5 -3.0287 -4.3128 0.8663 0.0000 46.6749 0.0000
# 6 0.0000 0.0000 0.0000 13.3619 0.0000 60.1700
#
#
#
# Elastic Compliance Matrix: (Units=1/GPa)
#
#
# Indices 1 2 3 4 5 6 
#
# 1 0.010906 -0.004903 -0.003677 0.000000 0.000323 0.000000
# 2 -0.004903 0.013738 -0.002115 0.000000 0.000990 0.000000
# 3 -0.003677 -0.002115 0.013677 0.000000 -0.000688 0.000000
# 4 0.000000 0.000000 0.000000 0.039956 0.000000 -0.008873
# 5 0.000323 0.000990 -0.000688 0.000000 0.021550 0.000000
# 6 0.000000 0.000000 0.000000 -0.008873 0.000000 0.018590
#
#
# Mechanical properties :
#
#
# Convention : Reuss Voigt Hill
#
# Bulk Modulus (GPa) = 59.05831 63.03344 61.04587
# Shear Modulus (GPa) = 34.37581 39.67563 37.02572
#
# Velocity S-wave (km/s) = 3.75139 4.03021 3.89329
# Velocity P-wave (km/s) = 6.55297 6.88924 6.72320
#
# Compressibility (1/GPa) = 0.01693242
#
# Stress axis : x y z
#
# Youngs Moduli (GPa) = 91.68875 72.79236 73.11389
#
# Poissons Ratio (x) = 0.35689 0.26884
# Poissons Ratio (y) = 0.44954 0.15461
# Poissons Ratio (z) = 0.33713 0.15393
#
# Static dielectric constant tensor:
#      x y z
#    x 2.044130 0.000000 -0.117530 
#    y 0.000000 1.993870 0.000000 
#    z -0.117530 0.000000 2.011140 
# 
# From -- ./inp_files/74730.got.cif
#   From: 2010.05.17/outbox.cif.g08.bks.cpg/sg13_38_cif.got.tgz:74730.got - 2010.06.03 16:44:36.
