data_PCOD9238500
_publ_section_title
;
Structure prediction by ZEFSAII (Michael W. Deem and Ramdas Pophale) SiO2 
 PCOD9238500
Probable space group: P 2/C
;
_chemical_formula_sum "Si O2"
_cell_formula_units_Z 16
_cell_length_a 9.458238
_cell_length_b 11.647924
_cell_length_c 7.429075
_cell_angle_alpha 90.000000
_cell_angle_beta 120.069253
_cell_angle_gamma 90.000000
_cell_volume 708.305559
_symmetry_space_group_name_H-M "P 2/C"
_symmetry_group_IT_number 13
_symmetry_cell_setting 'monoclinic'
loop_
_space_group_symop_operation_xyz
x,y,z
-x,y,1/2-z
-x,-y,-z
x,-y,1/2+z
loop_
_atom_site_type_symbol
_atom_site_label
_atom_site_fract_x
_atom_site_fract_y
_atom_site_fract_z
Si Si1 0.516513 0.634374 0.473940
Si Si2 0.253295 0.821100 0.432369
Si Si3 0.310187 0.927728 0.101078
Si Si4 0.153765 0.756205 0.730227
O O1 0.500000 0.649911 0.250000
O O2 0.500000 0.500000 0.500000
O O3 0.385236 0.719899 0.483205
O O4 0.695735 0.670347 0.651941
O O5 0.216238 0.874531 0.212611
O O6 0.126353 0.774196 0.499908
O O7 0.316072 0.936484 0.572299
O O8 0.500000 0.894753 0.250000
O O9 0.223081 0.870189 0.874582
O O10 0.000000 0.718612 0.750000
#
# Coordination Sequence:
#
# PCOD9238500 Si02
#       4
#     4   4   4   4
#     4  12  25  49  76 101 132 185 243 284 335 417
#     4  12  23  43  73 100 139 187 239 281 336 413
#     4  12  22  40  70 100 139 183 238 277 339 414
#     4  12  26  43  67 106 144 176 226 289 357 410
#
# _framework density 22.589120999999999
#
# number of rings (size 3 to 8) (size 9 to 14) (size 15 to 20)
#    0.000    0.000    7.500    4.500    0.000    2.000 
#    0.000    5.000    0.000    0.000    0.000    0.000 
#    0.000    0.000    0.000    0.000    0.000    0.000 
#
# Total GULP energy -89367.353882 kJ/mol
# GULP energy per Si atom -5585.459618 kJ/mol
# Density = 2.253771 g / cm^3
# Si number density = 22.589121 Si / 1000 Ang^3
#
#
#
# Elastic Constant Matrix: (Units=GPa)
#
#
# Indices 1 2 3 4 5 6 
#
# 1 167.8260 68.7191 51.9759 0.0000 -36.5056 0.0000
# 2 68.7191 183.6238 20.7976 0.0000 -12.7222 0.0000
# 3 51.9759 20.7976 90.7709 0.0000 -48.7865 0.0000
# 4 0.0000 0.0000 0.0000 27.0612 0.0000 -17.2956
# 5 -36.5056 -12.7222 -48.7865 0.0000 47.7339 0.0000
# 6 0.0000 0.0000 0.0000 -17.2956 0.0000 54.4029
#
#
#
# Elastic Compliance Matrix: (Units=1/GPa)
#
#
# Indices 1 2 3 4 5 6 
#
# 1 0.008548 -0.002687 -0.002552 0.000000 0.003213 0.000000
# 2 -0.002687 0.006439 -0.000264 0.000000 -0.000608 0.000000
# 3 -0.002552 -0.000264 0.025410 0.000000 0.023948 0.000000
# 4 0.000000 0.000000 0.000000 0.046377 0.000000 0.014744
# 5 0.003213 -0.000608 0.023948 0.000000 0.047720 0.000000
# 6 0.000000 0.000000 0.000000 0.014744 0.000000 0.023069
#
#
# Mechanical properties :
#
#
# Convention : Reuss Voigt Hill
#
# Bulk Modulus (GPa) = 34.02420 80.57844 57.30132
# Shear Modulus (GPa) = 28.03211 45.88813 36.96012
#
# Velocity S-wave (km/s) = 3.52654 4.51202 4.04937
# Velocity P-wave (km/s) = 5.62822 7.93053 6.87642
#
# Compressibility (1/GPa) = 0.02939085
#
# Stress axis : x y z
#
# Youngs Moduli (GPa) = 116.98338 155.29527 39.35461
#
# Poissons Ratio (x) = 0.41734 0.10045
# Poissons Ratio (y) = 0.31438 0.01037
# Poissons Ratio (z) = 0.29859 0.04093
#
# Static dielectric constant tensor:
#      x y z
#    x 1.892630 0.000000 -0.032550 
#    y 0.000000 1.827190 0.000000 
#    z -0.032550 0.000000 1.841660 
# 
# From -- ./inp_files/11922.got.cif
#   From: 2010.05.17/outbox.cif.g08.bks.cpg/sg13_6_cif.got.tgz:11922.got - 2010.06.03 16:44:36.
