data_PCOD9238114
_publ_section_title
;
Structure prediction by ZEFSAII (Michael W. Deem and Ramdas Pophale) SiO2 
 PCOD9238114
Probable space group: P 2/C
;
_chemical_formula_sum "Si O2"
_cell_formula_units_Z 20
_cell_length_a 16.194595
_cell_length_b 5.182854
_cell_length_c 9.002894
_cell_angle_alpha 90.000000
_cell_angle_beta 86.055790
_cell_angle_gamma 90.000000
_cell_volume 753.861140
_symmetry_space_group_name_H-M "P 2/C"
_symmetry_group_IT_number 13
_symmetry_cell_setting 'monoclinic'
loop_
_space_group_symop_operation_xyz
x,y,z
-x,y,1/2-z
-x,-y,-z
x,-y,1/2+z
loop_
_atom_site_type_symbol
_atom_site_label
_atom_site_fract_x
_atom_site_fract_y
_atom_site_fract_z
Si Si1 0.051875 0.845461 0.870236
Si Si2 0.558689 0.245557 0.480958
Si Si3 0.811543 0.820762 0.231059
Si Si4 0.791300 0.547825 0.506538
Si Si5 0.339375 0.106489 0.314688
O O1 0.100442 0.054647 0.764816
O O2 0.000000 0.693722 0.750000
O O3 0.126192 0.688092 0.938757
O O4 0.000000 0.000000 0.000000
O O5 0.500000 0.500000 0.500000
O O6 0.621897 0.143741 0.603740
O O7 0.500000 0.000000 0.500000
O O8 0.599823 0.239624 0.311728
O O9 0.798489 0.570818 0.330884
O O10 0.799897 0.739346 0.062995
O O11 0.735869 0.003013 0.275599
O O12 0.706723 0.689632 0.570264
#
# Coordination Sequence:
#
# PCOD9238114 Si02
#       5
#     4   4   4   4   4
#     4  11  24  45  67 101 154 194 255 324 389 470
#     4  12  30  51  80 117 158 207 264 336 415 480
#     4  11  26  44  73 107 145 206 257 314 400 474
#     4  11  26  44  73 106 146 206 255 316 397 473
#     4  11  27  50  75 109 157 202 260 322 392 504
#
# _framework density 26.530087999999999
#
# number of rings (size 3 to 8) (size 9 to 14) (size 15 to 20)
#    0.000    0.800    4.000    0.600   11.200    3.200 
#    0.000    0.000    0.000    0.000    0.000    0.000 
#    0.000    0.000    0.000    0.000    0.000    0.000 
#
# Total GULP energy -111825.525387 kJ/mol
# GULP energy per Si atom -5591.276269 kJ/mol
# Density = 2.646970 g / cm^3
# Si number density = 26.530088 Si / 1000 Ang^3
#
#
#
# Elastic Constant Matrix: (Units=GPa)
#
#
# Indices 1 2 3 4 5 6 
#
# 1 151.7146 51.5075 57.3604 0.0000 -19.0601 0.0000
# 2 51.5075 108.2563 15.7789 0.0000 -0.5593 0.0000
# 3 57.3604 15.7789 109.7515 0.0000 1.0664 0.0000
# 4 0.0000 0.0000 0.0000 43.6930 0.0000 -3.0940
# 5 -19.0601 -0.5593 1.0664 0.0000 33.8231 0.0000
# 6 0.0000 0.0000 0.0000 -3.0940 0.0000 39.1238
#
#
#
# Elastic Compliance Matrix: (Units=1/GPa)
#
#
# Indices 1 2 3 4 5 6 
#
# 1 0.010749 -0.004346 -0.005053 0.000000 0.006145 0.000000
# 2 -0.004346 0.011194 0.000684 0.000000 -0.002286 0.000000
# 3 -0.005053 0.000684 0.011685 0.000000 -0.003204 0.000000
# 4 0.000000 0.000000 0.000000 0.023016 0.000000 0.001820
# 5 0.006145 -0.002286 -0.003204 0.000000 0.033092 0.000000
# 6 0.000000 0.000000 0.000000 0.001820 0.000000 0.025704
#
#
# Mechanical properties :
#
#
# Convention : Reuss Voigt Hill
#
# Bulk Modulus (GPa) = 61.73340 68.77955 65.25647
# Shear Modulus (GPa) = 36.16166 39.66636 37.91401
#
# Velocity S-wave (km/s) = 3.69595 3.87091 3.78444
# Velocity P-wave (km/s) = 6.44462 6.77938 6.61412
#
# Compressibility (1/GPa) = 0.01619869
#
# Stress axis : x y z
#
# Youngs Moduli (GPa) = 93.02995 89.33636 85.57953
#
# Poissons Ratio (x) = 0.38827 0.43242
# Poissons Ratio (y) = 0.40432 -0.05857
# Poissons Ratio (z) = 0.47006 -0.06114
#
# Static dielectric constant tensor:
#      x y z
#    x 2.123520 0.000000 0.072510 
#    y 0.000000 2.063440 0.000000 
#    z 0.072510 0.000000 2.048770 
# 
# From -- ./inp_files/20472.got.cif
#   From: 2010.05.17/outbox.cif.g08.bks.cpg/sg13_11_cif.got.tgz:20472.got - 2010.06.03 16:44:36.
