data_PCOD9238179
_publ_section_title
;
Structure prediction by ZEFSAII (Michael W. Deem and Ramdas Pophale) SiO2 
 PCOD9238179
Probable space group: P 2/C
;
_chemical_formula_sum "Si O2"
_cell_formula_units_Z 26
_cell_length_a 6.477108
_cell_length_b 10.908976
_cell_length_c 19.484435
_cell_angle_alpha 90.000000
_cell_angle_beta 61.396938
_cell_angle_gamma 90.000000
_cell_volume 1208.721874
_symmetry_space_group_name_H-M "P 2/C"
_symmetry_group_IT_number 13
_symmetry_cell_setting 'monoclinic'
loop_
_space_group_symop_operation_xyz
x,y,z
-x,y,1/2-z
-x,-y,-z
x,-y,1/2+z
loop_
_atom_site_type_symbol
_atom_site_label
_atom_site_fract_x
_atom_site_fract_y
_atom_site_fract_z
Si Si1 0.980743 0.524236 0.170839
Si Si2 0.719934 0.271186 0.950973
Si Si3 0.730587 0.853811 0.312160
Si Si4 0.576271 0.128026 0.312894
Si Si5 0.926684 0.868386 0.537555
Si Si6 0.217881 0.274705 0.100516
Si Si7 0.500000 0.660169 0.250000
O O1 0.170449 0.617515 0.108945
O O2 0.048915 0.391556 0.131522
O O3 0.000000 0.521463 0.250000
O O4 0.721806 0.575696 0.195554
O O5 0.690422 0.162047 0.899855
O O6 0.906691 0.227364 0.978264
O O7 0.473400 0.302944 0.026554
O O8 0.572633 0.752525 0.299406
O O9 0.000000 0.825075 0.250000
O O10 0.680466 0.990898 0.293983
O O11 0.500000 0.172238 0.250000
O O12 0.335937 0.119347 0.392963
O O13 0.739745 0.217935 0.330858
O O14 0.095639 0.823375 0.570653
O O15 0.000000 0.000000 0.500000
#
# Coordination Sequence:
#
# PCOD9238179 Si02
#       7
#     4   4   4   4   4   4   2
#     4  12  27  47  74 106 145 190 249 299 359 437
#     4  11  24  47  70 105 146 191 242 294 368 427
#     4  12  24  43  75 111 144 187 247 305 361 430
#     4  11  27  43  72 108 143 192 241 303 366 432
#     4  11  26  45  71 107 145 192 238 297 368 434
#     4  11  28  48  72 103 151 194 239 301 366 438
#     4  12  24  44  72 114 140 190 244 310 356 434
#
# _framework density 21.510325999999999
#
# number of rings (size 3 to 8) (size 9 to 14) (size 15 to 20)
#    0.000    0.615    3.846    2.308   10.769    5.538 
#    0.000    0.000    0.000    0.000    0.000    0.000 
#    0.000    0.000    0.000    0.000    0.000    0.000 
#
# Total GULP energy -145558.661132 kJ/mol
# GULP energy per Si atom -5598.410044 kJ/mol
# Density = 2.146137 g / cm^3
# Si number density = 21.510326 Si / 1000 Ang^3
#
#
#
# Elastic Constant Matrix: (Units=GPa)
#
#
# Indices 1 2 3 4 5 6 
#
# 1 108.1527 36.7090 30.7872 0.0000 5.7653 0.0000
# 2 36.7090 96.7074 30.6410 0.0000 -8.8256 0.0000
# 3 30.7872 30.6410 82.2567 0.0000 0.1470 0.0000
# 4 0.0000 0.0000 0.0000 4.3590 0.0000 -35.6862
# 5 5.7653 -8.8256 0.1470 0.0000 44.5949 0.0000
# 6 0.0000 0.0000 0.0000 -35.6862 0.0000 -9.4077
#
#
#
# Elastic Compliance Matrix: (Units=1/GPa)
#
#
# Indices 1 2 3 4 5 6 
#
# 1 0.011420 -0.003606 -0.002927 0.000000 -0.002180 0.000000
# 2 -0.003606 0.013111 -0.003540 0.000000 0.003073 0.000000
# 3 -0.002927 -0.003540 0.014572 0.000000 -0.000370 0.000000
# 4 0.000000 0.000000 0.000000 0.007157 0.000000 -0.027148
# 5 -0.002180 0.003073 -0.000370 0.000000 0.023315 0.000000
# 6 0.000000 0.000000 0.000000 -0.027148 0.000000 -0.003316
#
#
# Mechanical properties :
#
#
# Convention : Reuss Voigt Hill
#
# Bulk Modulus (GPa) = 52.75151 53.71012 53.23082
# Shear Modulus (GPa) = 53.92361 20.50790 37.21576
#
# Velocity S-wave (km/s) = 5.01230 3.09106 4.16400
# Velocity P-wave (km/s) = 7.62067 6.14518 6.92235
#
# Compressibility (1/GPa) = 0.01895680
#
# Stress axis : x y z
#
# Youngs Moduli (GPa) = 87.56818 76.26972 68.62584
#
# Poissons Ratio (x) = 0.27506 0.20086
# Poissons Ratio (y) = 0.31581 0.24292
# Poissons Ratio (z) = 0.25630 0.26997
#
# Static dielectric constant tensor:
#      x y z
#    x 1.784040 0.000000 0.023410 
#    y 0.000000 1.781620 0.000000 
#    z 0.023410 0.000000 1.773790 
# 
# From -- ./inp_files/73346.got.cif
#   From: 2010.05.17/outbox.cif.g08.bks.cpg/sg13_37_cif.got.tgz:73346.got - 2010.06.03 16:44:36.
