data_PCOD9238941
_publ_section_title
;
Structure prediction by ZEFSAII (Michael W. Deem and Ramdas Pophale) SiO2 
 PCOD9238941
Probable space group: P 2/C
;
_chemical_formula_sum "Si O2"
_cell_formula_units_Z 30
_cell_length_a 21.000000
_cell_length_b 9.000000
_cell_length_c 18.000000
_cell_angle_alpha 90.000000
_cell_angle_beta 150.000000
_cell_angle_gamma 90.000000
_cell_volume 1701.000000
_symmetry_space_group_name_H-M "P 2/C"
_symmetry_group_IT_number 13
_symmetry_cell_setting 'monoclinic'
loop_
_space_group_symop_operation_xyz
x,y,z
-x,y,1/2-z
-x,-y,-z
x,-y,1/2+z
loop_
_atom_site_type_symbol
_atom_site_label
_atom_site_fract_x
_atom_site_fract_y
_atom_site_fract_z
Si Si1 0.019470 0.357154 0.916830
Si Si2 0.000000 0.560379 0.750000
Si Si3 0.620568 0.399597 0.728240
Si Si4 0.666690 0.627678 0.520168
Si Si5 0.802815 0.473993 0.786144
Si Si6 0.643409 0.358476 0.378334
Si Si7 0.132283 0.871214 0.428689
Si Si8 0.770818 0.793079 0.495037
O O1 0.088170 0.204800 0.961901
O O2 0.996323 0.454076 0.818449
O O3 0.886744 0.350245 0.827914
O O4 0.111268 0.450985 0.063444
O O5 0.883395 0.673199 0.621117
O O6 0.471429 0.366863 0.582026
O O7 0.680027 0.415593 0.706685
O O8 0.642524 0.549917 0.799622
O O9 0.690815 0.270118 0.845245
O O10 0.765759 0.593869 0.685746
O O11 0.667154 0.484431 0.465176
O O12 0.692760 0.768625 0.493188
O O13 0.500000 0.299878 0.250000
O O14 0.755182 0.236651 0.488537
O O15 0.000000 0.866126 0.250000
O O16 0.181303 0.040934 0.473600
#
# Coordination Sequence:
#
# PCOD9238941 Si02
#       8
#     4   2   4   4   4   4   4   4
#     4  11  22  35  64  86 119 154 196 246 298 352
#     4  12  18  40  60  80 116 150 202 248 278 342
#     4  10  20  38  60  87 115 158 200 244 293 349
#     4  10  20  37  62  87 115 152 207 251 285 352
#     4  11  20  34  61  93 118 151 198 244 302 346
#     4   9  19  37  60  85 113 153 208 249 286 346
#     4  12  22  36  59  89 119 154 196 252 302 345
#     4  11  22  36  58  86 117 153 202 243 294 351
#
# _framework density 17.636683999999999
#
# number of rings (size 3 to 8) (size 9 to 14) (size 15 to 20)
#    0.000    1.333    5.333    3.200    0.000    1.067 
#    0.000    0.667    2.933    0.800    0.000    0.000 
#    0.000    0.000    0.000    0.000    0.000    0.000 
#
# Total GULP energy -167308.356125 kJ/mol
# GULP energy per Si atom -5576.945204 kJ/mol
# Density = 1.759654 g / cm^3
# Si number density = 17.636684 Si / 1000 Ang^3
#
#
#
# Elastic Constant Matrix: (Units=GPa)
#
#
# Indices 1 2 3 4 5 6 
#
# 1 129.1406 43.8604 18.4246 0.0000 12.5897 0.0000
# 2 43.8604 101.2767 24.6909 0.0000 12.7100 0.0000
# 3 18.4246 24.6909 65.1681 0.0000 6.2959 0.0000
# 4 0.0000 0.0000 0.0000 22.8148 0.0000 8.3996
# 5 12.5897 12.7100 6.2959 0.0000 39.3635 0.0000
# 6 0.0000 0.0000 0.0000 8.3996 0.0000 20.4550
#
#
#
# Elastic Compliance Matrix: (Units=1/GPa)
#
#
# Indices 1 2 3 4 5 6 
#
# 1 0.009263 -0.003532 -0.001122 0.000000 -0.001643 0.000000
# 2 -0.003532 0.012561 -0.003532 0.000000 -0.002361 0.000000
# 3 -0.001122 -0.003532 0.017120 0.000000 -0.001239 0.000000
# 4 0.000000 0.000000 0.000000 0.051638 0.000000 -0.021204
# 5 -0.001643 -0.002361 -0.001239 0.000000 0.026890 0.000000
# 6 0.000000 0.000000 0.000000 -0.021204 0.000000 0.057595
#
#
# Mechanical properties :
#
#
# Convention : Reuss Voigt Hill
#
# Bulk Modulus (GPa) = 44.30339 52.17079 48.23709
# Shear Modulus (GPa) = 25.13011 30.43397 27.78204
#
# Velocity S-wave (km/s) = 3.77885 4.15855 3.97324
# Velocity P-wave (km/s) = 6.64937 7.25969 6.96122
#
# Compressibility (1/GPa) = 0.02257163
#
# Stress axis : x y z
#
# Youngs Moduli (GPa) = 107.95267 79.61095 58.41044
#
# Poissons Ratio (x) = 0.28119 0.06554
# Poissons Ratio (y) = 0.38129 0.20633
# Poissons Ratio (z) = 0.12113 0.28122
#
# Static dielectric constant tensor:
#      x y z
#    x 1.642810 0.000000 0.041260 
#    y 0.000000 1.568140 0.000000 
#    z 0.041260 0.000000 1.645000 
# 
# From -- ./inp_files/70591.got.cif
#   From: 2010.05.17/outbox.ucp.g08.bks.cvg/sg13_36_cif.got.tgz:70591.got - 2010.06.11 12:23:55.
