data_PCOD9238737
_publ_section_title
;
Structure prediction by ZEFSAII (Michael W. Deem and Ramdas Pophale) SiO2 
 PCOD9238737
Probable space group: P 2/C
;
_chemical_formula_sum "Si O2"
_cell_formula_units_Z 12
_cell_length_a 8.012102
_cell_length_b 4.876441
_cell_length_c 12.491794
_cell_angle_alpha 90.000000
_cell_angle_beta 123.592632
_cell_angle_gamma 90.000000
_cell_volume 406.551245
_symmetry_space_group_name_H-M "P 2/C"
_symmetry_group_IT_number 13
_symmetry_cell_setting 'monoclinic'
loop_
_space_group_symop_operation_xyz
x,y,z
-x,y,1/2-z
-x,-y,-z
x,-y,1/2+z
loop_
_atom_site_type_symbol
_atom_site_label
_atom_site_fract_x
_atom_site_fract_y
_atom_site_fract_z
Si Si1 0.563446 0.363926 0.632617
Si Si2 0.888240 0.782990 0.496427
Si Si3 0.162864 0.849426 0.748172
O O1 0.500000 0.500000 0.500000
O O2 0.353859 0.250242 0.600570
O O3 0.683687 0.611476 0.730017
O O4 0.718537 0.119438 0.668892
O O5 0.909436 0.761572 0.644609
O O6 0.000000 0.500000 0.500000
O O7 0.096602 0.991487 0.603064
#
# Coordination Sequence:
#
# PCOD9238737 Si02
#       3
#     4   4   4
#     4  12  26  46  76 107 143 194 249 301 368 448
#     4  12  28  47  71 109 151 189 243 315 374 436
#     4  12  26  45  77 106 144 195 251 299 370 450
#
# _framework density 29.516576000000001
#
# number of rings (size 3 to 8) (size 9 to 14) (size 15 to 20)
#    0.000    0.000    3.333    6.000    4.667    8.000 
#    0.000    0.000    0.000    0.000    0.000    0.000 
#    0.000    0.000    0.000    0.000    0.000    0.000 
#
# Total GULP energy -67142.471857 kJ/mol
# GULP energy per Si atom -5595.205988 kJ/mol
# Density = 2.944940 g / cm^3
# Si number density = 29.516576 Si / 1000 Ang^3
#
#
#
# Elastic Constant Matrix: (Units=GPa)
#
#
# Indices 1 2 3 4 5 6 
#
# 1 234.9509 95.4828 93.9182 0.0000 13.4685 0.0000
# 2 95.4828 189.3521 69.0946 0.0000 21.2433 0.0000
# 3 93.9182 69.0946 281.1759 0.0000 27.5122 0.0000
# 4 0.0000 0.0000 0.0000 87.8317 0.0000 13.7827
# 5 13.4685 21.2433 27.5122 0.0000 68.2203 0.0000
# 6 0.0000 0.0000 0.0000 13.7827 0.0000 100.6965
#
#
#
# Elastic Compliance Matrix: (Units=1/GPa)
#
#
# Indices 1 2 3 4 5 6 
#
# 1 0.005776 -0.002440 -0.001346 0.000000 0.000162 0.000000
# 2 -0.002440 0.006942 -0.000756 0.000000 -0.001375 0.000000
# 3 -0.001346 -0.000756 0.004313 0.000000 -0.001238 0.000000
# 4 0.000000 0.000000 0.000000 0.011635 0.000000 -0.001593
# 5 0.000162 -0.001375 -0.001238 0.000000 0.015554 0.000000
# 6 0.000000 0.000000 0.000000 -0.001593 0.000000 0.010149
#
#
# Mechanical properties :
#
#
# Convention : Reuss Voigt Hill
#
# Bulk Modulus (GPa) = 125.83010 135.83002 130.83006
# Shear Modulus (GPa) = 75.64042 81.14859 78.39450
#
# Velocity S-wave (km/s) = 5.06775 5.24902 5.15918
# Velocity P-wave (km/s) = 8.77300 9.10244 8.93924
#
# Compressibility (1/GPa) = 0.00794722
#
# Stress axis : x y z
#
# Youngs Moduli (GPa) = 173.11719 144.05556 231.85767
#
# Poissons Ratio (x) = 0.35149 0.31201
# Poissons Ratio (y) = 0.42240 0.17536
# Poissons Ratio (z) = 0.23297 0.10895
#
# Static dielectric constant tensor:
#      x y z
#    x 2.349300 0.000000 -0.334370 
#    y 0.000000 2.053740 0.000000 
#    z -0.334370 0.000000 2.622700 
# 
# From -- ./inp_files/44792.got.cif
#   From: 2010.05.17/outbox.cif.g08.bks.cpg/sg13_23_cif.got.tgz:44792.got - 2010.06.03 16:44:36.
