data_PCOD9238934
_publ_section_title
;
Structure prediction by ZEFSAII (Michael W. Deem and Ramdas Pophale) SiO2 
 PCOD9238934
Probable space group: P 2/C
;
_chemical_formula_sum "Si O2"
_cell_formula_units_Z 28
_cell_length_a 15.000000
_cell_length_b 12.000000
_cell_length_c 9.000000
_cell_angle_alpha 90.000000
_cell_angle_beta 90.000000
_cell_angle_gamma 90.000000
_cell_volume 1620.000000
_symmetry_space_group_name_H-M "P 2/C"
_symmetry_group_IT_number 13
_symmetry_cell_setting 'monoclinic'
loop_
_space_group_symop_operation_xyz
x,y,z
-x,y,1/2-z
-x,-y,-z
x,-y,1/2+z
loop_
_atom_site_type_symbol
_atom_site_label
_atom_site_fract_x
_atom_site_fract_y
_atom_site_fract_z
Si Si1 0.214575 0.712330 0.637020
Si Si2 0.000000 0.703863 0.250000
Si Si3 0.109800 0.926401 0.747174
Si Si4 0.757418 0.639817 0.535274
Si Si5 0.095344 0.450955 0.964608
Si Si6 0.369826 0.571311 0.503439
Si Si7 0.139008 0.844097 0.081171
Si Si8 0.500000 0.506232 0.250000
O O1 0.163465 0.832511 0.647977
O O2 0.255125 0.689680 0.800075
O O3 0.136287 0.625969 0.593403
O O4 0.295072 0.668781 0.526562
O O5 0.077207 0.627743 0.322625
O O6 0.047902 0.779561 0.126231
O O7 0.000000 0.920763 0.750000
O O8 0.141598 0.049666 0.693354
O O9 0.134356 0.897060 0.917098
O O10 0.840802 0.556008 0.553634
O O11 0.680002 0.550957 0.492989
O O12 0.786005 0.744580 0.429937
O O13 0.000000 0.500000 0.000000
O O14 0.429656 0.574305 0.353533
O O15 0.439845 0.567091 0.638683
#
# Coordination Sequence:
#
# PCOD9238934 Si02
#       8
#     4   2   4   4   4   4   4   2
#     4  10  22  35  54  80 119 152 193 245 290 339
#     4  12  22  34  50  80 110 160 214 252 286 336
#     4  11  23  39  55  78 113 166 215 252 276 322
#     4  10  21  37  53  85 121 151 190 249 289 351
#     4  11  21  32  51  77 114 158 196 235 292 346
#     4  10  20  38  59  94 119 147 183 234 308 380
#     4  11  24  37  56  76 113 160 212 252 284 316
#     4  10  20  36  66  88 120 144 178 230 308 400
#
# _framework density 17.283950999999998
#
# number of rings (size 3 to 8) (size 9 to 14) (size 15 to 20)
#    0.000    1.429    3.571    2.143    6.000    0.000 
#    0.000    0.000    0.000    0.000    0.000    6.000 
#    0.000    0.000    0.000    0.000    0.000    0.000 
#
# Total GULP energy -155971.987092 kJ/mol
# GULP energy per Si atom -5570.428110 kJ/mol
# Density = 1.724461 g / cm^3
# Si number density = 17.283951 Si / 1000 Ang^3
#
#
#
# Elastic Constant Matrix: (Units=GPa)
#
#
# Indices 1 2 3 4 5 6 
#
# 1 91.0366 32.4278 24.0100 0.0000 -14.7926 0.0000
# 2 32.4278 115.7159 28.5511 0.0000 -15.2410 0.0000
# 3 24.0100 28.5511 73.1966 0.0000 -13.2721 0.0000
# 4 0.0000 0.0000 0.0000 34.8534 0.0000 -8.7155
# 5 -14.7926 -15.2410 -13.2721 0.0000 36.3944 0.0000
# 6 0.0000 0.0000 0.0000 -8.7155 0.0000 21.8011
#
#
#
# Elastic Compliance Matrix: (Units=1/GPa)
#
#
# Indices 1 2 3 4 5 6 
#
# 1 0.013153 -0.002585 -0.002712 0.000000 0.003274 0.000000
# 2 -0.002585 0.010351 -0.002778 0.000000 0.002271 0.000000
# 3 -0.002712 -0.002778 0.016302 0.000000 0.003679 0.000000
# 4 0.000000 0.000000 0.000000 0.031878 0.000000 0.012744
# 5 0.003274 0.002271 0.003679 0.000000 0.031100 0.000000
# 6 0.000000 0.000000 0.000000 0.012744 0.000000 0.050964
#
#
# Mechanical properties :
#
#
# Convention : Reuss Voigt Hill
#
# Bulk Modulus (GPa) = 42.27406 49.99188 46.13297
# Shear Modulus (GPa) = 28.12399 31.60714 29.86557
#
# Velocity S-wave (km/s) = 4.03820 4.28097 4.16136
# Velocity P-wave (km/s) = 6.80106 7.30905 7.05963
#
# Compressibility (1/GPa) = 0.02365517
#
# Stress axis : x y z
#
# Youngs Moduli (GPa) = 76.02880 96.61073 61.34187
#
# Poissons Ratio (x) = 0.24978 0.16637
# Poissons Ratio (y) = 0.19657 0.17038
# Poissons Ratio (z) = 0.20621 0.26835
#
# Static dielectric constant tensor:
#      x y z
#    x 1.597870 0.000000 -0.011070 
#    y 0.000000 1.600480 0.000000 
#    z -0.011070 0.000000 1.658820 
# 
# From -- ./inp_files/18579.got.cif
#   From: 2010.05.17/outbox.ucp.g08.bks.cvg/sg13_10_cif.got.tgz:18579.got - 2010.06.11 12:23:55.
