data_PCOD9238843
_publ_section_title
;
Structure prediction by ZEFSAII (Michael W. Deem and Ramdas Pophale) SiO2 
 PCOD9238843
Probable space group: P 2/C
;
_chemical_formula_sum "Si O2"
_cell_formula_units_Z 20
_cell_length_a 17.379351
_cell_length_b 7.111276
_cell_length_c 6.592244
_cell_angle_alpha 90.000000
_cell_angle_beta 125.684236
_cell_angle_gamma 90.000000
_cell_volume 661.760591
_symmetry_space_group_name_H-M "P 2/C"
_symmetry_group_IT_number 13
_symmetry_cell_setting 'monoclinic'
loop_
_space_group_symop_operation_xyz
x,y,z
-x,y,1/2-z
-x,-y,-z
x,-y,1/2+z
loop_
_atom_site_type_symbol
_atom_site_label
_atom_site_fract_x
_atom_site_fract_y
_atom_site_fract_z
Si Si1 0.519482 0.226891 0.046075
Si Si2 0.713939 0.823383 0.968990
Si Si3 0.113264 0.315808 0.260781
Si Si4 0.077627 0.753431 0.170975
Si Si5 0.678469 0.741140 0.377416
O O1 0.500000 0.271567 0.250000
O O2 0.632547 0.264358 0.197776
O O3 0.431931 0.316822 0.787929
O O4 0.500000 0.000000 0.000000
O O5 0.824827 0.834188 0.087405
O O6 0.701234 0.730102 0.169215
O O7 0.682742 0.038643 0.940382
O O8 0.084019 0.532581 0.232730
O O9 0.098694 0.228677 0.460742
O O10 0.223826 0.332994 0.377517
O O11 0.036603 0.208614 0.998472
#
# Coordination Sequence:
#
# PCOD9238843 Si02
#       5
#     4   4   4   4   4
#     4   8  14  26  43  62  86 114 140 170 211 254
#     4   9  17  29  46  67  89 113 143 178 214 254
#     4   9  18  32  47  63  86 116 147 178 214 256
#     4   9  18  32  47  63  86 116 147 178 214 256
#     4   9  17  29  46  67  89 113 143 178 214 254
#
# _framework density 30.22241
#
# number of rings (size 3 to 8) (size 9 to 14) (size 15 to 20)
#    0.000    3.200    0.000    0.000    0.000    2.400 
#    0.000    1.000    0.000    0.000    0.000    0.000 
#    0.000    0.000    0.000    0.000    0.000    0.000 
#
# Total GULP energy -111835.992233 kJ/mol
# GULP energy per Si atom -5591.799612 kJ/mol
# Density = 3.015362 g / cm^3
# Si number density = 30.222410 Si / 1000 Ang^3
#
#
#
# Elastic Constant Matrix: (Units=GPa)
#
#
# Indices 1 2 3 4 5 6 
#
# 1 209.5773 19.5184 99.8816 0.0000 102.7185 0.0000
# 2 19.5184 78.5184 15.5740 0.0000 10.6074 0.0000
# 3 99.8816 15.5740 300.9237 0.0000 75.9998 0.0000
# 4 0.0000 0.0000 0.0000 11.0549 0.0000 -14.9011
# 5 102.7185 10.6074 75.9998 0.0000 86.3828 0.0000
# 6 0.0000 0.0000 0.0000 -14.9011 0.0000 29.5322
#
#
#
# Elastic Compliance Matrix: (Units=1/GPa)
#
#
# Indices 1 2 3 4 5 6 
#
# 1 0.011564 -0.000998 -0.000443 0.000000 -0.013239 0.000000
# 2 -0.000998 0.013065 -0.000308 0.000000 -0.000146 0.000000
# 3 -0.000443 -0.000308 0.004299 0.000000 -0.003217 0.000000
# 4 0.000000 0.000000 0.000000 0.282790 0.000000 0.142688
# 5 -0.013239 -0.000146 -0.003217 0.000000 0.030167 0.000000
# 6 0.000000 0.000000 0.000000 0.142688 0.000000 0.105858
#
#
# Mechanical properties :
#
#
# Convention : Reuss Voigt Hill
#
# Bulk Modulus (GPa) = 39.32511 95.44081 67.38296
# Shear Modulus (GPa) = 10.87623 55.66366 33.26995
#
# Velocity S-wave (km/s) = 1.89909 4.29628 3.32149
# Velocity P-wave (km/s) = 4.22479 7.50058 6.08718
#
# Compressibility (1/GPa) = 0.02542905
#
# Stress axis : x y z
#
# Youngs Moduli (GPa) = 86.47337 76.54115 232.63138
#
# Poissons Ratio (x) = 0.07641 0.10311
# Poissons Ratio (y) = 0.08633 0.07161
# Poissons Ratio (z) = 0.03833 0.02356
#
# Static dielectric constant tensor:
#      x y z
#    x 2.590190 0.000000 -0.066970 
#    y 0.000000 2.340590 0.000000 
#    z -0.066970 0.000000 2.429590 
# 
# From -- ./inp_files/17864.got.cif
#   From: 2010.05.17/outbox.cif.g08.bks.cpg/sg13_9_cif.got.tgz:17864.got - 2010.06.03 16:44:36.
