data_PCOD9238516
_publ_section_title
;
Structure prediction by ZEFSAII (Michael W. Deem and Ramdas Pophale) SiO2 
 PCOD9238516
Probable space group: P 2/C
;
_chemical_formula_sum "Si O2"
_cell_formula_units_Z 20
_cell_length_a 16.488268
_cell_length_b 9.599885
_cell_length_c 17.702036
_cell_angle_alpha 90.000000
_cell_angle_beta 21.340524
_cell_angle_gamma 90.000000
_cell_volume 1019.667087
_symmetry_space_group_name_H-M "P 2/C"
_symmetry_group_IT_number 13
_symmetry_cell_setting 'monoclinic'
loop_
_space_group_symop_operation_xyz
x,y,z
-x,y,1/2-z
-x,-y,-z
x,-y,1/2+z
loop_
_atom_site_type_symbol
_atom_site_label
_atom_site_fract_x
_atom_site_fract_y
_atom_site_fract_z
Si Si1 0.161251 0.361619 0.180533
Si Si2 0.682594 0.606717 0.376572
Si Si3 0.564260 0.893283 0.876574
Si Si4 0.028620 0.250000 0.000001
Si Si5 0.522317 0.861619 0.319467
O O1 0.234629 0.521777 0.122294
O O2 0.000000 0.337787 0.250000
O O3 0.054768 0.335418 0.354897
O O4 0.359264 0.250001 0.999999
O O5 0.500000 0.500000 0.500000
O O6 0.565255 0.750000 0.499999
O O7 0.873299 0.651652 0.151106
O O8 0.824487 0.848348 0.651107
O O9 0.479213 0.978223 0.877710
O O10 0.500000 0.000000 0.000000
O O11 0.235437 0.164581 0.854898
O O12 0.500000 0.837788 0.250000
#
# Coordination Sequence:
#
# PCOD9238516 Si02
#       5
#     4   4   4   4   4
#     4  12  25  44  68  98 133 178 225 275 341 407
#     4  12  24  43  68 101 134 172 233 274 334 416
#     4  12  24  43  68 101 134 172 233 274 334 416
#     4  12  22  42  74  94 130 178 220 288 328 400
#     4  12  25  44  68  98 133 178 225 275 341 407
#
# _framework density 19.614243999999999
#
# number of rings (size 3 to 8) (size 9 to 14) (size 15 to 20)
#    0.000    0.000   10.000    1.200    0.000    0.000 
#    3.600    0.000    0.000    0.000    0.000    0.000 
#    0.000    0.000    0.000    0.000    0.000    0.000 
#
# Total GULP energy -111678.123789 kJ/mol
# GULP energy per Si atom -5583.906189 kJ/mol
# Density = 1.956960 g / cm^3
# Si number density = 19.614244 Si / 1000 Ang^3
#
#
#
# Elastic Constant Matrix: (Units=GPa)
#
#
# Indices 1 2 3 4 5 6 
#
# 1 66.5225 40.4274 44.8164 0.0000 -1.7595 0.0000
# 2 40.4274 170.7190 71.8479 0.0000 -2.6028 0.0000
# 3 44.8164 71.8479 129.7805 0.0000 -3.4809 0.0000
# 4 0.0000 0.0000 0.0000 39.0761 0.0000 -0.3294
# 5 -1.7595 -2.6028 -3.4809 0.0000 21.6156 0.0000
# 6 0.0000 0.0000 0.0000 -0.3294 0.0000 35.0993
#
#
#
# Elastic Compliance Matrix: (Units=1/GPa)
#
#
# Indices 1 2 3 4 5 6 
#
# 1 0.020336 -0.002423 -0.005669 0.000000 0.000451 0.000000
# 2 -0.002423 0.007927 -0.003547 0.000000 0.000186 0.000000
# 3 -0.005669 -0.003547 0.011653 0.000000 0.000988 0.000000
# 4 0.000000 0.000000 0.000000 0.025593 0.000000 0.000240
# 5 0.000451 0.000186 0.000988 0.000000 0.046481 0.000000
# 6 0.000000 0.000000 0.000000 0.000240 0.000000 0.028493
#
#
# Mechanical properties :
#
#
# Convention : Reuss Voigt Hill
#
# Bulk Modulus (GPa) = 60.10167 75.68949 67.89558
# Shear Modulus (GPa) = 29.53218 33.15356 31.34287
#
# Velocity S-wave (km/s) = 3.88448 4.11576 4.00179
# Velocity P-wave (km/s) = 7.12933 7.82680 7.48619
#
# Compressibility (1/GPa) = 0.01663847
#
# Stress axis : x y z
#
# Youngs Moduli (GPa) = 49.17328 126.15380 85.81504
#
# Poissons Ratio (x) = 0.30567 0.48649
# Poissons Ratio (y) = 0.11915 0.30436
# Poissons Ratio (z) = 0.27877 0.44742
#
# Static dielectric constant tensor:
#      x y z
#    x 1.687390 0.000000 -0.006770 
#    y 0.000000 1.745390 0.000000 
#    z -0.006770 0.000000 1.769060 
# 
# From -- ./inp_files/60719.got.cif
#   From: 2010.05.17/outbox.cif.g08.bks.cpg/sg13_31_cif.got.tgz:60719.got - 2010.06.03 16:44:36.
