data_PCOD9238245
_publ_section_title
;
Structure prediction by ZEFSAII (Michael W. Deem and Ramdas Pophale) SiO2 
 PCOD9238245
Probable space group: P 2/C
;
_chemical_formula_sum "Si O2"
_cell_formula_units_Z 12
_cell_length_a 11.898351
_cell_length_b 8.082615
_cell_length_c 7.269731
_cell_angle_alpha 90.000000
_cell_angle_beta 138.323994
_cell_angle_gamma 90.000000
_cell_volume 464.862864
_symmetry_space_group_name_H-M "P 2/C"
_symmetry_group_IT_number 13
_symmetry_cell_setting 'monoclinic'
loop_
_space_group_symop_operation_xyz
x,y,z
-x,y,1/2-z
-x,-y,-z
x,-y,1/2+z
loop_
_atom_site_type_symbol
_atom_site_label
_atom_site_fract_x
_atom_site_fract_y
_atom_site_fract_z
Si Si1 0.912433 0.823835 0.900151
Si Si2 0.660456 0.315856 0.818230
Si Si3 0.756343 0.685199 0.046161
O O1 0.814264 0.783619 0.595509
O O2 0.780071 0.811403 0.907611
O O3 0.058022 0.690781 0.129314
O O4 0.000000 0.000000 0.000000
O O5 0.500000 0.284913 0.750000
O O6 0.637114 0.278156 0.574651
O O7 0.708140 0.509503 0.900299
#
# Coordination Sequence:
#
# PCOD9238245 Si02
#       3
#     4   4   4
#     4  11  27  45  70 107 145 195 246 296 361 437
#     4  12  25  45  75 112 144 187 245 303 365 430
#     4  11  25  43  76 102 145 192 244 299 354 430
#
# _framework density 25.814064999999999
#
# number of rings (size 3 to 8) (size 9 to 14) (size 15 to 20)
#    0.000    0.667    3.333    3.000   14.000    0.000 
#    0.000    3.333    0.000    0.000    0.000    0.000 
#    0.000    0.000    0.000    0.000    0.000    0.000 
#
# Total GULP energy -67311.647514 kJ/mol
# GULP energy per Si atom -5609.303959 kJ/mol
# Density = 2.575531 g / cm^3
# Si number density = 25.814065 Si / 1000 Ang^3
#
#
#
# Elastic Constant Matrix: (Units=GPa)
#
#
# Indices 1 2 3 4 5 6 
#
# 1 239.4730 51.4385 28.9984 0.0000 -28.9365 0.0000
# 2 51.4385 68.9189 25.3535 0.0000 -0.8976 0.0000
# 3 28.9984 25.3535 85.1432 0.0000 -14.5079 0.0000
# 4 0.0000 0.0000 0.0000 10.1761 0.0000 -0.3112
# 5 -28.9365 -0.8976 -14.5079 0.0000 60.6473 0.0000
# 6 0.0000 0.0000 0.0000 -0.3112 0.0000 36.2412
#
#
#
# Elastic Compliance Matrix: (Units=1/GPa)
#
#
# Indices 1 2 3 4 5 6 
#
# 1 0.005327 -0.003850 -0.000255 0.000000 0.002424 0.000000
# 2 -0.003850 0.019132 -0.004848 0.000000 -0.002714 0.000000
# 3 -0.000255 -0.004848 0.013805 0.000000 0.003109 0.000000
# 4 0.000000 0.000000 0.000000 0.098295 0.000000 0.000844
# 5 0.002424 -0.002714 0.003109 0.000000 0.018349 0.000000
# 6 0.000000 0.000000 0.000000 0.000844 0.000000 0.027600
#
#
# Mechanical properties :
#
#
# Convention : Reuss Voigt Hill
#
# Bulk Modulus (GPa) = 49.12222 67.23510 58.17866
# Shear Modulus (GPa) = 24.13140 40.59590 32.36365
#
# Velocity S-wave (km/s) = 3.06079 3.96994 3.54463
# Velocity P-wave (km/s) = 5.61799 6.86413 6.27209
#
# Compressibility (1/GPa) = 0.02035739
#
# Stress axis : x y z
#
# Youngs Moduli (GPa) = 187.73840 52.26950 72.43739
#
# Poissons Ratio (x) = 0.20125 0.01845
# Poissons Ratio (y) = 0.72285 0.35117
# Poissons Ratio (z) = 0.04781 0.25340
#
# Static dielectric constant tensor:
#      x y z
#    x 2.154790 0.000000 0.056160 
#    y 0.000000 1.954040 0.000000 
#    z 0.056160 0.000000 2.039870 
# 
# From -- ./inp_files/10702.got.cif
#   From: 2010.05.17/outbox.cif.g08.bks.cpg/sg13_6_cif.got.tgz:10702.got - 2010.06.03 16:44:36.
