data_PCOD9238021
_publ_section_title
;
Structure prediction by ZEFSAII (Michael W. Deem and Ramdas Pophale) SiO2 
 PCOD9238021
Probable space group: P 2/C
;
_chemical_formula_sum "Si O2"
_cell_formula_units_Z 14
_cell_length_a 9.509533
_cell_length_b 8.936684
_cell_length_c 10.159329
_cell_angle_alpha 90.000000
_cell_angle_beta 45.953394
_cell_angle_gamma 90.000000
_cell_volume 620.573580
_symmetry_space_group_name_H-M "P 2/C"
_symmetry_group_IT_number 13
_symmetry_cell_setting 'monoclinic'
loop_
_space_group_symop_operation_xyz
x,y,z
-x,y,1/2-z
-x,-y,-z
x,-y,1/2+z
loop_
_atom_site_type_symbol
_atom_site_label
_atom_site_fract_x
_atom_site_fract_y
_atom_site_fract_z
Si Si1 0.297600 0.677326 0.543111
Si Si2 0.000000 0.587505 0.250000
Si Si3 0.132180 0.047980 0.289932
Si Si4 0.275495 0.243844 0.758787
O O1 0.212107 0.784273 0.713949
O O2 0.530322 0.663501 0.403936
O O3 0.263090 0.757667 0.424588
O O4 0.179453 0.524226 0.604640
O O5 0.083254 0.686272 0.315732
O O6 0.000000 0.016826 0.250000
O O7 0.301631 0.923904 0.188307
O O8 0.000000 0.000000 0.500000
#
# Coordination Sequence:
#
# PCOD9238021 Si02
#       4
#     4   2   4   4
#     4  11  24  43  65  98 133 170 220 272 324 386
#     4  12  22  42  66  94 134 178 216 264 328 388
#     4  12  22  43  70  94 130 174 219 275 328 383
#     4  11  24  41  67  96 132 174 218 270 325 389
#
# _framework density 22.559775999999999
#
# number of rings (size 3 to 8) (size 9 to 14) (size 15 to 20)
#    0.000    0.571    5.714    2.571    0.000    0.000 
#    0.000    0.000    0.000    0.000    0.000    0.000 
#    0.000    0.000    0.000    0.000    0.000    0.000 
#
# Total GULP energy -78164.340508 kJ/mol
# GULP energy per Si atom -5583.167179 kJ/mol
# Density = 2.250843 g / cm^3
# Si number density = 22.559776 Si / 1000 Ang^3
#
#
#
# Elastic Constant Matrix: (Units=GPa)
#
#
# Indices 1 2 3 4 5 6 
#
# 1 113.4644 30.0076 36.7431 0.0000 -1.1331 0.0000
# 2 30.0076 84.3066 24.6763 0.0000 -2.4119 0.0000
# 3 36.7431 24.6763 111.7357 0.0000 -2.3866 0.0000
# 4 0.0000 0.0000 0.0000 21.9010 0.0000 -3.3524
# 5 -1.1331 -2.4119 -2.3866 0.0000 35.5382 0.0000
# 6 0.0000 0.0000 0.0000 -3.3524 0.0000 42.3609
#
#
#
# Elastic Compliance Matrix: (Units=1/GPa)
#
#
# Indices 1 2 3 4 5 6 
#
# 1 0.010493 -0.002914 -0.002808 0.000000 -0.000052 0.000000
# 2 -0.002914 0.013507 -0.002010 0.000000 0.000689 0.000000
# 3 -0.002808 -0.002010 0.010327 0.000000 0.000468 0.000000
# 4 0.000000 0.000000 0.000000 0.046220 0.000000 0.003658
# 5 -0.000052 0.000689 0.000468 0.000000 0.028215 0.000000
# 6 0.000000 0.000000 0.000000 0.003658 0.000000 0.023896
#
#
# Mechanical properties :
#
#
# Convention : Reuss Voigt Hill
#
# Bulk Modulus (GPa) = 53.01601 54.70675 53.86138
# Shear Modulus (GPa) = 32.38143 34.49868 33.44006
#
# Velocity S-wave (km/s) = 3.79273 3.91476 3.85422
# Velocity P-wave (km/s) = 6.53689 6.68850 6.61313
#
# Compressibility (1/GPa) = 0.01886223
#
# Stress axis : x y z
#
# Youngs Moduli (GPa) = 95.30284 74.03695 96.83448
#
# Poissons Ratio (x) = 0.21577 0.27191
# Poissons Ratio (y) = 0.27775 0.19462
# Poissons Ratio (z) = 0.26760 0.14880
#
# Static dielectric constant tensor:
#      x y z
#    x 1.828940 0.000000 -0.065740 
#    y 0.000000 1.929640 0.000000 
#    z -0.065740 0.000000 1.882560 
# 
# From -- ./inp_files/10574.got.cif
#   From: 2010.05.17/outbox.cif.g08.bks.cpg/sg13_6_cif.got.tgz:10574.got - 2010.06.03 16:44:36.
