data_PCOD9238153
_publ_section_title
;
Structure prediction by ZEFSAII (Michael W. Deem and Ramdas Pophale) SiO2 
 PCOD9238153
Probable space group: P 2/C
;
_chemical_formula_sum "Si O2"
_cell_formula_units_Z 16
_cell_length_a 19.104553
_cell_length_b 5.163145
_cell_length_c 9.578096
_cell_angle_alpha 90.000000
_cell_angle_beta 39.113002
_cell_angle_gamma 90.000000
_cell_volume 596.015840
_symmetry_space_group_name_H-M "P 2/C"
_symmetry_group_IT_number 13
_symmetry_cell_setting 'monoclinic'
loop_
_space_group_symop_operation_xyz
x,y,z
-x,y,1/2-z
-x,-y,-z
x,-y,1/2+z
loop_
_atom_site_type_symbol
_atom_site_label
_atom_site_fract_x
_atom_site_fract_y
_atom_site_fract_z
Si Si1 0.699705 0.849976 0.801909
Si Si2 0.603378 0.225136 0.182403
Si Si3 0.175609 0.470175 0.719949
Si Si4 0.894423 0.965805 0.817668
O O1 0.594572 0.816833 0.861771
O O2 0.781958 0.606288 0.703599
O O3 0.784162 0.030376 0.584376
O O4 0.654494 0.987034 0.011612
O O5 0.500000 0.313520 0.250000
O O6 0.701754 0.432884 0.033096
O O7 0.120277 0.192356 0.775379
O O8 0.102863 0.686736 0.757611
O O9 0.000000 0.015496 0.750000
#
# Coordination Sequence:
#
# PCOD9238153 Si02
#       4
#     4   4   4   4
#     4  11  24  47  74 105 151 182 247 293 353 434
#     4  11  26  46  76 106 146 193 239 297 364 421
#     4  11  24  46  69 108 145 184 242 293 349 432
#     4  11  26  47  74 108 145 192 236 297 362 421
#
# _framework density 26.844922
#
# number of rings (size 3 to 8) (size 9 to 14) (size 15 to 20)
#    0.000    1.000    5.000    1.500    7.000    4.000 
#    0.000    0.000    0.000    0.000    0.000    0.000 
#    0.000    0.000    0.000    0.000    0.000    0.000 
#
# Total GULP energy -89391.117800 kJ/mol
# GULP energy per Si atom -5586.944862 kJ/mol
# Density = 2.678382 g / cm^3
# Si number density = 26.844922 Si / 1000 Ang^3
#
#
#
# Elastic Constant Matrix: (Units=GPa)
#
#
# Indices 1 2 3 4 5 6 
#
# 1 240.6851 24.5115 23.5863 0.0000 15.9234 0.0000
# 2 24.5115 131.8692 21.1111 0.0000 18.2705 0.0000
# 3 23.5863 21.1111 17.8284 0.0000 10.2031 0.0000
# 4 0.0000 0.0000 0.0000 24.1450 0.0000 3.6976
# 5 15.9234 18.2705 10.2031 0.0000 55.7433 0.0000
# 6 0.0000 0.0000 0.0000 3.6976 0.0000 24.9638
#
#
#
# Elastic Compliance Matrix: (Units=1/GPa)
#
#
# Indices 1 2 3 4 5 6 
#
# 1 0.004779 0.000167 -0.006376 0.000000 -0.000253 0.000000
# 2 0.000167 0.009431 -0.010715 0.000000 -0.001178 0.000000
# 3 -0.006376 -0.010715 0.082839 0.000000 -0.009829 0.000000
# 4 0.000000 0.000000 0.000000 0.042378 0.000000 -0.006277
# 5 -0.000253 -0.001178 -0.009829 0.000000 0.020197 0.000000
# 6 0.000000 0.000000 0.000000 -0.006277 0.000000 0.040988
#
#
# Mechanical properties :
#
#
# Convention : Reuss Voigt Hill
#
# Bulk Modulus (GPa) = 15.82236 58.75562 37.28899
# Shear Modulus (GPa) = 19.56750 42.38201 30.97475
#
# Velocity S-wave (km/s) = 2.70276 3.97769 3.40051
# Velocity P-wave (km/s) = 3.95559 6.55977 5.41651
#
# Compressibility (1/GPa) = 0.06320171
#
# Stress axis : x y z
#
# Youngs Moduli (GPa) = 209.23313 106.03748 12.07160
#
# Poissons Ratio (x) = -0.01776 0.07697
# Poissons Ratio (y) = -0.03505 0.12934
# Poissons Ratio (z) = 1.33417 1.13616
#
# Static dielectric constant tensor:
#      x y z
#    x 2.248160 0.000000 0.163720 
#    y 0.000000 2.228580 0.000000 
#    z 0.163720 0.000000 2.239030 
# 
# From -- ./inp_files/20312.got.cif
#   From: 2010.05.17/outbox.cif.g08.bks.cpg/sg13_11_cif.got.tgz:20312.got - 2010.06.03 16:44:36.
