data_PCOD9238393
_publ_section_title
;
Structure prediction by ZEFSAII (Michael W. Deem and Ramdas Pophale) SiO2 
 PCOD9238393
Probable space group: P 2/C
;
_chemical_formula_sum "Si O2"
_cell_formula_units_Z 14
_cell_length_a 12.790017
_cell_length_b 9.258904
_cell_length_c 9.576850
_cell_angle_alpha 90.000000
_cell_angle_beta 146.543502
_cell_angle_gamma 90.000000
_cell_volume 625.236455
_symmetry_space_group_name_H-M "P 2/C"
_symmetry_group_IT_number 13
_symmetry_cell_setting 'monoclinic'
loop_
_space_group_symop_operation_xyz
x,y,z
-x,y,1/2-z
-x,-y,-z
x,-y,1/2+z
loop_
_atom_site_type_symbol
_atom_site_label
_atom_site_fract_x
_atom_site_fract_y
_atom_site_fract_z
Si Si1 0.353925 0.467109 0.713310
Si Si2 0.670355 0.135589 0.828216
Si Si3 0.834590 0.921580 0.231490
Si Si4 0.000000 0.337267 0.750000
O O1 0.500000 0.489076 0.750000
O O2 0.272094 0.303892 0.617242
O O3 0.171964 0.570427 0.505160
O O4 0.500000 0.500000 0.000000
O O5 0.500000 0.143808 0.750000
O O6 0.666269 0.092279 0.659165
O O7 0.790721 0.015832 0.045665
O O8 0.904971 0.766182 0.259517
O O9 0.000000 0.000000 0.500000
#
# Coordination Sequence:
#
# PCOD9238393 Si02
#       4
#     4   4   4   2
#     4  11  28  50  76 113 151 199 255 305 378 451
#     4  11  26  46  75 104 151 191 251 310 371 442
#     4  12  25  46  71 109 145 191 249 299 383 441
#     4  12  28  46  84 106 158 196 250 320 372 448
#
# _framework density 22.391528000000001
#
# number of rings (size 3 to 8) (size 9 to 14) (size 15 to 20)
#    0.000    0.571    2.857    2.571   12.000    5.714 
#    0.000    0.000    0.000    0.000    0.000    0.000 
#    0.000    0.000    0.000    0.000    0.000    0.000 
#
# Total GULP energy -78084.872867 kJ/mol
# GULP energy per Si atom -5577.490919 kJ/mol
# Density = 2.234056 g / cm^3
# Si number density = 22.391528 Si / 1000 Ang^3
#
#
#
# Elastic Constant Matrix: (Units=GPa)
#
#
# Indices 1 2 3 4 5 6 
#
# 1 186.6329 62.8916 43.8693 0.0000 -26.0171 0.0000
# 2 62.8916 164.8874 75.4817 0.0000 7.1031 0.0000
# 3 43.8693 75.4817 99.0554 0.0000 -9.3720 0.0000
# 4 0.0000 0.0000 0.0000 30.6296 0.0000 8.5113
# 5 -26.0171 7.1031 -9.3720 0.0000 47.6213 0.0000
# 6 0.0000 0.0000 0.0000 8.5113 0.0000 44.2298
#
#
#
# Elastic Compliance Matrix: (Units=1/GPa)
#
#
# Indices 1 2 3 4 5 6 
#
# 1 0.006930 -0.002430 -0.000840 0.000000 0.003983 0.000000
# 2 -0.002430 0.010558 -0.007381 0.000000 -0.004355 0.000000
# 3 -0.000840 -0.007381 0.016460 0.000000 0.003881 0.000000
# 4 0.000000 0.000000 0.000000 0.034493 0.000000 -0.006638
# 5 0.003983 -0.004355 0.003881 0.000000 0.024588 0.000000
# 6 0.000000 0.000000 0.000000 -0.006638 0.000000 0.023886
#
#
# Mechanical properties :
#
#
# Convention : Reuss Voigt Hill
#
# Bulk Modulus (GPa) = 79.09030 90.56230 84.82630
# Shear Modulus (GPa) = 35.10408 42.38500 38.74454
#
# Velocity S-wave (km/s) = 3.96376 4.35547 4.16423
# Velocity P-wave (km/s) = 7.50645 8.11333 7.81578
#
# Compressibility (1/GPa) = 0.01264378
#
# Stress axis : x y z
#
# Youngs Moduli (GPa) = 144.30492 94.71262 60.75496
#
# Poissons Ratio (x) = 0.23015 0.05106
# Poissons Ratio (y) = 0.35066 0.44846
# Poissons Ratio (z) = 0.12129 0.69911
#
# Static dielectric constant tensor:
#      x y z
#    x 1.851050 0.000000 0.080160 
#    y 0.000000 1.831910 0.000000 
#    z 0.080160 0.000000 1.802290 
# 
# From -- ./inp_files/14666.got.cif
#   From: 2010.05.17/outbox.cif.g08.bks.cpg/sg13_8_cif.got.tgz:14666.got - 2010.06.03 16:44:36.
