data_PCOD9238068
_publ_section_title
;
Structure prediction by ZEFSAII (Michael W. Deem and Ramdas Pophale) SiO2 
 PCOD9238068
Probable space group: P 2/C
;
_chemical_formula_sum "Si O2"
_cell_formula_units_Z 16
_cell_length_a 4.739033
_cell_length_b 9.651675
_cell_length_c 14.940686
_cell_angle_alpha 90.000000
_cell_angle_beta 106.874852
_cell_angle_gamma 90.000000
_cell_volume 653.955448
_symmetry_space_group_name_H-M "P 2/C"
_symmetry_group_IT_number 13
_symmetry_cell_setting 'monoclinic'
loop_
_space_group_symop_operation_xyz
x,y,z
-x,y,1/2-z
-x,-y,-z
x,-y,1/2+z
loop_
_atom_site_type_symbol
_atom_site_label
_atom_site_fract_x
_atom_site_fract_y
_atom_site_fract_z
Si Si1 0.500000 0.588842 0.750000
Si Si2 0.000000 0.775760 0.750000
Si Si3 0.054147 0.591571 0.093374
Si Si4 0.855038 0.047441 0.081544
Si Si5 0.466736 0.214850 0.924588
O O1 0.709451 0.683479 0.707853
O O2 0.744780 0.498366 0.822984
O O3 0.058580 0.867472 0.667452
O O4 0.241262 0.732012 0.096328
O O5 0.738262 0.649963 0.093223
O O6 0.000000 0.500000 0.000000
O O7 0.720350 0.917428 0.123562
O O8 0.591068 0.151738 0.028756
O O9 0.000000 0.000000 0.000000
#
# Coordination Sequence:
#
# PCOD9238068 Si02
#       5
#     2   2   4   4   4
#     4  12  28  46  72 108 144 196 258 298 366 458
#     4  12  28  46  74 104 148 186 252 308 370 438
#     4  12  24  44  70 100 146 191 235 304 363 431
#     4  11  25  47  75 111 145 195 243 309 373 442
#     4  11  24  43  71 103 141 186 242 288 372 432
#
# _framework density 24.466498000000001
#
# number of rings (size 3 to 8) (size 9 to 14) (size 15 to 20)
#    0.000    0.500    2.500    5.250    7.000    2.000 
#    0.000    0.000    0.000    0.000    0.000    0.000 
#    0.000    0.000    0.000    0.000    0.000    0.000 
#
# Total GULP energy -89382.923552 kJ/mol
# GULP energy per Si atom -5586.432722 kJ/mol
# Density = 2.441081 g / cm^3
# Si number density = 24.466498 Si / 1000 Ang^3
#
#
#
# Elastic Constant Matrix: (Units=GPa)
#
#
# Indices 1 2 3 4 5 6 
#
# 1 98.4993 19.4083 17.9154 0.0000 8.3120 0.0000
# 2 19.4083 96.3234 55.6073 0.0000 2.3347 0.0000
# 3 17.9154 55.6073 107.0483 0.0000 19.4289 0.0000
# 4 0.0000 0.0000 0.0000 23.4555 0.0000 2.5685
# 5 8.3120 2.3347 19.4289 0.0000 30.1964 0.0000
# 6 0.0000 0.0000 0.0000 2.5685 0.0000 45.3667
#
#
#
# Elastic Compliance Matrix: (Units=1/GPa)
#
#
# Indices 1 2 3 4 5 6 
#
# 1 0.010812 -0.001920 -0.000339 0.000000 -0.002610 0.000000
# 2 -0.001920 0.015683 -0.008719 0.000000 0.004926 0.000000
# 3 -0.000339 -0.008719 0.015611 0.000000 -0.009277 0.000000
# 4 0.000000 0.000000 0.000000 0.042900 0.000000 -0.002429
# 5 -0.002610 0.004926 -0.009277 0.000000 0.039423 0.000000
# 6 0.000000 0.000000 0.000000 -0.002429 0.000000 0.022180
#
#
# Mechanical properties :
#
#
# Convention : Reuss Voigt Hill
#
# Bulk Modulus (GPa) = 49.62512 54.19253 51.90883
# Shear Modulus (GPa) = 28.52539 33.73306 31.12923
#
# Velocity S-wave (km/s) = 3.41823 3.71717 3.57083
# Velocity P-wave (km/s) = 5.99216 6.37346 6.18575
#
# Compressibility (1/GPa) = 0.02015108
#
# Stress axis : x y z
#
# Youngs Moduli (GPa) = 92.48574 63.76416 64.05590
#
# Poissons Ratio (x) = 0.12242 0.02168
# Poissons Ratio (y) = 0.17757 0.55852
# Poissons Ratio (z) = 0.03131 0.55598
#
# Static dielectric constant tensor:
#      x y z
#    x 1.970590 0.000000 -0.010170 
#    y 0.000000 2.010850 0.000000 
#    z -0.010170 0.000000 1.933620 
# 
# From -- ./inp_files/60479.got.cif
#   From: 2010.05.17/outbox.cif.g08.bks.cpg/sg13_31_cif.got.tgz:60479.got - 2010.06.03 16:44:36.
