data_PCOD9238881
_publ_section_title
;
Structure prediction by ZEFSAII (Michael W. Deem and Ramdas Pophale) SiO2 
 PCOD9238881
Probable space group: P 2/C
;
_chemical_formula_sum "Si O2"
_cell_formula_units_Z 28
_cell_length_a 21.000000
_cell_length_b 9.000000
_cell_length_c 24.000000
_cell_angle_alpha 90.000000
_cell_angle_beta 160.000000
_cell_angle_gamma 90.000000
_cell_volume 1551.403370
_symmetry_space_group_name_H-M "P 2/C"
_symmetry_group_IT_number 13
_symmetry_cell_setting 'monoclinic'
loop_
_space_group_symop_operation_xyz
x,y,z
-x,y,1/2-z
-x,-y,-z
x,-y,1/2+z
loop_
_atom_site_type_symbol
_atom_site_label
_atom_site_fract_x
_atom_site_fract_y
_atom_site_fract_z
Si Si1 0.069614 0.693553 0.199939
Si Si2 0.421674 0.794115 0.005772
Si Si3 0.204540 0.153551 0.211869
Si Si4 0.676340 0.699482 0.933548
Si Si5 0.578893 0.133898 0.458447
Si Si6 0.853820 0.200870 0.853943
Si Si7 0.817062 0.561629 0.629646
O O1 0.248197 0.790647 0.366606
O O2 0.057197 0.711787 0.124246
O O3 0.115825 0.530497 0.261065
O O4 0.871294 0.737506 0.063682
O O5 0.299958 0.797857 0.848557
O O6 0.322426 0.686779 0.967040
O O7 0.638913 0.747791 0.180980
O O8 0.420229 0.961963 0.026084
O O9 0.373016 0.189373 0.307170
O O10 0.168747 0.974706 0.180535
O O11 0.002067 0.215324 0.026548
O O12 0.500000 0.665987 0.750000
O O13 0.616268 0.831476 0.925121
O O14 0.724577 0.559362 0.012687
O O15 0.000000 0.622749 0.750000
#
# Coordination Sequence:
#
# PCOD9238881 Si02
#       7
#     4   4   4   4   4   4   4
#     4  10  18  37  58  79 108 149 193 224 271 334
#     4  11  20  38  57  84 120 145 177 233 285 332
#     4  10  19  34  57  86 119 144 177 233 289 318
#     4  10  21  38  58  80 108 148 193 236 270 325
#     4  10  18  35  60  83 109 147 188 226 278 329
#     4  10  19  34  58  87 113 149 184 228 278 334
#     4   9  22  39  56  76 112 155 183 226 288 328
#
# _framework density 18.048175000000001
#
# number of rings (size 3 to 8) (size 9 to 14) (size 15 to 20)
#    0.000    2.000    2.857    3.000    0.000    1.714 
#    5.143    1.429    0.000    0.000    0.000    0.000 
#    0.000    0.000    0.000    0.000    0.000    0.000 
#
# Total GULP energy -155972.278771 kJ/mol
# GULP energy per Si atom -5570.438528 kJ/mol
# Density = 1.800710 g / cm^3
# Si number density = 18.048175 Si / 1000 Ang^3
#
#
#
# Elastic Constant Matrix: (Units=GPa)
#
#
# Indices 1 2 3 4 5 6 
#
# 1 80.1216 33.0239 57.0955 0.0000 10.4685 0.0000
# 2 33.0239 16.5116 21.7392 0.0000 12.0964 0.0000
# 3 57.0955 21.7392 151.1503 0.0000 0.4144 0.0000
# 4 0.0000 0.0000 0.0000 -1.0893 0.0000 11.3536
# 5 10.4685 12.0964 0.4144 0.0000 28.3611 0.0000
# 6 0.0000 0.0000 0.0000 11.3536 0.0000 16.5465
#
#
#
# Elastic Compliance Matrix: (Units=1/GPa)
#
#
# Indices 1 2 3 4 5 6 
#
# 1 0.230103 -0.568167 -0.005634 0.000000 0.157479 0.000000
# 2 -0.568167 1.523740 -0.003326 0.000000 -0.440128 0.000000
# 3 -0.005634 -0.003326 0.009213 0.000000 0.003364 0.000000
# 4 0.000000 0.000000 0.000000 -0.112615 0.000000 0.077273
# 5 0.157479 -0.440128 0.003364 0.000000 0.164803 0.000000
# 6 0.000000 0.000000 0.000000 0.077273 0.000000 0.007414
#
#
# Mechanical properties :
#
#
# Convention : Reuss Voigt Hill
#
# Bulk Modulus (GPa) = 1.64257 52.38896 27.01577
# Shear Modulus (GPa) = 1.57240 17.82531 9.69886
#
# Velocity S-wave (km/s) = 0.93441 3.14610 2.32068
# Velocity P-wave (km/s) = 1.44091 6.50289 4.70977
#
# Compressibility (1/GPa) = 0.60880248
#
# Stress axis : x y z
#
# Youngs Moduli (GPa) = 4.34589 0.65628 108.53890
#
# Poissons Ratio (x) = 0.37288 0.61153
# Poissons Ratio (y) = 2.46919 0.36097
# Poissons Ratio (z) = 0.02449 0.00218
#
# Static dielectric constant tensor:
#      x y z
#    x 1.641610 0.000000 -0.007820 
#    y 0.000000 1.598550 0.000000 
#    z -0.007820 0.000000 1.628510 
# 
# From -- ./inp_files/75296.got.cif
#   From: 2010.05.17/outbox.ucp.g08.bks.cvg/sg13_38_cif.got.tgz:75296.got - 2010.06.11 12:23:55.
