data_PCOD9238117
_publ_section_title
;
Structure prediction by ZEFSAII (Michael W. Deem and Ramdas Pophale) SiO2 
 PCOD9238117
Probable space group: P 2/C
;
_chemical_formula_sum "Si O2"
_cell_formula_units_Z 20
_cell_length_a 10.908355
_cell_length_b 10.694424
_cell_length_c 14.255967
_cell_angle_alpha 90.000000
_cell_angle_beta 29.286588
_cell_angle_gamma 90.000000
_cell_volume 813.543028
_symmetry_space_group_name_H-M "P 2/C"
_symmetry_group_IT_number 13
_symmetry_cell_setting 'monoclinic'
loop_
_space_group_symop_operation_xyz
x,y,z
-x,y,1/2-z
-x,-y,-z
x,-y,1/2+z
loop_
_atom_site_type_symbol
_atom_site_label
_atom_site_fract_x
_atom_site_fract_y
_atom_site_fract_z
Si Si1 0.250411 0.005624 0.602121
Si Si2 0.897721 0.312416 0.018661
Si Si3 0.500000 0.092449 0.250000
Si Si4 0.427222 0.629322 0.098116
Si Si5 0.113071 0.752709 0.770245
Si Si6 0.500000 0.468978 0.750000
O O1 0.091716 0.899731 0.768551
O O2 0.000000 0.092690 0.750000
O O3 0.500000 0.000000 0.500000
O O4 0.397028 0.009420 0.404171
O O5 0.727330 0.188934 0.122073
O O6 0.986502 0.303713 0.067928
O O7 0.729089 0.434617 0.114275
O O8 0.140662 0.330004 0.792607
O O9 0.514255 0.613386 0.147307
O O10 0.500000 0.500000 0.000000
O O11 0.590838 0.727560 0.932190
O O12 0.000000 0.695196 0.750000
#
# Coordination Sequence:
#
# PCOD9238117 Si02
#       6
#     4   4   2   4   4   2
#     4  11  26  48  77 111 151 200 257 320 389 457
#     4  11  25  46  69 107 145 192 253 301 379 460
#     4  11  26  47  80 106 154 197 254 321 384 466
#     4  12  26  42  73 102 146 194 245 306 373 447
#     4  11  25  46  70 105 147 193 251 309 378 452
#     4  11  24  45  68 102 142 191 238 307 370 452
#
# _framework density 24.583826999999999
#
# number of rings (size 3 to 8) (size 9 to 14) (size 15 to 20)
#    0.000    0.800    4.000    1.800    5.600    4.800 
#    0.000    0.000    0.000    0.000    0.000    0.000 
#    0.000    0.000    0.000    0.000    0.000    0.000 
#
# Total GULP energy -111395.756439 kJ/mol
# GULP energy per Si atom -5569.787822 kJ/mol
# Density = 2.452787 g / cm^3
# Si number density = 24.583827 Si / 1000 Ang^3
#
#
#
# Elastic Constant Matrix: (Units=GPa)
#
#
# Indices 1 2 3 4 5 6 
#
# 1 112.3709 6.8021 46.2598 0.0000 1.2016 0.0000
# 2 6.8021 80.9537 30.0670 0.0000 7.6747 0.0000
# 3 46.2598 30.0670 195.9395 0.0000 -4.8208 0.0000
# 4 0.0000 0.0000 0.0000 22.3136 0.0000 -3.0241
# 5 1.2016 7.6747 -4.8208 0.0000 43.8063 0.0000
# 6 0.0000 0.0000 0.0000 -3.0241 0.0000 23.9392
#
#
#
# Elastic Compliance Matrix: (Units=1/GPa)
#
#
# Indices 1 2 3 4 5 6 
#
# 1 0.009870 0.000099 -0.002359 0.000000 -0.000548 0.000000
# 2 0.000099 0.013384 -0.002141 0.000000 -0.002583 0.000000
# 3 -0.002359 -0.002141 0.006016 0.000000 0.001102 0.000000
# 4 0.000000 0.000000 0.000000 0.045596 0.000000 0.005760
# 5 -0.000548 -0.002583 0.001102 0.000000 0.023417 0.000000
# 6 0.000000 0.000000 0.000000 0.005760 0.000000 0.042500
#
#
# Mechanical properties :
#
#
# Convention : Reuss Voigt Hill
#
# Bulk Modulus (GPa) = 48.85469 61.72466 55.28967
# Shear Modulus (GPa) = 31.96759 38.42083 35.19421
#
# Velocity S-wave (km/s) = 3.60995 3.95758 3.78775
# Velocity P-wave (km/s) = 6.10668 6.78569 6.45512
#
# Compressibility (1/GPa) = 0.02046887
#
# Stress axis : x y z
#
# Youngs Moduli (GPa) = 101.31656 74.71368 166.21995
#
# Poissons Ratio (x) = -0.00737 0.39209
# Poissons Ratio (y) = -0.01000 0.35583
# Poissons Ratio (z) = 0.23899 0.15994
#
# Static dielectric constant tensor:
#      x y z
#    x 2.176820 0.000000 -0.189940 
#    y 0.000000 2.320990 0.000000 
#    z -0.189940 0.000000 2.018670 
# 
# From -- ./inp_files/50749.got.cif
#   From: 2010.05.17/outbox.cif.g08.bks.cpg/sg13_26_cif.got.tgz:50749.got - 2010.06.03 16:44:36.
