data_PCOD9238781
_publ_section_title
;
Structure prediction by ZEFSAII (Michael W. Deem and Ramdas Pophale) SiO2 
 PCOD9238781
Probable space group: P 2/C
;
_chemical_formula_sum "Si O2"
_cell_formula_units_Z 18
_cell_length_a 5.719113
_cell_length_b 17.063697
_cell_length_c 7.679985
_cell_angle_alpha 90.000000
_cell_angle_beta 109.210670
_cell_angle_gamma 90.000000
_cell_volume 707.748763
_symmetry_space_group_name_H-M "P 2/C"
_symmetry_group_IT_number 13
_symmetry_cell_setting 'monoclinic'
loop_
_space_group_symop_operation_xyz
x,y,z
-x,y,1/2-z
-x,-y,-z
x,-y,1/2+z
loop_
_atom_site_type_symbol
_atom_site_label
_atom_site_fract_x
_atom_site_fract_y
_atom_site_fract_z
Si Si1 0.995741 0.195255 0.458778
Si Si2 0.500000 0.578089 0.250000
Si Si3 0.500000 0.809006 0.250000
Si Si4 0.000000 0.500000 0.500000
Si Si5 0.368723 0.079666 0.034760
Si Si6 0.302926 0.653663 0.549567
O O1 0.918000 0.105971 0.495355
O O2 0.792465 0.258040 0.469428
O O3 0.000000 0.198162 0.250000
O O4 0.245056 0.225857 0.612508
O O5 0.429350 0.628382 0.400418
O O6 0.734002 0.522386 0.345353
O O7 0.428973 0.863664 0.392721
O O8 0.076769 0.593595 0.521865
O O9 0.500000 0.098309 0.250000
O O10 0.500000 0.000000 0.000000
O O11 0.500000 0.645407 0.750000
#
# Coordination Sequence:
#
# PCOD9238781 Si02
#       6
#     4   2   2   2   4   4
#     4  12  30  56  86 123 177 227 293 361 437 525
#     4  12  30  53  84 121 174 220 300 347 450 508
#     4  12  28  55  84 119 170 226 286 349 446 508
#     4  12  28  54  84 128 166 226 290 354 436 520
#     4  12  26  53  86 127 167 223 281 352 435 521
#     4  12  31  54  85 124 174 229 290 365 430 523
#
# _framework density 25.432756000000001
#
# number of rings (size 3 to 8) (size 9 to 14) (size 15 to 20)
#    0.000    0.000    4.444    2.667    6.222    6.222 
#    4.000    0.000    0.000    0.000    0.000    0.000 
#    0.000    0.000    0.000    0.000    0.000    0.000 
#
# Total GULP energy -100246.773260 kJ/mol
# GULP energy per Si atom -5569.265181 kJ/mol
# Density = 2.537487 g / cm^3
# Si number density = 25.432756 Si / 1000 Ang^3
#
#
#
# Elastic Constant Matrix: (Units=GPa)
#
#
# Indices 1 2 3 4 5 6 
#
# 1 77.5079 59.6967 90.0199 0.0000 14.4518 0.0000
# 2 59.6967 157.7192 49.9304 0.0000 0.9089 0.0000
# 3 90.0199 49.9304 213.0775 0.0000 9.5879 0.0000
# 4 0.0000 0.0000 0.0000 24.5749 0.0000 0.2464
# 5 14.4518 0.9089 9.5879 0.0000 73.2526 0.0000
# 6 0.0000 0.0000 0.0000 0.2464 0.0000 16.5395
#
#
#
# Elastic Compliance Matrix: (Units=1/GPa)
#
#
# Indices 1 2 3 4 5 6 
#
# 1 0.036123 -0.009599 -0.012772 0.000000 -0.005336 0.000000
# 2 -0.009599 0.009400 0.001783 0.000000 0.001544 0.000000
# 3 -0.012772 0.001783 0.009615 0.000000 0.001239 0.000000
# 4 0.000000 0.000000 0.000000 0.040698 0.000000 -0.000606
# 5 -0.005336 0.001544 0.001239 0.000000 0.014523 0.000000
# 6 0.000000 0.000000 0.000000 -0.000606 0.000000 0.060470
#
#
# Mechanical properties :
#
#
# Convention : Reuss Voigt Hill
#
# Bulk Modulus (GPa) = 71.61383 94.17763 82.89573
# Shear Modulus (GPa) = 23.07770 39.45057 31.26414
#
# Velocity S-wave (km/s) = 3.01558 3.94276 3.50992
# Velocity P-wave (km/s) = 6.35171 7.60511 7.00649
#
# Compressibility (1/GPa) = 0.01396378
#
# Stress axis : x y z
#
# Youngs Moduli (GPa) = 27.68299 106.38169 104.00042
#
# Poissons Ratio (x) = 1.02112 1.32828
# Poissons Ratio (y) = 0.26572 -0.18543
# Poissons Ratio (z) = 0.35356 -0.18968
#
# Static dielectric constant tensor:
#      x y z
#    x 1.598910 0.000000 0.204970 
#    y 0.000000 1.903570 0.000000 
#    z 0.204970 0.000000 1.891790 
# 
# From -- ./inp_files/9674.got.cif
#   From: 2010.05.17/outbox.cif.g08.bks.cpg/sg13_5_cif.got.tgz:9674.got - 2010.06.03 16:44:36.
