data_PCOD9238785
_publ_section_title
;
Structure prediction by ZEFSAII (Michael W. Deem and Ramdas Pophale) SiO2 
 PCOD9238785
Probable space group: P 2/C
;
_chemical_formula_sum "Si O2"
_cell_formula_units_Z 18
_cell_length_a 6.966919
_cell_length_b 13.098323
_cell_length_c 9.363448
_cell_angle_alpha 90.000000
_cell_angle_beta 95.513575
_cell_angle_gamma 90.000000
_cell_volume 850.507833
_symmetry_space_group_name_H-M "P 2/C"
_symmetry_group_IT_number 13
_symmetry_cell_setting 'monoclinic'
loop_
_space_group_symop_operation_xyz
x,y,z
-x,y,1/2-z
-x,-y,-z
x,-y,1/2+z
loop_
_atom_site_type_symbol
_atom_site_label
_atom_site_fract_x
_atom_site_fract_y
_atom_site_fract_z
Si Si1 0.740409 0.224114 0.494102
Si Si2 0.543959 0.395690 0.919639
Si Si3 0.852520 0.981638 0.121624
Si Si4 0.500000 0.905778 0.750000
Si Si5 0.959057 0.606705 0.578324
O O1 0.249239 0.365475 0.500694
O O2 0.645593 0.032381 0.152280
O O3 0.636518 0.162948 0.359171
O O4 0.907519 0.297643 0.450453
O O5 0.500000 0.417494 0.750000
O O6 0.500000 0.500000 0.000000
O O7 0.407554 0.302036 0.946868
O O8 0.189583 0.138792 0.890205
O O9 0.000000 0.017088 0.250000
O O10 0.000000 0.000000 0.000000
O O11 0.000000 0.588084 0.750000
O O12 0.000000 0.500000 0.500000
#
# Coordination Sequence:
#
# PCOD9238785 Si02
#       5
#     4   4   4   2   4
#     4  12  29  44  80 107 153 203 249 316 396 450
#     4  12  28  47  75 112 156 199 257 313 386 469
#     4  12  29  50  78 113 154 203 266 322 387 462
#     4  12  28  52  78 116 154 206 264 330 384 468
#     4  12  27  47  76 108 154 198 255 309 381 469
#
# _framework density 21.163827000000001
#
# number of rings (size 3 to 8) (size 9 to 14) (size 15 to 20)
#    0.000    0.000    4.444    3.333   12.444    0.000 
#    0.000    0.000    0.000    0.000    0.000    0.000 
#    0.000    0.000    0.000    0.000    0.000    0.000 
#
# Total GULP energy -100337.650106 kJ/mol
# GULP energy per Si atom -5574.313895 kJ/mol
# Density = 2.111566 g / cm^3
# Si number density = 21.163827 Si / 1000 Ang^3
#
#
#
# Elastic Constant Matrix: (Units=GPa)
#
#
# Indices 1 2 3 4 5 6 
#
# 1 179.5153 76.0304 73.6338 0.0000 -1.5232 0.0000
# 2 76.0304 141.9421 34.7038 0.0000 -28.0142 0.0000
# 3 73.6338 34.7038 156.1463 0.0000 -7.4226 0.0000
# 4 0.0000 0.0000 0.0000 175.5977 0.0000 -106.2747
# 5 -1.5232 -28.0142 -7.4226 0.0000 32.9570 0.0000
# 6 0.0000 0.0000 0.0000 -106.2747 0.0000 145.5071
#
#
#
# Elastic Compliance Matrix: (Units=1/GPa)
#
#
# Indices 1 2 3 4 5 6 
#
# 1 0.008974 -0.004869 -0.003363 0.000000 -0.004482 0.000000
# 2 -0.004869 0.011499 0.000197 0.000000 0.009593 0.000000
# 3 -0.003363 0.000197 0.008033 0.000000 0.001821 0.000000
# 4 0.000000 0.000000 0.000000 0.010206 0.000000 0.007455
# 5 -0.004482 0.009593 0.001821 0.000000 0.038700 0.000000
# 6 0.000000 0.000000 0.000000 0.007455 0.000000 0.012317
#
#
# Mechanical properties :
#
#
# Convention : Reuss Voigt Hill
#
# Bulk Modulus (GPa) = 80.41917 94.03775 87.22846
# Shear Modulus (GPa) = 45.47728 90.36141 67.91934
#
# Velocity S-wave (km/s) = 4.64057 6.54132 5.67114
# Velocity P-wave (km/s) = 8.17276 10.07876 9.17539
#
# Compressibility (1/GPa) = 0.01243485
#
# Stress axis : x y z
#
# Youngs Moduli (GPa) = 111.43094 86.96706 124.48829
#
# Poissons Ratio (x) = 0.42347 0.41863
# Poissons Ratio (y) = 0.54259 -0.02448
# Poissons Ratio (z) = 0.37472 -0.01710
#
# Static dielectric constant tensor:
#      x y z
#    x 1.646990 0.000000 -0.052740 
#    y 0.000000 1.717280 0.000000 
#    z -0.052740 0.000000 1.628110 
# 
# From -- ./inp_files/12152.got.cif
#   From: 2010.05.17/outbox.cif.g08.bks.cpg/sg13_7_cif.got.tgz:12152.got - 2010.06.03 16:44:36.
