data_PCOD9238635
_publ_section_title
;
Structure prediction by ZEFSAII (Michael W. Deem and Ramdas Pophale) SiO2 
 PCOD9238635
Probable space group: P 2/C
;
_chemical_formula_sum "Si O2"
_cell_formula_units_Z 22
_cell_length_a 12.471500
_cell_length_b 5.185614
_cell_length_c 25.233322
_cell_angle_alpha 90.000000
_cell_angle_beta 38.320992
_cell_angle_gamma 90.000000
_cell_volume 1011.885999
_symmetry_space_group_name_H-M "P 2/C"
_symmetry_group_IT_number 13
_symmetry_cell_setting 'monoclinic'
loop_
_space_group_symop_operation_xyz
x,y,z
-x,y,1/2-z
-x,-y,-z
x,-y,1/2+z
loop_
_atom_site_type_symbol
_atom_site_label
_atom_site_fract_x
_atom_site_fract_y
_atom_site_fract_z
Si Si1 0.482733 0.788901 0.819962
Si Si2 0.676977 0.898901 0.406275
Si Si3 0.079312 0.257097 0.497864
Si Si4 0.353037 0.713113 0.192845
Si Si5 0.000000 0.746140 0.750000
Si Si6 0.972740 0.347160 0.857549
O O1 0.500000 0.796830 0.750000
O O2 0.598078 0.556773 0.799013
O O3 0.534786 0.060623 0.825208
O O4 0.283987 0.745001 0.910837
O O5 0.624176 0.708240 0.379169
O O6 0.794641 0.766760 0.404842
O O7 0.500000 0.000000 0.500000
O O8 0.818943 0.098397 0.326587
O O9 0.044262 0.325856 0.572890
O O10 0.000000 0.500000 0.500000
O O11 0.000000 0.000000 0.500000
O O12 0.154842 0.794276 0.278896
O O13 0.996308 0.584087 0.696183
#
# Coordination Sequence:
#
# PCOD9238635 Si02
#       6
#     4   4   4   4   2   4
#     4  12  26  46  72 106 144 197 254 313 387 460
#     4  12  27  45  74 111 153 205 261 326 400 477
#     4  12  28  49  75 111 148 203 258 325 394 472
#     4  12  24  46  71 106 144 196 249 318 382 458
#     4  12  24  48  74 108 162 204 264 322 412 462
#     4  12  26  46  74 108 153 204 258 325 399 475
#
# _framework density 21.741581
#
# number of rings (size 3 to 8) (size 9 to 14) (size 15 to 20)
#    0.000    0.000    3.636    6.000    5.091    0.727 
#    0.000    0.000    0.000    0.000    0.000    0.000 
#    0.000    0.000    0.000    0.000    0.000    0.000 
#
# Total GULP energy -122819.977954 kJ/mol
# GULP energy per Si atom -5582.726271 kJ/mol
# Density = 2.169210 g / cm^3
# Si number density = 21.741581 Si / 1000 Ang^3
#
#
#
# Elastic Constant Matrix: (Units=GPa)
#
#
# Indices 1 2 3 4 5 6 
#
# 1 153.8982 44.1738 46.2964 0.0000 33.0115 0.0000
# 2 44.1738 89.4606 7.7906 0.0000 12.0158 0.0000
# 3 46.2964 7.7906 135.2565 0.0000 11.0684 0.0000
# 4 0.0000 0.0000 0.0000 6.8075 0.0000 -1.6133
# 5 33.0115 12.0158 11.0684 0.0000 65.5108 0.0000
# 6 0.0000 0.0000 0.0000 -1.6133 0.0000 39.2773
#
#
#
# Elastic Compliance Matrix: (Units=1/GPa)
#
#
# Indices 1 2 3 4 5 6 
#
# 1 0.009121 -0.003812 -0.002620 0.000000 -0.003454 0.000000
# 2 -0.003812 0.013086 0.000598 0.000000 -0.000581 0.000000
# 3 -0.002620 0.000598 0.008271 0.000000 -0.000187 0.000000
# 4 0.000000 0.000000 0.000000 0.148340 0.000000 0.006093
# 5 -0.003454 -0.000581 -0.000187 0.000000 0.017143 0.000000
# 6 0.000000 0.000000 0.000000 0.006093 0.000000 0.025710
#
#
# Mechanical properties :
#
#
# Convention : Reuss Voigt Hill
#
# Bulk Modulus (GPa) = 53.15738 63.90411 58.53075
# Shear Modulus (GPa) = 20.86742 41.00942 30.93842
#
# Velocity S-wave (km/s) = 3.10141 4.34778 3.77637
# Velocity P-wave (km/s) = 6.10964 7.39328 6.78190
#
# Compressibility (1/GPa) = 0.01881206
#
# Stress axis : x y z
#
# Youngs Moduli (GPa) = 109.63818 76.41711 120.90580
#
# Poissons Ratio (x) = 0.29127 0.31674
# Poissons Ratio (y) = 0.41790 -0.07235
# Poissons Ratio (z) = 0.28722 -0.04573
#
# Static dielectric constant tensor:
#      x y z
#    x 1.614640 0.000000 0.029030 
#    y 0.000000 1.966730 0.000000 
#    z 0.029030 0.000000 1.870640 
# 
# From -- ./inp_files/85750.got.cif
#   From: 2010.05.17/outbox.cif.g08.bks.cpg/sg13_43_cif.got.tgz:85750.got - 2010.06.03 16:44:36.
