data_PCOD9238126
_publ_section_title
;
Structure prediction by ZEFSAII (Michael W. Deem and Ramdas Pophale) SiO2 
 PCOD9238126
Probable space group: P 2/C
;
_chemical_formula_sum "Si O2"
_cell_formula_units_Z 20
_cell_length_a 8.917105
_cell_length_b 12.684744
_cell_length_c 7.890334
_cell_angle_alpha 90.000000
_cell_angle_beta 77.146620
_cell_angle_gamma 90.000000
_cell_volume 870.121677
_symmetry_space_group_name_H-M "P 2/C"
_symmetry_group_IT_number 13
_symmetry_cell_setting 'monoclinic'
loop_
_space_group_symop_operation_xyz
x,y,z
-x,y,1/2-z
-x,-y,-z
x,-y,1/2+z
loop_
_atom_site_type_symbol
_atom_site_label
_atom_site_fract_x
_atom_site_fract_y
_atom_site_fract_z
Si Si1 0.319512 0.564333 0.332330
Si Si2 0.671937 0.782310 0.279606
Si Si3 0.321376 0.854724 0.839115
Si Si4 0.121592 0.055469 0.851430
Si Si5 0.816029 0.359210 0.277847
O O1 0.500000 0.541357 0.250000
O O2 0.279179 0.660966 0.216268
O O3 0.224932 0.458639 0.330088
O O4 0.277479 0.612316 0.526176
O O5 0.500000 0.782275 0.250000
O O6 0.687064 0.843535 0.453622
O O7 0.776012 0.846411 0.120433
O O8 0.500000 0.859139 0.750000
O O9 0.246263 0.749779 0.781767
O O10 0.237667 0.958740 0.787223
O O11 0.000000 0.102498 0.750000
O O12 0.000000 0.000000 0.000000
O O13 0.000000 0.352692 0.250000
#
# Coordination Sequence:
#
# PCOD9238126 Si02
#       5
#     4   4   4   4   4
#     4  11  24  45  71 100 142 185 231 277 342 415
#     4  11  26  45  70 100 136 182 231 280 336 410
#     4  12  26  45  71  99 139 183 230 279 342 414
#     4  12  27  45  70 102 139 179 225 287 345 403
#     4  12  26  44  72 107 141 181 228 289 343 407
#
# _framework density 22.985291
#
# number of rings (size 3 to 8) (size 9 to 14) (size 15 to 20)
#    0.000    0.400    2.000    6.600    8.400    2.400 
#    0.000    0.000    0.000    0.000    0.000    0.000 
#    0.000    0.000    0.000    0.000    0.000    0.000 
#
# Total GULP energy -111792.610490 kJ/mol
# GULP energy per Si atom -5589.630525 kJ/mol
# Density = 2.293298 g / cm^3
# Si number density = 22.985291 Si / 1000 Ang^3
#
#
#
# Elastic Constant Matrix: (Units=GPa)
#
#
# Indices 1 2 3 4 5 6 
#
# 1 165.7575 91.8211 18.0774 0.0000 -23.7780 0.0000
# 2 91.8211 172.3114 -6.8647 0.0000 6.0078 0.0000
# 3 18.0774 -6.8647 60.0287 0.0000 -0.9005 0.0000
# 4 0.0000 0.0000 0.0000 40.6973 0.0000 -28.8455
# 5 -23.7780 6.0078 -0.9005 0.0000 28.8908 0.0000
# 6 0.0000 0.0000 0.0000 -28.8455 0.0000 94.7488
#
#
#
# Elastic Compliance Matrix: (Units=1/GPa)
#
#
# Indices 1 2 3 4 5 6 
#
# 1 0.011907 -0.006900 -0.004208 0.000000 0.011103 0.000000
# 2 -0.006900 0.009869 0.003092 0.000000 -0.007634 0.000000
# 3 -0.004208 0.003092 0.018226 0.000000 -0.003538 0.000000
# 4 0.000000 0.000000 0.000000 0.031333 0.000000 0.009539
# 5 0.011103 -0.007634 -0.003538 0.000000 0.045228 0.000000
# 6 0.000000 0.000000 0.000000 0.009539 0.000000 0.013458
#
#
# Mechanical properties :
#
#
# Convention : Reuss Voigt Hill
#
# Bulk Modulus (GPa) = 41.71705 67.12945 54.42325
# Shear Modulus (GPa) = 32.45834 52.53830 42.49832
#
# Velocity S-wave (km/s) = 3.76192 4.78612 4.30459
# Velocity P-wave (km/s) = 6.08754 7.73379 6.95951
#
# Compressibility (1/GPa) = 0.02397102
#
# Stress axis : x y z
#
# Youngs Moduli (GPa) = 83.98742 101.32316 54.86531
#
# Poissons Ratio (x) = 0.69908 0.23088
# Poissons Ratio (y) = 0.57947 -0.16964
# Poissons Ratio (z) = 0.35342 -0.31328
#
# Static dielectric constant tensor:
#      x y z
#    x 1.876020 0.000000 0.066590 
#    y 0.000000 1.820560 0.000000 
#    z 0.066590 0.000000 2.083350 
# 
# From -- ./inp_files/11664.got.cif
#   From: 2010.05.17/outbox.cif.g08.bks.cpg/sg13_6_cif.got.tgz:11664.got - 2010.06.03 16:44:36.
