data_PCOD9238697
_publ_section_title
;
Structure prediction by ZEFSAII (Michael W. Deem and Ramdas Pophale) SiO2 
 PCOD9238697
Probable space group: P 2/C
;
_chemical_formula_sum "Si O2"
_cell_formula_units_Z 14
_cell_length_a 8.269778
_cell_length_b 10.328845
_cell_length_c 9.388942
_cell_angle_alpha 90.000000
_cell_angle_beta 130.438546
_cell_angle_gamma 90.000000
_cell_volume 610.386885
_symmetry_space_group_name_H-M "P 2/C"
_symmetry_group_IT_number 13
_symmetry_cell_setting 'monoclinic'
loop_
_space_group_symop_operation_xyz
x,y,z
-x,y,1/2-z
-x,-y,-z
x,-y,1/2+z
loop_
_atom_site_type_symbol
_atom_site_label
_atom_site_fract_x
_atom_site_fract_y
_atom_site_fract_z
Si Si1 0.723156 0.335366 0.886313
Si Si2 0.070914 0.126881 0.125005
Si Si3 0.242160 0.569041 0.392890
Si Si4 0.500000 0.757158 0.750000
O O1 0.500000 0.259159 0.750000
O O2 0.699499 0.431693 0.739283
O O3 0.751764 0.425709 0.039075
O O4 0.924306 0.244921 0.987995
O O5 0.316158 0.161475 0.228026
O O6 0.000000 0.112067 0.250000
O O7 0.000000 0.000000 0.000000
O O8 0.380242 0.667499 0.565231
O O9 0.000000 0.613969 0.250000
#
# Coordination Sequence:
#
# PCOD9238697 Si02
#       4
#     4   4   4   2
#     4  12  26  46  78 117 158 204 262 323 400 471
#     4  12  31  53  80 115 159 216 269 320 390 471
#     4  12  25  45  77 115 160 198 253 326 402 462
#     4  12  28  52  82 116 162 200 270 332 392 468
#
# _framework density 22.936273
#
# number of rings (size 3 to 8) (size 9 to 14) (size 15 to 20)
#    0.000    0.000    4.286    4.286   10.000    1.143 
#    0.000    0.000    0.000    0.000    0.000    0.000 
#    0.000    0.000    0.000    0.000    0.000    0.000 
#
# Total GULP energy -78336.304515 kJ/mol
# GULP energy per Si atom -5595.450323 kJ/mol
# Density = 2.288407 g / cm^3
# Si number density = 22.936273 Si / 1000 Ang^3
#
#
#
# Elastic Constant Matrix: (Units=GPa)
#
#
# Indices 1 2 3 4 5 6 
#
# 1 175.4522 53.4402 63.8939 0.0000 32.3797 0.0000
# 2 53.4402 113.2010 48.9224 0.0000 14.3514 0.0000
# 3 63.8939 48.9224 124.8259 0.0000 21.0703 0.0000
# 4 0.0000 0.0000 0.0000 36.8529 0.0000 -2.6683
# 5 32.3797 14.3514 21.0703 0.0000 52.0995 0.0000
# 6 0.0000 0.0000 0.0000 -2.6683 0.0000 35.1158
#
#
#
# Elastic Compliance Matrix: (Units=1/GPa)
#
#
# Indices 1 2 3 4 5 6 
#
# 1 0.007932 -0.002185 -0.002655 0.000000 -0.003255 0.000000
# 2 -0.002185 0.011324 -0.003244 0.000000 -0.000450 0.000000
# 3 -0.002655 -0.003244 0.010960 0.000000 -0.001889 0.000000
# 4 0.000000 0.000000 0.000000 0.027285 0.000000 0.002073
# 5 -0.003255 -0.000450 -0.001889 0.000000 0.022105 0.000000
# 6 0.000000 0.000000 0.000000 0.002073 0.000000 0.028635
#
#
# Mechanical properties :
#
#
# Convention : Reuss Voigt Hill
#
# Bulk Modulus (GPa) = 71.17520 82.88801 77.03161
# Shear Modulus (GPa) = 38.73219 41.29515 40.01367
#
# Velocity S-wave (km/s) = 4.11382 4.24775 4.18132
# Velocity P-wave (km/s) = 7.32556 7.76368 7.54780
#
# Compressibility (1/GPa) = 0.01404984
#
# Stress axis : x y z
#
# Youngs Moduli (GPa) = 126.06529 88.30599 91.23856
#
# Poissons Ratio (x) = 0.19294 0.24221
# Poissons Ratio (y) = 0.27544 0.29598
# Poissons Ratio (z) = 0.33466 0.28647
#
# Static dielectric constant tensor:
#      x y z
#    x 2.009940 0.000000 0.028160 
#    y 0.000000 1.786650 0.000000 
#    z 0.028160 0.000000 1.859910 
# 
# From -- ./inp_files/11403.got.cif
#   From: 2010.05.17/outbox.cif.g08.bks.cpg/sg13_6_cif.got.tgz:11403.got - 2010.06.03 16:44:36.
