data_PCOD9238447
_publ_section_title
;
Structure prediction by ZEFSAII (Michael W. Deem and Ramdas Pophale) SiO2 
 PCOD9238447
Probable space group: P 2/C
;
_chemical_formula_sum "Si O2"
_cell_formula_units_Z 28
_cell_length_a 16.700653
_cell_length_b 6.967112
_cell_length_c 14.016075
_cell_angle_alpha 90.000000
_cell_angle_beta 136.906541
_cell_angle_gamma 90.000000
_cell_volume 1114.177594
_symmetry_space_group_name_H-M "P 2/C"
_symmetry_group_IT_number 13
_symmetry_cell_setting 'monoclinic'
loop_
_space_group_symop_operation_xyz
x,y,z
-x,y,1/2-z
-x,-y,-z
x,-y,1/2+z
loop_
_atom_site_type_symbol
_atom_site_label
_atom_site_fract_x
_atom_site_fract_y
_atom_site_fract_z
Si Si1 0.452620 0.733559 0.609976
Si Si2 0.753540 0.311958 0.027391
Si Si3 0.534619 0.865676 0.439516
Si Si4 0.352765 0.473606 0.754081
Si Si5 0.002086 0.272844 0.980431
Si Si6 0.075007 0.985918 0.910810
Si Si7 0.791941 0.393782 0.695039
O O1 0.500000 0.643420 0.750000
O O2 0.347449 0.251255 0.484909
O O3 0.325494 0.684682 0.458093
O O4 0.557729 0.644158 0.639011
O O5 0.840272 0.445311 0.165183
O O6 0.705104 0.444144 0.899541
O O7 0.500000 0.000000 0.500000
O O8 0.545197 0.041531 0.376276
O O9 0.429035 0.719657 0.332499
O O10 0.099622 0.175856 0.996574
O O11 0.251662 0.481547 0.743750
O O12 0.187829 0.128518 0.470391
O O13 0.986682 0.156181 0.065212
O O14 0.887264 0.241722 0.812351
O O15 0.000000 0.500000 0.000000
O O16 0.000000 0.022329 0.750000
#
# Coordination Sequence:
#
# PCOD9238447 Si02
#       7
#     4   4   4   4   4   4   4
#     4  12  23  42  69 106 153 204 256 314 383 480
#     4  12  25  48  77 113 159 211 265 330 406 482
#     4  12  25  42  69 105 155 207 258 315 389 472
#     4  12  23  48  67 109 163 204 255 325 383 486
#     4  11  27  55  80 115 153 204 273 339 406 476
#     4  11  27  52  82 113 157 200 266 348 403 473
#     4  12  24  45  81 107 154 212 260 322 408 475
#
# _framework density 25.130644
#
# number of rings (size 3 to 8) (size 9 to 14) (size 15 to 20)
#    0.000    0.286    5.714    3.429    2.000    1.714 
#    7.714    0.000    0.000    0.000    0.000    0.000 
#    0.000    0.000    0.000    0.000    0.000    0.000 
#
# Total GULP energy -156295.611691 kJ/mol
# GULP energy per Si atom -5581.986132 kJ/mol
# Density = 2.507345 g / cm^3
# Si number density = 25.130644 Si / 1000 Ang^3
#
#
#
# Elastic Constant Matrix: (Units=GPa)
#
#
# Indices 1 2 3 4 5 6 
#
# 1 98.0471 17.8138 31.5108 0.0000 -24.3883 0.0000
# 2 17.8138 129.7363 22.5484 0.0000 -13.1672 0.0000
# 3 31.5108 22.5484 107.1331 0.0000 -25.5337 0.0000
# 4 0.0000 0.0000 0.0000 17.1218 0.0000 0.9206
# 5 -24.3883 -13.1672 -25.5337 0.0000 36.8305 0.0000
# 6 0.0000 0.0000 0.0000 0.9206 0.0000 39.0160
#
#
#
# Elastic Compliance Matrix: (Units=1/GPa)
#
#
# Indices 1 2 3 4 5 6 
#
# 1 0.012638 -0.000709 -0.001957 0.000000 0.006758 0.000000
# 2 -0.000709 0.008169 -0.001110 0.000000 0.001681 0.000000
# 3 -0.001957 -0.001110 0.011668 0.000000 0.006396 0.000000
# 4 0.000000 0.000000 0.000000 0.058479 0.000000 -0.001380
# 5 0.006758 0.001681 0.006396 0.000000 0.036662 0.000000
# 6 0.000000 0.000000 0.000000 -0.001380 0.000000 0.025663
#
#
# Mechanical properties :
#
#
# Convention : Reuss Voigt Hill
#
# Bulk Modulus (GPa) = 40.12516 53.18473 46.65495
# Shear Modulus (GPa) = 29.56144 36.12991 32.84567
#
# Velocity S-wave (km/s) = 3.43346 3.79579 3.61916
# Velocity P-wave (km/s) = 5.63200 6.35767 6.00581
#
# Compressibility (1/GPa) = 0.02492202
#
# Stress axis : x y z
#
# Youngs Moduli (GPa) = 79.12588 122.41574 85.70497
#
# Poissons Ratio (x) = 0.08682 0.16774
# Poissons Ratio (y) = 0.05612 0.09513
# Poissons Ratio (z) = 0.15487 0.13588
#
# Static dielectric constant tensor:
#      x y z
#    x 2.170180 0.000000 -0.092420 
#    y 0.000000 1.883030 0.000000 
#    z -0.092420 0.000000 2.091270 
# 
# From -- ./inp_files/57345.got.cif
#   From: 2010.05.17/outbox.cif.g08.bks.cpg/sg13_29_cif.got.tgz:57345.got - 2010.06.03 16:44:36.
