data_PCOD9238734
_publ_section_title
;
Structure prediction by ZEFSAII (Michael W. Deem and Ramdas Pophale) SiO2 
 PCOD9238734
Probable space group: P 2/C
;
_chemical_formula_sum "Si O2"
_cell_formula_units_Z 20
_cell_length_a 8.578385
_cell_length_b 11.632434
_cell_length_c 9.076521
_cell_angle_alpha 90.000000
_cell_angle_beta 97.237031
_cell_angle_gamma 90.000000
_cell_volume 898.507861
_symmetry_space_group_name_H-M "P 2/C"
_symmetry_group_IT_number 13
_symmetry_cell_setting 'monoclinic'
loop_
_space_group_symop_operation_xyz
x,y,z
-x,y,1/2-z
-x,-y,-z
x,-y,1/2+z
loop_
_atom_site_type_symbol
_atom_site_label
_atom_site_fract_x
_atom_site_fract_y
_atom_site_fract_z
Si Si1 0.345112 0.313962 0.627124
Si Si2 0.340921 0.291264 0.276988
Si Si3 0.178688 0.115564 0.750101
Si Si4 0.645851 0.933854 0.933525
Si Si5 0.879523 0.487984 0.353474
O O1 0.500000 0.299105 0.750000
O O2 0.356641 0.276525 0.456486
O O3 0.207406 0.238787 0.682921
O O4 0.277009 0.441629 0.626363
O O5 0.500000 0.357014 0.250000
O O6 0.353736 0.173400 0.182737
O O7 0.187760 0.364946 0.212375
O O8 0.000000 0.082093 0.750000
O O9 0.269149 0.031104 0.651066
O O10 0.256302 0.112054 0.918297
O O11 0.500000 0.000000 0.000000
O O12 0.000000 0.538410 0.250000
O O13 0.000000 0.500000 0.500000
#
# Coordination Sequence:
#
# PCOD9238734 Si02
#       5
#     4   4   4   4   4
#     4  12  27  47  75 107 148 200 250 304 375 457
#     4  12  27  46  75 106 146 196 250 304 370 452
#     4  12  26  44  72 108 147 193 246 316 376 443
#     4  12  26  48  75 108 149 197 253 308 377 456
#     4  12  28  49  74 110 152 194 246 315 378 444
#
# _framework density 22.259124
#
# number of rings (size 3 to 8) (size 9 to 14) (size 15 to 20)
#    0.000    0.000    2.000    8.400    8.400    2.400 
#    0.000    0.000    0.000    0.000    0.000    0.000 
#    0.000    0.000    0.000    0.000    0.000    0.000 
#
# Total GULP energy -111517.829717 kJ/mol
# GULP energy per Si atom -5575.891486 kJ/mol
# Density = 2.220846 g / cm^3
# Si number density = 22.259124 Si / 1000 Ang^3
#
#
#
# Elastic Constant Matrix: (Units=GPa)
#
#
# Indices 1 2 3 4 5 6 
#
# 1 129.4309 45.4433 72.1063 0.0000 -10.3293 0.0000
# 2 45.4433 104.1435 51.2434 0.0000 0.1357 0.0000
# 3 72.1063 51.2434 227.0172 0.0000 -8.5996 0.0000
# 4 0.0000 0.0000 0.0000 18.5878 0.0000 -1.6997
# 5 -10.3293 0.1357 -8.5996 0.0000 30.3853 0.0000
# 6 0.0000 0.0000 0.0000 -1.6997 0.0000 36.0181
#
#
#
# Elastic Compliance Matrix: (Units=1/GPa)
#
#
# Indices 1 2 3 4 5 6 
#
# 1 0.010519 -0.003379 -0.002469 0.000000 0.002892 0.000000
# 2 -0.003379 0.011904 -0.001677 0.000000 -0.001677 0.000000
# 3 -0.002469 -0.001677 0.005596 0.000000 0.000752 0.000000
# 4 0.000000 0.000000 0.000000 0.054032 0.000000 0.002550
# 5 0.002892 -0.001677 0.000752 0.000000 0.034114 0.000000
# 6 0.000000 0.000000 0.000000 0.002550 0.000000 0.027884
#
#
# Mechanical properties :
#
#
# Convention : Reuss Voigt Hill
#
# Bulk Modulus (GPa) = 77.10708 88.68641 82.89675
# Shear Modulus (GPa) = 30.59565 36.45146 33.52356
#
# Velocity S-wave (km/s) = 3.71148 4.05111 3.88501
# Velocity P-wave (km/s) = 7.28578 7.86201 7.57937
#
# Compressibility (1/GPa) = 0.01296898
#
# Stress axis : x y z
#
# Youngs Moduli (GPa) = 95.06977 84.00527 178.69318
#
# Poissons Ratio (x) = 0.28384 0.44114
# Poissons Ratio (y) = 0.32123 0.29973
# Poissons Ratio (z) = 0.23470 0.14090
#
# Static dielectric constant tensor:
#      x y z
#    x 1.874150 0.000000 0.061830 
#    y 0.000000 1.842520 0.000000 
#    z 0.061830 0.000000 1.744470 
# 
# From -- ./inp_files/11847.got.cif
#   From: 2010.05.17/outbox.cif.g08.bks.cpg/sg13_6_cif.got.tgz:11847.got - 2010.06.03 16:44:36.
