data_PCOD9238025
_publ_section_title
;
Structure prediction by ZEFSAII (Michael W. Deem and Ramdas Pophale) SiO2 
 PCOD9238025
Probable space group: P 2/C
;
_chemical_formula_sum "Si O2"
_cell_formula_units_Z 26
_cell_length_a 8.900767
_cell_length_b 18.686027
_cell_length_c 8.979446
_cell_angle_alpha 90.000000
_cell_angle_beta 53.052599
_cell_angle_gamma 90.000000
_cell_volume 1193.555764
_symmetry_space_group_name_H-M "P 2/C"
_symmetry_group_IT_number 13
_symmetry_cell_setting 'monoclinic'
loop_
_space_group_symop_operation_xyz
x,y,z
-x,y,1/2-z
-x,-y,-z
x,-y,1/2+z
loop_
_atom_site_type_symbol
_atom_site_label
_atom_site_fract_x
_atom_site_fract_y
_atom_site_fract_z
Si Si1 0.321292 0.339908 0.457826
Si Si2 0.058746 0.391684 0.372302
Si Si3 0.500000 0.839755 0.250000
Si Si4 0.183508 0.458929 0.746834
Si Si5 0.773878 0.809725 0.348922
Si Si6 0.290738 0.949613 0.917197
Si Si7 0.802861 0.910190 0.860129
O O1 0.500000 0.349061 0.250000
O O2 0.144029 0.343861 0.450715
O O3 0.316074 0.403502 0.583235
O O4 0.314648 0.262088 0.531833
O O5 0.209208 0.456286 0.253056
O O6 0.000000 0.359196 0.250000
O O7 0.877075 0.428686 0.556658
O O8 0.681447 0.810237 0.238063
O O9 0.379330 0.875237 0.456279
O O10 0.000000 0.457048 0.750000
O O11 0.711251 0.882102 0.471336
O O12 0.000000 0.806259 0.250000
O O13 0.500000 0.975086 0.750000
O O14 0.216447 0.925869 0.802153
O O15 0.182999 0.014945 0.057779
O O16 0.000000 0.868586 0.750000
#
# Coordination Sequence:
#
# PCOD9238025 Si02
#       7
#     4   4   2   4   4   4   4
#     4  11  24  42  60  92 140 174 217 282 342 408
#     4   9  17  36  66  95 119 165 221 269 325 405
#     4  12  26  48  74 102 134 182 242 292 342 422
#     4   8  16  35  63  90 125 166 215 268 331 397
#     4  12  26  48  70  96 136 188 228 285 349 412
#     4  12  22  42  68  98 144 177 227 291 345 409
#     4  12  24  42  70 105 137 181 233 292 353 412
#
# _framework density 21.783650000000002
#
# number of rings (size 3 to 8) (size 9 to 14) (size 15 to 20)
#    0.000    1.231    2.308    6.000    0.000    0.615 
#    5.538    0.769    0.000    0.000    0.000    0.000 
#    0.000    0.000    0.000    0.000    0.000    0.000 
#
# Total GULP energy -144826.421751 kJ/mol
# GULP energy per Si atom -5570.246990 kJ/mol
# Density = 2.173407 g / cm^3
# Si number density = 21.783650 Si / 1000 Ang^3
#
#
#
# Elastic Constant Matrix: (Units=GPa)
#
#
# Indices 1 2 3 4 5 6 
#
# 1 94.2631 -14.3892 21.9381 0.0000 16.4400 0.0000
# 2 -14.3892 31.3941 24.2819 0.0000 -4.6665 0.0000
# 3 21.9381 24.2819 96.2360 0.0000 -0.1794 0.0000
# 4 0.0000 0.0000 0.0000 30.8240 0.0000 3.4561
# 5 16.4400 -4.6665 -0.1794 0.0000 51.5189 0.0000
# 6 0.0000 0.0000 0.0000 3.4561 0.0000 17.4439
#
#
#
# Elastic Compliance Matrix: (Units=1/GPa)
#
#
# Indices 1 2 3 4 5 6 
#
# 1 0.014225 0.010558 -0.005913 0.000000 -0.003604 0.000000
# 2 0.010558 0.048073 -0.014535 0.000000 0.000935 0.000000
# 3 -0.005913 -0.014535 0.015408 0.000000 0.000624 0.000000
# 4 0.000000 0.000000 0.000000 0.033179 0.000000 -0.006574
# 5 -0.003604 0.000935 0.000624 0.000000 0.020647 0.000000
# 6 0.000000 0.000000 0.000000 -0.006574 0.000000 0.058629
#
#
# Mechanical properties :
#
#
# Convention : Reuss Voigt Hill
#
# Bulk Modulus (GPa) = 17.26352 31.72831 24.49591
# Shear Modulus (GPa) = 21.81025 32.62819 27.21922
#
# Velocity S-wave (km/s) = 3.16764 3.87438 3.53870
# Velocity P-wave (km/s) = 4.61744 5.88313 5.28829
#
# Compressibility (1/GPa) = 0.05792562
#
# Stress axis : x y z
#
# Youngs Moduli (GPa) = 70.29873 20.80161 64.90279
#
# Poissons Ratio (x) = -0.21962 0.38380
# Poissons Ratio (y) = -0.74222 0.94334
# Poissons Ratio (z) = 0.41571 0.30235
#
# Static dielectric constant tensor:
#      x y z
#    x 1.942220 0.000000 -0.030620 
#    y 0.000000 1.823380 0.000000 
#    z -0.030620 0.000000 1.781420 
# 
# From -- ./inp_files/13625.got.cif
#   From: 2010.05.17/outbox.cif.g08.bks.cpg/sg13_7_cif.got.tgz:13625.got - 2010.06.03 16:44:36.
