data_PCOD9238959
_publ_section_title
;
Structure prediction by ZEFSAII (Michael W. Deem and Ramdas Pophale) SiO2 
 PCOD9238959
Probable space group: P 2/C
;
_chemical_formula_sum "Si O2"
_cell_formula_units_Z 26
_cell_length_a 12.000000
_cell_length_b 15.000000
_cell_length_c 15.000000
_cell_angle_alpha 90.000000
_cell_angle_beta 30.000000
_cell_angle_gamma 90.000000
_cell_volume 1350.000000
_symmetry_space_group_name_H-M "P 2/C"
_symmetry_group_IT_number 13
_symmetry_cell_setting 'monoclinic'
loop_
_space_group_symop_operation_xyz
x,y,z
-x,y,1/2-z
-x,-y,-z
x,-y,1/2+z
loop_
_atom_site_type_symbol
_atom_site_label
_atom_site_fract_x
_atom_site_fract_y
_atom_site_fract_z
Si Si1 0.306337 0.901260 0.459940
Si Si2 0.716446 0.636986 0.800776
Si Si3 0.191596 0.158513 0.232793
Si Si4 0.253492 0.566573 0.913527
Si Si5 0.743420 0.293293 0.950784
Si Si6 0.560407 0.898057 0.605802
Si Si7 0.000000 0.537115 0.750000
O O1 0.500000 0.884421 0.250000
O O2 0.307191 0.848690 0.554342
O O3 0.060113 0.877975 0.594726
O O4 0.323643 0.005666 0.474618
O O5 0.808666 0.738232 0.736704
O O6 0.796730 0.580345 0.657294
O O7 0.808280 0.593134 0.829026
O O8 0.447394 0.652648 0.973466
O O9 0.339562 0.101428 0.198432
O O10 0.500000 0.524508 0.750000
O O11 0.274403 0.667020 0.937599
O O12 0.107138 0.517248 0.091549
O O13 0.000000 0.308069 0.750000
O O14 0.693860 0.188390 0.979496
O O15 0.500000 0.880128 0.750000
#
# Coordination Sequence:
#
# PCOD9238959 Si02
#       7
#     4   4   4   4   4   4   2
#     4  10  22  38  61  91 124 164 213 257 308 368
#     4  10  23  43  66  87 133 168 200 261 313 376
#     4  10  21  43  60  85 131 167 201 262 308 363
#     4  10  22  42  64  95 125 161 210 258 306 376
#     4  10  20  39  63  92 121 166 216 252 305 366
#     4  10  21  38  60  89 124 167 210 261 309 354
#     4  12  22  42  66  98 128 164 200 254 326 372
#
# _framework density 19.259259
#
# number of rings (size 3 to 8) (size 9 to 14) (size 15 to 20)
#    0.000    1.846    0.769    4.154    2.154    4.923 
#   13.846    1.538    0.000    0.000    0.000    0.000 
#    0.000    0.000    0.000    0.000    0.000    0.000 
#
# Total GULP energy -144813.161307 kJ/mol
# GULP energy per Si atom -5569.736973 kJ/mol
# Density = 1.921542 g / cm^3
# Si number density = 19.259259 Si / 1000 Ang^3
#
#
#
# Elastic Constant Matrix: (Units=GPa)
#
#
# Indices 1 2 3 4 5 6 
#
# 1 164.5823 36.7761 53.1172 0.0000 -4.2022 0.0000
# 2 36.7761 79.7202 33.8414 0.0000 -7.0631 0.0000
# 3 53.1172 33.8414 133.0365 0.0000 -2.0194 0.0000
# 4 0.0000 0.0000 0.0000 21.0148 0.0000 6.6844
# 5 -4.2022 -7.0631 -2.0194 0.0000 32.4857 0.0000
# 6 0.0000 0.0000 0.0000 6.6844 0.0000 32.8663
#
#
#
# Elastic Compliance Matrix: (Units=1/GPa)
#
#
# Indices 1 2 3 4 5 6 
#
# 1 0.007368 -0.002384 -0.002331 0.000000 0.000290 0.000000
# 2 -0.002384 0.015100 -0.002847 0.000000 0.002798 0.000000
# 3 -0.002331 -0.002847 0.009166 0.000000 -0.000351 0.000000
# 4 0.000000 0.000000 0.000000 0.050877 0.000000 -0.010347
# 5 0.000290 0.002798 -0.000351 0.000000 0.031407 0.000000
# 6 0.000000 0.000000 0.000000 -0.010347 0.000000 0.032531
#
#
# Mechanical properties :
#
#
# Convention : Reuss Voigt Hill
#
# Bulk Modulus (GPa) = 60.56575 69.42316 64.99445
# Shear Modulus (GPa) = 29.92641 34.18030 32.05336
#
# Velocity S-wave (km/s) = 3.94619 4.21734 4.08402
# Velocity P-wave (km/s) = 7.23043 7.73560 7.48728
#
# Compressibility (1/GPa) = 0.01651098
#
# Stress axis : x y z
#
# Youngs Moduli (GPa) = 135.71409 66.22546 109.09486
#
# Poissons Ratio (x) = 0.15787 0.25432
# Poissons Ratio (y) = 0.32353 0.31057
# Poissons Ratio (z) = 0.31637 0.18853
#
# Static dielectric constant tensor:
#      x y z
#    x 1.685200 0.000000 -0.013540 
#    y 0.000000 1.702140 0.000000 
#    z -0.013540 0.000000 1.713490 
# 
# From -- ./inp_files/51432.got.cif
#   From: 2010.05.17/outbox.ucp.g08.bks.cvg/sg13_26_cif.got.tgz:51432.got - 2010.06.11 12:23:55.
