data_PCOD9238494
_publ_section_title
;
Structure prediction by ZEFSAII (Michael W. Deem and Ramdas Pophale) SiO2 
 PCOD9238494
Probable space group: P 2/C
;
_chemical_formula_sum "Si O2"
_cell_formula_units_Z 26
_cell_length_a 7.504337
_cell_length_b 8.838502
_cell_length_c 20.204762
_cell_angle_alpha 90.000000
_cell_angle_beta 66.273287
_cell_angle_gamma 90.000000
_cell_volume 1226.849431
_symmetry_space_group_name_H-M "P 2/C"
_symmetry_group_IT_number 13
_symmetry_cell_setting 'monoclinic'
loop_
_space_group_symop_operation_xyz
x,y,z
-x,y,1/2-z
-x,-y,-z
x,-y,1/2+z
loop_
_atom_site_type_symbol
_atom_site_label
_atom_site_fract_x
_atom_site_fract_y
_atom_site_fract_z
Si Si1 0.756915 0.161371 0.989848
Si Si2 0.152005 0.889366 0.596738
Si Si3 0.500000 0.809825 0.750000
Si Si4 0.165330 0.706795 0.454594
Si Si5 0.448914 0.554936 0.935236
Si Si6 0.214480 0.352231 0.202011
Si Si7 0.256809 0.011878 0.875860
O O1 0.948709 0.267794 0.956851
O O2 0.719459 0.041944 0.936460
O O3 0.593348 0.269815 0.043086
O O4 0.797213 0.050540 0.044226
O O5 0.163615 0.774753 0.530665
O O6 0.185906 0.789525 0.656216
O O7 0.938018 0.966379 0.634519
O O8 0.676634 0.706839 0.748797
O O9 0.430295 0.919298 0.818571
O O10 0.261123 0.541315 0.440120
O O11 0.291252 0.813241 0.386498
O O12 0.630155 0.541222 0.858672
O O13 0.500000 0.500000 0.000000
O O14 0.000000 0.414158 0.250000
#
# Coordination Sequence:
#
# PCOD9238494 Si02
#       7
#     4   4   2   4   4   4   4
#     4   9  19  36  64  96 119 156 209 270 319 372
#     4   9  18  38  64  93 122 155 205 282 316 360
#     4  12  22  38  66  90 118 172 216 252 342 382
#     4   9  19  37  63  93 127 151 212 267 322 375
#     4  12  23  37  61  94 124 174 212 263 326 383
#     4  12  25  41  63  93 133 171 220 272 320 402
#     4   9  18  36  63  91 119 160 207 264 318 379
#
# _framework density 21.192495000000001
#
# number of rings (size 3 to 8) (size 9 to 14) (size 15 to 20)
#    0.000    1.846    4.615    2.308    0.000    1.846 
#    2.769    0.769    3.385    0.000    0.000    0.000 
#    0.000    0.000    0.000    0.000    0.000    0.000 
#
# Total GULP energy -144803.815660 kJ/mol
# GULP energy per Si atom -5569.377525 kJ/mol
# Density = 2.114426 g / cm^3
# Si number density = 21.192495 Si / 1000 Ang^3
#
#
#
# Elastic Constant Matrix: (Units=GPa)
#
#
# Indices 1 2 3 4 5 6 
#
# 1 31.6044 -6.1578 2.1855 0.0000 -10.1955 0.0000
# 2 -6.1578 54.6262 6.8388 0.0000 -7.7589 0.0000
# 3 2.1855 6.8388 50.8722 0.0000 -15.0073 0.0000
# 4 0.0000 0.0000 0.0000 34.1287 0.0000 -6.4659
# 5 -10.1955 -7.7589 -15.0073 0.0000 40.1014 0.0000
# 6 0.0000 0.0000 0.0000 -6.4659 0.0000 24.5362
#
#
#
# Elastic Compliance Matrix: (Units=1/GPa)
#
#
# Indices 1 2 3 4 5 6 
#
# 1 0.036043 0.005455 0.000824 0.000000 0.010528 0.000000
# 2 0.005455 0.019771 -0.001523 0.000000 0.004642 0.000000
# 3 0.000824 -0.001523 0.022259 0.000000 0.008245 0.000000
# 4 0.000000 0.000000 0.000000 0.030841 0.000000 0.008127
# 5 0.010528 0.004642 0.008245 0.000000 0.031597 0.000000
# 6 0.000000 0.000000 0.000000 0.008127 0.000000 0.042898
#
#
# Mechanical properties :
#
#
# Convention : Reuss Voigt Hill
#
# Bulk Modulus (GPa) = 11.41737 15.87062 13.64399
# Shear Modulus (GPa) = 24.61949 28.70235 26.66092
#
# Velocity S-wave (km/s) = 3.41208 3.68416 3.55073
# Velocity P-wave (km/s) = 4.57408 5.05988 4.82310
#
# Compressibility (1/GPa) = 0.08758585
#
# Stress axis : x y z
#
# Youngs Moduli (GPa) = 27.74444 50.57859 44.92642
#
# Poissons Ratio (x) = -0.27592 -0.03701
# Poissons Ratio (y) = -0.15135 0.06841
# Poissons Ratio (z) = -0.02286 0.07701
#
# Static dielectric constant tensor:
#      x y z
#    x 1.837730 0.000000 -0.023790 
#    y 0.000000 1.776460 0.000000 
#    z -0.023790 0.000000 1.770760 
# 
# From -- ./inp_files/75251.got.cif
#   From: 2010.05.17/outbox.cif.g08.bks.cpg/sg13_38_cif.got.tgz:75251.got - 2010.06.03 16:44:36.
