data_PCOD9238451
_publ_section_title
;
Structure prediction by ZEFSAII (Michael W. Deem and Ramdas Pophale) SiO2 
 PCOD9238451
Probable space group: P 2/C
;
_chemical_formula_sum "Si O2"
_cell_formula_units_Z 16
_cell_length_a 13.998101
_cell_length_b 4.967700
_cell_length_c 11.076176
_cell_angle_alpha 90.000000
_cell_angle_beta 53.078360
_cell_angle_gamma 90.000000
_cell_volume 615.757757
_symmetry_space_group_name_H-M "P 2/C"
_symmetry_group_IT_number 13
_symmetry_cell_setting 'monoclinic'
loop_
_space_group_symop_operation_xyz
x,y,z
-x,y,1/2-z
-x,-y,-z
x,-y,1/2+z
loop_
_atom_site_type_symbol
_atom_site_label
_atom_site_fract_x
_atom_site_fract_y
_atom_site_fract_z
Si Si1 0.985520 0.807942 0.127920
Si Si2 0.199837 0.569758 0.840837
Si Si3 0.625457 0.610365 0.602831
Si Si4 0.367262 0.904200 0.560324
O O1 0.000000 0.932935 0.250000
O O2 0.869175 0.618780 0.200542
O O3 0.100543 0.620834 0.018475
O O4 0.000000 0.000000 0.000000
O O5 0.308849 0.460961 0.836578
O O6 0.260774 0.835899 0.735935
O O7 0.500000 0.702352 0.750000
O O8 0.678271 0.878606 0.502519
O O9 0.612124 0.388089 0.511641
O O10 0.500000 0.000000 0.500000
#
# Coordination Sequence:
#
# PCOD9238451 Si02
#       4
#     4   4   4   4
#     4  11  28  52  83 120 164 225 295 364 431 509
#     4  11  28  49  78 114 165 223 285 356 430 513
#     4  12  27  46  78 119 167 218 282 345 435 522
#     4  12  27  47  78 119 167 220 280 347 432 519
#
# _framework density 25.984245999999999
#
# number of rings (size 3 to 8) (size 9 to 14) (size 15 to 20)
#    0.000    0.500    2.500    3.000   10.500    4.000 
#    0.000    0.000    0.000    0.000    0.000    0.000 
#    0.000    0.000    0.000    0.000    0.000    0.000 
#
# Total GULP energy -89445.418647 kJ/mol
# GULP energy per Si atom -5590.338665 kJ/mol
# Density = 2.592510 g / cm^3
# Si number density = 25.984246 Si / 1000 Ang^3
#
#
#
# Elastic Constant Matrix: (Units=GPa)
#
#
# Indices 1 2 3 4 5 6 
#
# 1 145.8542 26.9047 52.6101 0.0000 4.6732 0.0000
# 2 26.9047 101.4739 33.8475 0.0000 9.8528 0.0000
# 3 52.6101 33.8475 136.2422 0.0000 -2.4579 0.0000
# 4 0.0000 0.0000 0.0000 52.6897 0.0000 4.8360
# 5 4.6732 9.8528 -2.4579 0.0000 51.0652 0.0000
# 6 0.0000 0.0000 0.0000 4.8360 0.0000 38.3351
#
#
#
# Elastic Compliance Matrix: (Units=1/GPa)
#
#
# Indices 1 2 3 4 5 6 
#
# 1 0.008120 -0.001133 -0.002866 0.000000 -0.000663 0.000000
# 2 -0.001133 0.011157 -0.002373 0.000000 -0.002163 0.000000
# 3 -0.002866 -0.002373 0.009057 0.000000 0.001156 0.000000
# 4 0.000000 0.000000 0.000000 0.019201 0.000000 -0.002422
# 5 -0.000663 -0.002163 0.001156 0.000000 0.020116 0.000000
# 6 0.000000 0.000000 0.000000 -0.002422 0.000000 0.026391
#
#
# Mechanical properties :
#
#
# Convention : Reuss Voigt Hill
#
# Bulk Modulus (GPa) = 64.14505 67.81057 65.97781
# Shear Modulus (GPa) = 44.64915 46.43187 45.54051
#
# Velocity S-wave (km/s) = 4.14975 4.23179 4.19097
# Velocity P-wave (km/s) = 6.90654 7.07325 6.99039
#
# Compressibility (1/GPa) = 0.01558967
#
# Stress axis : x y z
#
# Youngs Moduli (GPa) = 123.15037 89.63171 110.40996
#
# Poissons Ratio (x) = 0.10152 0.31646
# Poissons Ratio (y) = 0.13948 0.26205
# Poissons Ratio (z) = 0.35297 0.21273
#
# Static dielectric constant tensor:
#      x y z
#    x 2.177610 0.000000 0.038550 
#    y 0.000000 2.044720 0.000000 
#    z 0.038550 0.000000 2.159290 
# 
# From -- ./inp_files/35090.got.cif
#   From: 2010.05.17/outbox.cif.g08.bks.cpg/sg13_18_cif.got.tgz:35090.got - 2010.06.03 16:44:36.
