data_PCOD9238526
_publ_section_title
;
Structure prediction by ZEFSAII (Michael W. Deem and Ramdas Pophale) SiO2 
 PCOD9238526
Probable space group: P 2/C
;
_chemical_formula_sum "Si O2"
_cell_formula_units_Z 18
_cell_length_a 8.472984
_cell_length_b 8.206325
_cell_length_c 17.433678
_cell_angle_alpha 90.000000
_cell_angle_beta 33.068923
_cell_angle_gamma 90.000000
_cell_volume 661.433662
_symmetry_space_group_name_H-M "P 2/C"
_symmetry_group_IT_number 13
_symmetry_cell_setting 'monoclinic'
loop_
_space_group_symop_operation_xyz
x,y,z
-x,y,1/2-z
-x,-y,-z
x,-y,1/2+z
loop_
_atom_site_type_symbol
_atom_site_label
_atom_site_fract_x
_atom_site_fract_y
_atom_site_fract_z
Si Si1 0.211027 0.324965 0.239148
Si Si2 0.448781 0.975600 0.110883
Si Si3 0.169921 0.571461 0.032084
Si Si4 0.187664 0.835803 0.420675
Si Si5 0.000000 0.742675 0.250000
O O1 0.000000 0.313644 0.250000
O O2 0.019852 0.409068 0.382693
O O3 0.371117 0.149393 0.180410
O O4 0.492630 0.444988 0.124115
O O5 0.698871 0.857985 0.038440
O O6 0.171298 0.864444 0.234011
O O7 0.500000 0.000000 0.000000
O O8 0.999266 0.695963 0.045408
O O9 0.175943 0.638996 0.117368
O O10 0.500000 0.847633 0.250000
O O11 0.000000 0.000000 0.500000
#
# Coordination Sequence:
#
# PCOD9238526 Si02
#       5
#     4   4   4   4   2
#     4  12  26  47  83 124 166 215 279 344 423 501
#     4  12  25  47  87 121 155 219 287 341 408 502
#     4  12  27  50  79 121 168 221 268 356 416 501
#     4  12  26  52  82 117 164 214 279 349 412 496
#     4  12  22  44  82 114 156 216 280 332 404 492
#
# _framework density 27.213612999999999
#
# number of rings (size 3 to 8) (size 9 to 14) (size 15 to 20)
#    0.000    0.000    8.889    0.667    0.000    0.000 
#    4.000    2.222    4.889    0.000    0.000    0.000 
#    0.000    0.000    0.000    0.000    0.000    0.000 
#
# Total GULP energy -100585.255980 kJ/mol
# GULP energy per Si atom -5588.069777 kJ/mol
# Density = 2.715167 g / cm^3
# Si number density = 27.213613 Si / 1000 Ang^3
#
#
#
# Elastic Constant Matrix: (Units=GPa)
#
#
# Indices 1 2 3 4 5 6 
#
# 1 161.3041 60.8159 61.2407 0.0000 -9.5883 0.0000
# 2 60.8159 193.1471 75.1286 0.0000 -7.6002 0.0000
# 3 61.2407 75.1286 140.0198 0.0000 -36.6304 0.0000
# 4 0.0000 0.0000 0.0000 48.3785 0.0000 -0.3309
# 5 -9.5883 -7.6002 -36.6304 0.0000 50.1005 0.0000
# 6 0.0000 0.0000 0.0000 -0.3309 0.0000 39.5668
#
#
#
# Elastic Compliance Matrix: (Units=1/GPa)
#
#
# Indices 1 2 3 4 5 6 
#
# 1 0.007755 -0.001353 -0.002882 0.000000 -0.000829 0.000000
# 2 -0.001353 0.006936 -0.003614 0.000000 -0.001849 0.000000
# 3 -0.002882 -0.003614 0.012431 0.000000 0.007989 0.000000
# 4 0.000000 0.000000 0.000000 0.020672 0.000000 0.000173
# 5 -0.000829 -0.001849 0.007989 0.000000 0.025362 0.000000
# 6 0.000000 0.000000 0.000000 0.000173 0.000000 0.025275
#
#
# Mechanical properties :
#
#
# Convention : Reuss Voigt Hill
#
# Bulk Modulus (GPa) = 87.53288 98.76015 93.14651
# Shear Modulus (GPa) = 42.39532 47.42822 44.91177
#
# Velocity S-wave (km/s) = 3.95127 4.17923 4.06685
# Velocity P-wave (km/s) = 7.28366 7.72382 7.50697
#
# Compressibility (1/GPa) = 0.01142428
#
# Stress axis : x y z
#
# Youngs Moduli (GPa) = 128.95355 144.16965 80.44104
#
# Poissons Ratio (x) = 0.19508 0.23187
# Poissons Ratio (y) = 0.17449 0.29068
# Poissons Ratio (z) = 0.37170 0.52096
#
# Static dielectric constant tensor:
#      x y z
#    x 2.326830 0.000000 0.167710 
#    y 0.000000 2.194900 0.000000 
#    z 0.167710 0.000000 1.995540 
# 
# From -- ./inp_files/75494.got.cif
#   From: 2010.05.17/outbox.cif.g08.bks.cpg/sg13_38_cif.got.tgz:75494.got - 2010.06.03 16:44:36.
