data_PCOD9238355
_publ_section_title
;
Structure prediction by ZEFSAII (Michael W. Deem and Ramdas Pophale) SiO2 
 PCOD9238355
Probable space group: P 2/C
;
_chemical_formula_sum "Si O2"
_cell_formula_units_Z 16
_cell_length_a 12.375452
_cell_length_b 5.119907
_cell_length_c 14.899235
_cell_angle_alpha 90.000000
_cell_angle_beta 45.415696
_cell_angle_gamma 90.000000
_cell_volume 672.357548
_symmetry_space_group_name_H-M "P 2/C"
_symmetry_group_IT_number 13
_symmetry_cell_setting 'monoclinic'
loop_
_space_group_symop_operation_xyz
x,y,z
-x,y,1/2-z
-x,-y,-z
x,-y,1/2+z
loop_
_atom_site_type_symbol
_atom_site_label
_atom_site_fract_x
_atom_site_fract_y
_atom_site_fract_z
Si Si1 0.876160 0.242741 0.532948
Si Si2 0.931972 0.122419 0.690621
Si Si3 0.393599 0.755214 0.049093
Si Si4 0.326146 0.742688 0.881643
O O1 0.759622 0.475788 0.588460
O O2 0.039051 0.726100 0.420602
O O3 0.764249 0.989480 0.604175
O O4 0.993677 0.157900 0.384051
O O5 0.754031 0.186593 0.804988
O O6 0.000000 0.183022 0.750000
O O7 0.500000 0.500000 0.000000
O O8 0.329967 0.760610 0.986199
O O9 0.500000 0.000000 0.000000
O O10 0.500000 0.739040 0.750000
#
# Coordination Sequence:
#
# PCOD9238355 Si02
#       4
#     4   4   4   4
#     4  11  26  47  73 109 146 200 248 307 373 448
#     4  11  25  50  74 110 149 197 250 311 371 447
#     4  12  26  46  72 110 146 194 248 306 370 443
#     4  12  24  47  73 107 151 195 247 310 374 442
#
# _framework density 23.796863999999999
#
# number of rings (size 3 to 8) (size 9 to 14) (size 15 to 20)
#    0.000    0.500    2.500    5.250    0.000    6.000 
#    0.000    0.000    0.000    0.000    0.000    0.000 
#    0.000    0.000    0.000    0.000    0.000    0.000 
#
# Total GULP energy -89325.507165 kJ/mol
# GULP energy per Si atom -5582.844198 kJ/mol
# Density = 2.374270 g / cm^3
# Si number density = 23.796864 Si / 1000 Ang^3
#
#
#
# Elastic Constant Matrix: (Units=GPa)
#
#
# Indices 1 2 3 4 5 6 
#
# 1 155.4969 42.8398 32.3689 0.0000 20.6479 0.0000
# 2 42.8398 169.1531 62.7520 0.0000 -23.9437 0.0000
# 3 32.3689 62.7520 234.2286 0.0000 -23.7437 0.0000
# 4 0.0000 0.0000 0.0000 27.2515 0.0000 -0.5393
# 5 20.6479 -23.9437 -23.7437 0.0000 54.2750 0.0000
# 6 0.0000 0.0000 0.0000 -0.5393 0.0000 36.0343
#
#
#
# Elastic Compliance Matrix: (Units=1/GPa)
#
#
# Indices 1 2 3 4 5 6 
#
# 1 0.007826 -0.002261 -0.000920 0.000000 -0.004377 0.000000
# 2 -0.002261 0.007484 -0.001330 0.000000 0.003580 0.000000
# 3 -0.000920 -0.001330 0.004948 0.000000 0.001928 0.000000
# 4 0.000000 0.000000 0.000000 0.036706 0.000000 0.000549
# 5 -0.004377 0.003580 0.001928 0.000000 0.022513 0.000000
# 6 0.000000 0.000000 0.000000 0.000549 0.000000 0.027760
#
#
# Mechanical properties :
#
#
# Convention : Reuss Voigt Hill
#
# Bulk Modulus (GPa) = 88.97646 92.75555 90.86600
# Shear Modulus (GPa) = 41.66547 51.57334 46.61941
#
# Velocity S-wave (km/s) = 4.18889 4.66041 4.43093
# Velocity P-wave (km/s) = 7.80173 8.24754 8.02773
#
# Compressibility (1/GPa) = 0.01123893
#
# Stress axis : x y z
#
# Youngs Moduli (GPa) = 127.77243 133.61130 202.09669
#
# Poissons Ratio (x) = 0.30203 0.18586
# Poissons Ratio (y) = 0.28883 0.26876
# Poissons Ratio (z) = 0.11750 0.17768
#
# Static dielectric constant tensor:
#      x y z
#    x 1.899920 0.000000 -0.042890 
#    y 0.000000 2.128670 0.000000 
#    z -0.042890 0.000000 2.069760 
# 
# From -- ./inp_files/78932.got.cif
#   From: 2010.05.17/outbox.cif.g08.bks.cpg/sg13_40_cif.got.tgz:78932.got - 2010.06.03 16:44:36.
