data_PCOD9238995
_publ_section_title
;
Structure prediction by ZEFSAII (Michael W. Deem and Ramdas Pophale) SiO2 
 PCOD9238995
Probable space group: P 2/C
;
_chemical_formula_sum "Si O2"
_cell_formula_units_Z 26
_cell_length_a 18.000000
_cell_length_b 12.000000
_cell_length_c 12.000000
_cell_angle_alpha 90.000000
_cell_angle_beta 150.000000
_cell_angle_gamma 90.000000
_cell_volume 1296.000000
_symmetry_space_group_name_H-M "P 2/C"
_symmetry_group_IT_number 13
_symmetry_cell_setting 'monoclinic'
loop_
_space_group_symop_operation_xyz
x,y,z
-x,y,1/2-z
-x,-y,-z
x,-y,1/2+z
loop_
_atom_site_type_symbol
_atom_site_label
_atom_site_fract_x
_atom_site_fract_y
_atom_site_fract_z
Si Si1 0.136730 0.444506 0.617824
Si Si2 0.356597 0.919078 0.646644
Si Si3 0.562621 0.172147 0.013896
Si Si4 0.741770 0.853257 0.520928
Si Si5 0.322938 0.324896 0.037098
Si Si6 0.631698 0.585869 0.683672
Si Si7 0.000000 0.295937 0.250000
O O1 0.244428 0.548084 0.739017
O O2 0.000000 0.500000 0.500000
O O3 0.088818 0.377178 0.447367
O O4 0.229038 0.358014 0.810513
O O5 0.500000 0.937936 0.750000
O O6 0.407121 0.908707 0.841354
O O7 0.289288 0.800232 0.528324
O O8 0.237945 0.014904 0.469853
O O9 0.571378 0.293110 0.079974
O O10 0.402521 0.164559 0.746734
O O11 0.684287 0.164516 0.072900
O O12 0.880613 0.779727 0.662485
O O13 0.500000 0.330370 0.250000
O O14 0.295085 0.411331 0.099867
O O15 0.500000 0.500000 0.500000
#
# Coordination Sequence:
#
# PCOD9238995 Si02
#       7
#     4   4   4   4   4   4   2
#     4  12  25  44  63  90 135 173 212 267 332 392
#     4  10  21  39  69  97 124 165 221 278 329 379
#     4  10  22  39  66  96 126 161 228 274 318 388
#     4  11  23  41  63  95 130 173 210 275 329 387
#     4  10  22  39  65  96 120 165 220 266 317 385
#     4  11  21  38  63  94 121 162 216 267 317 380
#     4  12  28  42  62  96 138 176 214 262 340 398
#
# _framework density 20.061727999999999
#
# number of rings (size 3 to 8) (size 9 to 14) (size 15 to 20)
#    0.000    1.231    3.077    3.231    4.308    2.462 
#    0.000    6.154    0.000    0.000    0.000    0.000 
#    0.000    0.000    0.000    0.000    0.000    0.000 
#
# Total GULP energy -145025.565230 kJ/mol
# GULP energy per Si atom -5577.906355 kJ/mol
# Density = 2.001607 g / cm^3
# Si number density = 20.061728 Si / 1000 Ang^3
#
#
#
# Elastic Constant Matrix: (Units=GPa)
#
#
# Indices 1 2 3 4 5 6 
#
# 1 76.1782 7.2408 9.3516 0.0000 -1.3491 0.0000
# 2 7.2408 81.9010 14.7165 0.0000 -6.4606 0.0000
# 3 9.3516 14.7165 60.3414 0.0000 -20.5620 0.0000
# 4 0.0000 0.0000 0.0000 10.6498 0.0000 23.1554
# 5 -1.3491 -6.4606 -20.5620 0.0000 44.8475 0.0000
# 6 0.0000 0.0000 0.0000 23.1554 0.0000 49.9690
#
#
#
# Elastic Compliance Matrix: (Units=1/GPa)
#
#
# Indices 1 2 3 4 5 6 
#
# 1 0.013456 -0.000865 -0.002108 0.000000 -0.000686 0.000000
# 2 -0.000865 0.012834 -0.002815 0.000000 0.000532 0.000000
# 3 -0.002108 -0.002815 0.020652 0.000000 0.009000 0.000000
# 4 0.000000 0.000000 0.000000-12.464460 0.000000 5.775958
# 5 -0.000686 0.000532 0.009000 0.000000 0.026480 0.000000
# 6 0.000000 0.000000 0.000000 5.775958 0.000000 -2.656533
#
#
# Mechanical properties :
#
#
# Convention : Reuss Voigt Hill
#
# Bulk Modulus (GPa) = 28.27521 31.22648 29.75085
# Shear Modulus (GPa) = -0.33280 33.56739 16.61730
#
# Velocity S-wave (km/s) = -0.40773 4.09492 2.88116
# Velocity P-wave (km/s) = 3.72868 6.16091 5.09214
#
# Compressibility (1/GPa) = 0.03536667
#
# Stress axis : x y z
#
# Youngs Moduli (GPa) = 74.31628 77.91762 48.42048
#
# Poissons Ratio (x) = 0.06739 0.10209
# Poissons Ratio (y) = 0.06428 0.13628
# Poissons Ratio (z) = 0.15669 0.21931
#
# Static dielectric constant tensor:
#      x y z
#    x 1.456380 0.000000 -0.220210 
#    y 0.000000 1.740080 0.000000 
#    z -0.220210 0.000000 1.544990 
# 
# From -- ./inp_files/33970.got.cif
#   From: 2010.05.17/outbox.ucp.g08.bks.cvg/sg13_17_cif.got.tgz:33970.got - 2010.06.11 12:23:55.
