data_PCOD9238827
_publ_section_title
;
Structure prediction by ZEFSAII (Michael W. Deem and Ramdas Pophale) SiO2 
 PCOD9238827
Probable space group: P 2/C
;
_chemical_formula_sum "Si O2"
_cell_formula_units_Z 12
_cell_length_a 14.374674
_cell_length_b 4.965744
_cell_length_c 9.383231
_cell_angle_alpha 90.000000
_cell_angle_beta 139.255038
_cell_angle_gamma 90.000000
_cell_volume 437.163390
_symmetry_space_group_name_H-M "P 2/C"
_symmetry_group_IT_number 13
_symmetry_cell_setting 'monoclinic'
loop_
_space_group_symop_operation_xyz
x,y,z
-x,y,1/2-z
-x,-y,-z
x,-y,1/2+z
loop_
_atom_site_type_symbol
_atom_site_label
_atom_site_fract_x
_atom_site_fract_y
_atom_site_fract_z
Si Si1 0.660928 0.993574 0.395018
Si Si2 0.107409 0.252613 0.137762
Si Si3 0.348513 0.379592 0.866259
O O1 0.500000 0.898317 0.250000
O O2 0.796330 0.834477 0.616377
O O3 0.669804 0.897505 0.242013
O O4 0.664741 0.279157 0.484991
O O5 0.232756 0.396718 0.190025
O O6 0.000000 0.500000 0.000000
O O7 0.000000 0.000000 0.000000
O O8 0.500000 0.500000 0.000000
#
# Coordination Sequence:
#
# PCOD9238827 Si02
#       3
#     4   4   4
#     4  12  28  53  88 126 177 233 308 371 454 535
#     4  12  28  56  83 128 179 233 295 378 454 531
#     4  12  29  54  91 130 176 237 307 375 452 548
#
# _framework density 27.449694000000001
#
# number of rings (size 3 to 8) (size 9 to 14) (size 15 to 20)
#    0.000    0.000    6.667    1.000    4.667    1.333 
#    6.000    0.000    0.000    0.000    0.000    0.000 
#    0.000    0.000    0.000    0.000    0.000    0.000 
#
# Total GULP energy -66874.145354 kJ/mol
# GULP energy per Si atom -5572.845446 kJ/mol
# Density = 2.738722 g / cm^3
# Si number density = 27.449694 Si / 1000 Ang^3
#
#
#
# Elastic Constant Matrix: (Units=GPa)
#
#
# Indices 1 2 3 4 5 6 
#
# 1 145.3787 86.7517 70.7076 0.0000 21.6617 0.0000
# 2 86.7517 286.9582 76.9504 0.0000 33.3433 0.0000
# 3 70.7076 76.9504 180.6246 0.0000 49.5417 0.0000
# 4 0.0000 0.0000 0.0000 24.5334 0.0000 18.4733
# 5 21.6617 33.3433 49.5417 0.0000 75.1698 0.0000
# 6 0.0000 0.0000 0.0000 18.4733 0.0000 44.0759
#
#
#
# Elastic Compliance Matrix: (Units=1/GPa)
#
#
# Indices 1 2 3 4 5 6 
#
# 1 0.009517 -0.002124 -0.002840 0.000000 0.000072 0.000000
# 2 -0.002124 0.004446 -0.000842 0.000000 -0.000805 0.000000
# 3 -0.002840 -0.000842 0.008154 0.000000 -0.004182 0.000000
# 4 0.000000 0.000000 0.000000 0.059556 0.000000 -0.024962
# 5 0.000072 -0.000805 -0.004182 0.000000 0.016396 0.000000
# 6 0.000000 0.000000 0.000000 -0.024962 0.000000 0.033150
#
#
# Mechanical properties :
#
#
# Convention : Reuss Voigt Hill
#
# Bulk Modulus (GPa) = 95.19338 120.19786 107.69562
# Shear Modulus (GPa) = 34.16867 53.99262 44.08065
#
# Velocity S-wave (km/s) = 3.53196 4.43986 4.01168
# Velocity P-wave (km/s) = 7.16851 8.37655 7.79597
#
# Compressibility (1/GPa) = 0.01050493
#
# Stress axis : x y z
#
# Youngs Moduli (GPa) = 105.07953 224.91097 122.64013
#
# Poissons Ratio (x) = 0.47764 0.34833
# Poissons Ratio (y) = 0.22316 0.10326
# Poissons Ratio (z) = 0.29845 0.18937
#
# Static dielectric constant tensor:
#      x y z
#    x 2.501700 0.000000 -0.156730 
#    y 0.000000 2.232320 0.000000 
#    z -0.156730 0.000000 2.123270 
# 
# From -- ./inp_files/17677.got.cif
#   From: 2010.05.17/outbox.cif.g08.bks.cpg/sg13_9_cif.got.tgz:17677.got - 2010.06.03 16:44:36.
