data_PCOD9238641
_publ_section_title
;
Structure prediction by ZEFSAII (Michael W. Deem and Ramdas Pophale) SiO2 
 PCOD9238641
Probable space group: P 2/C
;
_chemical_formula_sum "Si O2"
_cell_formula_units_Z 20
_cell_length_a 14.459327
_cell_length_b 6.641412
_cell_length_c 19.110305
_cell_angle_alpha 90.000000
_cell_angle_beta 26.384010
_cell_angle_gamma 90.000000
_cell_volume 815.522027
_symmetry_space_group_name_H-M "P 2/C"
_symmetry_group_IT_number 13
_symmetry_cell_setting 'monoclinic'
loop_
_space_group_symop_operation_xyz
x,y,z
-x,y,1/2-z
-x,-y,-z
x,-y,1/2+z
loop_
_atom_site_type_symbol
_atom_site_label
_atom_site_fract_x
_atom_site_fract_y
_atom_site_fract_z
Si Si1 0.389185 0.524561 0.649925
Si Si2 0.014529 0.297562 0.862832
Si Si3 0.787499 0.866857 0.641771
Si Si4 0.000000 0.976085 0.750000
Si Si5 0.500000 0.121580 0.750000
Si Si6 0.764929 0.639224 0.975695
O O1 0.500000 0.500000 0.500000
O O2 0.224155 0.342886 0.762733
O O3 0.265873 0.727386 0.755589
O O4 0.574602 0.495317 0.578848
O O5 0.028720 0.115165 0.798653
O O6 0.833438 0.268534 0.042003
O O7 0.961675 0.497850 0.855093
O O8 0.584950 0.993236 0.757261
O O9 0.000000 0.000000 0.500000
O O10 0.188193 0.822439 0.608379
O O11 0.306741 0.255621 0.904618
#
# Coordination Sequence:
#
# PCOD9238641 Si02
#       6
#     4   4   4   2   2   4
#     4  12  27  44  76 110 150 194 254 315 372 452
#     4  12  26  50  72 107 154 193 247 310 386 448
#     4  12  26  47  74 110 148 205 249 306 386 454
#     4  12  26  46  78 106 148 200 242 318 376 456
#     4  12  24  46  76 104 142 196 256 300 366 462
#     4  12  26  48  74 109 147 196 249 310 384 442
#
# _framework density 24.524166999999998
#
# number of rings (size 3 to 8) (size 9 to 14) (size 15 to 20)
#    0.000    0.000    2.000    8.400    5.600    0.800 
#    0.000    0.000    0.000    0.000    0.000    0.000 
#    0.000    0.000    0.000    0.000    0.000    0.000 
#
# Total GULP energy -111975.051896 kJ/mol
# GULP energy per Si atom -5598.752595 kJ/mol
# Density = 2.446835 g / cm^3
# Si number density = 24.524167 Si / 1000 Ang^3
#
#
#
# Elastic Constant Matrix: (Units=GPa)
#
#
# Indices 1 2 3 4 5 6 
#
# 1 80.3959 36.8785 17.0975 0.0000 0.6337 0.0000
# 2 36.8785 121.2530 49.4366 0.0000 12.1517 0.0000
# 3 17.0975 49.4366 102.3070 0.0000 17.7991 0.0000
# 4 0.0000 0.0000 0.0000 59.2037 0.0000 7.0050
# 5 0.6337 12.1517 17.7991 0.0000 53.1426 0.0000
# 6 0.0000 0.0000 0.0000 7.0050 0.0000 45.1374
#
#
#
# Elastic Compliance Matrix: (Units=1/GPa)
#
#
# Indices 1 2 3 4 5 6 
#
# 1 0.014514 -0.004302 -0.000518 0.000000 0.000984 0.000000
# 2 -0.004302 0.011572 -0.004695 0.000000 -0.001022 0.000000
# 3 -0.000518 -0.004695 0.012681 0.000000 -0.003167 0.000000
# 4 0.000000 0.000000 0.000000 0.017207 0.000000 -0.002670
# 5 0.000984 -0.001022 -0.003167 0.000000 0.020100 0.000000
# 6 0.000000 0.000000 0.000000 -0.002670 0.000000 0.022569
#
#
# Mechanical properties :
#
#
# Convention : Reuss Voigt Hill
#
# Bulk Modulus (GPa) = 50.66557 56.75342 53.70950
# Shear Modulus (GPa) = 40.24058 44.86629 42.55343
#
# Velocity S-wave (km/s) = 4.05514 4.28187 4.17005
# Velocity P-wave (km/s) = 6.52915 6.90203 6.71818
#
# Compressibility (1/GPa) = 0.01973727
#
# Stress axis : x y z
#
# Youngs Moduli (GPa) = 68.89824 86.41294 78.85844
#
# Poissons Ratio (x) = 0.37173 0.04086
# Poissons Ratio (y) = 0.29639 0.37026
# Poissons Ratio (z) = 0.03570 0.40573
#
# Static dielectric constant tensor:
#      x y z
#    x 1.937660 0.000000 0.032570 
#    y 0.000000 2.008560 0.000000 
#    z 0.032570 0.000000 1.991730 
# 
# From -- ./inp_files/69219.got.cif
#   From: 2010.05.17/outbox.cif.g08.bks.cpg/sg13_35_cif.got.tgz:69219.got - 2010.06.03 16:44:36.
