data_PCOD9238345
_publ_section_title
;
Structure prediction by ZEFSAII (Michael W. Deem and Ramdas Pophale) SiO2 
 PCOD9238345
Probable space group: P 2/C
;
_chemical_formula_sum "Si O2"
_cell_formula_units_Z 18
_cell_length_a 9.561002
_cell_length_b 9.156100
_cell_length_c 14.460184
_cell_angle_alpha 90.000000
_cell_angle_beta 144.720213
_cell_angle_gamma 90.000000
_cell_volume 731.125840
_symmetry_space_group_name_H-M "P 2/C"
_symmetry_group_IT_number 13
_symmetry_cell_setting 'monoclinic'
loop_
_space_group_symop_operation_xyz
x,y,z
-x,y,1/2-z
-x,-y,-z
x,-y,1/2+z
loop_
_atom_site_type_symbol
_atom_site_label
_atom_site_fract_x
_atom_site_fract_y
_atom_site_fract_z
Si Si1 0.143228 0.035381 0.172618
Si Si2 0.165044 0.303960 0.419226
Si Si3 0.707308 0.741151 0.152923
Si Si4 0.859488 0.391500 0.536031
Si Si5 0.500000 0.812662 0.750000
O O1 0.411803 0.087097 0.286762
O O2 0.987501 0.165355 0.131467
O O3 0.179001 0.899119 0.260543
O O4 0.000000 0.000000 0.000000
O O5 0.424887 0.257979 0.521740
O O6 0.197487 0.438781 0.506065
O O7 0.000000 0.374056 0.250000
O O8 0.753806 0.675445 0.076122
O O9 0.855020 0.635954 0.302198
O O10 0.727282 0.291297 0.390704
#
# Coordination Sequence:
#
# PCOD9238345 Si02
#       5
#     4   4   4   4   2
#     4  12  27  46  73 109 146 194 242 300 365 429
#     4  12  27  46  78 107 141 196 250 294 369 431
#     4  11  25  49  73 104 149 186 245 302 353 435
#     4  11  26  47  75 106 148 190 243 304 360 431
#     4  12  26  46  72 106 152 192 244 300 368 426
#
# _framework density 24.619562999999999
#
# number of rings (size 3 to 8) (size 9 to 14) (size 15 to 20)
#    0.000    0.444    4.444    3.333    6.222    4.444 
#    0.000    0.000    0.000    0.000    0.000    0.000 
#    0.000    0.000    0.000    0.000    0.000    0.000 
#
# Total GULP energy -100794.489267 kJ/mol
# GULP energy per Si atom -5599.693848 kJ/mol
# Density = 2.456353 g / cm^3
# Si number density = 24.619563 Si / 1000 Ang^3
#
#
#
# Elastic Constant Matrix: (Units=GPa)
#
#
# Indices 1 2 3 4 5 6 
#
# 1 103.1825 54.0253 23.9920 0.0000 27.0379 0.0000
# 2 54.0253 162.6875 12.0972 0.0000 8.0065 0.0000
# 3 23.9920 12.0972 75.7243 0.0000 21.6492 0.0000
# 4 0.0000 0.0000 0.0000 31.8415 0.0000 -8.2267
# 5 27.0379 8.0065 21.6492 0.0000 46.2717 0.0000
# 6 0.0000 0.0000 0.0000 -8.2267 0.0000 37.1965
#
#
#
# Elastic Compliance Matrix: (Units=1/GPa)
#
#
# Indices 1 2 3 4 5 6 
#
# 1 0.014064 -0.004204 -0.001897 0.000000 -0.006603 0.000000
# 2 -0.004204 0.007498 -0.000228 0.000000 0.001266 0.000000
# 3 -0.001897 -0.000228 0.015602 0.000000 -0.006152 0.000000
# 4 0.000000 0.000000 0.000000 0.033309 0.000000 0.007367
# 5 -0.006603 0.001266 -0.006152 0.000000 0.028129 0.000000
# 6 0.000000 0.000000 0.000000 0.007367 0.000000 0.028514
#
#
# Mechanical properties :
#
#
# Convention : Reuss Voigt Hill
#
# Bulk Modulus (GPa) = 40.80523 57.98037 49.39280
# Shear Modulus (GPa) = 33.79713 39.82727 36.81220
#
# Velocity S-wave (km/s) = 3.70912 4.02644 3.87103
# Velocity P-wave (km/s) = 5.91217 6.72443 6.33134
#
# Compressibility (1/GPa) = 0.02450666
#
# Stress axis : x y z
#
# Youngs Moduli (GPa) = 71.10197 133.37602 64.09488
#
# Poissons Ratio (x) = 0.56078 0.12156
# Poissons Ratio (y) = 0.29895 0.01459
# Poissons Ratio (z) = 0.13484 0.03035
#
# Static dielectric constant tensor:
#      x y z
#    x 1.982440 0.000000 -0.030370 
#    y 0.000000 1.948470 0.000000 
#    z -0.030370 0.000000 1.954890 
# 
# From -- ./inp_files/32342.got.cif
#   From: 2010.05.17/outbox.cif.g08.bks.cpg/sg13_17_cif.got.tgz:32342.got - 2010.06.03 16:44:36.
