data_PCOD9238376
_publ_section_title
;
Structure prediction by ZEFSAII (Michael W. Deem and Ramdas Pophale) SiO2 
 PCOD9238376
Probable space group: P 2/C
;
_chemical_formula_sum "Si O2"
_cell_formula_units_Z 16
_cell_length_a 13.478105
_cell_length_b 4.631954
_cell_length_c 8.720076
_cell_angle_alpha 90.000000
_cell_angle_beta 84.706168
_cell_angle_gamma 90.000000
_cell_volume 542.071978
_symmetry_space_group_name_H-M "P 2/C"
_symmetry_group_IT_number 13
_symmetry_cell_setting 'monoclinic'
loop_
_space_group_symop_operation_xyz
x,y,z
-x,y,1/2-z
-x,-y,-z
x,-y,1/2+z
loop_
_atom_site_type_symbol
_atom_site_label
_atom_site_fract_x
_atom_site_fract_y
_atom_site_fract_z
Si Si1 0.690431 0.335990 0.826651
Si Si2 0.830029 0.852212 0.813463
Si Si3 0.000000 0.000000 0.500000
Si Si4 0.575265 0.907579 0.621621
Si Si5 0.000000 0.510799 0.250000
O O1 0.727745 0.665352 0.818116
O O2 0.619790 0.180773 0.709861
O O3 0.792415 0.166934 0.784632
O O4 0.654215 0.264719 0.005454
O O5 0.889715 0.843060 0.962565
O O6 0.918598 0.723645 0.694981
O O7 0.976321 0.734338 0.385162
O O8 0.500000 0.744519 0.750000
O O9 0.500000 0.000000 0.500000
#
# Coordination Sequence:
#
# PCOD9238376 Si02
#       5
#     4   4   2   4   2
#     4  11  26  44  78 114 150 204 269 329 381 507
#     4  12  28  45  76 115 157 206 274 314 399 454
#     4  12  28  52  76 110 166 216 264 334 400 466
#     4   9  22  51  77 111 155 199 254 337 425 472
#     4  12  28  50  76 112 164 216 262 336 396 478
#
# _framework density 29.516373999999999
#
# number of rings (size 3 to 8) (size 9 to 14) (size 15 to 20)
#    0.000    1.000    2.500    1.500    7.000    0.000 
#    0.000   25.000    0.000    0.000    0.000    0.000 
#    0.000    0.000    0.000    0.000    0.000    0.000 
#
# Total GULP energy -89189.768904 kJ/mol
# GULP energy per Si atom -5574.360556 kJ/mol
# Density = 2.944919 g / cm^3
# Si number density = 29.516374 Si / 1000 Ang^3
#
#
#
# Elastic Constant Matrix: (Units=GPa)
#
#
# Indices 1 2 3 4 5 6 
#
# 1 126.7406 -6.9737 40.3944 0.0000 27.5527 0.0000
# 2 -6.9737 124.0436 13.3857 0.0000 17.5909 0.0000
# 3 40.3944 13.3857 201.7752 0.0000 4.7199 0.0000
# 4 0.0000 0.0000 0.0000 38.7678 0.0000 1.1009
# 5 27.5527 17.5909 4.7199 0.0000 74.9245 0.0000
# 6 0.0000 0.0000 0.0000 1.1009 0.0000 41.2575
#
#
#
# Elastic Compliance Matrix: (Units=1/GPa)
#
#
# Indices 1 2 3 4 5 6 
#
# 1 0.009337 0.001238 -0.001867 0.000000 -0.003607 0.000000
# 2 0.001238 0.008556 -0.000759 0.000000 -0.002416 0.000000
# 3 -0.001867 -0.000759 0.005368 0.000000 0.000527 0.000000
# 4 0.000000 0.000000 0.000000 0.025814 0.000000 -0.000689
# 5 -0.003607 -0.002416 0.000527 0.000000 0.015207 0.000000
# 6 0.000000 0.000000 0.000000 -0.000689 0.000000 0.024256
#
#
# Mechanical properties :
#
#
# Convention : Reuss Voigt Hill
#
# Bulk Modulus (GPa) = 48.81637 60.68579 54.75108
# Shear Modulus (GPa) = 50.94599 58.04017 54.49308
#
# Velocity S-wave (km/s) = 4.15905 4.43919 4.30140
# Velocity P-wave (km/s) = 6.29589 6.84689 6.57716
#
# Compressibility (1/GPa) = 0.02048493
#
# Stress axis : x y z
#
# Youngs Moduli (GPa) = 107.09623 116.87969 186.29572
#
# Poissons Ratio (x) = -0.14469 0.34782
# Poissons Ratio (y) = -0.13257 0.14138
# Poissons Ratio (z) = 0.19995 0.08870
#
# Static dielectric constant tensor:
#      x y z
#    x 2.422550 0.000000 -0.081340 
#    y 0.000000 2.174150 0.000000 
#    z -0.081340 0.000000 2.153960 
# 
# From -- ./inp_files/17452.got.cif
#   From: 2010.05.17/outbox.cif.g08.bks.cpg/sg13_9_cif.got.tgz:17452.got - 2010.06.03 16:44:36.
