data_PCOD9238847
_publ_section_title
;
Structure prediction by ZEFSAII (Michael W. Deem and Ramdas Pophale) SiO2 
 PCOD9238847
Probable space group: P 2/C
;
_chemical_formula_sum "Si O2"
_cell_formula_units_Z 24
_cell_length_a 8.106711
_cell_length_b 8.063647
_cell_length_c 22.699381
_cell_angle_alpha 90.000000
_cell_angle_beta 44.992902
_cell_angle_gamma 90.000000
_cell_volume 1049.110917
_symmetry_space_group_name_H-M "P 2/C"
_symmetry_group_IT_number 13
_symmetry_cell_setting 'monoclinic'
loop_
_space_group_symop_operation_xyz
x,y,z
-x,y,1/2-z
-x,-y,-z
x,-y,1/2+z
loop_
_atom_site_type_symbol
_atom_site_label
_atom_site_fract_x
_atom_site_fract_y
_atom_site_fract_z
Si Si1 0.334319 0.988713 0.107103
Si Si2 0.181416 0.875506 0.375999
Si Si3 0.247084 0.817074 0.931212
Si Si4 0.515641 0.501550 0.097306
Si Si5 0.292849 0.227967 0.723745
Si Si6 0.649933 0.273481 0.467155
O O1 0.229025 0.903385 0.190216
O O2 0.558506 0.082703 0.079797
O O3 0.203092 0.125767 0.100844
O O4 0.426723 0.837716 0.043582
O O5 0.435770 0.805793 0.328492
O O6 0.144268 0.807624 0.319479
O O7 0.982963 0.815436 0.470570
O O8 0.203230 0.072737 0.384197
O O9 0.345489 0.632578 0.899376
O O10 0.319585 0.595000 0.185116
O O11 0.396068 0.403254 0.073245
O O12 0.690749 0.626879 0.017501
#
# Coordination Sequence:
#
# PCOD9238847 Si02
#       6
#     4   4   4   4   4   4
#     4   8  14  27  49  70  90 121 156 191 231 280
#     4   9  18  32  47  67  96 126 157 192 233 282
#     4   9  17  30  50  71  91 122 161 194 230 282
#     4   9  16  27  48  72  91 119 159 197 232 275
#     4   9  17  30  47  68  95 123 153 192 239 283
#     4   8  14  26  47  69  91 118 158 193 227 281
#
# _framework density 22.876515000000001
#
# number of rings (size 3 to 8) (size 9 to 14) (size 15 to 20)
#    0.000    3.333    0.000    0.000    0.000    0.667 
#    0.000   10.000    0.000   38.000    0.000    0.000 
#    0.000    0.000    0.000    0.000    0.000    0.000 
#
# Total GULP energy -133657.953873 kJ/mol
# GULP energy per Si atom -5569.081411 kJ/mol
# Density = 2.282445 g / cm^3
# Si number density = 22.876515 Si / 1000 Ang^3
#
#
#
# Elastic Constant Matrix: (Units=GPa)
#
#
# Indices 1 2 3 4 5 6 
#
# 1 71.2619 24.3315 32.4281 0.0000 6.5642 0.0000
# 2 24.3315 132.3452 57.0837 0.0000 17.2828 0.0000
# 3 32.4281 57.0837 97.2774 0.0000 17.3774 0.0000
# 4 0.0000 0.0000 0.0000 6.0744 0.0000 24.5070
# 5 6.5642 17.2828 17.3774 0.0000 40.8113 0.0000
# 6 0.0000 0.0000 0.0000 24.5070 0.0000 -3.1220
#
#
#
# Elastic Compliance Matrix: (Units=1/GPa)
#
#
# Indices 1 2 3 4 5 6 
#
# 1 0.016621 -0.000879 -0.004994 0.000000 -0.000175 0.000000
# 2 -0.000879 0.010301 -0.005409 0.000000 -0.001918 0.000000
# 3 -0.004994 -0.005409 0.015765 0.000000 -0.003619 0.000000
# 4 0.000000 0.000000 0.000000 0.005039 0.000000 0.039556
# 5 -0.000175 -0.001918 -0.003619 0.000000 0.026884 0.000000
# 6 0.000000 0.000000 0.000000 0.039556 0.000000 -0.009804
#
#
# Mechanical properties :
#
#
# Convention : Reuss Voigt Hill
#
# Bulk Modulus (GPa) = 49.69269 58.73013 54.21141
# Shear Modulus (GPa) = 53.14695 21.22218 37.18456
#
# Velocity S-wave (km/s) = 4.82520 3.04909 4.03606
# Velocity P-wave (km/s) = 7.26723 6.17449 6.74304
#
# Compressibility (1/GPa) = 0.02012369
#
# Stress axis : x y z
#
# Youngs Moduli (GPa) = 60.16324 97.07623 63.43048
#
# Poissons Ratio (x) = 0.08533 0.31676
# Poissons Ratio (y) = 0.05289 0.34311
# Poissons Ratio (z) = 0.30044 0.52511
#
# Static dielectric constant tensor:
#      x y z
#    x 1.943770 0.000000 0.021880 
#    y 0.000000 1.923890 0.000000 
#    z 0.021880 0.000000 1.918000 
# 
# From -- ./inp_files/86070.got.cif
#   From: 2010.05.17/outbox.cif.g08.bks.cpg/sg13_44_cif.got.tgz:86070.got - 2010.06.03 16:44:36.
