data_PCOD9238706
_publ_section_title
;
Structure prediction by ZEFSAII (Michael W. Deem and Ramdas Pophale) SiO2 
 PCOD9238706
Probable space group: P 2/C
;
_chemical_formula_sum "Si O2"
_cell_formula_units_Z 14
_cell_length_a 22.477819
_cell_length_b 4.936064
_cell_length_c 14.440248
_cell_angle_alpha 90.000000
_cell_angle_beta 158.470480
_cell_angle_gamma 90.000000
_cell_volume 587.966591
_symmetry_space_group_name_H-M "P 2/C"
_symmetry_group_IT_number 13
_symmetry_cell_setting 'monoclinic'
loop_
_space_group_symop_operation_xyz
x,y,z
-x,y,1/2-z
-x,-y,-z
x,-y,1/2+z
loop_
_atom_site_type_symbol
_atom_site_label
_atom_site_fract_x
_atom_site_fract_y
_atom_site_fract_z
Si Si1 0.917359 0.746140 0.828313
Si Si2 0.337937 0.074210 0.321558
Si Si3 0.642664 0.434950 0.520656
Si Si4 0.000000 0.947906 0.750000
O O1 0.735904 0.643748 0.585204
O O2 0.950946 0.776012 0.768992
O O3 0.000000 0.500000 0.000000
O O4 0.000000 0.000000 0.000000
O O5 0.300122 0.836803 0.342471
O O6 0.500000 0.000000 0.500000
O O7 0.382775 0.357249 0.433068
O O8 0.167058 0.104448 0.018376
O O9 0.500000 0.330247 0.250000
#
# Coordination Sequence:
#
# PCOD9238706 Si02
#       4
#     4   4   4   2
#     4  12  25  47  72 110 152 197 255 314 384 462
#     4  12  27  47  75 115 154 205 260 322 392 470
#     4  12  25  49  74 108 160 199 258 324 391 463
#     4  12  26  48  82 112 160 200 266 324 400 466
#
# _framework density 23.810873999999998
#
# number of rings (size 3 to 8) (size 9 to 14) (size 15 to 20)
#    0.000    0.000    5.714    3.429    0.000    6.857 
#    0.000    0.000    0.000    0.000    0.000    0.000 
#    0.000    0.000    0.000    0.000    0.000    0.000 
#
# Total GULP energy -78026.803495 kJ/mol
# GULP energy per Si atom -5573.343107 kJ/mol
# Density = 2.375668 g / cm^3
# Si number density = 23.810874 Si / 1000 Ang^3
#
#
#
# Elastic Constant Matrix: (Units=GPa)
#
#
# Indices 1 2 3 4 5 6 
#
# 1 132.4478 9.7220 30.3589 0.0000 -2.8919 0.0000
# 2 9.7220 135.1503 13.1561 0.0000 -22.2271 0.0000
# 3 30.3589 13.1561 148.0545 0.0000 -15.2868 0.0000
# 4 0.0000 0.0000 0.0000 22.5920 0.0000 6.2962
# 5 -2.8919 -22.2271 -15.2868 0.0000 46.5414 0.0000
# 6 0.0000 0.0000 0.0000 6.2962 0.0000 11.7824
#
#
#
# Elastic Compliance Matrix: (Units=1/GPa)
#
#
# Indices 1 2 3 4 5 6 
#
# 1 0.007948 -0.000456 -0.001616 0.000000 -0.000255 0.000000
# 2 -0.000456 0.008072 -0.000237 0.000000 0.003749 0.000000
# 3 -0.001616 -0.000237 0.007333 0.000000 0.002195 0.000000
# 4 0.000000 0.000000 0.000000 0.052009 0.000000 -0.027792
# 5 -0.000255 0.003749 0.002195 0.000000 0.023982 0.000000
# 6 0.000000 0.000000 0.000000 -0.027792 0.000000 0.099724
#
#
# Mechanical properties :
#
#
# Convention : Reuss Voigt Hill
#
# Bulk Modulus (GPa) = 53.37304 58.01406 55.69355
# Shear Modulus (GPa) = 23.81744 40.34418 32.08081
#
# Velocity S-wave (km/s) = 3.16614 4.12073 3.67456
# Velocity P-wave (km/s) = 5.98582 6.85988 6.43770
#
# Compressibility (1/GPa) = 0.01873605
#
# Stress axis : x y z
#
# Youngs Moduli (GPa) = 125.81150 123.89195 136.36541
#
# Poissons Ratio (x) = 0.05654 0.22031
# Poissons Ratio (y) = 0.05742 0.03226
# Poissons Ratio (z) = 0.20326 0.02931
#
# Static dielectric constant tensor:
#      x y z
#    x 1.867590 0.000000 0.076850 
#    y 0.000000 1.819950 0.000000 
#    z 0.076850 0.000000 1.818330 
# 
# From -- ./inp_files/45096.got.cif
#   From: 2010.05.17/outbox.cif.g08.bks.cpg/sg13_23_cif.got.tgz:45096.got - 2010.06.03 16:44:36.
