data_PCOD9238801
_publ_section_title
;
Structure prediction by ZEFSAII (Michael W. Deem and Ramdas Pophale) SiO2 
 PCOD9238801
Probable space group: P 2/C
;
_chemical_formula_sum "Si O2"
_cell_formula_units_Z 20
_cell_length_a 11.937562
_cell_length_b 4.874322
_cell_length_c 15.107025
_cell_angle_alpha 90.000000
_cell_angle_beta 128.107779
_cell_angle_gamma 90.000000
_cell_volume 691.673978
_symmetry_space_group_name_H-M "P 2/C"
_symmetry_group_IT_number 13
_symmetry_cell_setting 'monoclinic'
loop_
_space_group_symop_operation_xyz
x,y,z
-x,y,1/2-z
-x,-y,-z
x,-y,1/2+z
loop_
_atom_site_type_symbol
_atom_site_label
_atom_site_fract_x
_atom_site_fract_y
_atom_site_fract_z
Si Si1 0.476551 0.049161 0.840540
Si Si2 0.237960 0.636357 0.780589
Si Si3 0.500000 0.500000 0.500000
Si Si4 0.852850 0.668272 0.426135
Si Si5 0.000000 0.996686 0.750000
Si Si6 0.775442 0.191316 0.502454
O O1 0.500000 0.122417 0.750000
O O2 0.345780 0.839294 0.781276
O O3 0.464929 0.304377 0.898468
O O4 0.612364 0.883084 0.946267
O O5 0.198159 0.379549 0.698973
O O6 0.094264 0.799501 0.733788
O O7 0.328929 0.594465 0.913571
O O8 0.838538 0.967351 0.461918
O O9 0.000000 0.500000 0.500000
O O10 0.761805 0.477581 0.446379
O O11 0.112156 0.170904 0.862695
#
# Coordination Sequence:
#
# PCOD9238801 Si02
#       6
#     4   4   2   4   2   4
#     4  12  27  51  83 125 168 226 282 361 430 521
#     4  12  28  51  80 117 168 220 281 357 426 511
#     4  12  28  48  84 120 170 220 290 348 432 508
#     4  12  27  52  85 119 164 221 283 348 422 515
#     4  12  28  50  78 122 168 218 276 356 424 506
#     4  12  28  51  83 123 163 218 284 346 431 509
#
# _framework density 28.915354000000001
#
# number of rings (size 3 to 8) (size 9 to 14) (size 15 to 20)
#    0.000    0.000    6.000    2.400    2.800    1.600 
#    0.000    0.000    0.000    0.000    0.000    0.000 
#    0.000    0.000    0.000    0.000    0.000    0.000 
#
# Total GULP energy -112022.638016 kJ/mol
# GULP energy per Si atom -5601.131901 kJ/mol
# Density = 2.884954 g / cm^3
# Si number density = 28.915354 Si / 1000 Ang^3
#
#
#
# Elastic Constant Matrix: (Units=GPa)
#
#
# Indices 1 2 3 4 5 6 
#
# 1 117.0239 11.8844 7.7929 0.0000 5.5179 0.0000
# 2 11.8844 103.1350 10.1038 0.0000 -21.3419 0.0000
# 3 7.7929 10.1038 227.4537 0.0000 -0.1724 0.0000
# 4 0.0000 0.0000 0.0000 52.6820 0.0000 -5.7921
# 5 5.5179 -21.3419 -0.1724 0.0000 68.7194 0.0000
# 6 0.0000 0.0000 0.0000 -5.7921 0.0000 40.1179
#
#
#
# Elastic Compliance Matrix: (Units=1/GPa)
#
#
# Indices 1 2 3 4 5 6 
#
# 1 0.008735 -0.001205 -0.000247 0.000000 -0.001076 0.000000
# 2 -0.001205 0.010576 -0.000426 0.000000 0.003380 0.000000
# 3 -0.000247 -0.000426 0.004424 0.000000 -0.000101 0.000000
# 4 0.000000 0.000000 0.000000 0.019288 0.000000 0.002785
# 5 -0.001076 0.003380 -0.000101 0.000000 0.015688 0.000000
# 6 0.000000 0.000000 0.000000 0.002785 0.000000 0.025329
#
#
# Mechanical properties :
#
#
# Convention : Reuss Voigt Hill
#
# Bulk Modulus (GPa) = 50.05121 56.35274 53.20198
# Shear Modulus (GPa) = 52.93572 60.15930 56.54751
#
# Velocity S-wave (km/s) = 4.28333 4.56623 4.42704
# Velocity P-wave (km/s) = 6.46604 6.87981 6.67613
#
# Compressibility (1/GPa) = 0.01997954
#
# Stress axis : x y z
#
# Youngs Moduli (GPa) = 114.48440 94.55273 226.05046
#
# Poissons Ratio (x) = 0.11394 0.05573
# Poissons Ratio (y) = 0.13796 0.09629
# Poissons Ratio (z) = 0.02823 0.04028
#
# Static dielectric constant tensor:
#      x y z
#    x 2.689820 0.000000 -0.112890 
#    y 0.000000 2.143060 0.000000 
#    z -0.112890 0.000000 2.306190 
# 
# From -- ./inp_files/65501.got.cif
#   From: 2010.05.17/outbox.cif.g08.bks.cpg/sg13_33_cif.got.tgz:65501.got - 2010.06.03 16:44:36.
