data_PCOD9238808
_publ_section_title
;
Structure prediction by ZEFSAII (Michael W. Deem and Ramdas Pophale) SiO2 
 PCOD9238808
Probable space group: P 2/C
;
_chemical_formula_sum "Si O2"
_cell_formula_units_Z 14
_cell_length_a 7.870704
_cell_length_b 4.997137
_cell_length_c 19.933485
_cell_angle_alpha 90.000000
_cell_angle_beta 43.771309
_cell_angle_gamma 90.000000
_cell_volume 542.359331
_symmetry_space_group_name_H-M "P 2/C"
_symmetry_group_IT_number 13
_symmetry_cell_setting 'monoclinic'
loop_
_space_group_symop_operation_xyz
x,y,z
-x,y,1/2-z
-x,-y,-z
x,-y,1/2+z
loop_
_atom_site_type_symbol
_atom_site_label
_atom_site_fract_x
_atom_site_fract_y
_atom_site_fract_z
Si Si1 0.500000 0.066217 0.250000
Si Si2 0.984868 0.691968 0.940085
Si Si3 0.516235 0.005788 0.099182
Si Si4 0.232789 0.522076 0.135085
O O1 0.742497 0.229176 0.160743
O O2 0.446662 0.917704 0.195428
O O3 0.860084 0.554952 0.911541
O O4 0.802176 0.940230 0.007934
O O5 0.000000 0.500000 0.000000
O O6 0.361577 0.808362 0.096613
O O7 0.420747 0.302767 0.112151
O O8 0.000000 0.528722 0.250000
#
# Coordination Sequence:
#
# PCOD9238808 Si02
#       4
#     2   4   4   4
#     4  12  28  52  78 124 164 210 264 338 402 478
#     4  12  29  52  83 122 163 211 269 332 404 476
#     4  12  28  51  83 114 162 209 269 326 399 472
#     4  12  27  53  83 113 160 214 265 330 396 474
#
# _framework density 25.813143
#
# number of rings (size 3 to 8) (size 9 to 14) (size 15 to 20)
#    0.000    0.000    2.857    5.143    4.000    3.429 
#    0.000    0.000    0.000    0.000    0.000    0.000 
#    0.000    0.000    0.000    0.000    0.000    0.000 
#
# Total GULP energy -78645.242501 kJ/mol
# GULP energy per Si atom -5617.517322 kJ/mol
# Density = 2.575439 g / cm^3
# Si number density = 25.813143 Si / 1000 Ang^3
#
#
#
# Elastic Constant Matrix: (Units=GPa)
#
#
# Indices 1 2 3 4 5 6 
#
# 1 143.7049 21.0506 57.8486 0.0000 -1.1359 0.0000
# 2 21.0506 94.3757 34.0591 0.0000 -26.8418 0.0000
# 3 57.8486 34.0591 216.1050 0.0000 -34.0036 0.0000
# 4 0.0000 0.0000 0.0000 41.1207 0.0000 5.1163
# 5 -1.1359 -26.8418 -34.0036 0.0000 62.2180 0.0000
# 6 0.0000 0.0000 0.0000 5.1163 0.0000 48.4084
#
#
#
# Elastic Compliance Matrix: (Units=1/GPa)
#
#
# Indices 1 2 3 4 5 6 
#
# 1 0.008042 -0.001486 -0.002184 0.000000 -0.001688 0.000000
# 2 -0.001486 0.012637 -0.000810 0.000000 0.004982 0.000000
# 3 -0.002184 -0.000810 0.005775 0.000000 0.002767 0.000000
# 4 0.000000 0.000000 0.000000 0.024643 0.000000 -0.002604
# 5 -0.001688 0.004982 0.002767 0.000000 0.019703 0.000000
# 6 0.000000 0.000000 0.000000 -0.002604 0.000000 0.020933
#
#
# Mechanical properties :
#
#
# Convention : Reuss Voigt Hill
#
# Bulk Modulus (GPa) = 57.16204 75.56690 66.36447
# Shear Modulus (GPa) = 46.93792 53.09791 50.01792
#
# Velocity S-wave (km/s) = 4.26886 4.54035 4.40670
# Velocity P-wave (km/s) = 6.81837 7.53820 7.18731
#
# Compressibility (1/GPa) = 0.01749413
#
# Stress axis : x y z
#
# Youngs Moduli (GPa) = 124.34318 79.13566 173.15716
#
# Poissons Ratio (x) = 0.11756 0.37822
# Poissons Ratio (y) = 0.18473 0.14026
# Poissons Ratio (z) = 0.27160 0.06410
#
# Static dielectric constant tensor:
#      x y z
#    x 2.025190 0.000000 0.009300 
#    y 0.000000 2.003330 0.000000 
#    z 0.009300 0.000000 1.971920 
# 
# From -- ./inp_files/74122.got.cif
#   From: 2010.05.17/outbox.cif.g08.bks.cpg/sg13_38_cif.got.tgz:74122.got - 2010.06.03 16:44:36.
