data_PCOD9238707
_publ_section_title
;
Structure prediction by ZEFSAII (Michael W. Deem and Ramdas Pophale) SiO2 
 PCOD9238707
Probable space group: P 2/C
;
_chemical_formula_sum "Si O2"
_cell_formula_units_Z 22
_cell_length_a 5.686763
_cell_length_b 5.110694
_cell_length_c 28.542865
_cell_angle_alpha 90.000000
_cell_angle_beta 87.592656
_cell_angle_gamma 90.000000
_cell_volume 828.817891
_symmetry_space_group_name_H-M "P 2/C"
_symmetry_group_IT_number 13
_symmetry_cell_setting 'monoclinic'
loop_
_space_group_symop_operation_xyz
x,y,z
-x,y,1/2-z
-x,-y,-z
x,-y,1/2+z
loop_
_atom_site_type_symbol
_atom_site_label
_atom_site_fract_x
_atom_site_fract_y
_atom_site_fract_z
Si Si1 0.382408 0.741484 0.203000
Si Si2 0.033746 0.068642 0.068429
Si Si3 0.336958 0.259780 0.886747
Si Si4 0.970354 0.356337 0.341161
Si Si5 0.310492 0.562735 0.041112
Si Si6 0.000000 0.877771 0.750000
O O1 0.500000 0.652725 0.250000
O O2 0.558703 0.852581 0.162306
O O3 0.250433 0.505777 0.178500
O O4 0.191409 0.948010 0.222296
O O5 0.095049 0.121549 0.123004
O O6 0.111461 0.338494 0.044051
O O7 0.183499 0.843208 0.042177
O O8 0.769505 0.958559 0.077084
O O9 0.532385 0.422110 0.913101
O O10 0.127302 0.449344 0.871403
O O11 0.107613 0.280994 0.292557
O O12 0.500000 0.500000 0.000000
#
# Coordination Sequence:
#
# PCOD9238707 Si02
#       6
#     4   4   4   4   4   2
#     4  12  25  47  72 111 157 214 262 329 399 465
#     4  12  26  53  77 118 157 197 268 317 393 494
#     4  12  26  49  81 108 163 212 256 335 404 468
#     4  12  25  48  73 110 158 204 268 319 389 485
#     4  12  29  53  83 117 157 205 262 331 407 480
#     4  12  26  44  70 110 158 200 276 316 380 488
#
# _framework density 26.543828000000001
#
# number of rings (size 3 to 8) (size 9 to 14) (size 15 to 20)
#    0.000    0.000    3.636    6.545    2.545    5.091 
#    3.273    1.818    0.000    0.000    0.000    0.000 
#    0.000    0.000    0.000    0.000    0.000    0.000 
#
# Total GULP energy -123337.679414 kJ/mol
# GULP energy per Si atom -5606.258155 kJ/mol
# Density = 2.648341 g / cm^3
# Si number density = 26.543828 Si / 1000 Ang^3
#
#
#
# Elastic Constant Matrix: (Units=GPa)
#
#
# Indices 1 2 3 4 5 6 
#
# 1 82.4139 31.3631 29.7896 0.0000 -8.8439 0.0000
# 2 31.3631 135.7360 32.1706 0.0000 -19.2972 0.0000
# 3 29.7896 32.1706 161.0043 0.0000 -36.5568 0.0000
# 4 0.0000 0.0000 0.0000 46.7473 0.0000 -5.2570
# 5 -8.8439 -19.2972 -36.5568 0.0000 77.3606 0.0000
# 6 0.0000 0.0000 0.0000 -5.2570 0.0000 2.8246
#
#
#
# Elastic Compliance Matrix: (Units=1/GPa)
#
#
# Indices 1 2 3 4 5 6 
#
# 1 0.013907 -0.002738 -0.002039 0.000000 -0.000057 0.000000
# 2 -0.002738 0.008399 -0.000859 0.000000 0.001376 0.000000
# 3 -0.002039 -0.000859 0.007459 0.000000 0.003077 0.000000
# 4 0.000000 0.000000 0.000000 0.027054 0.000000 0.050352
# 5 -0.000057 0.001376 0.003077 0.000000 0.014717 0.000000
# 6 0.000000 0.000000 0.000000 0.050352 0.000000 0.447748
#
#
# Mechanical properties :
#
#
# Convention : Reuss Voigt Hill
#
# Bulk Modulus (GPa) = 54.07664 62.86678 58.47171
# Shear Modulus (GPa) = 9.31583 44.44187 26.87885
#
# Velocity S-wave (km/s) = 1.87543 4.09624 3.18562
# Velocity P-wave (km/s) = 5.01063 6.79027 5.96717
#
# Compressibility (1/GPa) = 0.01849227
#
# Stress axis : x y z
#
# Youngs Moduli (GPa) = 71.90739 119.05916 134.07325
#
# Poissons Ratio (x) = 0.32600 0.27335
# Poissons Ratio (y) = 0.19689 0.11519
# Poissons Ratio (z) = 0.14661 0.10229
#
# Static dielectric constant tensor:
#      x y z
#    x 2.075000 0.000000 -0.011810 
#    y 0.000000 2.127230 0.000000 
#    z -0.011810 0.000000 2.120600 
# 
# From -- ./inp_files/94562.got.cif
#   From: 2010.05.17/outbox.cif.g08.bks.cpg/sg13_48_cif.got.tgz:94562.got - 2010.06.03 16:44:36.
