data_PCOD9238800
_publ_section_title
;
Structure prediction by ZEFSAII (Michael W. Deem and Ramdas Pophale) SiO2 
 PCOD9238800
Probable space group: P 2/C
;
_chemical_formula_sum "Si O2"
_cell_formula_units_Z 16
_cell_length_a 17.836336
_cell_length_b 5.196304
_cell_length_c 21.160647
_cell_angle_alpha 90.000000
_cell_angle_beta 160.217607
_cell_angle_gamma 90.000000
_cell_volume 663.776817
_symmetry_space_group_name_H-M "P 2/C"
_symmetry_group_IT_number 13
_symmetry_cell_setting 'monoclinic'
loop_
_space_group_symop_operation_xyz
x,y,z
-x,y,1/2-z
-x,-y,-z
x,-y,1/2+z
loop_
_atom_site_type_symbol
_atom_site_label
_atom_site_fract_x
_atom_site_fract_y
_atom_site_fract_z
Si Si1 0.331610 0.727391 0.056026
Si Si2 0.070611 0.768180 0.386278
Si Si3 0.131005 0.253441 0.081367
Si Si4 0.568888 0.063475 0.482836
O O1 0.500000 0.718286 0.250000
O O2 0.192078 0.464987 0.947006
O O3 0.166898 0.961305 0.940412
O O4 0.426579 0.820800 0.063103
O O5 0.139695 0.738464 0.513415
O O6 0.193356 0.798531 0.326010
O O7 0.376712 0.243291 0.303319
O O8 0.000000 0.500000 0.000000
O O9 0.000000 0.000000 0.000000
O O10 0.500000 0.000000 0.500000
#
# Coordination Sequence:
#
# PCOD9238800 Si02
#       4
#     4   4   4   4
#     4  12  28  55  82 116 167 215 268 337 411 488
#     4  12  28  53  83 119 162 213 275 332 409 488
#     4  12  27  51  82 121 164 209 270 341 410 485
#     4  12  29  54  85 124 162 218 275 343 410 487
#
# _framework density 24.104488
#
# number of rings (size 3 to 8) (size 9 to 14) (size 15 to 20)
#    0.000    0.000    5.000    3.000    0.000    7.000 
#    0.000    0.000    0.000    0.000    0.000    0.000 
#    0.000    0.000    0.000    0.000    0.000    0.000 
#
# Total GULP energy -89747.319484 kJ/mol
# GULP energy per Si atom -5609.207468 kJ/mol
# Density = 2.404963 g / cm^3
# Si number density = 24.104488 Si / 1000 Ang^3
#
#
#
# Elastic Constant Matrix: (Units=GPa)
#
#
# Indices 1 2 3 4 5 6 
#
# 1 219.4849 46.5431 69.2453 0.0000 -24.0583 0.0000
# 2 46.5431 160.1460 78.0237 0.0000 21.7961 0.0000
# 3 69.2453 78.0237 252.2943 0.0000 -10.8806 0.0000
# 4 0.0000 0.0000 0.0000 30.3167 0.0000 20.8935
# 5 -24.0583 21.7961 -10.8806 0.0000 51.1472 0.0000
# 6 0.0000 0.0000 0.0000 20.8935 0.0000 33.7998
#
#
#
# Elastic Compliance Matrix: (Units=1/GPa)
#
#
# Indices 1 2 3 4 5 6 
#
# 1 0.005511 -0.001588 -0.000889 0.000000 0.003080 0.000000
# 2 -0.001588 0.008553 -0.002421 0.000000 -0.004907 0.000000
# 3 -0.000889 -0.002421 0.005029 0.000000 0.001683 0.000000
# 4 0.000000 0.000000 0.000000 0.057467 0.000000 -0.035523
# 5 0.003080 -0.004907 0.001683 0.000000 0.023449 0.000000
# 6 0.000000 0.000000 0.000000 -0.035523 0.000000 0.051545
#
#
# Mechanical properties :
#
#
# Convention : Reuss Voigt Hill
#
# Bulk Modulus (GPa) = 107.55085 113.28326 110.41705
# Shear Modulus (GPa) = 30.40481 52.26027 41.33254
#
# Velocity S-wave (km/s) = 3.55544 4.66131 4.14541
# Velocity P-wave (km/s) = 7.84668 8.72176 8.29577
#
# Compressibility (1/GPa) = 0.00929793
#
# Stress axis : x y z
#
# Youngs Moduli (GPa) = 181.46340 116.91745 198.85431
#
# Poissons Ratio (x) = 0.18564 0.17671
# Poissons Ratio (y) = 0.28813 0.48141
# Poissons Ratio (z) = 0.16126 0.28305
#
# Static dielectric constant tensor:
#      x y z
#    x 1.959430 0.000000 0.005320 
#    y 0.000000 1.877310 0.000000 
#    z 0.005320 0.000000 1.897930 
# 
# From -- ./inp_files/68968.got.cif
#   From: 2010.05.17/outbox.cif.g08.bks.cpg/sg13_35_cif.got.tgz:68968.got - 2010.06.03 16:44:36.
