data_PCOD9238677
_publ_section_title
;
Structure prediction by ZEFSAII (Michael W. Deem and Ramdas Pophale) SiO2 
 PCOD9238677
Probable space group: P 2/C
;
_chemical_formula_sum "Si O2"
_cell_formula_units_Z 14
_cell_length_a 11.108932
_cell_length_b 8.697282
_cell_length_c 8.860971
_cell_angle_alpha 90.000000
_cell_angle_beta 37.634268
_cell_angle_gamma 90.000000
_cell_volume 522.766114
_symmetry_space_group_name_H-M "P 2/C"
_symmetry_group_IT_number 13
_symmetry_cell_setting 'monoclinic'
loop_
_space_group_symop_operation_xyz
x,y,z
-x,y,1/2-z
-x,-y,-z
x,-y,1/2+z
loop_
_atom_site_type_symbol
_atom_site_label
_atom_site_fract_x
_atom_site_fract_y
_atom_site_fract_z
Si Si1 0.835934 0.837020 0.243406
Si Si2 0.271481 0.153748 0.998302
Si Si3 0.500000 0.355543 0.250000
Si Si4 0.170017 0.376491 0.356511
O O1 0.650983 0.743625 0.497300
O O2 0.815378 0.008581 0.325503
O O3 0.812825 0.829833 0.085062
O O4 0.051649 0.762844 0.053760
O O5 0.245808 0.305885 0.124931
O O6 0.500000 0.120503 0.750000
O O7 0.349342 0.434028 0.282049
O O8 0.000000 0.500000 0.500000
#
# Coordination Sequence:
#
# PCOD9238677 Si02
#       4
#     4   4   2   4
#     4  12  26  49  84 122 162 215 272 344 410 487
#     4  12  24  52  85 121 167 214 272 347 415 478
#     4  12  26  52  84 118 164 214 278 342 412 486
#     4  12  30  54  80 120 165 221 275 338 414 497
#
# _framework density 26.780616999999999
#
# number of rings (size 3 to 8) (size 9 to 14) (size 15 to 20)
#    0.000    0.000    4.286    5.143    0.000    8.000 
#    5.143    0.000    0.000    1.714    0.000    0.000 
#    0.000    0.000    0.000    0.000    0.000    0.000 
#
# Total GULP energy -78637.431071 kJ/mol
# GULP energy per Si atom -5616.959362 kJ/mol
# Density = 2.671966 g / cm^3
# Si number density = 26.780617 Si / 1000 Ang^3
#
#
#
# Elastic Constant Matrix: (Units=GPa)
#
#
# Indices 1 2 3 4 5 6 
#
# 1 228.2217 48.9225 75.9000 0.0000 -8.2943 0.0000
# 2 48.9225 104.3300 54.6129 0.0000 0.3129 0.0000
# 3 75.9000 54.6129 161.5498 0.0000 6.8469 0.0000
# 4 0.0000 0.0000 0.0000 78.6572 0.0000 -5.6382
# 5 -8.2943 0.3129 6.8469 0.0000 77.4409 0.0000
# 6 0.0000 0.0000 0.0000 -5.6382 0.0000 29.8408
#
#
#
# Elastic Compliance Matrix: (Units=1/GPa)
#
#
# Indices 1 2 3 4 5 6 
#
# 1 0.005414 -0.001449 -0.002087 0.000000 0.000770 0.000000
# 2 -0.001449 0.012041 -0.003394 0.000000 0.000096 0.000000
# 3 -0.002087 -0.003394 0.008358 0.000000 -0.000949 0.000000
# 4 0.000000 0.000000 0.000000 0.012888 0.000000 0.002435
# 5 0.000770 0.000096 -0.000949 0.000000 0.013079 0.000000
# 6 0.000000 0.000000 0.000000 0.002435 0.000000 0.033971
#
#
# Mechanical properties :
#
#
# Convention : Reuss Voigt Hill
#
# Bulk Modulus (GPa) = 83.65237 94.77470 89.21354
# Shear Modulus (GPa) = 48.26527 58.16551 53.21539
#
# Velocity S-wave (km/s) = 4.24989 4.66545 4.46251
# Velocity P-wave (km/s) = 7.44218 8.03044 7.74190
#
# Compressibility (1/GPa) = 0.01195423
#
# Stress axis : x y z
#
# Youngs Moduli (GPa) = 184.69871 83.05232 119.64807
#
# Poissons Ratio (x) = 0.12034 0.24965
# Poissons Ratio (y) = 0.26761 0.40605
# Poissons Ratio (z) = 0.38539 0.28186
#
# Static dielectric constant tensor:
#      x y z
#    x 2.123920 0.000000 0.051910 
#    y 0.000000 2.127290 0.000000 
#    z 0.051910 0.000000 2.047790 
# 
# From -- ./inp_files/14670.got.cif
#   From: 2010.05.17/outbox.cif.g08.bks.cpg/sg13_8_cif.got.tgz:14670.got - 2010.06.03 16:44:36.
