data_PCOD9238049
_publ_section_title
;
Structure prediction by ZEFSAII (Michael W. Deem and Ramdas Pophale) SiO2 
 PCOD9238049
Probable space group: P 2/C
;
_chemical_formula_sum "Si O2"
_cell_formula_units_Z 28
_cell_length_a 17.578408
_cell_length_b 5.127503
_cell_length_c 13.512355
_cell_angle_alpha 90.000000
_cell_angle_beta 120.614950
_cell_angle_gamma 90.000000
_cell_volume 1048.147691
_symmetry_space_group_name_H-M "P 2/C"
_symmetry_group_IT_number 13
_symmetry_cell_setting 'monoclinic'
loop_
_space_group_symop_operation_xyz
x,y,z
-x,y,1/2-z
-x,-y,-z
x,-y,1/2+z
loop_
_atom_site_type_symbol
_atom_site_label
_atom_site_fract_x
_atom_site_fract_y
_atom_site_fract_z
Si Si1 0.180533 0.401241 0.241944
Si Si2 0.255509 0.785605 0.158699
Si Si3 0.938286 0.795351 0.018573
Si Si4 0.568969 0.809221 0.958381
Si Si5 0.405031 0.655406 0.145435
Si Si6 0.637137 0.839583 0.666189
Si Si7 0.104334 0.719356 0.901577
O O1 0.197481 0.695904 0.213462
O O2 0.122356 0.364953 0.301348
O O3 0.278930 0.295927 0.329312
O O4 0.136895 0.260937 0.115764
O O5 0.337763 0.599604 0.190045
O O6 0.311346 0.048615 0.204238
O O7 0.195577 0.747170 0.023296
O O8 0.950987 0.504092 0.073761
O O9 0.925142 0.980493 0.106135
O O10 0.000000 0.000000 0.000000
O O11 0.616055 0.556122 0.950206
O O12 0.583992 0.060853 0.897815
O O13 0.463910 0.741984 0.895355
O O14 0.612588 0.895471 0.089217
O O15 0.500000 0.593537 0.250000
#
# Coordination Sequence:
#
# PCOD9238049 Si02
#       7
#     4   4   4   4   4   4   4
#     4  11  26  46  75 107 151 192 242 299 365 440
#     4  11  25  42  68 101 144 192 247 308 355 434
#     4  11  26  51  79 115 151 183 235 296 357 443
#     4  11  27  40  65  94 135 192 247 310 362 428
#     4  12  24  43  62  92 135 188 249 305 372 414
#     4  11  24  43  64  98 140 186 248 303 365 417
#     4  11  26  47  78 111 145 197 236 289 371 440
#
# _framework density 26.713792000000002
#
# number of rings (size 3 to 8) (size 9 to 14) (size 15 to 20)
#    0.000    0.857    2.857    2.571    8.000    2.857 
#    0.000    1.429    0.000    0.000    0.000    0.000 
#    0.000    0.000    0.000    0.000    0.000    0.000 
#
# Total GULP energy -156162.411638 kJ/mol
# GULP energy per Si atom -5577.228987 kJ/mol
# Density = 2.665299 g / cm^3
# Si number density = 26.713792 Si / 1000 Ang^3
#
#
#
# Elastic Constant Matrix: (Units=GPa)
#
#
# Indices 1 2 3 4 5 6 
#
# 1 59.4604 18.7428 31.3677 0.0000 -21.4573 0.0000
# 2 18.7428 126.8570 24.7411 0.0000 3.5018 0.0000
# 3 31.3677 24.7411 120.0678 0.0000 -8.6898 0.0000
# 4 0.0000 0.0000 0.0000 29.6319 0.0000 4.2069
# 5 -21.4573 3.5018 -8.6898 0.0000 27.3230 0.0000
# 6 0.0000 0.0000 0.0000 4.2069 0.0000 34.6317
#
#
#
# Elastic Compliance Matrix: (Units=1/GPa)
#
#
# Indices 1 2 3 4 5 6 
#
# 1 0.028303 -0.003771 -0.005091 0.000000 0.021091 0.000000
# 2 -0.003771 0.008787 -0.001148 0.000000 -0.004453 0.000000
# 3 -0.005091 -0.001148 0.009843 0.000000 -0.000720 0.000000
# 4 0.000000 0.000000 0.000000 0.034340 0.000000 -0.004171
# 5 0.021091 -0.004453 -0.000720 0.000000 0.053504 0.000000
# 6 0.000000 0.000000 0.000000 -0.004171 0.000000 0.029382
#
#
# Mechanical properties :
#
#
# Convention : Reuss Voigt Hill
#
# Bulk Modulus (GPa) = 37.15519 50.67649 43.91584
# Shear Modulus (GPa) = 25.88670 33.75289 29.81979
#
# Velocity S-wave (km/s) = 3.11632 3.55843 3.34469
# Velocity P-wave (km/s) = 5.18530 5.99121 5.60277
#
# Compressibility (1/GPa) = 0.02691414
#
# Stress axis : x y z
#
# Youngs Moduli (GPa) = 35.33147 113.80692 101.59576
#
# Poissons Ratio (x) = 0.42918 0.51719
# Poissons Ratio (y) = 0.13324 0.11660
# Poissons Ratio (z) = 0.17986 0.13061
#
# Static dielectric constant tensor:
#      x y z
#    x 2.242610 0.000000 -0.083230 
#    y 0.000000 2.349680 0.000000 
#    z -0.083230 0.000000 2.117190 
# 
# From -- ./inp_files/54709.got.cif
#   From: 2010.05.17/outbox.cif.g08.bks.cpg/sg13_28_cif.got.tgz:54709.got - 2010.06.03 16:44:36.
