data_PCOD9238239
_publ_section_title
;
Structure prediction by ZEFSAII (Michael W. Deem and Ramdas Pophale) SiO2 
 PCOD9238239
Probable space group: P 2/C
;
_chemical_formula_sum "Si O2"
_cell_formula_units_Z 20
_cell_length_a 26.447616
_cell_length_b 6.513256
_cell_length_c 9.095409
_cell_angle_alpha 90.000000
_cell_angle_beta 149.755656
_cell_angle_gamma 90.000000
_cell_volume 789.167370
_symmetry_space_group_name_H-M "P 2/C"
_symmetry_group_IT_number 13
_symmetry_cell_setting 'monoclinic'
loop_
_space_group_symop_operation_xyz
x,y,z
-x,y,1/2-z
-x,-y,-z
x,-y,1/2+z
loop_
_atom_site_type_symbol
_atom_site_label
_atom_site_fract_x
_atom_site_fract_y
_atom_site_fract_z
Si Si1 0.313344 0.025932 0.454358
Si Si2 0.883952 0.219881 0.426428
Si Si3 0.562927 0.645051 0.048119
Si Si4 0.118613 0.495548 0.321167
Si Si5 0.294101 0.719787 0.627038
O O1 0.199179 0.070984 0.219863
O O2 0.386956 0.175821 0.730512
O O3 0.325333 0.099584 0.318170
O O4 0.323341 0.795545 0.538138
O O5 0.858128 0.275448 0.192971
O O6 0.866286 0.432095 0.474414
O O7 0.000000 0.160162 0.750000
O O8 0.647591 0.490875 0.197313
O O9 0.500000 0.721363 0.750000
O O10 0.500000 0.500000 0.000000
O O11 0.180322 0.667526 0.386568
O O12 0.000000 0.500000 0.000000
#
# Coordination Sequence:
#
# PCOD9238239 Si02
#       5
#     4   4   4   4   4
#     4  11  25  43  67  98 140 171 222 282 337 402
#     4   9  18  36  62  92 130 168 215 260 321 399
#     4  12  26  46  70  96 131 179 231 284 346 403
#     4   9  18  36  63  94 127 170 216 260 322 394
#     4  11  25  43  68 102 135 178 224 280 340 406
#
# _framework density 25.343169
#
# number of rings (size 3 to 8) (size 9 to 14) (size 15 to 20)
#    0.000    1.600    4.000    0.000    2.800    3.200 
#    0.000   12.000    0.000    0.000    0.000    0.000 
#    0.000    0.000    0.000    0.000    0.000    0.000 
#
# Total GULP energy -111748.120012 kJ/mol
# GULP energy per Si atom -5587.406001 kJ/mol
# Density = 2.528549 g / cm^3
# Si number density = 25.343169 Si / 1000 Ang^3
#
#
#
# Elastic Constant Matrix: (Units=GPa)
#
#
# Indices 1 2 3 4 5 6 
#
# 1 88.7747 12.4328 33.6260 0.0000 4.2152 0.0000
# 2 12.4328 40.0462 34.5697 0.0000 8.9954 0.0000
# 3 33.6260 34.5697 86.4476 0.0000 -7.0951 0.0000
# 4 0.0000 0.0000 0.0000 27.6837 0.0000 -4.5426
# 5 4.2152 8.9954 -7.0951 0.0000 34.4598 0.0000
# 6 0.0000 0.0000 0.0000 -4.5426 0.0000 50.3854
#
#
#
# Elastic Compliance Matrix: (Units=1/GPa)
#
#
# Indices 1 2 3 4 5 6 
#
# 1 0.013565 0.002119 -0.006414 0.000000 -0.003533 0.000000
# 2 0.002119 0.045602 -0.020403 0.000000 -0.016364 0.000000
# 3 -0.006414 -0.020403 0.023114 0.000000 0.010869 0.000000
# 4 0.000000 0.000000 0.000000 0.036665 0.000000 0.003306
# 5 -0.003533 -0.016364 0.010869 0.000000 0.035961 0.000000
# 6 0.000000 0.000000 0.000000 0.003306 0.000000 0.020145
#
#
# Mechanical properties :
#
#
# Convention : Reuss Voigt Hill
#
# Bulk Modulus (GPa) = 30.40946 41.83617 36.12281
# Shear Modulus (GPa) = 21.23966 31.48176 26.36071
#
# Velocity S-wave (km/s) = 2.89811 3.52834 3.22864
# Velocity P-wave (km/s) = 4.81911 5.75696 5.30878
#
# Compressibility (1/GPa) = 0.03288451
#
# Stress axis : x y z
#
# Youngs Moduli (GPa) = 73.72003 21.92887 43.26467
#
# Poissons Ratio (x) = -0.04646 0.27748
# Poissons Ratio (y) = -0.15619 0.88273
# Poissons Ratio (z) = 0.47281 0.44742
#
# Static dielectric constant tensor:
#      x y z
#    x 2.069460 0.000000 -0.008420 
#    y 0.000000 1.987060 0.000000 
#    z -0.008420 0.000000 2.024430 
# 
# From -- ./inp_files/24493.got.cif
#   From: 2010.05.17/outbox.cif.g08.bks.cpg/sg13_13_cif.got.tgz:24493.got - 2010.06.03 16:44:36.
