data_PCOD9238223
_publ_section_title
;
Structure prediction by ZEFSAII (Michael W. Deem and Ramdas Pophale) SiO2 
 PCOD9238223
Probable space group: P 2/C
;
_chemical_formula_sum "Si O2"
_cell_formula_units_Z 22
_cell_length_a 11.510267
_cell_length_b 5.131878
_cell_length_c 14.136968
_cell_angle_alpha 90.000000
_cell_angle_beta 83.736715
_cell_angle_gamma 90.000000
_cell_volume 830.076187
_symmetry_space_group_name_H-M "P 2/C"
_symmetry_group_IT_number 13
_symmetry_cell_setting 'monoclinic'
loop_
_space_group_symop_operation_xyz
x,y,z
-x,y,1/2-z
-x,-y,-z
x,-y,1/2+z
loop_
_atom_site_type_symbol
_atom_site_label
_atom_site_fract_x
_atom_site_fract_y
_atom_site_fract_z
Si Si1 0.815886 0.117610 0.364198
Si Si2 0.245516 0.937472 0.436825
Si Si3 0.419373 0.256328 0.525077
Si Si4 0.000000 0.531510 0.750000
Si Si5 0.993780 0.264383 0.577986
Si Si6 0.631023 0.104764 0.760760
O O1 0.750929 0.216124 0.463694
O O2 0.725158 0.104120 0.287366
O O3 0.885612 0.852594 0.389004
O O4 0.917350 0.298410 0.320928
O O5 0.313459 0.201516 0.460653
O O6 0.103921 0.956417 0.437984
O O7 0.314131 0.807493 0.344057
O O8 0.500000 0.500000 0.500000
O O9 0.378556 0.263617 0.639150
O O10 0.500000 0.000000 0.500000
O O11 0.068706 0.370177 0.821190
O O12 0.000000 0.500000 0.500000
O O13 0.500000 0.014418 0.750000
#
# Coordination Sequence:
#
# PCOD9238223 Si02
#       6
#     4   4   4   2   4   4
#     4  11  26  46  73 113 165 204 282 352 420 519
#     4  11  24  49  79 116 161 211 280 340 437 512
#     4  11  26  54  78 116 164 215 284 352 417 512
#     4  12  24  48  78 112 166 214 272 354 424 530
#     4  12  26  47  78 121 158 217 279 347 446 517
#     4  11  24  50  77 112 155 222 273 351 426 508
#
# _framework density 26.503594
#
# number of rings (size 3 to 8) (size 9 to 14) (size 15 to 20)
#    0.000    0.727    3.636    3.273    2.545    2.909 
#    9.818    0.000    0.000    0.000    0.000    0.000 
#    0.000    0.000    0.000    0.000    0.000    0.000 
#
# Total GULP energy -122817.795996 kJ/mol
# GULP energy per Si atom -5582.627091 kJ/mol
# Density = 2.644327 g / cm^3
# Si number density = 26.503594 Si / 1000 Ang^3
#
#
#
# Elastic Constant Matrix: (Units=GPa)
#
#
# Indices 1 2 3 4 5 6 
#
# 1 195.6901 42.8577 34.7218 0.0000 19.5216 0.0000
# 2 42.8577 94.0738 29.3711 0.0000 6.3097 0.0000
# 3 34.7218 29.3711 201.5106 0.0000 -15.3263 0.0000
# 4 0.0000 0.0000 0.0000 10.4637 0.0000 -7.9959
# 5 19.5216 6.3097 -15.3263 0.0000 61.9137 0.0000
# 6 0.0000 0.0000 0.0000 -7.9959 0.0000 17.0368
#
#
#
# Elastic Compliance Matrix: (Units=1/GPa)
#
#
# Indices 1 2 3 4 5 6 
#
# 1 0.005951 -0.002329 -0.000826 0.000000 -0.001843 0.000000
# 2 -0.002329 0.012200 -0.001443 0.000000 -0.000866 0.000000
# 3 -0.000826 -0.001443 0.005449 0.000000 0.001756 0.000000
# 4 0.000000 0.000000 0.000000 0.149011 0.000000 0.069936
# 5 -0.001843 -0.000866 0.001756 0.000000 0.017256 0.000000
# 6 0.000000 0.000000 0.000000 0.069936 0.000000 0.091520
#
#
# Mechanical properties :
#
#
# Convention : Reuss Voigt Hill
#
# Bulk Modulus (GPa) = 69.43064 78.35284 73.89174
# Shear Modulus (GPa) = 16.92719 43.50442 30.21580
#
# Velocity S-wave (km/s) = 2.52994 4.05588 3.38015
# Velocity P-wave (km/s) = 5.89811 7.18059 6.57071
#
# Compressibility (1/GPa) = 0.01440286
#
# Stress axis : x y z
#
# Youngs Moduli (GPa) = 168.04608 81.96923 183.53013
#
# Poissons Ratio (x) = 0.19095 0.15160
# Poissons Ratio (y) = 0.39146 0.26477
# Poissons Ratio (z) = 0.13881 0.11825
#
# Static dielectric constant tensor:
#      x y z
#    x 2.131180 0.000000 0.019270 
#    y 0.000000 2.136860 0.000000 
#    z 0.019270 0.000000 2.125750 
# 
# From -- ./inp_files/48948.got.cif
#   From: 2010.05.17/outbox.cif.g08.bks.cpg/sg13_25_cif.got.tgz:48948.got - 2010.06.03 16:44:36.
