data_PCOD9238956
_publ_section_title
;
Structure prediction by ZEFSAII (Michael W. Deem and Ramdas Pophale) SiO2 
 PCOD9238956
Probable space group: P 2/C
;
_chemical_formula_sum "Si O2"
_cell_formula_units_Z 26
_cell_length_a 9.000000
_cell_length_b 21.000000
_cell_length_c 9.000000
_cell_angle_alpha 90.000000
_cell_angle_beta 50.000000
_cell_angle_gamma 90.000000
_cell_volume 1303.041598
_symmetry_space_group_name_H-M "P 2/C"
_symmetry_group_IT_number 13
_symmetry_cell_setting 'monoclinic'
loop_
_space_group_symop_operation_xyz
x,y,z
-x,y,1/2-z
-x,-y,-z
x,-y,1/2+z
loop_
_atom_site_type_symbol
_atom_site_label
_atom_site_fract_x
_atom_site_fract_y
_atom_site_fract_z
Si Si1 0.184261 0.653836 0.243872
Si Si2 0.528287 0.433161 0.400617
Si Si3 0.500000 0.138620 0.250000
Si Si4 0.219371 0.800195 0.177013
Si Si5 0.202844 0.959857 0.037614
Si Si6 0.966835 0.432852 0.103217
Si Si7 0.696044 0.925585 0.215394
O O1 0.237298 0.728109 0.222718
O O2 0.109635 0.618966 0.440292
O O3 0.000000 0.648018 0.250000
O O4 0.368430 0.615781 0.062203
O O5 0.500000 0.450386 0.250000
O O6 0.500000 0.500000 0.500000
O O7 0.747139 0.407343 0.253091
O O8 0.396886 0.182210 0.446005
O O9 0.314410 0.089306 0.354369
O O10 0.228961 0.854818 0.296521
O O11 0.000000 0.803293 0.250000
O O12 0.333082 0.956774 0.102987
O O13 0.000000 0.942746 0.250000
O O14 0.180245 0.026181 0.966224
O O15 0.000000 0.449615 0.250000
O O16 0.000000 0.500000 0.000000
O O17 0.500000 0.920297 0.250000
#
# Coordination Sequence:
#
# PCOD9238956 Si02
#       7
#     4   4   2   4   4   4   4
#     4  11  24  45  69  96 136 178 238 278 338 413
#     4  12  24  39  69 104 129 176 222 278 345 396
#     4  10  20  38  68  96 124 162 222 268 328 382
#     4  10  25  45  68  91 131 185 224 272 332 412
#     4  11  23  39  66  97 130 170 217 274 340 393
#     4  12  24  42  67 102 140 174 221 286 341 400
#     4  11  22  42  63  98 133 167 219 277 337 392
#
# _framework density 19.953315
#
# number of rings (size 3 to 8) (size 9 to 14) (size 15 to 20)
#    0.000    0.923    3.846    4.154    3.231    0.000 
#    2.769    0.769    0.000    0.000    0.000    0.000 
#    0.000    0.000    0.000    0.000    0.000    0.000 
#
# Total GULP energy -144758.130942 kJ/mol
# GULP energy per Si atom -5567.620421 kJ/mol
# Density = 1.990790 g / cm^3
# Si number density = 19.953315 Si / 1000 Ang^3
#
#
#
# Elastic Constant Matrix: (Units=GPa)
#
#
# Indices 1 2 3 4 5 6 
#
# 1 81.2818 35.1639 45.3770 0.0000 1.8075 0.0000
# 2 35.1639 194.4813 91.1546 0.0000 -0.5308 0.0000
# 3 45.3770 91.1546 168.7418 0.0000 -13.1952 0.0000
# 4 0.0000 0.0000 0.0000 39.8879 0.0000 -3.5684
# 5 1.8075 -0.5308 -13.1952 0.0000 49.8488 0.0000
# 6 0.0000 0.0000 0.0000 -3.5684 0.0000 29.5831
#
#
#
# Elastic Compliance Matrix: (Units=1/GPa)
#
#
# Indices 1 2 3 4 5 6 
#
# 1 0.014747 -0.001014 -0.003534 0.000000 -0.001481 0.000000
# 2 -0.001014 0.006997 -0.003573 0.000000 -0.000834 0.000000
# 3 -0.003534 -0.003573 0.009000 0.000000 0.002472 0.000000
# 4 0.000000 0.000000 0.000000 0.025344 0.000000 0.003057
# 5 -0.001481 -0.000834 0.002472 0.000000 0.020760 0.000000
# 6 0.000000 0.000000 0.000000 0.003057 0.000000 0.034172
#
#
# Mechanical properties :
#
#
# Convention : Reuss Voigt Hill
#
# Bulk Modulus (GPa) = 68.94854 87.54401 78.24627
# Shear Modulus (GPa) = 37.85144 42.05125 39.95135
#
# Velocity S-wave (km/s) = 4.36018 4.59571 4.47950
# Velocity P-wave (km/s) = 7.74456 8.49296 8.12738
#
# Compressibility (1/GPa) = 0.01450357
#
# Stress axis : x y z
#
# Youngs Moduli (GPa) = 67.80899 142.90887 111.11492
#
# Poissons Ratio (x) = 0.14494 0.39264
# Poissons Ratio (y) = 0.06877 0.39696
# Poissons Ratio (z) = 0.23961 0.51055
#
# Static dielectric constant tensor:
#      x y z
#    x 1.776740 0.000000 -0.010310 
#    y 0.000000 1.699250 0.000000 
#    z -0.010310 0.000000 1.685880 
# 
# From -- ./inp_files/13637.got.cif
#   From: 2010.05.17/outbox.ucp.g08.bks.cvg/sg13_7_cif.got.tgz:13637.got - 2010.06.11 12:23:55.
