data_PCOD9238290
_publ_section_title
;
Structure prediction by ZEFSAII (Michael W. Deem and Ramdas Pophale) SiO2 
 PCOD9238290
Probable space group: P 2/C
;
_chemical_formula_sum "Si O2"
_cell_formula_units_Z 20
_cell_length_a 5.267076
_cell_length_b 4.831706
_cell_length_c 31.014874
_cell_angle_alpha 90.000000
_cell_angle_beta 120.056765
_cell_angle_gamma 90.000000
_cell_volume 683.159382
_symmetry_space_group_name_H-M "P 2/C"
_symmetry_group_IT_number 13
_symmetry_cell_setting 'monoclinic'
loop_
_space_group_symop_operation_xyz
x,y,z
-x,y,1/2-z
-x,-y,-z
x,-y,1/2+z
loop_
_atom_site_type_symbol
_atom_site_label
_atom_site_fract_x
_atom_site_fract_y
_atom_site_fract_z
Si Si1 0.000000 0.000000 0.500000
Si Si2 0.288249 0.111646 0.699719
Si Si3 0.932945 0.722445 0.090899
Si Si4 0.000000 0.500000 0.500000
Si Si5 0.587828 0.765116 0.589789
Si Si6 0.776536 0.242133 0.199105
O O1 0.740772 0.263940 0.456699
O O2 0.226582 0.252753 0.502723
O O3 0.500000 0.278648 0.750000
O O4 0.201554 0.244965 0.646911
O O5 0.505760 0.867918 0.703422
O O6 0.001183 0.996025 0.699732
O O7 0.987320 0.775766 0.044799
O O8 0.824564 0.415374 0.085852
O O9 0.697784 0.926408 0.092361
O O10 0.628650 0.658939 0.642164
O O11 0.000000 0.403953 0.250000
#
# Coordination Sequence:
#
# PCOD9238290 Si02
#       6
#     2   4   4   2   4   4
#     4  12  26  44  68  98 134 182 236 290 350 418
#     4   9  19  41  72 105 142 185 235 293 357 425
#     4  11  25  46  70 102 142 188 240 295 357 425
#     4  12  26  44  68  98 134 182 236 290 350 418
#     4  11  25  46  70 102 142 188 240 295 357 425
#     4   9  19  41  72 105 142 185 235 293 357 425
#
# _framework density 29.275746999999999
#
# number of rings (size 3 to 8) (size 9 to 14) (size 15 to 20)
#    0.000    1.600    0.000    3.600    0.000    8.000 
#    0.000   20.000    0.000    0.000    0.000    0.000 
#    0.000    0.000    0.000    0.000    0.000    0.000 
#
# Total GULP energy -111510.406646 kJ/mol
# GULP energy per Si atom -5575.520332 kJ/mol
# Density = 2.920911 g / cm^3
# Si number density = 29.275747 Si / 1000 Ang^3
#
#
#
# Elastic Constant Matrix: (Units=GPa)
#
#
# Indices 1 2 3 4 5 6 
#
# 1 101.5990 14.6730 68.7213 0.0000 3.2901 0.0000
# 2 14.6730 154.2981 24.3779 0.0000 8.0809 0.0000
# 3 68.7213 24.3779 331.0719 0.0000 34.7606 0.0000
# 4 0.0000 0.0000 0.0000 -28.3729 0.0000 -9.7622
# 5 3.2901 8.0809 34.7606 0.0000 74.4659 0.0000
# 6 0.0000 0.0000 0.0000 -9.7622 0.0000 61.4887
#
#
#
# Elastic Compliance Matrix: (Units=1/GPa)
#
#
# Indices 1 2 3 4 5 6 
#
# 1 0.011565 -0.000754 -0.002418 0.000000 0.000700 0.000000
# 2 -0.000754 0.006625 -0.000273 0.000000 -0.000558 0.000000
# 3 -0.002418 -0.000273 0.003710 0.000000 -0.001595 0.000000
# 4 0.000000 0.000000 0.000000 -0.033419 0.000000 -0.005306
# 5 0.000700 -0.000558 -0.001595 0.000000 0.014203 0.000000
# 6 0.000000 0.000000 0.000000 -0.005306 0.000000 0.015421
#
#
# Mechanical properties :
#
#
# Convention : Reuss Voigt Hill
#
# Bulk Modulus (GPa) = 66.62645 89.16814 77.89730
# Shear Modulus (GPa) = 166.67544 53.46279 110.06911
#
# Velocity S-wave (km/s) = 7.55358 4.27802 6.13832
# Velocity P-wave (km/s) = 9.94399 7.41121 8.76952
#
# Compressibility (1/GPa) = 0.01500905
#
# Stress axis : x y z
#
# Youngs Moduli (GPa) = 86.46987 150.94329 269.53605
#
# Poissons Ratio (x) = 0.11386 0.65186
# Poissons Ratio (y) = 0.06522 0.07348
# Poissons Ratio (z) = 0.20912 0.04115
#
# Static dielectric constant tensor:
#      x y z
#    x 4.525180 0.000000 -3.303260 
#    y 0.000000 5.815220 0.000000 
#    z -3.303260 0.000000 7.383370 
# 
# From -- ./inp_files/94655.got.cif
#   From: 2010.05.17/outbox.cif.g08.bks.cpg/sg13_48_cif.got.tgz:94655.got - 2010.06.03 16:44:36.
