data_PCOD9238987
_publ_section_title
;
Structure prediction by ZEFSAII (Michael W. Deem and Ramdas Pophale) SiO2 
 PCOD9238987
Probable space group: P 2/C
;
_chemical_formula_sum "Si O2"
_cell_formula_units_Z 20
_cell_length_a 12.000000
_cell_length_b 12.000000
_cell_length_c 9.000000
_cell_angle_alpha 90.000000
_cell_angle_beta 50.000000
_cell_angle_gamma 90.000000
_cell_volume 992.793598
_symmetry_space_group_name_H-M "P 2/C"
_symmetry_group_IT_number 13
_symmetry_cell_setting 'monoclinic'
loop_
_space_group_symop_operation_xyz
x,y,z
-x,y,1/2-z
-x,-y,-z
x,-y,1/2+z
loop_
_atom_site_type_symbol
_atom_site_label
_atom_site_fract_x
_atom_site_fract_y
_atom_site_fract_z
Si Si1 0.370325 0.362614 0.143025
Si Si2 0.073673 0.762071 0.344587
Si Si3 0.192670 0.154528 0.233674
Si Si4 0.304503 0.408553 0.545808
Si Si5 0.843056 0.043863 0.563067
O O1 0.313537 0.248854 0.120910
O O2 0.308089 0.385480 0.364568
O O3 0.317291 0.462324 0.081058
O O4 0.544393 0.361599 0.015647
O O5 0.161700 0.648938 0.239266
O O6 0.190308 0.852749 0.301000
O O7 0.000000 0.793662 0.250000
O O8 0.949062 0.776781 0.579135
O O9 0.243344 0.066455 0.317559
O O10 0.164516 0.088570 0.100505
O O11 0.000000 0.000000 0.500000
#
# Coordination Sequence:
#
# PCOD9238987 Si02
#       5
#     4   4   4   4   4
#     4  10  23  44  66  90 126 172 207 262 320 384
#     4  11  20  38  62  93 124 164 205 261 307 375
#     4  11  22  40  66  94 127 166 214 256 316 372
#     4  10  23  43  66  90 128 166 213 257 326 373
#     4  10  21  38  63  93 128 167 205 255 319 377
#
# _framework density 20.145174000000001
#
# number of rings (size 3 to 8) (size 9 to 14) (size 15 to 20)
#    0.000    1.600    2.000    4.800    2.800    0.800 
#    0.000    1.000    0.000    0.000    0.000    0.000 
#    0.000    0.000    0.000    0.000    0.000    0.000 
#
# Total GULP energy -111375.322243 kJ/mol
# GULP energy per Si atom -5568.766112 kJ/mol
# Density = 2.009932 g / cm^3
# Si number density = 20.145174 Si / 1000 Ang^3
#
#
#
# Elastic Constant Matrix: (Units=GPa)
#
#
# Indices 1 2 3 4 5 6 
#
# 1 77.3993 55.2938 44.2291 0.0000 31.8322 0.0000
# 2 55.2938 110.5216 41.2780 0.0000 9.1294 0.0000
# 3 44.2291 41.2780 65.1881 0.0000 21.6748 0.0000
# 4 0.0000 0.0000 0.0000 35.9823 0.0000 3.5454
# 5 31.8322 9.1294 21.6748 0.0000 31.1732 0.0000
# 6 0.0000 0.0000 0.0000 3.5454 0.0000 35.8285
#
#
#
# Elastic Compliance Matrix: (Units=1/GPa)
#
#
# Indices 1 2 3 4 5 6 
#
# 1 0.041737 -0.015280 -0.007751 0.000000 -0.032754 0.000000
# 2 -0.015280 0.017570 -0.005509 0.000000 0.014288 0.000000
# 3 -0.007751 -0.005509 0.027210 0.000000 -0.009391 0.000000
# 4 0.000000 0.000000 0.000000 0.028065 0.000000 -0.002777
# 5 -0.032754 0.014288 -0.009391 0.000000 0.067871 0.000000
# 6 0.000000 0.000000 0.000000 -0.002777 0.000000 0.028186
#
#
# Mechanical properties :
#
#
# Convention : Reuss Voigt Hill
#
# Bulk Modulus (GPa) = 33.97220 59.41232 46.69226
# Shear Modulus (GPa) = 18.01606 28.08401 23.05003
#
# Velocity S-wave (km/s) = 2.99375 3.73779 3.38627
# Velocity P-wave (km/s) = 5.37125 6.94148 6.20623
#
# Compressibility (1/GPa) = 0.02943584
#
# Stress axis : x y z
#
# Youngs Moduli (GPa) = 23.95982 56.91560 36.75128
#
# Poissons Ratio (x) = 0.86968 0.28487
# Poissons Ratio (y) = 0.36611 0.20246
# Poissons Ratio (z) = 0.18572 0.31354
#
# Static dielectric constant tensor:
#      x y z
#    x 1.732470 0.000000 -0.046630 
#    y 0.000000 1.818710 0.000000 
#    z -0.046630 0.000000 1.785840 
# 
# From -- ./inp_files/15738.got.cif
#   From: 2010.05.17/outbox.ucp.g08.bks.cvg/sg13_8_cif.got.tgz:15738.got - 2010.06.11 12:23:55.
