data_PCOD9238870
_publ_section_title
;
Structure prediction by ZEFSAII (Michael W. Deem and Ramdas Pophale) SiO2 
 PCOD9238870
Probable space group: P 2/C
;
_chemical_formula_sum "Si O2"
_cell_formula_units_Z 32
_cell_length_a 15.000000
_cell_length_b 12.000000
_cell_length_c 18.000000
_cell_angle_alpha 90.000000
_cell_angle_beta 30.000000
_cell_angle_gamma 90.000000
_cell_volume 1620.000000
_symmetry_space_group_name_H-M "P 2/C"
_symmetry_group_IT_number 13
_symmetry_cell_setting 'monoclinic'
loop_
_space_group_symop_operation_xyz
x,y,z
-x,y,1/2-z
-x,-y,-z
x,-y,1/2+z
loop_
_atom_site_type_symbol
_atom_site_label
_atom_site_fract_x
_atom_site_fract_y
_atom_site_fract_z
Si Si1 0.840626 0.915812 0.595614
Si Si2 0.893410 0.020226 0.894646
Si Si3 0.550023 0.280614 0.546277
Si Si4 0.101302 0.205322 0.300664
Si Si5 0.373593 0.505282 0.910393
Si Si6 0.653312 0.584349 0.414519
Si Si7 0.505798 0.943880 0.157869
Si Si8 0.998567 0.442127 0.339962
O O1 0.854348 0.817711 0.645284
O O2 0.860893 0.905422 0.491777
O O3 0.653441 0.975029 0.748585
O O4 0.000000 0.000000 0.500000
O O5 0.000000 0.074162 0.750000
O O6 0.996691 0.904035 0.844238
O O7 0.701814 0.988473 0.999510
O O8 0.726645 0.240236 0.373550
O O9 0.591464 0.386576 0.570830
O O10 0.396090 0.309822 0.598193
O O11 0.483574 0.177257 0.640896
O O12 0.989720 0.318772 0.378916
O O13 0.500000 0.522530 0.750000
O O14 0.368101 0.594203 0.981491
O O15 0.180772 0.504159 0.012845
O O16 0.500000 0.500000 0.500000
O O17 0.833568 0.519674 0.264104
O O18 0.500000 0.933535 0.250000
O O19 0.000000 0.427125 0.250000
#
# Coordination Sequence:
#
# PCOD9238870 Si02
#       8
#     4   4   4   4   4   4   4   4
#     4   9  22  36  51  87 118 149 185 243 289 344
#     4  10  18  34  58  84 109 151 197 231 284 344
#     4  11  19  33  58  89 118 147 188 244 295 342
#     4  11  18  32  58  88 117 146 189 236 298 340
#     4  10  20  33  56  87 116 143 196 244 287 338
#     4   9  18  34  54  85 115 148 187 233 291 353
#     4  10  20  35  58  86 113 144 193 242 285 335
#     4  10  17  33  60  86 111 151 191 234 287 346
#
# _framework density 19.753086
#
# number of rings (size 3 to 8) (size 9 to 14) (size 15 to 20)
#    0.000    2.000    5.000    1.500    0.000    2.500 
#    0.000    2.500    8.250    2.250   29.250    0.000 
#    0.000    0.000    0.000    0.000    0.000    0.000 
#
# Total GULP energy -178214.483960 kJ/mol
# GULP energy per Si atom -5569.202624 kJ/mol
# Density = 1.970813 g / cm^3
# Si number density = 19.753086 Si / 1000 Ang^3
#
#
#
# Elastic Constant Matrix: (Units=GPa)
#
#
# Indices 1 2 3 4 5 6 
#
# 1 23.3539 -9.0565 5.8928 0.0000 -49.1580 0.0000
# 2 -9.0565 -15.3538 -9.7919 0.0000 -24.3704 0.0000
# 3 5.8928 -9.7919 50.0535 0.0000 -30.2564 0.0000
# 4 0.0000 0.0000 0.0000 -2.3717 0.0000 6.6012
# 5 -49.1580 -24.3704 -30.2564 0.0000 2.6896 0.0000
# 6 0.0000 0.0000 0.0000 6.6012 0.0000 41.1505
#
#
#
# Elastic Compliance Matrix: (Units=1/GPa)
#
#
# Indices 1 2 3 4 5 6 
#
# 1 -1.793706 3.481353 -0.024673 0.000000 -1.516832 0.000000
# 2 3.481353 -6.732786 0.024342 0.000000 2.897237 0.000000
# 3 -0.024673 0.024342 0.019244 0.000000 -0.013899 0.000000
# 4 0.000000 0.000000 0.000000 -0.291493 0.000000 0.046760
# 5 -1.516832 2.897237 -0.013899 0.000000 -1.256048 0.000000
# 6 0.000000 0.000000 0.000000 0.046760 0.000000 0.016800
#
#
# Mechanical properties :
#
#
# Convention : Reuss Voigt Hill
#
# Bulk Modulus (GPa) = -0.64716 3.57137 1.46210
# Shear Modulus (GPa) = -0.28547 13.02763 6.37108
#
# Velocity S-wave (km/s) = -0.38057 2.57091 1.79788
# Velocity P-wave (km/s) = 0.72211 3.25955 2.24758
#
# Compressibility (1/GPa) = -1.54520406
#
# Stress axis : x y z
#
# Youngs Moduli (GPa) = -0.55751 -0.14853 51.96549
#
# Poissons Ratio (x) = 0.51707 1.28212
# Poissons Ratio (y) = 1.94087 -1.26495
# Poissons Ratio (z) = -0.01376 0.00362
#
# Static dielectric constant tensor:
#      x y z
#    x 1.846890 0.000000 -0.302520 
#    y 0.000000 1.691610 0.000000 
#    z -0.302520 0.000000 2.734520 
# 
# From -- ./inp_files/68648.got.cif
#   From: 2010.05.17/outbox.ucp.g08.bks.cvg/sg13_35_cif.got.tgz:68648.got - 2010.06.11 12:23:55.
