data_PCOD9238028
_publ_section_title
;
Structure prediction by ZEFSAII (Michael W. Deem and Ramdas Pophale) SiO2 
 PCOD9238028
Probable space group: P 2/C
;
_chemical_formula_sum "Si O2"
_cell_formula_units_Z 22
_cell_length_a 13.371894
_cell_length_b 5.232579
_cell_length_c 13.695010
_cell_angle_alpha 90.000000
_cell_angle_beta 93.901072
_cell_angle_gamma 90.000000
_cell_volume 956.012669
_symmetry_space_group_name_H-M "P 2/C"
_symmetry_group_IT_number 13
_symmetry_cell_setting 'monoclinic'
loop_
_space_group_symop_operation_xyz
x,y,z
-x,y,1/2-z
-x,-y,-z
x,-y,1/2+z
loop_
_atom_site_type_symbol
_atom_site_label
_atom_site_fract_x
_atom_site_fract_y
_atom_site_fract_z
Si Si1 0.436759 0.246903 0.522198
Si Si2 0.926023 0.765058 0.595003
Si Si3 0.291015 0.219227 0.334555
Si Si4 0.120137 0.392922 0.615662
Si Si5 0.000000 0.849822 0.250000
Si Si6 0.674256 0.307738 0.789372
O O1 0.500000 0.500000 0.500000
O O2 0.340898 0.210707 0.444653
O O3 0.408623 0.246788 0.634823
O O4 0.500000 0.000000 0.500000
O O5 0.826430 0.711725 0.652668
O O6 0.891411 0.778114 0.481529
O O7 0.025977 0.588014 0.602921
O O8 0.967979 0.012090 0.649907
O O9 0.344545 0.458154 0.284995
O O10 0.301939 0.955557 0.271000
O O11 0.237360 0.437944 0.636194
O O12 0.098137 0.286469 0.721236
#
# Coordination Sequence:
#
# PCOD9238028 Si02
#       6
#     4   4   4   4   2   4
#     4  12  28  52  77 111 145 185 250 320 376 441
#     4  11  24  42  65 101 145 193 236 288 357 428
#     4  12  26  48  77 108 148 196 243 301 372 444
#     4  11  24  42  65 101 145 193 236 288 357 428
#     4  12  20  40  64 100 138 180 236 288 338 426
#     4  12  26  48  77 108 148 196 243 301 372 444
#
# _framework density 23.012246000000001
#
# number of rings (size 3 to 8) (size 9 to 14) (size 15 to 20)
#    0.000    0.364    3.636    5.455    0.000    4.364 
#    0.000    0.000    0.000    0.000    0.000    0.000 
#    0.000    0.000    0.000    0.000    0.000    0.000 
#
# Total GULP energy -122505.708288 kJ/mol
# GULP energy per Si atom -5568.441286 kJ/mol
# Density = 2.295987 g / cm^3
# Si number density = 23.012246 Si / 1000 Ang^3
#
#
#
# Elastic Constant Matrix: (Units=GPa)
#
#
# Indices 1 2 3 4 5 6 
#
# 1 66.2544 23.9677 6.5033 0.0000 -15.5084 0.0000
# 2 23.9677 105.4465 45.7080 0.0000 -12.7031 0.0000
# 3 6.5033 45.7080 112.3077 0.0000 -26.1597 0.0000
# 4 0.0000 0.0000 0.0000 23.8319 0.0000 3.8636
# 5 -15.5084 -12.7031 -26.1597 0.0000 50.6035 0.0000
# 6 0.0000 0.0000 0.0000 3.8636 0.0000 28.5218
#
#
#
# Elastic Compliance Matrix: (Units=1/GPa)
#
#
# Indices 1 2 3 4 5 6 
#
# 1 0.017683 -0.004214 0.001941 0.000000 0.005365 0.000000
# 2 -0.004214 0.012532 -0.005030 0.000000 -0.000746 0.000000
# 3 0.001941 -0.005030 0.012146 0.000000 0.005611 0.000000
# 4 0.000000 0.000000 0.000000 0.042903 0.000000 -0.005812
# 5 0.005365 -0.000746 0.005611 0.000000 0.024119 0.000000
# 6 0.000000 0.000000 0.000000 -0.005812 0.000000 0.035848
#
#
# Mechanical properties :
#
#
# Convention : Reuss Voigt Hill
#
# Bulk Modulus (GPa) = 36.03121 48.48517 42.25819
# Shear Modulus (GPa) = 29.57022 34.44676 32.00849
#
# Velocity S-wave (km/s) = 3.58855 3.87316 3.73357
# Velocity P-wave (km/s) = 5.73251 6.41224 6.08188
#
# Compressibility (1/GPa) = 0.02775371
#
# Stress axis : x y z
#
# Youngs Moduli (GPa) = 56.55115 79.79630 82.33264
#
# Poissons Ratio (x) = 0.33629 -0.15979
# Poissons Ratio (y) = 0.23832 0.41414
# Poissons Ratio (z) = -0.10976 0.40138
#
# Static dielectric constant tensor:
#      x y z
#    x 2.114580 0.000000 0.338370 
#    y 0.000000 1.957410 0.000000 
#    z 0.338370 0.000000 2.462980 
# 
# From -- ./inp_files/48945.got.cif
#   From: 2010.05.17/outbox.cif.g08.bks.cpg/sg13_25_cif.got.tgz:48945.got - 2010.06.03 16:44:36.
