data_PCOD9238045
_publ_section_title
;
Structure prediction by ZEFSAII (Michael W. Deem and Ramdas Pophale) SiO2 
 PCOD9238045
Probable space group: P 2/C
;
_chemical_formula_sum "Si O2"
_cell_formula_units_Z 18
_cell_length_a 7.349972
_cell_length_b 6.796457
_cell_length_c 19.519972
_cell_angle_alpha 90.000000
_cell_angle_beta 103.922901
_cell_angle_gamma 90.000000
_cell_volume 946.448216
_symmetry_space_group_name_H-M "P 2/C"
_symmetry_group_IT_number 13
_symmetry_cell_setting 'monoclinic'
loop_
_space_group_symop_operation_xyz
x,y,z
-x,y,1/2-z
-x,-y,-z
x,-y,1/2+z
loop_
_atom_site_type_symbol
_atom_site_label
_atom_site_fract_x
_atom_site_fract_y
_atom_site_fract_z
Si Si1 0.471597 0.282671 0.473560
Si Si2 0.152325 0.990720 0.686845
Si Si3 0.000000 0.633680 0.250000
Si Si4 0.780984 0.998322 0.463353
Si Si5 0.780126 0.742661 0.680134
O O1 0.500000 0.500000 0.500000
O O2 0.672232 0.177691 0.488915
O O3 0.380488 0.263777 0.390326
O O4 0.328335 0.183603 0.513659
O O5 0.240815 0.995679 0.620376
O O6 0.263930 0.866961 0.754917
O O7 0.956991 0.866643 0.665923
O O8 0.101928 0.211489 0.708068
O O9 0.852761 0.478413 0.203608
O O10 0.000000 0.000000 0.500000
#
# Coordination Sequence:
#
# PCOD9238045 Si02
#       5
#     4   4   2   4   4
#     4  11  26  40  62  96 130 161 208 266 309 371
#     4   9  19  38  65  86 119 169 205 254 307 376
#     4   8  18  32  66  90 116 160 210 252 308 368
#     4  11  24  43  63  89 126 170 206 252 318 370
#     4   9  19  38  59  92 124 155 210 258 306 366
#
# _framework density 19.018471000000002
#
# number of rings (size 3 to 8) (size 9 to 14) (size 15 to 20)
#    0.000    2.667    2.222    0.000    3.111    7.111 
#    0.000    0.000    0.000    0.000    0.000    0.000 
#    0.000    0.000    0.000    0.000    0.000    0.000 
#
# Total GULP energy -100363.608886 kJ/mol
# GULP energy per Si atom -5575.756049 kJ/mol
# Density = 1.897518 g / cm^3
# Si number density = 19.018471 Si / 1000 Ang^3
#
#
#
# Elastic Constant Matrix: (Units=GPa)
#
#
# Indices 1 2 3 4 5 6 
#
# 1 122.2295 67.8606 55.4815 0.0000 -6.6679 0.0000
# 2 67.8606 182.5552 51.3651 0.0000 -10.9946 0.0000
# 3 55.4815 51.3651 123.5324 0.0000 -16.2801 0.0000
# 4 0.0000 0.0000 0.0000 14.6869 0.0000 9.3827
# 5 -6.6679 -10.9946 -16.2801 0.0000 35.4725 0.0000
# 6 0.0000 0.0000 0.0000 9.3827 0.0000 -22.5948
#
#
#
# Elastic Compliance Matrix: (Units=1/GPa)
#
#
# Indices 1 2 3 4 5 6 
#
# 1 0.011797 -0.003295 -0.004013 0.000000 -0.000646 0.000000
# 2 -0.003295 0.007145 -0.001363 0.000000 0.000969 0.000000
# 3 -0.004013 -0.001363 0.010973 0.000000 0.003859 0.000000
# 4 0.000000 0.000000 0.000000 0.053812 0.000000 0.022346
# 5 -0.000646 0.000969 0.003859 0.000000 0.030141 0.000000
# 6 0.000000 0.000000 0.000000 0.022346 0.000000 -0.034979
#
#
# Mechanical properties :
#
#
# Convention : Reuss Voigt Hill
#
# Bulk Modulus (GPa) = 79.54408 86.41461 82.97934
# Shear Modulus (GPa) = 49.78944 22.42026 36.10485
#
# Velocity S-wave (km/s) = 5.12214 3.43719 4.36180
# Velocity P-wave (km/s) = 8.76911 7.82868 8.31220
#
# Compressibility (1/GPa) = 0.01257165
#
# Stress axis : x y z
#
# Youngs Moduli (GPa) = 84.76593 139.96704 91.13318
#
# Poissons Ratio (x) = 0.46119 0.36576
# Poissons Ratio (y) = 0.27930 0.12422
# Poissons Ratio (z) = 0.34020 0.19079
#
# Static dielectric constant tensor:
#      x y z
#    x 1.657380 0.000000 0.011750 
#    y 0.000000 1.623230 0.000000 
#    z 0.011750 0.000000 1.683730 
# 
# From -- ./inp_files/82945.got.cif
#   From: 2010.05.17/outbox.cif.g08.bks.cpg/sg13_42_cif.got.tgz:82945.got - 2010.06.03 16:44:36.
