data_PCOD9238965
_publ_section_title
;
Structure prediction by ZEFSAII (Michael W. Deem and Ramdas Pophale) SiO2 
 PCOD9238965
Probable space group: P 2/C
;
_chemical_formula_sum "Si O2"
_cell_formula_units_Z 30
_cell_length_a 15.000000
_cell_length_b 9.000000
_cell_length_c 24.000000
_cell_angle_alpha 90.000000
_cell_angle_beta 30.000000
_cell_angle_gamma 90.000000
_cell_volume 1620.000000
_symmetry_space_group_name_H-M "P 2/C"
_symmetry_group_IT_number 13
_symmetry_cell_setting 'monoclinic'
loop_
_space_group_symop_operation_xyz
x,y,z
-x,y,1/2-z
-x,-y,-z
x,-y,1/2+z
loop_
_atom_site_type_symbol
_atom_site_label
_atom_site_fract_x
_atom_site_fract_y
_atom_site_fract_z
Si Si1 0.936865 0.330785 0.050236
Si Si2 0.212149 0.834945 0.479305
Si Si3 0.806812 0.193064 0.012362
Si Si4 0.152841 0.340448 0.623262
Si Si5 0.554818 0.610778 0.803323
Si Si6 0.530524 0.351158 0.448133
Si Si7 0.184154 0.697570 0.617686
Si Si8 0.500000 0.336145 0.750000
O O1 0.932586 0.238762 0.995459
O O2 0.734866 0.327011 0.180470
O O3 0.046494 0.249497 0.039452
O O4 0.000000 0.500000 0.000000
O O5 0.218719 0.781670 0.540572
O O6 0.364527 0.772487 0.355363
O O7 0.211922 0.014788 0.478785
O O8 0.617494 0.285429 0.117127
O O9 0.890051 0.261375 0.911184
O O10 0.339076 0.274952 0.544880
O O11 0.179689 0.520110 0.603669
O O12 0.000000 0.317205 0.750000
O O13 0.578640 0.607551 0.857873
O O14 0.540727 0.452247 0.778973
O O15 0.500000 0.500000 0.500000
O O16 0.670891 0.270541 0.412122
O O17 0.000000 0.728694 0.750000
#
# Coordination Sequence:
#
# PCOD9238965 Si02
#       8
#     4   4   4   4   4   4   4   2
#     4  12  22  41  65  92 119 165 221 260 306 378
#     4  12  26  40  60  97 131 171 205 264 332 383
#     4  11  24  42  61  91 137 165 206 263 335 382
#     4   9  19  38  62  89 118 164 217 266 310 372
#     4  11  21  41  67  91 120 170 211 268 312 372
#     4   9  18  33  60  90 117 151 209 264 309 361
#     4  10  20  40  63  88 123 162 219 267 308 376
#     4  12  22  40  64  90 128 166 218 258 312 388
#
# _framework density 18.518519000000001
#
# number of rings (size 3 to 8) (size 9 to 14) (size 15 to 20)
#    0.000    1.333    2.667    4.400    1.867    2.667 
#    2.400    2.667    0.000    0.000    0.000    0.000 
#    0.000    0.000    0.000    0.000    0.000    0.000 
#
# Total GULP energy -167061.332326 kJ/mol
# GULP energy per Si atom -5568.711078 kJ/mol
# Density = 1.847637 g / cm^3
# Si number density = 18.518519 Si / 1000 Ang^3
#
#
#
# Elastic Constant Matrix: (Units=GPa)
#
#
# Indices 1 2 3 4 5 6 
#
# 1 146.0160 34.2869 29.1759 0.0000 34.8920 0.0000
# 2 34.2869 90.5954 31.1544 0.0000 24.0920 0.0000
# 3 29.1759 31.1544 85.8871 0.0000 25.2679 0.0000
# 4 0.0000 0.0000 0.0000 15.9622 0.0000 0.9446
# 5 34.8920 24.0920 25.2679 0.0000 25.3413 0.0000
# 6 0.0000 0.0000 0.0000 0.9446 0.0000 22.4036
#
#
#
# Elastic Compliance Matrix: (Units=1/GPa)
#
#
# Indices 1 2 3 4 5 6 
#
# 1 0.010266 -0.000273 0.000982 0.000000 -0.014855 0.000000
# 2 -0.000273 0.014965 -0.001784 0.000000 -0.012074 0.000000
# 3 0.000982 -0.001784 0.016777 0.000000 -0.016384 0.000000
# 4 0.000000 0.000000 0.000000 0.062805 0.000000 -0.002648
# 5 -0.014855 -0.012074 -0.016384 0.000000 0.087731 0.000000
# 6 0.000000 0.000000 0.000000 -0.002648 0.000000 0.044747
#
#
# Mechanical properties :
#
#
# Convention : Reuss Voigt Hill
#
# Bulk Modulus (GPa) = 25.08813 56.85922 40.97368
# Shear Modulus (GPa) = 19.78421 27.93351 23.85886
#
# Velocity S-wave (km/s) = 3.27210 3.88804 3.59329
# Velocity P-wave (km/s) = 5.27755 7.13628 6.27610
#
# Compressibility (1/GPa) = 0.03985948
#
# Stress axis : x y z
#
# Youngs Moduli (GPa) = 97.40719 66.82064 59.60541
#
# Poissons Ratio (x) = 0.01821 -0.05852
# Poissons Ratio (y) = 0.02655 0.10633
# Poissons Ratio (z) = -0.09564 0.11920
#
# Static dielectric constant tensor:
#      x y z
#    x 1.704310 0.000000 -0.066610 
#    y 0.000000 1.631300 0.000000 
#    z -0.066610 0.000000 1.727950 
# 
# From -- ./inp_files/87276.got.cif
#   From: 2010.05.17/outbox.ucp.g08.bks.cvg/sg13_44_cif.got.tgz:87276.got - 2010.06.11 12:23:55.
