data_PCOD9238282
_publ_section_title
;
Structure prediction by ZEFSAII (Michael W. Deem and Ramdas Pophale) SiO2 
 PCOD9238282
Probable space group: P 2/C
;
_chemical_formula_sum "Si O2"
_cell_formula_units_Z 18
_cell_length_a 21.623669
_cell_length_b 5.485529
_cell_length_c 9.431595
_cell_angle_alpha 90.000000
_cell_angle_beta 35.986142
_cell_angle_gamma 90.000000
_cell_volume 657.365813
_symmetry_space_group_name_H-M "P 2/C"
_symmetry_group_IT_number 13
_symmetry_cell_setting 'monoclinic'
loop_
_space_group_symop_operation_xyz
x,y,z
-x,y,1/2-z
-x,-y,-z
x,-y,1/2+z
loop_
_atom_site_type_symbol
_atom_site_label
_atom_site_fract_x
_atom_site_fract_y
_atom_site_fract_z
Si Si1 0.618042 0.929282 0.086323
Si Si2 0.000000 0.204316 0.750000
Si Si3 0.380866 0.429529 0.260215
Si Si4 0.175018 0.163315 0.900902
Si Si5 0.844326 0.486433 0.840082
O O1 0.500000 0.906340 0.250000
O O2 0.608887 0.149187 0.215154
O O3 0.646163 0.659115 0.086593
O O4 0.708889 0.048938 0.821589
O O5 0.940960 0.356981 0.739091
O O6 0.090316 0.037364 0.516403
O O7 0.271660 0.425627 0.376132
O O8 0.500000 0.500000 0.000000
O O9 0.163019 0.380001 0.805706
O O10 0.147754 0.240953 0.112356
#
# Coordination Sequence:
#
# PCOD9238282 Si02
#       5
#     4   2   4   4   4
#     4  11  25  45  79 116 164 206 264 332 411 486
#     4  12  28  46  82 110 164 214 288 332 416 480
#     4  11  25  45  78 118 161 208 265 331 406 486
#     4  11  28  49  80 115 161 218 273 345 410 490
#     4  11  28  50  78 116 162 209 278 337 413 486
#
# _framework density 27.382017000000001
#
# number of rings (size 3 to 8) (size 9 to 14) (size 15 to 20)
#    0.000    0.889    0.000    4.000   15.556    3.556 
#    0.000    0.000    0.000    0.000    0.000    0.000 
#    0.000    0.000    0.000    0.000    0.000    0.000 
#
# Total GULP energy -100592.170575 kJ/mol
# GULP energy per Si atom -5588.453921 kJ/mol
# Density = 2.731969 g / cm^3
# Si number density = 27.382017 Si / 1000 Ang^3
#
#
#
# Elastic Constant Matrix: (Units=GPa)
#
#
# Indices 1 2 3 4 5 6 
#
# 1 145.5149 55.4763 48.7474 0.0000 -19.4980 0.0000
# 2 55.4763 89.4177 43.0062 0.0000 6.2741 0.0000
# 3 48.7474 43.0062 129.5777 0.0000 -21.7594 0.0000
# 4 0.0000 0.0000 0.0000 71.5600 0.0000 -4.0937
# 5 -19.4980 6.2741 -21.7594 0.0000 64.3979 0.0000
# 6 0.0000 0.0000 0.0000 -4.0937 0.0000 40.5439
#
#
#
# Elastic Compliance Matrix: (Units=1/GPa)
#
#
# Indices 1 2 3 4 5 6 
#
# 1 0.009917 -0.005747 -0.001299 0.000000 0.003124 0.000000
# 2 -0.005747 0.017191 -0.004365 0.000000 -0.004890 0.000000
# 3 -0.001299 -0.004365 0.010241 0.000000 0.003492 0.000000
# 4 0.000000 0.000000 0.000000 0.014055 0.000000 0.001419
# 5 0.003124 -0.004890 0.003492 0.000000 0.018131 0.000000
# 6 0.000000 0.000000 0.000000 0.001419 0.000000 0.024808
#
#
# Mechanical properties :
#
#
# Convention : Reuss Voigt Hill
#
# Bulk Modulus (GPa) = 68.83240 73.21887 71.02564
# Shear Modulus (GPa) = 40.98113 49.78572 45.38343
#
# Velocity S-wave (km/s) = 3.87285 4.26865 4.07556
# Velocity P-wave (km/s) = 6.72242 7.14794 6.93844
#
# Compressibility (1/GPa) = 0.01452804
#
# Stress axis : x y z
#
# Youngs Moduli (GPa) = 100.83897 58.16846 97.64578
#
# Poissons Ratio (x) = 0.33430 0.12682
# Poissons Ratio (y) = 0.57953 0.42621
# Poissons Ratio (z) = 0.13097 0.25389
#
# Static dielectric constant tensor:
#      x y z
#    x 2.252080 0.000000 0.122950 
#    y 0.000000 2.289430 0.000000 
#    z 0.122950 0.000000 2.243680 
# 
# From -- ./inp_files/31422.got.cif
#   From: 2010.05.17/outbox.cif.g08.bks.cpg/sg13_16_cif.got.tgz:31422.got - 2010.06.03 16:44:36.
