data_PCOD9238894
_publ_section_title
;
Structure prediction by ZEFSAII (Michael W. Deem and Ramdas Pophale) SiO2 
 PCOD9238894
Probable space group: P 2/C
;
_chemical_formula_sum "Si O2"
_cell_formula_units_Z 28
_cell_length_a 27.000000
_cell_length_b 12.000000
_cell_length_c 27.000000
_cell_angle_alpha 90.000000
_cell_angle_beta 10.000000
_cell_angle_gamma 90.000000
_cell_volume 1519.074258
_symmetry_space_group_name_H-M "P 2/C"
_symmetry_group_IT_number 13
_symmetry_cell_setting 'monoclinic'
loop_
_space_group_symop_operation_xyz
x,y,z
-x,y,1/2-z
-x,-y,-z
x,-y,1/2+z
loop_
_atom_site_type_symbol
_atom_site_label
_atom_site_fract_x
_atom_site_fract_y
_atom_site_fract_z
Si Si1 0.209191 0.076577 0.687690
Si Si2 0.205374 0.167061 0.238895
Si Si3 0.018215 0.054477 0.175046
Si Si4 0.520927 0.794051 0.172387
Si Si5 0.319177 0.689386 0.278556
Si Si6 0.269299 0.786754 0.789665
Si Si7 0.265908 0.526771 0.771537
O O1 0.451624 0.161831 0.462192
O O2 0.254789 0.957558 0.670496
O O3 0.127498 0.038877 0.713597
O O4 0.952508 0.149192 0.959213
O O5 0.209317 0.168350 0.293680
O O6 0.921759 0.220011 0.496077
O O7 0.431586 0.258823 0.999774
O O8 0.000000 0.024368 0.250000
O O9 0.838029 0.168749 0.347149
O O10 0.333642 0.093017 0.849648
O O11 0.500000 0.763713 0.250000
O O12 0.410350 0.700454 0.245222
O O13 0.264584 0.564195 0.316237
O O14 0.269662 0.653404 0.786495
O O15 0.500000 0.500000 0.500000
O O16 0.000000 0.500000 0.000000
#
# Coordination Sequence:
#
# PCOD9238894 Si02
#       7
#     4   4   4   4   4   4   4
#     4  12  22  37  56  84 121 145 186 231 288 343
#     4  12  22  36  57  85 117 152 180 229 294 331
#     4  10  20  36  58  83 113 147 182 230 287 343
#     4  10  19  34  57  86 111 139 183 236 293 336
#     4  12  20  37  61  81 114 148 188 238 282 327
#     4  12  24  37  54  83 117 161 188 225 270 344
#     4  12  23  41  58  78 112 156 199 231 266 332
#
# _framework density 18.432279000000001
#
# number of rings (size 3 to 8) (size 9 to 14) (size 15 to 20)
#    0.000    0.571    5.714    4.286    0.000    0.000 
#    0.000    0.000    0.000    1.714    0.000    0.000 
#    0.000    0.000    0.000    0.000    0.000    0.000 
#
# Total GULP energy -155887.569911 kJ/mol
# GULP energy per Si atom -5567.413211 kJ/mol
# Density = 1.839033 g / cm^3
# Si number density = 18.432279 Si / 1000 Ang^3
#
#
#
# Elastic Constant Matrix: (Units=GPa)
#
#
# Indices 1 2 3 4 5 6 
#
# 1 150.2718 73.8053 43.3088 0.0000 -19.3127 0.0000
# 2 73.8053 162.5926 18.3988 0.0000 -11.7284 0.0000
# 3 43.3088 18.3988 76.0950 0.0000 -6.1764 0.0000
# 4 0.0000 0.0000 0.0000 15.2064 0.0000 -2.6468
# 5 -19.3127 -11.7284 -6.1764 0.0000 16.1440 0.0000
# 6 0.0000 0.0000 0.0000 -2.6468 0.0000 17.4324
#
#
#
# Elastic Compliance Matrix: (Units=1/GPa)
#
#
# Indices 1 2 3 4 5 6 
#
# 1 0.010974 -0.003840 -0.004622 0.000000 0.008570 0.000000
# 2 -0.003840 0.007947 0.000371 0.000000 0.001321 0.000000
# 3 -0.004622 0.000371 0.015744 0.000000 0.000764 0.000000
# 4 0.000000 0.000000 0.000000 0.067547 0.000000 0.010256
# 5 0.008570 0.001321 0.000764 0.000000 0.073447 0.000000
# 6 0.000000 0.000000 0.000000 0.010256 0.000000 0.058921
#
#
# Mechanical properties :
#
#
# Convention : Reuss Voigt Hill
#
# Bulk Modulus (GPa) = 54.10072 73.33168 63.71620
# Shear Modulus (GPa) = 19.46110 26.65300 23.05705
#
# Velocity S-wave (km/s) = 3.25286 3.80675 3.54065
# Velocity P-wave (km/s) = 6.59719 7.69367 7.16643
#
# Compressibility (1/GPa) = 0.01848404
#
# Stress axis : x y z
#
# Youngs Moduli (GPa) = 91.12328 125.83622 63.51585
#
# Poissons Ratio (x) = 0.48325 0.29355
# Poissons Ratio (y) = 0.34994 -0.02359
# Poissons Ratio (z) = 0.42114 -0.04674
#
# Static dielectric constant tensor:
#      x y z
#    x 1.641930 0.000000 -0.018590 
#    y 0.000000 1.549430 0.000000 
#    z -0.018590 0.000000 1.618360 
# 
# From -- ./inp_files/94125.got.cif
#   From: 2010.05.17/outbox.ucp.g08.bks.cvg/sg13_48_cif.got.tgz:94125.got - 2010.06.11 12:23:55.
