data_PCOD9238790
_publ_section_title
;
Structure prediction by ZEFSAII (Michael W. Deem and Ramdas Pophale) SiO2 
 PCOD9238790
Probable space group: P 2/C
;
_chemical_formula_sum "Si O2"
_cell_formula_units_Z 8
_cell_length_a 8.072001
_cell_length_b 8.496563
_cell_length_c 9.378299
_cell_angle_alpha 90.000000
_cell_angle_beta 30.603349
_cell_angle_gamma 90.000000
_cell_volume 327.449704
_symmetry_space_group_name_H-M "P 2/C"
_symmetry_group_IT_number 13
_symmetry_cell_setting 'monoclinic'
loop_
_space_group_symop_operation_xyz
x,y,z
-x,y,1/2-z
-x,-y,-z
x,-y,1/2+z
loop_
_atom_site_type_symbol
_atom_site_label
_atom_site_fract_x
_atom_site_fract_y
_atom_site_fract_z
Si Si1 0.416853 0.342393 0.646149
Si Si2 0.209154 0.157606 0.353848
O O1 0.500000 0.358017 0.750000
O O2 0.500000 0.500000 0.500000
O O3 0.635130 0.206672 0.411980
O O4 0.959090 0.293327 0.588019
O O5 0.500000 0.141981 0.250000
O O6 0.000000 0.000000 0.500000
#
# Coordination Sequence:
#
# PCOD9238790 Si02
#       2
#     4   4
#     4  12  27  50  77 110 151 200 251 310 375 446
#     4  12  27  50  77 110 151 200 251 310 375 446
#
# _framework density 24.431231
#
# number of rings (size 3 to 8) (size 9 to 14) (size 15 to 20)
#    0.000    0.000    0.000    9.000    0.000    8.000 
#    0.000    5.000    0.000    0.000    0.000    0.000 
#    0.000    0.000    0.000    0.000    0.000    0.000 
#
# Total GULP energy -44984.458032 kJ/mol
# GULP energy per Si atom -5623.057254 kJ/mol
# Density = 2.437562 g / cm^3
# Si number density = 24.431231 Si / 1000 Ang^3
#
#
#
# Elastic Constant Matrix: (Units=GPa)
#
#
# Indices 1 2 3 4 5 6 
#
# 1 237.8674 113.9014 114.8584 0.0000 -0.3125 0.0000
# 2 113.9014 129.5885 79.8394 0.0000 0.7020 0.0000
# 3 114.8584 79.8394 201.3401 0.0000 1.0652 0.0000
# 4 0.0000 0.0000 0.0000 73.6574 0.0000 -0.7735
# 5 -0.3125 0.7020 1.0652 0.0000 69.0447 0.0000
# 6 0.0000 0.0000 0.0000 -0.7735 0.0000 36.0774
#
#
#
# Elastic Compliance Matrix: (Units=1/GPa)
#
#
# Indices 1 2 3 4 5 6 
#
# 1 0.008025 -0.005602 -0.002357 0.000000 0.000130 0.000000
# 2 -0.005602 0.014122 -0.002404 0.000000 -0.000132 0.000000
# 3 -0.002357 -0.002404 0.007265 0.000000 -0.000098 0.000000
# 4 0.000000 0.000000 0.000000 0.013579 0.000000 0.000291
# 5 0.000130 -0.000132 -0.000098 0.000000 0.014487 0.000000
# 6 0.000000 0.000000 0.000000 0.000291 0.000000 0.027724
#
#
# Mechanical properties :
#
#
# Convention : Reuss Voigt Hill
#
# Bulk Modulus (GPa) = 115.11949 131.77716 123.44832
# Shear Modulus (GPa) = 45.94600 53.10235 49.52418
#
# Velocity S-wave (km/s) = 4.34132 4.66719 4.50720
# Velocity P-wave (km/s) = 8.50597 9.11584 8.81618
#
# Compressibility (1/GPa) = 0.00868663
#
# Stress axis : x y z
#
# Youngs Moduli (GPa) = 124.61328 70.81166 137.64423
#
# Poissons Ratio (x) = 0.39667 0.32446
# Poissons Ratio (y) = 0.69806 0.33084
# Poissons Ratio (z) = 0.29375 0.17020
#
# Static dielectric constant tensor:
#      x y z
#    x 1.829380 0.000000 -0.001940 
#    y 0.000000 1.980540 0.000000 
#    z -0.001940 0.000000 1.923240 
# 
# From -- ./inp_files/8323.got.cif
#   From: 2010.05.17/outbox.cif.g08.bks.cpg/sg13_5_cif.got.tgz:8323.got - 2010.06.03 16:44:36.
