data_PCOD9238236
_publ_section_title
;
Structure prediction by ZEFSAII (Michael W. Deem and Ramdas Pophale) SiO2 
 PCOD9238236
Probable space group: P 2/C
;
_chemical_formula_sum "Si O2"
_cell_formula_units_Z 12
_cell_length_a 7.670756
_cell_length_b 7.435961
_cell_length_c 13.925220
_cell_angle_alpha 90.000000
_cell_angle_beta 146.552056
_cell_angle_gamma 90.000000
_cell_volume 437.794301
_symmetry_space_group_name_H-M "P 2/C"
_symmetry_group_IT_number 13
_symmetry_cell_setting 'monoclinic'
loop_
_space_group_symop_operation_xyz
x,y,z
-x,y,1/2-z
-x,-y,-z
x,-y,1/2+z
loop_
_atom_site_type_symbol
_atom_site_label
_atom_site_fract_x
_atom_site_fract_y
_atom_site_fract_z
Si Si1 0.731762 0.099990 0.267567
Si Si2 0.295517 0.657048 0.454104
Si Si3 0.151008 0.710367 0.092746
O O1 0.500000 0.138570 0.250000
O O2 0.039667 0.213395 0.438647
O O3 0.813277 0.892486 0.323299
O O4 0.539320 0.179794 0.089931
O O5 0.500000 0.500000 0.500000
O O6 0.113819 0.602842 0.469982
O O7 0.000000 0.697569 0.250000
O O8 0.500000 0.634022 0.250000
#
# Coordination Sequence:
#
# PCOD9238236 Si02
#       3
#     4   4   4
#     4   8  17  39  70 100 130 173 233 287 335 402
#     4  11  25  43  62  99 151 185 216 277 359 425
#     4   9  18  40  74 100 124 174 239 289 328 397
#
# _framework density 27.410131
#
# number of rings (size 3 to 8) (size 9 to 14) (size 15 to 20)
#    0.000    2.667    0.000    2.000    0.000    4.000 
#    0.000   23.333    0.000    0.000    0.000    0.000 
#    0.000   10.667    0.000    0.000    0.000    0.000 
#
# Total GULP energy -67126.104486 kJ/mol
# GULP energy per Si atom -5593.842041 kJ/mol
# Density = 2.734774 g / cm^3
# Si number density = 27.410131 Si / 1000 Ang^3
#
#
#
# Elastic Constant Matrix: (Units=GPa)
#
#
# Indices 1 2 3 4 5 6 
#
# 1 127.2304 23.2678 36.5758 0.0000 10.9460 0.0000
# 2 23.2678 123.6812 78.9781 0.0000 20.4925 0.0000
# 3 36.5758 78.9781 243.9379 0.0000 42.3761 0.0000
# 4 0.0000 0.0000 0.0000 43.7398 0.0000 14.9986
# 5 10.9460 20.4925 42.3761 0.0000 42.8013 0.0000
# 6 0.0000 0.0000 0.0000 14.9986 0.0000 43.7723
#
#
#
# Elastic Compliance Matrix: (Units=1/GPa)
#
#
# Indices 1 2 3 4 5 6 
#
# 1 0.008333 -0.000908 -0.000798 0.000000 -0.000906 0.000000
# 2 -0.000908 0.010428 -0.002914 0.000000 -0.001875 0.000000
# 3 -0.000798 -0.002914 0.005899 0.000000 -0.004241 0.000000
# 4 0.000000 0.000000 0.000000 0.025906 0.000000 -0.008877
# 5 -0.000906 -0.001875 -0.004241 0.000000 0.028693 0.000000
# 6 0.000000 0.000000 0.000000 -0.008877 0.000000 0.025887
#
#
# Mechanical properties :
#
#
# Convention : Reuss Voigt Hill
#
# Bulk Modulus (GPa) = 64.85152 85.83254 75.34203
# Shear Modulus (GPa) = 41.83162 49.79787 45.81474
#
# Velocity S-wave (km/s) = 3.91082 4.26698 4.09278
# Velocity P-wave (km/s) = 6.64106 7.46045 7.06265
#
# Compressibility (1/GPa) = 0.01541984
#
# Stress axis : x y z
#
# Youngs Moduli (GPa) = 120.00197 95.89834 169.50904
#
# Poissons Ratio (x) = 0.08707 0.13528
# Poissons Ratio (y) = 0.10895 0.49399
# Poissons Ratio (z) = 0.09577 0.27947
#
# Static dielectric constant tensor:
#      x y z
#    x 2.169280 0.000000 -0.014430 
#    y 0.000000 2.449280 0.000000 
#    z -0.014430 0.000000 2.214370 
# 
# From -- ./inp_files/28431.got.cif
#   From: 2010.05.17/outbox.cif.g08.bks.cpg/sg13_15_cif.got.tgz:28431.got - 2010.06.03 16:44:36.
