data_PCOD9238300
_publ_section_title
;
Structure prediction by ZEFSAII (Michael W. Deem and Ramdas Pophale) SiO2 
 PCOD9238300
Probable space group: P 2/C
;
_chemical_formula_sum "Si O2"
_cell_formula_units_Z 20
_cell_length_a 15.220823
_cell_length_b 5.713234
_cell_length_c 25.423832
_cell_angle_alpha 90.000000
_cell_angle_beta 160.092359
_cell_angle_gamma 90.000000
_cell_volume 752.808615
_symmetry_space_group_name_H-M "P 2/C"
_symmetry_group_IT_number 13
_symmetry_cell_setting 'monoclinic'
loop_
_space_group_symop_operation_xyz
x,y,z
-x,y,1/2-z
-x,-y,-z
x,-y,1/2+z
loop_
_atom_site_type_symbol
_atom_site_label
_atom_site_fract_x
_atom_site_fract_y
_atom_site_fract_z
Si Si1 0.828746 0.233796 0.050525
Si Si2 0.203161 0.430502 0.816355
Si Si3 0.646422 0.396155 0.777141
Si Si4 0.833276 0.891423 0.846464
Si Si5 0.535319 0.030301 0.581893
O O1 0.075504 0.372286 0.209223
O O2 0.904521 0.098794 0.040158
O O3 0.580964 0.386423 0.894836
O O4 0.743665 0.107508 0.055557
O O5 0.235770 0.218965 0.794049
O O6 0.000000 0.389588 0.750000
O O7 0.500000 0.500000 0.000000
O O8 0.500000 0.413115 0.750000
O O9 0.783442 0.137837 0.848676
O O10 0.192387 0.363867 0.140776
O O11 0.613101 0.885870 0.677099
O O12 0.500000 0.000000 0.500000
#
# Coordination Sequence:
#
# PCOD9238300 Si02
#       5
#     4   4   4   4   4
#     4  11  25  46  73 111 157 198 268 319 383 466
#     4  12  25  44  73 109 155 212 262 313 382 460
#     4  11  27  52  78 111 152 201 261 330 401 460
#     4  11  26  45  76 114 150 199 261 321 389 469
#     4  11  26  42  68 112 156 211 251 318 382 468
#
# _framework density 26.567176
#
# number of rings (size 3 to 8) (size 9 to 14) (size 15 to 20)
#    0.000    0.800    2.000    4.200    5.600    6.400 
#    0.000    0.000    0.000    0.000    0.000    0.000 
#    0.000    0.000    0.000    0.000    0.000    0.000 
#
# Total GULP energy -111603.571578 kJ/mol
# GULP energy per Si atom -5580.178579 kJ/mol
# Density = 2.650671 g / cm^3
# Si number density = 26.567176 Si / 1000 Ang^3
#
#
#
# Elastic Constant Matrix: (Units=GPa)
#
#
# Indices 1 2 3 4 5 6 
#
# 1 243.2109 106.2924 15.6271 0.0000 26.1774 0.0000
# 2 106.2924 167.2566 30.1432 0.0000 11.1738 0.0000
# 3 15.6271 30.1432 99.2455 0.0000 -1.0875 0.0000
# 4 0.0000 0.0000 0.0000 47.9345 0.0000 -1.2864
# 5 26.1774 11.1738 -1.0875 0.0000 49.5295 0.0000
# 6 0.0000 0.0000 0.0000 -1.2864 0.0000 53.9786
#
#
#
# Elastic Compliance Matrix: (Units=1/GPa)
#
#
# Indices 1 2 3 4 5 6 
#
# 1 0.005947 -0.003651 0.000147 0.000000 -0.002316 0.000000
# 2 -0.003651 0.008676 -0.002061 0.000000 -0.000073 0.000000
# 3 0.000147 -0.002061 0.010686 0.000000 0.000622 0.000000
# 4 0.000000 0.000000 0.000000 0.020875 0.000000 0.000497
# 5 -0.002316 -0.000073 0.000622 0.000000 0.021444 0.000000
# 6 0.000000 0.000000 0.000000 0.000497 0.000000 0.018538
#
#
# Mechanical properties :
#
#
# Convention : Reuss Voigt Hill
#
# Bulk Modulus (GPa) = 70.52968 90.42650 80.47809
# Shear Modulus (GPa) = 49.00926 54.13188 51.57057
#
# Velocity S-wave (km/s) = 4.29969 4.51882 4.41062
# Velocity P-wave (km/s) = 7.15927 7.83180 7.50307
#
# Compressibility (1/GPa) = 0.01417843
#
# Stress axis : x y z
#
# Youngs Moduli (GPa) = 168.14453 115.26704 93.58404
#
# Poissons Ratio (x) = 0.42087 -0.01377
# Poissons Ratio (y) = 0.61394 0.19286
# Poissons Ratio (z) = -0.02474 0.23754
#
# Static dielectric constant tensor:
#      x y z
#    x 2.112580 0.000000 0.049440 
#    y 0.000000 2.529790 0.000000 
#    z 0.049440 0.000000 2.169150 
# 
# From -- ./inp_files/87140.got.cif
#   From: 2010.05.17/outbox.cif.g08.bks.cpg/sg13_44_cif.got.tgz:87140.got - 2010.06.03 16:44:36.
