data_PCOD9238890
_publ_section_title
;
Structure prediction by ZEFSAII (Michael W. Deem and Ramdas Pophale) SiO2 
 PCOD9238890
Probable space group: P 2/C
;
_chemical_formula_sum "Si O2"
_cell_formula_units_Z 24
_cell_length_a 9.000000
_cell_length_b 12.000000
_cell_length_c 24.000000
_cell_angle_alpha 90.000000
_cell_angle_beta 30.000000
_cell_angle_gamma 90.000000
_cell_volume 1296.000000
_symmetry_space_group_name_H-M "P 2/C"
_symmetry_group_IT_number 13
_symmetry_cell_setting 'monoclinic'
loop_
_space_group_symop_operation_xyz
x,y,z
-x,y,1/2-z
-x,-y,-z
x,-y,1/2+z
loop_
_atom_site_type_symbol
_atom_site_label
_atom_site_fract_x
_atom_site_fract_y
_atom_site_fract_z
Si Si1 0.949663 0.151692 0.465434
Si Si2 0.958390 0.292693 0.667455
Si Si3 0.162404 0.082493 0.871366
Si Si4 0.713103 0.366528 0.131445
Si Si5 0.557287 0.315341 0.899177
Si Si6 0.756360 0.525701 0.505313
O O1 0.861887 0.124282 0.557365
O O2 0.707565 0.227478 0.513875
O O3 0.229051 0.235017 0.380881
O O4 0.988568 0.033594 0.423010
O O5 0.200486 0.272459 0.636435
O O6 0.067101 0.393702 0.593274
O O7 0.921395 0.183594 0.641875
O O8 0.668640 0.320688 0.798679
O O9 0.500000 0.053076 0.750000
O O10 0.500000 0.403737 0.250000
O O11 0.620064 0.400660 0.099549
O O12 0.016994 0.434491 0.042638
O O13 0.484094 0.441474 0.941610
#
# Coordination Sequence:
#
# PCOD9238890 Si02
#       6
#     4   4   4   4   4   4
#     4  10  21  37  55  84 108 144 188 230 284 321
#     4  11  21  37  58  83 113 153 185 228 281 333
#     4  11  21  36  61  81 109 143 187 237 275 334
#     4  10  19  32  54  82 113 140 185 236 276 327
#     4  10  22  37  57  82 117 149 189 225 275 344
#     4  10  20  34  54  83 113 152 182 230 278 333
#
# _framework density 18.518519000000001
#
# number of rings (size 3 to 8) (size 9 to 14) (size 15 to 20)
#    0.000    1.667    3.333    2.000    0.000    1.333 
#    0.000    0.000    0.000    0.000    0.000    0.000 
#    0.000    0.000    0.000    0.000    0.000    0.000 
#
# Total GULP energy -133649.429210 kJ/mol
# GULP energy per Si atom -5568.726217 kJ/mol
# Density = 1.847637 g / cm^3
# Si number density = 18.518519 Si / 1000 Ang^3
#
#
#
# Elastic Constant Matrix: (Units=GPa)
#
#
# Indices 1 2 3 4 5 6 
#
# 1 19.5443 10.5441 1.8151 0.0000 4.6253 0.0000
# 2 10.5441 104.0023 21.2725 0.0000 5.4501 0.0000
# 3 1.8151 21.2725 57.9816 0.0000 12.5534 0.0000
# 4 0.0000 0.0000 0.0000 18.6196 0.0000 18.5837
# 5 4.6253 5.4501 12.5534 0.0000 20.4050 0.0000
# 6 0.0000 0.0000 0.0000 18.5837 0.0000 -37.7358
#
#
#
# Elastic Compliance Matrix: (Units=1/GPa)
#
#
# Indices 1 2 3 4 5 6 
#
# 1 0.057140 -0.005750 0.003222 0.000000 -0.013398 0.000000
# 2 -0.005750 0.010978 -0.004032 0.000000 0.000852 0.000000
# 3 0.003222 -0.004032 0.021401 0.000000 -0.012819 0.000000
# 4 0.000000 0.000000 0.000000 0.036008 0.000000 0.017733
# 5 -0.013398 0.000852 -0.012819 0.000000 0.059704 0.000000
# 6 0.000000 0.000000 0.000000 0.017733 0.000000 -0.017767
#
#
# Mechanical properties :
#
#
# Convention : Reuss Voigt Hill
#
# Bulk Modulus (GPa) = 13.08936 27.64350 20.36643
# Shear Modulus (GPa) = 24.26596 10.11752 17.19174
#
# Velocity S-wave (km/s) = 3.62382 2.33994 3.05020
# Velocity P-wave (km/s) = 4.95913 4.71808 4.84011
#
# Compressibility (1/GPa) = 0.07639794
#
# Stress axis : x y z
#
# Youngs Moduli (GPa) = 17.50100 91.08958 46.72722
#
# Poissons Ratio (x) = 0.52375 -0.15054
# Poissons Ratio (y) = 0.10063 0.18841
# Poissons Ratio (z) = -0.05638 0.36729
#
# Static dielectric constant tensor:
#      x y z
#    x 1.523900 0.000000 -0.086620 
#    y 0.000000 1.634240 0.000000 
#    z -0.086620 0.000000 1.691170 
# 
# From -- ./inp_files/29438.got.cif
#   From: 2010.05.17/outbox.ucp.g08.bks.cvg/sg13_15_cif.got.tgz:29438.got - 2010.06.11 12:23:55.
