data_PCOD9238517
_publ_section_title
;
Structure prediction by ZEFSAII (Michael W. Deem and Ramdas Pophale) SiO2 
 PCOD9238517
Probable space group: P 2/C
;
_chemical_formula_sum "Si O2"
_cell_formula_units_Z 20
_cell_length_a 12.073534
_cell_length_b 8.551932
_cell_length_c 8.693038
_cell_angle_alpha 90.000000
_cell_angle_beta 92.916912
_cell_angle_gamma 90.000000
_cell_volume 896.411008
_symmetry_space_group_name_H-M "P 2/C"
_symmetry_group_IT_number 13
_symmetry_cell_setting 'monoclinic'
loop_
_space_group_symop_operation_xyz
x,y,z
-x,y,1/2-z
-x,-y,-z
x,-y,1/2+z
loop_
_atom_site_type_symbol
_atom_site_label
_atom_site_fract_x
_atom_site_fract_y
_atom_site_fract_z
Si Si1 0.888077 0.446573 0.790480
Si Si2 0.083530 0.861838 0.052237
Si Si3 0.785787 0.067300 0.232855
Si Si4 0.428054 0.882533 0.388459
Si Si5 0.243826 0.676964 0.513736
O O1 0.943171 0.314984 0.905223
O O2 0.824370 0.369956 0.642139
O O3 0.000000 0.542127 0.750000
O O4 0.790797 0.536739 0.874263
O O5 0.137044 0.925014 0.212832
O O6 0.169403 0.852121 0.916863
O O7 0.000000 0.000000 0.000000
O O8 0.791303 0.175803 0.383156
O O9 0.667117 0.994152 0.189415
O O10 0.500000 0.823727 0.250000
O O11 0.366026 0.738154 0.469747
O O12 0.500000 0.000000 0.500000
#
# Coordination Sequence:
#
# PCOD9238517 Si02
#       5
#     4   4   4   4   4
#     4  12  26  47  71 110 165 202 238 298 391 471
#     4  12  23  40  71 112 154 198 245 298 367 459
#     4  12  22  43  71 108 145 189 258 312 363 449
#     4  12  24  47  80 105 139 189 267 332 379 423
#     4  12  26  47  75 110 150 202 248 314 379 461
#
# _framework density 22.311195000000001
#
# number of rings (size 3 to 8) (size 9 to 14) (size 15 to 20)
#    0.000    0.000    6.000    4.800    0.000    1.600 
#    0.000    1.000    0.000    0.000    0.000    0.000 
#    0.000    0.000    0.000    0.000    0.000    0.000 
#
# Total GULP energy -111563.917417 kJ/mol
# GULP energy per Si atom -5578.195871 kJ/mol
# Density = 2.226041 g / cm^3
# Si number density = 22.311195 Si / 1000 Ang^3
#
#
#
# Elastic Constant Matrix: (Units=GPa)
#
#
# Indices 1 2 3 4 5 6 
#
# 1 121.4582 39.2032 45.2798 0.0000 -3.0300 0.0000
# 2 39.2032 79.8134 41.0193 0.0000 0.0756 0.0000
# 3 45.2798 41.0193 120.0490 0.0000 -11.9471 0.0000
# 4 0.0000 0.0000 0.0000 32.9346 0.0000 -8.8181
# 5 -3.0300 0.0756 -11.9471 0.0000 57.7621 0.0000
# 6 0.0000 0.0000 0.0000 -8.8181 0.0000 41.2049
#
#
#
# Elastic Compliance Matrix: (Units=1/GPa)
#
#
# Indices 1 2 3 4 5 6 
#
# 1 0.010436 -0.003764 -0.002650 0.000000 0.000004 0.000000
# 2 -0.003764 0.016627 -0.004373 0.000000 -0.001124 0.000000
# 3 -0.002650 -0.004373 0.011038 0.000000 0.002150 0.000000
# 4 0.000000 0.000000 0.000000 0.032209 0.000000 0.006893
# 5 0.000004 -0.001124 0.002150 0.000000 0.017759 0.000000
# 6 0.000000 0.000000 0.000000 0.006893 0.000000 0.025744
#
#
# Mechanical properties :
#
#
# Convention : Reuss Voigt Hill
#
# Bulk Modulus (GPa) = 60.51006 63.59170 62.05088
# Shear Modulus (GPa) = 35.48736 39.43487 37.46112
#
# Velocity S-wave (km/s) = 3.99251 4.20872 4.10204
# Velocity P-wave (km/s) = 6.95941 7.22369 7.09278
#
# Compressibility (1/GPa) = 0.01652618
#
# Stress axis : x y z
#
# Youngs Moduli (GPa) = 95.82022 60.14367 90.60020
#
# Poissons Ratio (x) = 0.22640 0.24006
# Poissons Ratio (y) = 0.36070 0.39621
# Poissons Ratio (z) = 0.25389 0.26302
#
# Static dielectric constant tensor:
#      x y z
#    x 1.906560 0.000000 -0.016210 
#    y 0.000000 1.855870 0.000000 
#    z -0.016210 0.000000 1.878410 
# 
# From -- ./inp_files/14935.got.cif
#   From: 2010.05.17/outbox.cif.g08.bks.cpg/sg13_8_cif.got.tgz:14935.got - 2010.06.03 16:44:36.
