data_PCOD9238151
_publ_section_title
;
Structure prediction by ZEFSAII (Michael W. Deem and Ramdas Pophale) SiO2 
 PCOD9238151
Probable space group: P 2/C
;
_chemical_formula_sum "Si O2"
_cell_formula_units_Z 20
_cell_length_a 19.937711
_cell_length_b 6.974917
_cell_length_c 13.035465
_cell_angle_alpha 90.000000
_cell_angle_beta 150.998951
_cell_angle_gamma 90.000000
_cell_volume 878.873646
_symmetry_space_group_name_H-M "P 2/C"
_symmetry_group_IT_number 13
_symmetry_cell_setting 'monoclinic'
loop_
_space_group_symop_operation_xyz
x,y,z
-x,y,1/2-z
-x,-y,-z
x,-y,1/2+z
loop_
_atom_site_type_symbol
_atom_site_label
_atom_site_fract_x
_atom_site_fract_y
_atom_site_fract_z
Si Si1 0.918915 0.325770 0.944924
Si Si2 0.500000 0.017155 0.250000
Si Si3 0.518561 0.195206 0.963191
Si Si4 0.000000 0.080347 0.250000
Si Si5 0.709378 0.490841 0.823265
Si Si6 0.213201 0.192589 0.934330
O O1 0.792288 0.421451 0.835962
O O2 0.864752 0.194241 0.779097
O O3 0.000000 0.500000 0.000000
O O4 0.988264 0.206530 0.130725
O O5 0.425401 0.878323 0.069285
O O6 0.625749 0.139211 0.370259
O O7 0.376937 0.309491 0.753312
O O8 0.610452 0.342007 0.148823
O O9 0.500000 0.000000 0.000000
O O10 0.133891 0.946463 0.407767
O O11 0.794346 0.594722 0.026320
#
# Coordination Sequence:
#
# PCOD9238151 Si02
#       6
#     4   2   4   2   4   4
#     4  12  27  47  76 105 146 199 258 307 377 451
#     4  12  26  40  78 106 148 188 252 290 390 440
#     4  11  24  46  68 108 151 195 230 308 375 449
#     4  12  28  52  74 106 154 200 254 322 376 452
#     4  11  26  45  73 105 153 187 252 306 372 443
#     4  12  27  46  76 111 148 195 252 308 381 453
#
# _framework density 22.756398999999998
#
# number of rings (size 3 to 8) (size 9 to 14) (size 15 to 20)
#    0.000    0.400    2.000    5.400   11.200    0.000 
#    0.000    0.000    0.000    0.000    0.000    0.000 
#    0.000    0.000    0.000    0.000    0.000    0.000 
#
# Total GULP energy -111802.745246 kJ/mol
# GULP energy per Si atom -5590.137262 kJ/mol
# Density = 2.270460 g / cm^3
# Si number density = 22.756399 Si / 1000 Ang^3
#
#
#
# Elastic Constant Matrix: (Units=GPa)
#
#
# Indices 1 2 3 4 5 6 
#
# 1 89.5453 17.7834 3.3330 0.0000 -4.5853 0.0000
# 2 17.7834 108.4223 15.1552 0.0000 0.7904 0.0000
# 3 3.3330 15.1552 44.5100 0.0000 -11.4128 0.0000
# 4 0.0000 0.0000 0.0000 38.4785 0.0000 -3.9605
# 5 -4.5853 0.7904 -11.4128 0.0000 55.1106 0.0000
# 6 0.0000 0.0000 0.0000 -3.9605 0.0000 56.7169
#
#
#
# Elastic Compliance Matrix: (Units=1/GPa)
#
#
# Indices 1 2 3 4 5 6 
#
# 1 0.011598 -0.001915 0.000040 0.000000 0.001001 0.000000
# 2 -0.001915 0.010040 -0.003541 0.000000 -0.001037 0.000000
# 3 0.000040 -0.003541 0.025011 0.000000 0.005234 0.000000
# 4 0.000000 0.000000 0.000000 0.026177 0.000000 0.001828
# 5 0.001001 -0.001037 0.005234 0.000000 0.019327 0.000000
# 6 0.000000 0.000000 0.000000 0.001828 0.000000 0.017759
#
#
# Mechanical properties :
#
#
# Convention : Reuss Voigt Hill
#
# Bulk Modulus (GPa) = 27.91944 35.00233 31.46089
# Shear Modulus (GPa) = 37.68393 43.80827 40.74610
#
# Velocity S-wave (km/s) = 4.07378 4.39235 4.23606
# Velocity P-wave (km/s) = 5.86711 6.41392 6.14660
#
# Compressibility (1/GPa) = 0.03581734
#
# Stress axis : x y z
#
# Youngs Moduli (GPa) = 86.22458 99.60346 39.98174
#
# Poissons Ratio (x) = 0.19076 -0.00161
# Poissons Ratio (y) = 0.16513 0.14157
# Poissons Ratio (z) = -0.00347 0.35268
#
# Static dielectric constant tensor:
#      x y z
#    x 2.275250 0.000000 -0.027900 
#    y 0.000000 1.704600 0.000000 
#    z -0.027900 0.000000 1.950950 
# 
# From -- ./inp_files/56713.got.cif
#   From: 2010.05.17/outbox.cif.g08.bks.cpg/sg13_29_cif.got.tgz:56713.got - 2010.06.03 16:44:36.
