data_PCOD9238803
_publ_section_title
;
Structure prediction by ZEFSAII (Michael W. Deem and Ramdas Pophale) SiO2 
 PCOD9238803
Probable space group: P 2/C
;
_chemical_formula_sum "Si O2"
_cell_formula_units_Z 12
_cell_length_a 8.797771
_cell_length_b 4.823533
_cell_length_c 20.136082
_cell_angle_alpha 90.000000
_cell_angle_beta 149.923186
_cell_angle_gamma 90.000000
_cell_volume 428.242527
_symmetry_space_group_name_H-M "P 2/C"
_symmetry_group_IT_number 13
_symmetry_cell_setting 'monoclinic'
loop_
_space_group_symop_operation_xyz
x,y,z
-x,y,1/2-z
-x,-y,-z
x,-y,1/2+z
loop_
_atom_site_type_symbol
_atom_site_label
_atom_site_fract_x
_atom_site_fract_y
_atom_site_fract_z
Si Si1 0.753403 0.572256 0.039220
Si Si2 0.684484 0.180819 0.887793
Si Si3 0.084616 0.083603 0.207243
O O1 0.848475 0.891251 0.078337
O O2 0.500000 0.500000 0.000000
O O3 0.726118 0.432845 0.956101
O O4 0.038329 0.404581 0.176295
O O5 0.500000 0.269341 0.750000
O O6 0.422953 0.989435 0.819046
O O7 0.000000 0.000000 0.000000
O O8 0.000000 0.022569 0.250000
#
# Coordination Sequence:
#
# PCOD9238803 Si02
#       3
#     4   4   4
#     4  12  27  51  88 127 171 231 297 356 431 531
#     4  12  28  56  85 132 178 232 286 371 443 516
#     4  12  27  51  87 128 170 232 296 359 430 527
#
# _framework density 28.0215
#
# number of rings (size 3 to 8) (size 9 to 14) (size 15 to 20)
#    0.000    0.000    6.667    2.000    0.000    1.333 
#    6.000    0.000    0.000    0.000    0.000    0.000 
#    0.000    0.000    0.000    0.000    0.000    0.000 
#
# Total GULP energy -67239.347902 kJ/mol
# GULP energy per Si atom -5603.278992 kJ/mol
# Density = 2.795772 g / cm^3
# Si number density = 28.021500 Si / 1000 Ang^3
#
#
#
# Elastic Constant Matrix: (Units=GPa)
#
#
# Indices 1 2 3 4 5 6 
#
# 1 218.7363 18.6098 85.7060 0.0000 -10.5243 0.0000
# 2 18.6098 79.7241 7.9193 0.0000 -3.6085 0.0000
# 3 85.7060 7.9193 151.2371 0.0000 -12.2836 0.0000
# 4 0.0000 0.0000 0.0000 55.2832 0.0000 0.4130
# 5 -10.5243 -3.6085 -12.2836 0.0000 70.8289 0.0000
# 6 0.0000 0.0000 0.0000 0.4130 0.0000 42.3477
#
#
#
# Elastic Compliance Matrix: (Units=1/GPa)
#
#
# Indices 1 2 3 4 5 6 
#
# 1 0.005969 -0.001053 -0.003307 0.000000 0.000260 0.000000
# 2 -0.001053 0.012815 -0.000034 0.000000 0.000490 0.000000
# 3 -0.003307 -0.000034 0.008568 0.000000 0.000993 0.000000
# 4 0.000000 0.000000 0.000000 0.018090 0.000000 -0.000176
# 5 0.000260 0.000490 0.000993 0.000000 0.014354 0.000000
# 6 0.000000 0.000000 0.000000 -0.000176 0.000000 0.023616
#
#
# Mechanical properties :
#
#
# Convention : Reuss Voigt Hill
#
# Bulk Modulus (GPa) = 53.86697 74.90753 64.38725
# Shear Modulus (GPa) = 50.81865 56.18946 53.50405
#
# Velocity S-wave (km/s) = 4.26321 4.48283 4.37440
# Velocity P-wave (km/s) = 6.59534 7.32015 6.96717
#
# Compressibility (1/GPa) = 0.01856425
#
# Stress axis : x y z
#
# Youngs Moduli (GPa) = 167.52000 78.03531 116.70737
#
# Poissons Ratio (x) = 0.08219 0.38591
# Poissons Ratio (y) = 0.17643 0.00401
# Poissons Ratio (z) = 0.55393 0.00268
#
# Static dielectric constant tensor:
#      x y z
#    x 2.244430 0.000000 -0.099250 
#    y 0.000000 2.095140 0.000000 
#    z -0.099250 0.000000 2.224750 
# 
# From -- ./inp_files/10433.got.cif
#   From: 2010.05.17/outbox.cif.g08.bks.cpg/sg13_6_cif.got.tgz:10433.got - 2010.06.03 16:44:36.
