data_PCOD9238206
_publ_section_title
;
Structure prediction by ZEFSAII (Michael W. Deem and Ramdas Pophale) SiO2 
 PCOD9238206
Probable space group: P 2/C
;
_chemical_formula_sum "Si O2"
_cell_formula_units_Z 22
_cell_length_a 11.270120
_cell_length_b 5.332179
_cell_length_c 29.741059
_cell_angle_alpha 90.000000
_cell_angle_beta 28.933757
_cell_angle_gamma 90.000000
_cell_volume 864.676877
_symmetry_space_group_name_H-M "P 2/C"
_symmetry_group_IT_number 13
_symmetry_cell_setting 'monoclinic'
loop_
_space_group_symop_operation_xyz
x,y,z
-x,y,1/2-z
-x,-y,-z
x,-y,1/2+z
loop_
_atom_site_type_symbol
_atom_site_label
_atom_site_fract_x
_atom_site_fract_y
_atom_site_fract_z
Si Si1 0.627874 0.061266 0.091991
Si Si2 0.150956 0.642242 0.158921
Si Si3 0.579562 0.137947 0.428144
Si Si4 0.931067 0.217135 0.078643
Si Si5 0.500000 0.429116 0.750000
Si Si6 0.784784 0.897009 0.213830
O O1 0.355288 0.076097 0.204513
O O2 0.602717 0.197973 0.052322
O O3 0.801964 0.171985 0.073091
O O4 0.777860 0.805452 0.027762
O O5 0.308207 0.400740 0.093776
O O6 0.000000 0.529685 0.250000
O O7 0.987828 0.737428 0.171739
O O8 0.264996 0.898592 0.141633
O O9 0.500000 0.000000 0.500000
O O10 0.758717 0.435212 0.155688
O O11 0.882160 0.017306 0.135429
O O12 0.448020 0.266694 0.723613
#
# Coordination Sequence:
#
# PCOD9238206 Si02
#       6
#     4   4   4   4   2   4
#     4  11  24  48  73 105 149 189 258 306 382 456
#     4  12  28  47  79 108 149 204 255 308 386 456
#     4  12  28  51  74 112 150 202 253 319 379 458
#     4  11  25  46  72 108 144 195 243 322 379 453
#     4  12  24  42  76 102 152 190 248 308 396 448
#     4  12  25  48  70 112 147 197 254 314 383 464
#
# _framework density 25.443028000000002
#
# number of rings (size 3 to 8) (size 9 to 14) (size 15 to 20)
#    0.000    0.364    5.455    2.182    7.636    0.727 
#    0.000    0.000    0.000    0.000    0.000    0.000 
#    0.000    0.000    0.000    0.000    0.000    0.000 
#
# Total GULP energy -122613.284216 kJ/mol
# GULP energy per Si atom -5573.331101 kJ/mol
# Density = 2.538512 g / cm^3
# Si number density = 25.443028 Si / 1000 Ang^3
#
#
#
# Elastic Constant Matrix: (Units=GPa)
#
#
# Indices 1 2 3 4 5 6 
#
# 1 176.2829 20.6245 14.5743 0.0000 22.3084 0.0000
# 2 20.6245 66.2811 2.5231 0.0000 -7.4348 0.0000
# 3 14.5743 2.5231 105.9608 0.0000 16.8875 0.0000
# 4 0.0000 0.0000 0.0000 10.5617 0.0000 -7.7386
# 5 22.3084 -7.4348 16.8875 0.0000 31.4668 0.0000
# 6 0.0000 0.0000 0.0000 -7.7386 0.0000 29.8238
#
#
#
# Elastic Compliance Matrix: (Units=1/GPa)
#
#
# Indices 1 2 3 4 5 6 
#
# 1 0.006663 -0.002674 0.000001 0.000000 -0.005356 0.000000
# 2 -0.002674 0.016677 -0.001049 0.000000 0.006399 0.000000
# 3 0.000001 -0.001049 0.010391 0.000000 -0.005825 0.000000
# 4 0.000000 0.000000 0.000000 0.116908 0.000000 0.030335
# 5 -0.005356 0.006399 -0.005825 0.000000 0.040215 0.000000
# 6 0.000000 0.000000 0.000000 0.030335 0.000000 0.041402
#
#
# Mechanical properties :
#
#
# Convention : Reuss Voigt Hill
#
# Bulk Modulus (GPa) = 38.04314 47.10762 42.57538
# Shear Modulus (GPa) = 20.12369 35.09064 27.60717
#
# Velocity S-wave (km/s) = 2.81540 3.71777 3.29760
# Velocity P-wave (km/s) = 5.05504 6.08146 5.59185
#
# Compressibility (1/GPa) = 0.02628595
#
# Stress axis : x y z
#
# Youngs Moduli (GPa) = 150.07478 59.96220 96.24025
#
# Poissons Ratio (x) = 0.16036 -0.00008
# Poissons Ratio (y) = 0.40134 0.10097
# Poissons Ratio (z) = -0.00012 0.06291
#
# Static dielectric constant tensor:
#      x y z
#    x 1.961020 0.000000 -0.035040 
#    y 0.000000 2.148760 0.000000 
#    z -0.035040 0.000000 2.269580 
# 
# From -- ./inp_files/48873.got.cif
#   From: 2010.05.17/outbox.cif.g08.bks.cpg/sg13_25_cif.got.tgz:48873.got - 2010.06.03 16:44:36.
