data_PCOD9238935
_publ_section_title
;
Structure prediction by ZEFSAII (Michael W. Deem and Ramdas Pophale) SiO2 
 PCOD9238935
Probable space group: P 2/C
;
_chemical_formula_sum "Si O2"
_cell_formula_units_Z 26
_cell_length_a 21.000000
_cell_length_b 9.000000
_cell_length_c 9.000000
_cell_angle_alpha 90.000000
_cell_angle_beta 130.000000
_cell_angle_gamma 90.000000
_cell_volume 1303.041598
_symmetry_space_group_name_H-M "P 2/C"
_symmetry_group_IT_number 13
_symmetry_cell_setting 'monoclinic'
loop_
_space_group_symop_operation_xyz
x,y,z
-x,y,1/2-z
-x,-y,-z
x,-y,1/2+z
loop_
_atom_site_type_symbol
_atom_site_label
_atom_site_fract_x
_atom_site_fract_y
_atom_site_fract_z
Si Si1 0.138992 0.318537 0.272069
Si Si2 0.432592 0.309791 0.940267
Si Si3 0.264669 0.166557 0.675233
Si Si4 0.607559 0.386900 0.279331
Si Si5 0.000000 0.142953 0.250000
Si Si6 0.795359 0.660973 0.123390
Si Si7 0.855970 0.897707 0.995640
O O1 0.218921 0.239365 0.466187
O O2 0.158110 0.498249 0.299821
O O3 0.133488 0.234394 0.106965
O O4 0.056245 0.256524 0.234082
O O5 0.364750 0.179530 0.812988
O O6 0.410231 0.444522 0.796642
O O7 0.533200 0.290483 0.089290
O O8 0.410537 0.366775 0.073218
O O9 0.232423 0.275671 0.758412
O O10 0.226844 0.001335 0.640666
O O11 0.705970 0.354614 0.402476
O O12 0.070578 0.021940 0.408946
O O13 0.848842 0.797374 0.134247
#
# Coordination Sequence:
#
# PCOD9238935 Si02
#       7
#     4   4   4   4   2   4   4
#     4  11  22  39  64  89 116 155 202 249 295 367
#     4   9  17  32  54  85 123 161 198 246 288 343
#     4  10  20  37  58  87 124 162 198 241 304 353
#     4   9  18  31  55  87 121 156 201 249 287 333
#     4  10  24  44  62  90 120 154 190 246 318 368
#     4  11  22  38  61  92 118 157 207 249 294 357
#     4  11  24  42  64  86 122 160 194 249 313 369
#
# _framework density 19.953315
#
# number of rings (size 3 to 8) (size 9 to 14) (size 15 to 20)
#    0.000    1.846    1.538    3.231    2.154    1.846 
#    0.000    5.385    0.000    1.846    0.000    0.000 
#    0.000    0.000    0.000    0.000    0.000    0.000 
#
# Total GULP energy -144784.877179 kJ/mol
# GULP energy per Si atom -5568.649122 kJ/mol
# Density = 1.990790 g / cm^3
# Si number density = 19.953315 Si / 1000 Ang^3
#
#
#
# Elastic Constant Matrix: (Units=GPa)
#
#
# Indices 1 2 3 4 5 6 
#
# 1 61.5272 28.5002 12.1792 0.0000 24.9522 0.0000
# 2 28.5002 125.8913 8.1352 0.0000 18.6498 0.0000
# 3 12.1792 8.1352 47.1987 0.0000 17.6095 0.0000
# 4 0.0000 0.0000 0.0000 33.4451 0.0000 5.3827
# 5 24.9522 18.6498 17.6095 0.0000 30.2837 0.0000
# 6 0.0000 0.0000 0.0000 5.3827 0.0000 27.6556
#
#
#
# Elastic Compliance Matrix: (Units=1/GPa)
#
#
# Indices 1 2 3 4 5 6 
#
# 1 0.025413 -0.002884 0.001391 0.000000 -0.019971 0.000000
# 2 -0.002884 0.009083 0.000484 0.000000 -0.003499 0.000000
# 3 0.001391 0.000484 0.027180 0.000000 -0.017249 0.000000
# 4 0.000000 0.000000 0.000000 0.030867 0.000000 -0.006008
# 5 -0.019971 -0.003499 -0.017249 0.000000 0.061661 0.000000
# 6 0.000000 0.000000 0.000000 -0.006008 0.000000 0.037328
#
#
# Mechanical properties :
#
#
# Convention : Reuss Voigt Hill
#
# Bulk Modulus (GPa) = 16.76242 36.91627 26.83935
# Shear Modulus (GPa) = 23.42603 30.66374 27.04489
#
# Velocity S-wave (km/s) = 3.43015 3.92442 3.68558
# Velocity P-wave (km/s) = 4.90988 6.25110 5.62064
#
# Compressibility (1/GPa) = 0.05965725
#
# Stress axis : x y z
#
# Youngs Moduli (GPa) = 39.34969 110.09100 36.79158
#
# Poissons Ratio (x) = 0.31755 -0.05117
# Poissons Ratio (y) = 0.11350 -0.01781
# Poissons Ratio (z) = -0.05472 -0.05329
#
# Static dielectric constant tensor:
#      x y z
#    x 1.745200 0.000000 0.003050 
#    y 0.000000 1.667860 0.000000 
#    z 0.003050 0.000000 1.795290 
# 
# From -- ./inp_files/22840.got.cif
#   From: 2010.05.17/outbox.ucp.g08.bks.cvg/sg13_12_cif.got.tgz:22840.got - 2010.06.11 12:23:55.
