data_PCOD9238631
_publ_section_title
;
Structure prediction by ZEFSAII (Michael W. Deem and Ramdas Pophale) SiO2 
 PCOD9238631
Probable space group: P 2/C
;
_chemical_formula_sum "Si O2"
_cell_formula_units_Z 20
_cell_length_a 11.629533
_cell_length_b 16.630516
_cell_length_c 7.870672
_cell_angle_alpha 90.000000
_cell_angle_beta 142.977794
_cell_angle_gamma 90.000000
_cell_volume 916.571006
_symmetry_space_group_name_H-M "P 2/C"
_symmetry_group_IT_number 13
_symmetry_cell_setting 'monoclinic'
loop_
_space_group_symop_operation_xyz
x,y,z
-x,y,1/2-z
-x,-y,-z
x,-y,1/2+z
loop_
_atom_site_type_symbol
_atom_site_label
_atom_site_fract_x
_atom_site_fract_y
_atom_site_fract_z
Si Si1 0.500000 0.043108 0.750000
Si Si2 0.128764 0.936134 0.249776
Si Si3 0.566234 0.162114 0.522862
Si Si4 0.871236 0.563866 0.750224
Si Si5 0.500000 0.456892 0.250000
Si Si6 0.566234 0.337887 0.022862
O O1 0.486736 0.098851 0.567112
O O2 0.310112 0.988557 0.529563
O O3 0.212280 0.864840 0.231623
O O4 0.000000 0.903059 0.250000
O O5 0.000000 0.000000 0.000000
O O6 0.500000 0.156093 0.250000
O O7 0.500000 0.250000 0.500000
O O8 0.689888 0.511443 0.470437
O O9 0.787720 0.635160 0.768377
O O10 0.000000 0.596941 0.750000
O O11 0.000000 0.500000 0.000000
O O12 0.513264 0.401149 0.432888
O O13 0.500000 0.343907 0.750000
#
# Coordination Sequence:
#
# PCOD9238631 Si02
#       6
#     2   4   4   4   2   4
#     4  12  24  48  78 106 150 200 254 314 366 450
#     4  12  24  45  79 111 141 196 263 304 366 454
#     4  12  25  46  74 107 155 199 237 315 388 431
#     4  12  24  45  79 111 141 196 263 304 366 454
#     4  12  24  48  78 106 150 200 254 314 366 450
#     4  12  25  46  74 107 155 199 237 315 388 431
#
# _framework density 21.820460000000001
#
# number of rings (size 3 to 8) (size 9 to 14) (size 15 to 20)
#    0.000    0.000    8.000    3.600    0.000    0.000 
#    0.000   10.000    0.000    0.000    0.000    0.000 
#    0.000    0.000    0.000    0.000    0.000    0.000 
#
# Total GULP energy -111694.431692 kJ/mol
# GULP energy per Si atom -5584.721585 kJ/mol
# Density = 2.177080 g / cm^3
# Si number density = 21.820460 Si / 1000 Ang^3
#
#
#
# Elastic Constant Matrix: (Units=GPa)
#
#
# Indices 1 2 3 4 5 6 
#
# 1 178.4546 78.6015 31.1786 0.0000 11.7602 0.0000
# 2 78.6015 165.1716 53.9993 0.0000 15.6712 0.0000
# 3 31.1786 53.9993 109.2964 0.0000 1.0646 0.0000
# 4 0.0000 0.0000 0.0000 17.9805 0.0000 10.5074
# 5 11.7602 15.6712 1.0646 0.0000 50.4661 0.0000
# 6 0.0000 0.0000 0.0000 10.5074 0.0000 58.3425
#
#
#
# Elastic Compliance Matrix: (Units=1/GPa)
#
#
# Indices 1 2 3 4 5 6 
#
# 1 0.007128 -0.003180 -0.000456 0.000000 -0.000664 0.000000
# 2 -0.003180 0.008884 -0.003463 0.000000 -0.001945 0.000000
# 3 -0.000456 -0.003463 0.010981 0.000000 0.000950 0.000000
# 4 0.000000 0.000000 0.000000 0.062158 0.000000 -0.011195
# 5 -0.000664 -0.001945 0.000950 0.000000 0.020554 0.000000
# 6 0.000000 0.000000 0.000000 -0.011195 0.000000 0.019156
#
#
# Mechanical properties :
#
#
# Convention : Reuss Voigt Hill
#
# Bulk Modulus (GPa) = 78.15379 86.72015 82.43697
# Shear Modulus (GPa) = 33.93875 44.63403 39.28639
#
# Velocity S-wave (km/s) = 3.94809 4.52764 4.24776
# Velocity P-wave (km/s) = 7.52846 8.19522 7.86890
#
# Compressibility (1/GPa) = 0.01279529
#
# Stress axis : x y z
#
# Youngs Moduli (GPa) = 140.29866 112.55745 91.06382
#
# Poissons Ratio (x) = 0.35792 0.04150
# Poissons Ratio (y) = 0.44614 0.31539
# Poissons Ratio (z) = 0.06394 0.38983
#
# Static dielectric constant tensor:
#      x y z
#    x 1.854390 0.000000 -0.003600 
#    y 0.000000 1.838430 0.000000 
#    z -0.003600 0.000000 1.884120 
# 
# From -- ./inp_files/14897.got.cif
#   From: 2010.05.17/outbox.cif.g08.bks.cpg/sg13_8_cif.got.tgz:14897.got - 2010.06.03 16:44:36.
