data_PCOD9238173
_publ_section_title
;
Structure prediction by ZEFSAII (Michael W. Deem and Ramdas Pophale) SiO2 
 PCOD9238173
Probable space group: P 2/C
;
_chemical_formula_sum "Si O2"
_cell_formula_units_Z 18
_cell_length_a 7.008398
_cell_length_b 9.274813
_cell_length_c 10.111081
_cell_angle_alpha 90.000000
_cell_angle_beta 112.702583
_cell_angle_gamma 90.000000
_cell_volume 606.314039
_symmetry_space_group_name_H-M "P 2/C"
_symmetry_group_IT_number 13
_symmetry_cell_setting 'monoclinic'
loop_
_space_group_symop_operation_xyz
x,y,z
-x,y,1/2-z
-x,-y,-z
x,-y,1/2+z
loop_
_atom_site_type_symbol
_atom_site_label
_atom_site_fract_x
_atom_site_fract_y
_atom_site_fract_z
Si Si1 0.251028 0.347827 0.744442
Si Si2 0.819504 0.421748 0.036874
Si Si3 0.189972 0.197630 0.965469
Si Si4 0.500000 0.811592 0.750000
Si Si5 0.805135 0.905610 0.617269
O O1 0.342583 0.397632 0.627606
O O2 0.322295 0.226409 0.867194
O O3 0.223316 0.481574 0.843253
O O4 0.035846 0.263365 0.631147
O O5 0.852719 0.259267 0.094183
O O6 0.000000 0.500000 0.000000
O O7 0.204093 0.027273 0.996959
O O8 0.316833 0.269634 0.120266
O O9 0.615397 0.896681 0.665802
O O10 0.000000 0.961216 0.750000
#
# Coordination Sequence:
#
# PCOD9238173 Si02
#       5
#     4   4   4   2   4
#     4  11  24  46  82 112 157 215 272 317 402 475
#     4  12  23  44  81 117 152 209 269 325 386 473
#     4  11  24  47  74 118 157 207 267 327 391 477
#     4  12  30  48  76 124 164 198 272 334 394 480
#     4  12  27  48  84 112 158 216 263 330 400 471
#
# _framework density 29.687587000000001
#
# number of rings (size 3 to 8) (size 9 to 14) (size 15 to 20)
#    0.000    0.444    6.667    3.333    6.222    1.778 
#    0.000    1.111    0.000    0.000    0.000    0.000 
#    0.000    0.000    0.000    0.000    0.000    0.000 
#
# Total GULP energy -100341.946700 kJ/mol
# GULP energy per Si atom -5574.552594 kJ/mol
# Density = 2.962002 g / cm^3
# Si number density = 29.687587 Si / 1000 Ang^3
#
#
#
# Elastic Constant Matrix: (Units=GPa)
#
#
# Indices 1 2 3 4 5 6 
#
# 1 124.6979 30.4377 23.9422 0.0000 -35.1525 0.0000
# 2 30.4377 222.9153 32.7836 0.0000 -26.8643 0.0000
# 3 23.9422 32.7836 235.4520 0.0000 -10.1199 0.0000
# 4 0.0000 0.0000 0.0000 27.6174 0.0000 -6.9439
# 5 -35.1525 -26.8643 -10.1199 0.0000 55.7961 0.0000
# 6 0.0000 0.0000 0.0000 -6.9439 0.0000 22.9080
#
#
#
# Elastic Compliance Matrix: (Units=1/GPa)
#
#
# Indices 1 2 3 4 5 6 
#
# 1 0.009940 -0.000549 -0.000682 0.000000 0.005875 0.000000
# 2 -0.000549 0.004870 -0.000540 0.000000 0.001901 0.000000
# 3 -0.000682 -0.000540 0.004396 0.000000 0.000108 0.000000
# 4 0.000000 0.000000 0.000000 0.039196 0.000000 0.011881
# 5 0.005875 0.001901 0.000108 0.000000 0.022558 0.000000
# 6 0.000000 0.000000 0.000000 0.011881 0.000000 0.047254
#
#
# Mechanical properties :
#
#
# Convention : Reuss Voigt Hill
#
# Bulk Modulus (GPa) = 63.84292 84.15469 73.99881
# Shear Modulus (GPa) = 36.50200 54.32443 45.41321
#
# Velocity S-wave (km/s) = 3.51028 4.28234 3.91539
# Velocity P-wave (km/s) = 6.16288 7.27046 6.73946
#
# Compressibility (1/GPa) = 0.01566344
#
# Stress axis : x y z
#
# Youngs Moduli (GPa) = 100.59987 205.35920 227.46058
#
# Poissons Ratio (x) = 0.11275 0.15510
# Poissons Ratio (y) = 0.05523 0.12294
# Poissons Ratio (z) = 0.06859 0.11100
#
# Static dielectric constant tensor:
#      x y z
#    x 2.945590 0.000000 0.323780 
#    y 0.000000 2.300350 0.000000 
#    z 0.323780 0.000000 2.551810 
# 
# From -- ./inp_files/28370.got.cif
#   From: 2010.05.17/outbox.cif.g08.bks.cpg/sg13_15_cif.got.tgz:28370.got - 2010.06.03 16:44:36.
