data_PCOD9238164
_publ_section_title
;
Structure prediction by ZEFSAII (Michael W. Deem and Ramdas Pophale) SiO2 
 PCOD9238164
Probable space group: P 2/C
;
_chemical_formula_sum "Si O2"
_cell_formula_units_Z 22
_cell_length_a 23.530480
_cell_length_b 5.331030
_cell_length_c 11.412056
_cell_angle_alpha 90.000000
_cell_angle_beta 141.008947
_cell_angle_gamma 90.000000
_cell_volume 900.728388
_symmetry_space_group_name_H-M "P 2/C"
_symmetry_group_IT_number 13
_symmetry_cell_setting 'monoclinic'
loop_
_space_group_symop_operation_xyz
x,y,z
-x,y,1/2-z
-x,-y,-z
x,-y,1/2+z
loop_
_atom_site_type_symbol
_atom_site_label
_atom_site_fract_x
_atom_site_fract_y
_atom_site_fract_z
Si Si1 0.500000 0.244054 0.250000
Si Si2 0.901772 0.037407 0.397661
Si Si3 0.590774 0.913215 0.576911
Si Si4 0.751556 0.146647 0.972417
Si Si5 0.170960 0.555647 0.106028
Si Si6 0.352734 0.548803 0.015287
O O1 0.572211 0.087512 0.435548
O O2 0.570459 0.407709 0.288853
O O3 0.877635 0.294532 0.432618
O O4 0.887904 0.798490 0.458595
O O5 0.832850 0.029638 0.176905
O O6 0.000000 0.000000 0.500000
O O7 0.688819 0.976609 0.788236
O O8 0.500000 0.000000 0.500000
O O9 0.601070 0.643111 0.531612
O O10 0.792172 0.385607 0.965674
O O11 0.680262 0.231995 0.954863
O O12 0.260060 0.578804 0.329616
#
# Coordination Sequence:
#
# PCOD9238164 Si02
#       6
#     2   4   4   4   4   4
#     4  12  24  42  64  98 146 182 258 290 372 414
#     4  11  27  51  78 114 151 186 245 315 372 450
#     4  12  26  42  68 100 145 204 252 304 365 434
#     4  11  24  46  74 104 148 194 245 301 375 439
#     4  11  25  47  77 109 148 198 242 300 382 445
#     4  11  26  43  65 105 142 193 246 312 354 441
#
# _framework density 24.424676000000002
#
# number of rings (size 3 to 8) (size 9 to 14) (size 15 to 20)
#    0.000    0.727    1.818    5.455    5.091    6.545 
#    0.000    3.636    0.000    0.000    0.000    0.000 
#    0.000    0.000    0.000    0.000    0.000    0.000 
#
# Total GULP energy -122749.823611 kJ/mol
# GULP energy per Si atom -5579.537437 kJ/mol
# Density = 2.436908 g / cm^3
# Si number density = 24.424676 Si / 1000 Ang^3
#
#
#
# Elastic Constant Matrix: (Units=GPa)
#
#
# Indices 1 2 3 4 5 6 
#
# 1 146.9931 62.3823 21.9842 0.0000 19.9238 0.0000
# 2 62.3823 101.0969 18.3580 0.0000 22.0998 0.0000
# 3 21.9842 18.3580 60.4964 0.0000 3.3409 0.0000
# 4 0.0000 0.0000 0.0000 19.6813 0.0000 9.2454
# 5 19.9238 22.0998 3.3409 0.0000 37.3620 0.0000
# 6 0.0000 0.0000 0.0000 9.2454 0.0000 34.8064
#
#
#
# Elastic Compliance Matrix: (Units=1/GPa)
#
#
# Indices 1 2 3 4 5 6 
#
# 1 0.009501 -0.005128 -0.001793 0.000000 -0.001873 0.000000
# 2 -0.005128 0.014734 -0.002289 0.000000 -0.005776 0.000000
# 3 -0.001793 -0.002289 0.017837 0.000000 0.000715 0.000000
# 4 0.000000 0.000000 0.000000 0.058053 0.000000 -0.015420
# 5 -0.001873 -0.005776 0.000715 0.000000 0.031117 0.000000
# 6 0.000000 0.000000 0.000000 -0.015420 0.000000 0.032826
#
#
# Mechanical properties :
#
#
# Convention : Reuss Voigt Hill
#
# Bulk Modulus (GPa) = 42.27899 57.11507 49.69703
# Shear Modulus (GPa) = 26.26441 32.09407 29.17924
#
# Velocity S-wave (km/s) = 3.28277 3.62885 3.46014
# Velocity P-wave (km/s) = 5.63172 6.40258 6.02948
#
# Compressibility (1/GPa) = 0.02365241
#
# Stress axis : x y z
#
# Youngs Moduli (GPa) = 105.24897 67.87111 56.06451
#
# Poissons Ratio (x) = 0.34802 0.10054
# Poissons Ratio (y) = 0.53968 0.12832
# Poissons Ratio (z) = 0.18874 0.15534
#
# Static dielectric constant tensor:
#      x y z
#    x 1.987610 0.000000 -0.039500 
#    y 0.000000 2.084000 0.000000 
#    z -0.039500 0.000000 1.908460 
# 
# From -- ./inp_files/41335.got.cif
#   From: 2010.05.17/outbox.cif.g08.bks.cpg/sg13_21_cif.got.tgz:41335.got - 2010.06.03 16:44:36.
