data_PCOD9238402
_publ_section_title
;
Structure prediction by ZEFSAII (Michael W. Deem and Ramdas Pophale) SiO2 
 PCOD9238402
Probable space group: P 2/C
;
_chemical_formula_sum "Si O2"
_cell_formula_units_Z 28
_cell_length_a 16.199865
_cell_length_b 5.135872
_cell_length_c 14.693261
_cell_angle_alpha 90.000000
_cell_angle_beta 117.028888
_cell_angle_gamma 90.000000
_cell_volume 1088.962752
_symmetry_space_group_name_H-M "P 2/C"
_symmetry_group_IT_number 13
_symmetry_cell_setting 'monoclinic'
loop_
_space_group_symop_operation_xyz
x,y,z
-x,y,1/2-z
-x,-y,-z
x,-y,1/2+z
loop_
_atom_site_type_symbol
_atom_site_label
_atom_site_fract_x
_atom_site_fract_y
_atom_site_fract_z
Si Si1 0.092301 0.112441 0.239041
Si Si2 0.169423 0.975702 0.602964
Si Si3 0.435461 0.090047 0.584165
Si Si4 0.093867 0.523083 0.990079
Si Si5 0.632131 0.160580 0.745423
Si Si6 0.839063 0.604321 0.156889
Si Si7 0.368068 0.425259 0.945388
O O1 0.086051 0.008872 0.134212
O O2 0.131931 0.402725 0.250528
O O3 0.000000 0.098221 0.250000
O O4 0.161161 0.906430 0.320192
O O5 0.166745 0.690786 0.561196
O O6 0.142205 0.197516 0.518862
O O7 0.266957 0.031005 0.700069
O O8 0.540614 0.012877 0.663650
O O9 0.390386 0.192144 0.657361
O O10 0.429223 0.334565 0.512162
O O11 0.392298 0.841293 0.511792
O O12 0.083554 0.447575 0.880288
O O13 0.000000 0.500000 0.000000
O O14 0.636386 0.380415 0.667113
O O15 0.737474 0.515472 0.078120
#
# Coordination Sequence:
#
# PCOD9238402 Si02
#       7
#     4   4   4   4   4   4   4
#     4  12  24  43  66  96 132 175 223 280 342 412
#     4  12  25  43  69 100 134 179 229 283 352 417
#     4  11  27  46  72 108 143 193 237 297 358 433
#     4  12  25  44  68 100 136 179 228 291 356 417
#     4  11  26  47  74 106 148 186 245 295 359 427
#     4  12  24  43  67  97 135 174 231 283 344 425
#     4  12  25  47  72 106 146 190 240 295 362 422
#
# _framework density 25.712541999999999
#
# number of rings (size 3 to 8) (size 9 to 14) (size 15 to 20)
#    0.000    0.286    1.429    7.714    0.000    4.571 
#    0.000    0.000    0.000    0.000    0.000    0.000 
#    0.000    0.000    0.000    0.000    0.000    0.000 
#
# Total GULP energy -156616.001644 kJ/mol
# GULP energy per Si atom -5593.428630 kJ/mol
# Density = 2.565402 g / cm^3
# Si number density = 25.712542 Si / 1000 Ang^3
#
#
#
# Elastic Constant Matrix: (Units=GPa)
#
#
# Indices 1 2 3 4 5 6 
#
# 1 100.9327 26.9695 34.1768 0.0000 -9.8762 0.0000
# 2 26.9695 113.4197 61.0911 0.0000 0.7602 0.0000
# 3 34.1768 61.0911 121.6777 0.0000 -9.2349 0.0000
# 4 0.0000 0.0000 0.0000 34.2728 0.0000 8.7688
# 5 -9.8762 0.7602 -9.2349 0.0000 61.2418 0.0000
# 6 0.0000 0.0000 0.0000 8.7688 0.0000 22.7610
#
#
#
# Elastic Compliance Matrix: (Units=1/GPa)
#
#
# Indices 1 2 3 4 5 6 
#
# 1 0.011220 -0.001427 -0.002323 0.000000 0.001477 0.000000
# 2 -0.001427 0.012337 -0.005890 0.000000 -0.001271 0.000000
# 3 -0.002323 -0.005890 0.011942 0.000000 0.001499 0.000000
# 4 0.000000 0.000000 0.000000 0.032368 0.000000 -0.012470
# 5 0.001477 -0.001271 0.001499 0.000000 0.016809 0.000000
# 6 0.000000 0.000000 0.000000 -0.012470 0.000000 0.048739
#
#
# Mechanical properties :
#
#
# Convention : Reuss Voigt Hill
#
# Bulk Modulus (GPa) = 61.65336 64.50052 63.07694
# Shear Modulus (GPa) = 31.62549 37.90797 34.76673
#
# Velocity S-wave (km/s) = 3.51089 3.84383 3.68112
# Velocity P-wave (km/s) = 6.36122 6.69624 6.53088
#
# Compressibility (1/GPa) = 0.01621972
#
# Stress axis : x y z
#
# Youngs Moduli (GPa) = 89.12732 81.05699 83.73883
#
# Poissons Ratio (x) = 0.11563 0.19454
# Poissons Ratio (y) = 0.12714 0.49321
# Poissons Ratio (z) = 0.20706 0.47742
#
# Static dielectric constant tensor:
#      x y z
#    x 2.072400 0.000000 -0.042490 
#    y 0.000000 2.008200 0.000000 
#    z -0.042490 0.000000 2.029310 
# 
# From -- ./inp_files/54510.got.cif
#   From: 2010.05.17/outbox.cif.g08.bks.cpg/sg13_28_cif.got.tgz:54510.got - 2010.06.03 16:44:36.
