data_PCOD9238461
_publ_section_title
;
Structure prediction by ZEFSAII (Michael W. Deem and Ramdas Pophale) SiO2 
 PCOD9238461
Probable space group: P 2/C
;
_chemical_formula_sum "Si O2"
_cell_formula_units_Z 30
_cell_length_a 8.489232
_cell_length_b 12.152108
_cell_length_c 28.380805
_cell_angle_alpha 90.000000
_cell_angle_beta 30.037860
_cell_angle_gamma 90.000000
_cell_volume 1465.586350
_symmetry_space_group_name_H-M "P 2/C"
_symmetry_group_IT_number 13
_symmetry_cell_setting 'monoclinic'
loop_
_space_group_symop_operation_xyz
x,y,z
-x,y,1/2-z
-x,-y,-z
x,-y,1/2+z
loop_
_atom_site_type_symbol
_atom_site_label
_atom_site_fract_x
_atom_site_fract_y
_atom_site_fract_z
Si Si1 0.223264 0.639433 0.564775
Si Si2 0.150239 0.045283 0.605459
Si Si3 0.130641 0.520967 0.413770
Si Si4 0.000000 0.978630 0.750000
Si Si5 0.830636 0.843977 0.640518
Si Si6 0.827499 0.725418 0.448321
Si Si7 0.800998 0.430551 0.259666
Si Si8 0.473538 0.202788 0.375927
O O1 0.591459 0.648899 0.478960
O O2 0.079420 0.564453 0.561506
O O3 0.101595 0.763005 0.587888
O O4 0.053900 0.596003 0.654953
O O5 0.086785 0.169359 0.604890
O O6 0.500000 0.000000 0.500000
O O7 0.092525 0.037812 0.676884
O O8 0.916144 0.963764 0.637740
O O9 0.500243 0.494476 0.317997
O O10 0.000000 0.500000 0.500000
O O11 0.076115 0.642070 0.406867
O O12 0.288858 0.898346 0.687078
O O13 0.500000 0.808767 0.750000
O O14 0.786552 0.825333 0.596226
O O15 0.650401 0.776984 0.539615
O O16 0.654301 0.314687 0.315275
O O17 0.000000 0.485206 0.250000
#
# Coordination Sequence:
#
# PCOD9238461 Si02
#       8
#     4   4   4   2   4   4   4   4
#     4  12  21  40  72  97 134 179 233 295 350 416
#     4  12  25  44  70 103 143 186 236 297 363 429
#     4  12  24  42  65 102 139 178 231 298 360 425
#     4  12  22  42  72 102 142 186 240 298 356 430
#     4  12  21  37  67 106 135 174 238 295 351 409
#     4  12  25  44  67 105 145 183 233 291 366 432
#     4  12  21  37  68 103 129 177 230 294 354 414
#     4  12  20  38  70 103 136 170 233 303 344 408
#
# _framework density 20.469621
#
# number of rings (size 3 to 8) (size 9 to 14) (size 15 to 20)
#    0.000    0.000   10.000    0.800    0.000    0.533 
#    0.000    1.333    7.333    0.000    0.000    0.000 
#    0.000    0.000    0.000    0.000    0.000    0.000 
#
# Total GULP energy -167689.569351 kJ/mol
# GULP energy per Si atom -5589.652312 kJ/mol
# Density = 2.042303 g / cm^3
# Si number density = 20.469621 Si / 1000 Ang^3
#
#
#
# Elastic Constant Matrix: (Units=GPa)
#
#
# Indices 1 2 3 4 5 6 
#
# 1 127.3333 46.3665 26.7320 0.0000 0.9044 0.0000
# 2 46.3665 116.2717 35.1851 0.0000 0.1486 0.0000
# 3 26.7320 35.1851 30.0212 0.0000 14.1116 0.0000
# 4 0.0000 0.0000 0.0000 42.0934 0.0000 27.1331
# 5 0.9044 0.1486 14.1116 0.0000 31.6346 0.0000
# 6 0.0000 0.0000 0.0000 27.1331 0.0000 89.9802
#
#
#
# Elastic Compliance Matrix: (Units=1/GPa)
#
#
# Indices 1 2 3 4 5 6 
#
# 1 0.010284 -0.001182 -0.009662 0.000000 0.004021 0.000000
# 2 -0.001182 0.015691 -0.021913 0.000000 0.009735 0.000000
# 3 -0.009662 -0.021913 0.085303 0.000000 -0.037673 0.000000
# 4 0.000000 0.000000 0.000000 0.029488 0.000000 -0.008892
# 5 0.004021 0.009735 -0.037673 0.000000 0.048255 0.000000
# 6 0.000000 0.000000 0.000000 -0.008892 0.000000 0.013795
#
#
# Mechanical properties :
#
#
# Convention : Reuss Voigt Hill
#
# Bulk Modulus (GPa) = 21.85120 54.46595 38.15857
# Shear Modulus (GPa) = 17.63151 43.76450 30.69800
#
# Velocity S-wave (km/s) = 2.93806 4.62889 3.87678
# Velocity P-wave (km/s) = 4.71251 7.43201 6.22264
#
# Compressibility (1/GPa) = 0.04576407
#
# Stress axis : x y z
#
# Youngs Moduli (GPa) = 97.24125 63.73254 11.72295
#
# Poissons Ratio (x) = 0.07535 0.11326
# Poissons Ratio (y) = 0.11497 0.25688
# Poissons Ratio (z) = 0.93950 1.39654
#
# Static dielectric constant tensor:
#      x y z
#    x 0.715120 0.000000 -0.185120 
#    y 0.000000 1.792380 0.000000 
#    z -0.185120 0.000000 1.703080 
# 
# From -- ./inp_files/96078.got.cif
#   From: 2010.05.17/outbox.cif.g08.bks.cpg/sg13_49_cif.got.tgz:96078.got - 2010.06.03 16:44:36.
