data_PCOD9238990
_publ_section_title
;
Structure prediction by ZEFSAII (Michael W. Deem and Ramdas Pophale) SiO2 
 PCOD9238990
Probable space group: P 2/C
;
_chemical_formula_sum "Si O2"
_cell_formula_units_Z 30
_cell_length_a 30.000000
_cell_length_b 9.000000
_cell_length_c 30.000000
_cell_angle_alpha 90.000000
_cell_angle_beta 10.000000
_cell_angle_gamma 90.000000
_cell_volume 1406.550239
_symmetry_space_group_name_H-M "P 2/C"
_symmetry_group_IT_number 13
_symmetry_cell_setting 'monoclinic'
loop_
_space_group_symop_operation_xyz
x,y,z
-x,y,1/2-z
-x,-y,-z
x,-y,1/2+z
loop_
_atom_site_type_symbol
_atom_site_label
_atom_site_fract_x
_atom_site_fract_y
_atom_site_fract_z
Si Si1 0.831166 0.825446 0.339715
Si Si2 0.746458 0.281537 0.330927
Si Si3 0.295410 0.648046 0.404610
Si Si4 0.775707 0.164116 0.401984
Si Si5 0.000000 0.407815 0.750000
Si Si6 0.743372 0.091521 0.245857
Si Si7 0.732782 0.456956 0.666416
Si Si8 0.703161 0.791852 0.686941
O O1 0.574084 0.790679 0.564301
O O2 0.891797 0.699120 0.317114
O O3 0.788347 0.990594 0.401592
O O4 0.077446 0.836918 0.064390
O O5 0.726224 0.179316 0.396516
O O6 0.750802 0.217178 0.276863
O O7 0.505671 0.390403 0.572511
O O8 0.012378 0.366306 0.075103
O O9 0.322090 0.559637 0.331951
O O10 0.045307 0.754907 0.646937
O O11 0.217923 0.520268 0.516352
O O12 0.550511 0.751333 0.151172
O O13 0.709853 0.117622 0.226107
O O14 0.500000 0.000000 0.500000
O O15 0.000000 0.000000 0.000000
O O16 0.770768 0.628216 0.637487
#
# Coordination Sequence:
#
# PCOD9238990 Si02
#       8
#     4   4   4   4   2   4   4   4
#     4  12  27  46  75 107 144 187 240 304 364 429
#     4  10  21  38  67  97 139 183 233 279 338 422
#     4  10  23  43  70  99 134 186 229 287 357 432
#     4  10  22  44  69 100 141 183 230 287 357 424
#     4  12  28  48  78 106 144 184 250 306 370 448
#     4  12  25  42  67 103 142 190 243 288 349 429
#     4  10  21  40  65  99 135 180 230 279 358 412
#     4  12  25  44  71 103 149 185 233 297 369 414
#
# _framework density 21.328779999999998
#
# number of rings (size 3 to 8) (size 9 to 14) (size 15 to 20)
#    0.000    1.067    1.333    4.800    3.733    5.867 
#    0.000    1.333    0.000    0.000    0.000    0.000 
#    0.000    0.000    0.000    0.000    0.000    0.000 
#
# Total GULP energy -167705.357976 kJ/mol
# GULP energy per Si atom -5590.178599 kJ/mol
# Density = 2.128023 g / cm^3
# Si number density = 21.328780 Si / 1000 Ang^3
#
#
#
# Elastic Constant Matrix: (Units=GPa)
#
#
# Indices 1 2 3 4 5 6 
#
# 1 141.7625 47.5297 62.6395 0.0000 9.2323 0.0000
# 2 47.5297 102.9298 57.2107 0.0000 2.9925 0.0000
# 3 62.6395 57.2107 185.8357 0.0000 17.3601 0.0000
# 4 0.0000 0.0000 0.0000 24.0316 0.0000 3.6343
# 5 9.2323 2.9925 17.3601 0.0000 27.9518 0.0000
# 6 0.0000 0.0000 0.0000 3.6343 0.0000 39.3876
#
#
#
# Elastic Compliance Matrix: (Units=1/GPa)
#
#
# Indices 1 2 3 4 5 6 
#
# 1 0.009038 -0.003032 -0.001980 0.000000 -0.001431 0.000000
# 2 -0.003032 0.012767 -0.003051 0.000000 0.001530 0.000000
# 3 -0.001980 -0.003051 0.007321 0.000000 -0.003566 0.000000
# 4 0.000000 0.000000 0.000000 0.042201 0.000000 -0.003894
# 5 -0.001431 0.001530 -0.003566 0.000000 0.038300 0.000000
# 6 0.000000 0.000000 0.000000 -0.003894 0.000000 0.025748
#
#
# Mechanical properties :
#
#
# Convention : Reuss Voigt Hill
#
# Bulk Modulus (GPa) = 76.91786 85.03197 80.97491
# Shear Modulus (GPa) = 32.08550 35.81740 33.95145
#
# Velocity S-wave (km/s) = 3.88278 4.10237 3.99408
# Velocity P-wave (km/s) = 7.49950 7.89893 7.70180
#
# Compressibility (1/GPa) = 0.01300088
#
# Stress axis : x y z
#
# Youngs Moduli (GPa) = 110.63872 78.32781 136.59610
#
# Poissons Ratio (x) = 0.23747 0.27039
# Poissons Ratio (y) = 0.33543 0.41680
# Poissons Ratio (z) = 0.21901 0.23900
#
# Static dielectric constant tensor:
#      x y z
#    x 1.852630 0.000000 -0.026200 
#    y 0.000000 1.791850 0.000000 
#    z -0.026200 0.000000 1.741880 
# 
# From -- ./inp_files/98077.got.cif
#   From: 2010.05.17/outbox.ucp.g08.bks.cvg/sg13_50_cif.got.tgz:98077.got - 2010.06.11 12:23:55.
