data_PCOD9238928
_publ_section_title
;
Structure prediction by ZEFSAII (Michael W. Deem and Ramdas Pophale) SiO2 
 PCOD9238928
Probable space group: P 2/C
;
_chemical_formula_sum "Si O2"
_cell_formula_units_Z 28
_cell_length_a 9.000000
_cell_length_b 9.000000
_cell_length_c 30.000000
_cell_angle_alpha 90.000000
_cell_angle_beta 140.000000
_cell_angle_gamma 90.000000
_cell_volume 1561.973892
_symmetry_space_group_name_H-M "P 2/C"
_symmetry_group_IT_number 13
_symmetry_cell_setting 'monoclinic'
loop_
_space_group_symop_operation_xyz
x,y,z
-x,y,1/2-z
-x,-y,-z
x,-y,1/2+z
loop_
_atom_site_type_symbol
_atom_site_label
_atom_site_fract_x
_atom_site_fract_y
_atom_site_fract_z
Si Si1 0.212831 0.197667 0.176618
Si Si2 0.624631 0.676694 0.207308
Si Si3 0.001272 0.421278 0.199451
Si Si4 0.910813 0.657268 0.424909
Si Si5 0.065787 0.143419 0.655022
Si Si6 0.345117 0.691927 0.389554
Si Si7 0.892008 0.332303 0.026032
O O1 0.500000 0.211263 0.250000
O O2 0.075463 0.298295 0.181138
O O3 0.087308 0.249010 0.101015
O O4 0.131384 0.028233 0.165041
O O5 0.788920 0.537176 0.251835
O O6 0.359079 0.627647 0.148339
O O7 0.721775 0.788623 0.266814
O O8 0.656502 0.731329 0.163650
O O9 0.000000 0.361783 0.250000
O O10 0.776191 0.525779 0.136416
O O11 0.965980 0.782366 0.401105
O O12 0.931146 0.698289 0.481989
O O13 0.058495 0.507132 0.453412
O O14 0.830889 0.194622 0.626627
O O15 0.612910 0.695257 0.468245
#
# Coordination Sequence:
#
# PCOD9238928 Si02
#       7
#     4   4   4   4   4   4   4
#     4  12  25  38  54  82 118 151 186 228 277 333
#     4   9  17  36  61  84 110 144 188 230 272 328
#     4   9  19  35  58  84 109 140 185 237 280 320
#     4  10  20  36  60  83 109 147 188 230 277 326
#     4  11  22  36  57  84 115 152 186 221 271 334
#     4   9  20  38  60  85 111 143 186 233 280 331
#     4  10  22  39  59  84 111 143 187 237 283 326
#
# _framework density 17.926036
#
# number of rings (size 3 to 8) (size 9 to 14) (size 15 to 20)
#    0.000    2.000    0.000    5.143    0.000    5.714 
#    0.000    0.000    0.000    0.000    0.000    0.000 
#    0.000    0.000    0.000    0.000    0.000    0.000 
#
# Total GULP energy -155940.742621 kJ/mol
# GULP energy per Si atom -5569.312236 kJ/mol
# Density = 1.788524 g / cm^3
# Si number density = 17.926036 Si / 1000 Ang^3
#
#
#
# Elastic Constant Matrix: (Units=GPa)
#
#
# Indices 1 2 3 4 5 6 
#
# 1 76.6782 38.6399 46.0237 0.0000 5.5698 0.0000
# 2 38.6399 71.2319 57.4208 0.0000 -10.9931 0.0000
# 3 46.0237 57.4208 155.2210 0.0000 3.8821 0.0000
# 4 0.0000 0.0000 0.0000 18.8459 0.0000 4.2881
# 5 5.5698 -10.9931 3.8821 0.0000 37.2963 0.0000
# 6 0.0000 0.0000 0.0000 4.2881 0.0000 11.9579
#
#
#
# Elastic Compliance Matrix: (Units=1/GPa)
#
#
# Indices 1 2 3 4 5 6 
#
# 1 0.019656 -0.009902 -0.002024 0.000000 -0.005643 0.000000
# 2 -0.009902 0.026804 -0.007233 0.000000 0.010132 0.000000
# 3 -0.002024 -0.007233 0.009790 0.000000 -0.002849 0.000000
# 4 0.000000 0.000000 0.000000 0.057776 0.000000 -0.020718
# 5 -0.005643 0.010132 -0.002849 0.000000 0.030938 0.000000
# 6 0.000000 0.000000 0.000000 -0.020718 0.000000 0.091056
#
#
# Mechanical properties :
#
#
# Convention : Reuss Voigt Hill
#
# Bulk Modulus (GPa) = 55.76639 65.25555 60.51097
# Shear Modulus (GPa) = 17.83707 24.35648 21.09677
#
# Velocity S-wave (km/s) = 3.15784 3.69008 3.43429
# Velocity P-wave (km/s) = 6.66878 7.39170 7.03953
#
# Compressibility (1/GPa) = 0.01793195
#
# Stress axis : x y z
#
# Youngs Moduli (GPa) = 50.87503 37.30747 102.14965
#
# Poissons Ratio (x) = 0.36941 0.20675
# Poissons Ratio (y) = 0.50375 0.73887
# Poissons Ratio (z) = 0.10297 0.26985
#
# Static dielectric constant tensor:
#      x y z
#    x 1.683490 0.000000 -0.017000 
#    y 0.000000 1.610160 0.000000 
#    z -0.017000 0.000000 1.613960 
# 
# From -- ./inp_files/95979.got.cif
#   From: 2010.05.17/outbox.ucp.g08.bks.cvg/sg13_48_cif.got.tgz:95979.got - 2010.06.11 12:23:55.
