data_PCOD9238270
_publ_section_title
;
Structure prediction by ZEFSAII (Michael W. Deem and Ramdas Pophale) SiO2 
 PCOD9238270
Probable space group: P 2/C
;
_chemical_formula_sum "Si O2"
_cell_formula_units_Z 22
_cell_length_a 29.753813
_cell_length_b 5.416089
_cell_length_c 17.540013
_cell_angle_alpha 90.000000
_cell_angle_beta 161.251047
_cell_angle_gamma 90.000000
_cell_volume 908.519283
_symmetry_space_group_name_H-M "P 2/C"
_symmetry_group_IT_number 13
_symmetry_cell_setting 'monoclinic'
loop_
_space_group_symop_operation_xyz
x,y,z
-x,y,1/2-z
-x,-y,-z
x,-y,1/2+z
loop_
_atom_site_type_symbol
_atom_site_label
_atom_site_fract_x
_atom_site_fract_y
_atom_site_fract_z
Si Si1 0.444238 0.276887 0.075245
Si Si2 0.267657 0.918210 0.608855
Si Si3 0.506570 0.243067 0.588865
Si Si4 0.930627 0.783903 0.340812
Si Si5 0.874638 0.430975 0.913086
Si Si6 0.000000 0.117314 0.250000
O O1 0.500000 0.248215 0.250000
O O2 0.521014 0.512523 0.161172
O O3 0.467383 0.009977 0.072570
O O4 0.282479 0.367967 0.815217
O O5 0.354569 0.168345 0.733476
O O6 0.139126 0.963154 0.458131
O O7 0.202951 0.844790 0.424338
O O8 0.378018 0.733130 0.823635
O O9 0.879894 0.618777 0.330169
O O10 0.048186 0.694378 0.469016
O O11 0.000000 0.000000 0.500000
O O12 0.971914 0.278350 0.128246
#
# Coordination Sequence:
#
# PCOD9238270 Si02
#       6
#     4   4   4   4   4   2
#     4  12  27  48  78 107 152 196 255 307 372 450
#     4  11  26  47  76 106 152 195 248 313 373 452
#     4  11  28  49  75 109 150 201 249 304 381 447
#     4  11  25  45  72 103 151 192 245 307 383 438
#     4  11  27  44  74 111 145 199 251 312 375 450
#     4  12  24  46  76 112 148 192 254 316 374 444
#
# _framework density 24.215225
#
# number of rings (size 3 to 8) (size 9 to 14) (size 15 to 20)
#    0.000    0.727    3.636    1.636   10.182    4.364 
#    0.000    0.000    0.000    0.000    0.000    0.000 
#    0.000    0.000    0.000    0.000    0.000    0.000 
#
# Total GULP energy -122992.787794 kJ/mol
# GULP energy per Si atom -5590.581263 kJ/mol
# Density = 2.416011 g / cm^3
# Si number density = 24.215225 Si / 1000 Ang^3
#
#
#
# Elastic Constant Matrix: (Units=GPa)
#
#
# Indices 1 2 3 4 5 6 
#
# 1 130.0705 42.0204 43.5256 0.0000 -10.2029 0.0000
# 2 42.0204 94.2929 22.6458 0.0000 -6.6996 0.0000
# 3 43.5256 22.6458 133.8587 0.0000 -11.2281 0.0000
# 4 0.0000 0.0000 0.0000 6.3706 0.0000 -5.1081
# 5 -10.2029 -6.6996 -11.2281 0.0000 70.0125 0.0000
# 6 0.0000 0.0000 0.0000 -5.1081 0.0000 56.7010
#
#
#
# Elastic Compliance Matrix: (Units=1/GPa)
#
#
# Indices 1 2 3 4 5 6 
#
# 1 0.009774 -0.003709 -0.002494 0.000000 0.000669 0.000000
# 2 -0.003709 0.012503 -0.000866 0.000000 0.000517 0.000000
# 3 -0.002494 -0.000866 0.008505 0.000000 0.000918 0.000000
# 4 0.000000 0.000000 0.000000 0.169192 0.000000 0.015242
# 5 0.000669 0.000517 0.000918 0.000000 0.014577 0.000000
# 6 0.000000 0.000000 0.000000 0.015242 0.000000 0.019009
#
#
# Mechanical properties :
#
#
# Convention : Reuss Voigt Hill
#
# Bulk Modulus (GPa) = 60.08438 63.84508 61.96473
# Shear Modulus (GPa) = 19.74361 43.28552 31.51457
#
# Velocity S-wave (km/s) = 2.85851 4.23251 3.61146
# Velocity P-wave (km/s) = 5.98007 7.09284 6.56010
#
# Compressibility (1/GPa) = 0.01664326
#
# Stress axis : x y z
#
# Youngs Moduli (GPa) = 102.31744 79.98257 117.57671
#
# Poissons Ratio (x) = 0.29664 0.29328
# Poissons Ratio (y) = 0.37948 0.10180
# Poissons Ratio (z) = 0.25522 0.06925
#
# Static dielectric constant tensor:
#      x y z
#    x 1.963860 0.000000 -0.100850 
#    y 0.000000 1.935660 0.000000 
#    z -0.100850 0.000000 1.910450 
# 
# From -- ./inp_files/72173.got.cif
#   From: 2010.05.17/outbox.cif.g08.bks.cpg/sg13_37_cif.got.tgz:72173.got - 2010.06.03 16:44:36.
