data_PCOD9238016
_publ_section_title
;
Structure prediction by ZEFSAII (Michael W. Deem and Ramdas Pophale) SiO2 
 PCOD9238016
Probable space group: P 2/C
;
_chemical_formula_sum "Si O2"
_cell_formula_units_Z 22
_cell_length_a 5.768449
_cell_length_b 12.357658
_cell_length_c 14.930295
_cell_angle_alpha 90.000000
_cell_angle_beta 105.833517
_cell_angle_gamma 90.000000
_cell_volume 1023.917867
_symmetry_space_group_name_H-M "P 2/C"
_symmetry_group_IT_number 13
_symmetry_cell_setting 'monoclinic'
loop_
_space_group_symop_operation_xyz
x,y,z
-x,y,1/2-z
-x,-y,-z
x,-y,1/2+z
loop_
_atom_site_type_symbol
_atom_site_label
_atom_site_fract_x
_atom_site_fract_y
_atom_site_fract_z
Si Si1 0.873455 0.733672 0.606148
Si Si2 0.500021 0.247377 0.596186
Si Si3 0.724475 0.966102 0.379027
Si Si4 0.000000 0.455802 0.250000
Si Si5 0.000000 0.916033 0.750000
Si Si6 0.819085 0.839281 0.994563
Si Si7 0.500000 0.578116 0.250000
O O1 0.676135 0.735752 0.507525
O O2 0.846558 0.834108 0.671617
O O3 0.896871 0.623239 0.661893
O O4 0.121740 0.760851 0.581160
O O5 0.462000 0.131862 0.641061
O O6 0.750609 0.231852 0.572154
O O7 0.473704 0.344195 0.661349
O O8 0.947733 0.905438 0.450069
O O9 0.650899 0.065982 0.436020
O O10 0.828101 0.014513 0.297338
O O11 0.758512 0.517112 0.261310
#
# Coordination Sequence:
#
# PCOD9238016 Si02
#       7
#     4   4   4   2   2   4   2
#     4   9  22  45  71  93 134 174 235 291 344 405
#     4  11  24  41  65  98 136 186 221 290 338 425
#     4   9  19  35  61  94 140 179 220 271 331 414
#     4  11  28  53  72 106 128 177 238 303 354 412
#     4   9  18  37  64 100 134 185 224 279 334 414
#     4   9  19  38  63  96 131 178 227 270 338 414
#     4  12  32  46  72 102 140 178 240 288 360 402
#
# _framework density 21.486098999999999
#
# number of rings (size 3 to 8) (size 9 to 14) (size 15 to 20)
#    0.000    2.182    0.000    1.636   10.182    1.455 
#    0.000    0.000    0.000    0.000    0.000    0.000 
#    0.000    0.000    0.000    0.000    0.000    0.000 
#
# Total GULP energy -122619.073103 kJ/mol
# GULP energy per Si atom -5573.594232 kJ/mol
# Density = 2.143720 g / cm^3
# Si number density = 21.486099 Si / 1000 Ang^3
#
#
#
# Elastic Constant Matrix: (Units=GPa)
#
#
# Indices 1 2 3 4 5 6 
#
# 1 51.5306 28.2600 8.7270 0.0000 -14.7568 0.0000
# 2 28.2600 82.0344 36.3787 0.0000 -18.5984 0.0000
# 3 8.7270 36.3787 110.0633 0.0000 -10.4425 0.0000
# 4 0.0000 0.0000 0.0000 31.7182 0.0000 -3.0991
# 5 -14.7568 -18.5984 -10.4425 0.0000 40.9829 0.0000
# 6 0.0000 0.0000 0.0000 -3.0991 0.0000 21.0530
#
#
#
# Elastic Compliance Matrix: (Units=1/GPa)
#
#
# Indices 1 2 3 4 5 6 
#
# 1 0.025188 -0.007877 0.001156 0.000000 0.005789 0.000000
# 2 -0.007877 0.018022 -0.004945 0.000000 0.004082 0.000000
# 3 0.001156 -0.004945 0.010714 0.000000 0.000902 0.000000
# 4 0.000000 0.000000 0.000000 0.031988 0.000000 0.004709
# 5 0.005789 0.004082 0.000902 0.000000 0.028567 0.000000
# 6 0.000000 0.000000 0.000000 0.004709 0.000000 0.048192
#
#
# Mechanical properties :
#
#
# Convention : Reuss Voigt Hill
#
# Bulk Modulus (GPa) = 32.68871 43.37330 38.03100
# Shear Modulus (GPa) = 25.48412 30.10166 27.79289
#
# Velocity S-wave (km/s) = 3.44768 3.74703 3.60047
# Velocity P-wave (km/s) = 5.57634 6.24106 5.91804
#
# Compressibility (1/GPa) = 0.03059160
#
# Stress axis : x y z
#
# Youngs Moduli (GPa) = 39.70152 55.48821 93.33567
#
# Poissons Ratio (x) = 0.43708 -0.10786
# Poissons Ratio (y) = 0.31273 0.46153
# Poissons Ratio (z) = -0.04588 0.27438
#
# Static dielectric constant tensor:
#      x y z
#    x 1.902110 0.000000 -0.002120 
#    y 0.000000 1.764950 0.000000 
#    z -0.002120 0.000000 1.793630 
# 
# From -- ./inp_files/43644.got.cif
#   From: 2010.05.17/outbox.cif.g08.bks.cpg/sg13_22_cif.got.tgz:43644.got - 2010.06.03 16:44:36.
