data_PCOD9238390
_publ_section_title
;
Structure prediction by ZEFSAII (Michael W. Deem and Ramdas Pophale) SiO2 
 PCOD9238390
Probable space group: P 2/C
;
_chemical_formula_sum "Si O2"
_cell_formula_units_Z 16
_cell_length_a 5.461550
_cell_length_b 9.487649
_cell_length_c 16.196673
_cell_angle_alpha 90.000000
_cell_angle_beta 56.213711
_cell_angle_gamma 90.000000
_cell_volume 697.529854
_symmetry_space_group_name_H-M "P 2/C"
_symmetry_group_IT_number 13
_symmetry_cell_setting 'monoclinic'
loop_
_space_group_symop_operation_xyz
x,y,z
-x,y,1/2-z
-x,-y,-z
x,-y,1/2+z
loop_
_atom_site_type_symbol
_atom_site_label
_atom_site_fract_x
_atom_site_fract_y
_atom_site_fract_z
Si Si1 0.335080 0.391179 0.474476
Si Si2 0.348398 0.173145 0.194601
Si Si3 0.660509 0.942514 0.053061
Si Si4 0.286452 0.653834 0.369199
O O1 0.500000 0.500000 0.500000
O O2 0.524961 0.266156 0.402926
O O3 0.277491 0.494017 0.406294
O O4 0.936457 0.672698 0.423007
O O5 0.500000 0.226801 0.250000
O O6 0.000000 0.177742 0.250000
O O7 0.469855 0.016479 0.159905
O O8 0.648859 0.775430 0.074526
O O9 0.500000 0.000000 0.000000
O O10 0.000000 0.000000 0.000000
O O11 0.500000 0.664628 0.250000
#
# Coordination Sequence:
#
# PCOD9238390 Si02
#       4
#     4   4   4   4
#     4  11  26  46  72 106 151 194 247 315 371 448
#     4  12  27  47  76 107 147 198 248 300 376 450
#     4  12  25  49  75 107 150 194 244 310 374 438
#     4  11  26  46  74 106 147 197 253 309 379 448
#
# _framework density 22.938088
#
# number of rings (size 3 to 8) (size 9 to 14) (size 15 to 20)
#    0.000    0.500    2.500    4.500   10.500    0.000 
#    0.000    0.000    0.000    0.000    0.000    0.000 
#    0.000    0.000    0.000    0.000    0.000    0.000 
#
# Total GULP energy -89266.306995 kJ/mol
# GULP energy per Si atom -5579.144187 kJ/mol
# Density = 2.288588 g / cm^3
# Si number density = 22.938088 Si / 1000 Ang^3
#
#
#
# Elastic Constant Matrix: (Units=GPa)
#
#
# Indices 1 2 3 4 5 6 
#
# 1 176.8246 23.5668 82.8335 0.0000 -27.5798 0.0000
# 2 23.5668 114.2490 30.7288 0.0000 -17.0385 0.0000
# 3 82.8335 30.7288 151.1049 0.0000 -25.3794 0.0000
# 4 0.0000 0.0000 0.0000 65.0158 0.0000 -17.4514
# 5 -27.5798 -17.0385 -25.3794 0.0000 50.8920 0.0000
# 6 0.0000 0.0000 0.0000 -17.4514 0.0000 63.5249
#
#
#
# Elastic Compliance Matrix: (Units=1/GPa)
#
#
# Indices 1 2 3 4 5 6 
#
# 1 0.007855 -0.000242 -0.003880 0.000000 0.002240 0.000000
# 2 -0.000242 0.009534 -0.001410 0.000000 0.002357 0.000000
# 3 -0.003880 -0.001410 0.009385 0.000000 0.002106 0.000000
# 4 0.000000 0.000000 0.000000 0.016605 0.000000 0.004562
# 5 0.002240 0.002357 0.002106 0.000000 0.022703 0.000000
# 6 0.000000 0.000000 0.000000 0.004562 0.000000 0.016995
#
#
# Mechanical properties :
#
#
# Convention : Reuss Voigt Hill
#
# Bulk Modulus (GPa) = 63.65982 79.60409 71.63195
# Shear Modulus (GPa) = 50.31265 56.22314 53.26790
#
# Velocity S-wave (km/s) = 4.68847 4.95621 4.82420
# Velocity P-wave (km/s) = 7.55792 8.21774 7.89473
#
# Compressibility (1/GPa) = 0.01570850
#
# Stress axis : x y z
#
# Youngs Moduli (GPa) = 127.31059 104.89223 106.54854
#
# Poissons Ratio (x) = 0.02543 0.41344
# Poissons Ratio (y) = 0.03087 0.15022
# Poissons Ratio (z) = 0.49400 0.14789
#
# Static dielectric constant tensor:
#      x y z
#    x 1.932400 0.000000 0.053480 
#    y 0.000000 1.909030 0.000000 
#    z 0.053480 0.000000 1.876940 
# 
# From -- ./inp_files/43231.got.cif
#   From: 2010.05.17/outbox.cif.g08.bks.cpg/sg13_22_cif.got.tgz:43231.got - 2010.06.03 16:44:36.
