data_PCOD9238675
_publ_section_title
;
Structure prediction by ZEFSAII (Michael W. Deem and Ramdas Pophale) SiO2 
 PCOD9238675
Probable space group: P 2/C
;
_chemical_formula_sum "Si O2"
_cell_formula_units_Z 22
_cell_length_a 22.096591
_cell_length_b 5.273036
_cell_length_c 22.068347
_cell_angle_alpha 90.000000
_cell_angle_beta 19.950348
_cell_angle_gamma 90.000000
_cell_volume 877.348378
_symmetry_space_group_name_H-M "P 2/C"
_symmetry_group_IT_number 13
_symmetry_cell_setting 'monoclinic'
loop_
_space_group_symop_operation_xyz
x,y,z
-x,y,1/2-z
-x,-y,-z
x,-y,1/2+z
loop_
_atom_site_type_symbol
_atom_site_label
_atom_site_fract_x
_atom_site_fract_y
_atom_site_fract_z
Si Si1 0.306434 0.036363 0.949716
Si Si2 0.345030 0.315166 0.025352
Si Si3 0.000000 0.306787 0.750000
Si Si4 0.887490 0.746679 0.097008
Si Si5 0.073566 0.305996 0.073659
Si Si6 0.582649 0.174962 0.976847
O O1 0.500000 0.937124 0.750000
O O2 0.337336 0.294042 0.959757
O O3 0.180227 0.097444 0.011557
O O4 0.170543 0.851875 0.112620
O O5 0.446401 0.551486 0.961608
O O6 0.138034 0.285722 0.241140
O O7 0.424741 0.039979 0.965709
O O8 0.932889 0.465137 0.871538
O O9 0.755160 0.749375 0.277248
O O10 0.828288 0.708966 0.083236
O O11 0.000000 0.500000 0.000000
O O12 0.000000 0.000000 0.000000
O O13 0.500000 0.000000 0.000000
#
# Coordination Sequence:
#
# PCOD9238675 Si02
#       6
#     4   4   2   4   4   4
#     4  12  29  49  78 121 158 211 277 341 408 486
#     4  12  24  51  80 109 156 216 267 327 412 483
#     4  12  24  52  80 110 164 216 264 338 420 470
#     4  12  26  46  74 113 147 205 271 321 394 485
#     4  12  25  47  78 109 156 209 272 327 408 482
#     4  12  27  49  76 114 160 209 265 336 403 479
#
# _framework density 25.075555000000001
#
# number of rings (size 3 to 8) (size 9 to 14) (size 15 to 20)
#    0.000    0.000    7.273    1.636    5.091    0.727 
#    0.000    0.000    0.000    0.000    0.000    0.000 
#    0.000    0.000    0.000    0.000    0.000    0.000 
#
# Total GULP energy -122505.675548 kJ/mol
# GULP energy per Si atom -5568.439798 kJ/mol
# Density = 2.501848 g / cm^3
# Si number density = 25.075555 Si / 1000 Ang^3
#
#
#
# Elastic Constant Matrix: (Units=GPa)
#
#
# Indices 1 2 3 4 5 6 
#
# 1 98.5158 45.4150 -0.4777 0.0000 22.5236 0.0000
# 2 45.4150 175.6099 46.9790 0.0000 1.9816 0.0000
# 3 -0.4777 46.9790 110.0809 0.0000 -4.5611 0.0000
# 4 0.0000 0.0000 0.0000 22.3251 0.0000 13.8855
# 5 22.5236 1.9816 -4.5611 0.0000 31.2385 0.0000
# 6 0.0000 0.0000 0.0000 13.8855 0.0000 21.5456
#
#
#
# Elastic Compliance Matrix: (Units=1/GPa)
#
#
# Indices 1 2 3 4 5 6 
#
# 1 0.014203 -0.003918 0.001328 0.000000 -0.009799 0.000000
# 2 -0.003918 0.007530 -0.003152 0.000000 0.001887 0.000000
# 3 0.001328 -0.003152 0.010467 0.000000 0.000771 0.000000
# 4 0.000000 0.000000 0.000000 0.074759 0.000000 -0.048180
# 5 -0.009799 0.001887 0.000771 0.000000 0.039070 0.000000
# 6 0.000000 0.000000 0.000000 -0.048180 0.000000 0.077464
#
#
# Mechanical properties :
#
#
# Convention : Reuss Voigt Hill
#
# Bulk Modulus (GPa) = 48.27307 63.11547 55.69427
# Shear Modulus (GPa) = 20.67118 34.50785 27.58952
#
# Velocity S-wave (km/s) = 2.87427 3.71368 3.32061
# Velocity P-wave (km/s) = 5.50528 6.60404 6.07953
#
# Compressibility (1/GPa) = 0.02071548
#
# Stress axis : x y z
#
# Youngs Moduli (GPa) = 70.40564 132.80877 95.53646
#
# Poissons Ratio (x) = 0.52032 -0.12684
# Poissons Ratio (y) = 0.27583 0.30115
# Poissons Ratio (z) = -0.09347 0.41864
#
# Static dielectric constant tensor:
#      x y z
#    x 1.117540 0.000000 -0.215000 
#    y 0.000000 1.945840 0.000000 
#    z -0.215000 0.000000 1.994160 
# 
# From -- ./inp_files/88673.got.cif
#   From: 2010.05.17/outbox.cif.g08.bks.cpg/sg13_45_cif.got.tgz:88673.got - 2010.06.03 16:44:36.
