data_PCOD9238964
_publ_section_title
;
Structure prediction by ZEFSAII (Michael W. Deem and Ramdas Pophale) SiO2 
 PCOD9238964
Probable space group: P 2/C
;
_chemical_formula_sum "Si O2"
_cell_formula_units_Z 30
_cell_length_a 27.000000
_cell_length_b 12.000000
_cell_length_c 27.000000
_cell_angle_alpha 90.000000
_cell_angle_beta 170.000000
_cell_angle_gamma 90.000000
_cell_volume 1519.074258
_symmetry_space_group_name_H-M "P 2/C"
_symmetry_group_IT_number 13
_symmetry_cell_setting 'monoclinic'
loop_
_space_group_symop_operation_xyz
x,y,z
-x,y,1/2-z
-x,-y,-z
x,-y,1/2+z
loop_
_atom_site_type_symbol
_atom_site_label
_atom_site_fract_x
_atom_site_fract_y
_atom_site_fract_z
Si Si1 0.018339 0.281352 0.057875
Si Si2 0.581388 0.760969 0.884712
Si Si3 0.616442 0.891820 0.015690
Si Si4 0.266223 0.551089 0.606806
Si Si5 0.280079 0.479296 0.377048
Si Si6 0.072985 0.028627 0.514840
Si Si7 0.000000 0.416551 0.750000
Si Si8 0.439816 0.683327 0.470383
O O1 0.163616 0.364758 0.239953
O O2 0.260295 0.271395 0.254033
O O3 0.905424 0.162477 0.965705
O O4 0.755670 0.334996 0.770151
O O5 0.500000 0.805457 0.750000
O O6 0.650610 0.853978 0.992685
O O7 0.352527 0.680886 0.686349
O O8 0.812612 0.667257 0.098473
O O9 0.319155 0.946781 0.738501
O O10 0.673499 0.781392 0.105259
O O11 0.820189 0.991674 0.230834
O O12 0.183776 0.516140 0.470069
O O13 0.000510 0.543020 0.381210
O O14 0.512347 0.474322 0.871617
O O15 0.441694 0.565005 0.499695
O O16 0.000000 0.000000 0.500000
#
# Coordination Sequence:
#
# PCOD9238964 Si02
#       8
#     4   4   4   4   4   4   2   4
#     4  12  25  40  56  85 126 170 217 257 289 364
#     4  10  23  38  65  97 129 152 194 261 330 389
#     4  12  23  38  66  91 123 162 208 258 317 373
#     4  11  21  37  59  91 125 155 192 245 321 391
#     4  12  24  37  58  90 126 166 206 250 316 368
#     4  12  24  41  60  87 123 174 217 255 300 364
#     4  10  20  40  62  94 134 148 194 254 340 396
#     4  12  21  37  61  85 126 163 209 256 313 352
#
# _framework density 19.74887
#
# number of rings (size 3 to 8) (size 9 to 14) (size 15 to 20)
#    0.000    0.533    5.333    3.600    5.600    0.000 
#    0.000    0.000    0.000    0.000    6.933    0.000 
#    0.000    0.000    0.000    0.000    0.000    0.000 
#
# Total GULP energy -167327.519548 kJ/mol
# GULP energy per Si atom -5577.583985 kJ/mol
# Density = 1.970392 g / cm^3
# Si number density = 19.748870 Si / 1000 Ang^3
#
#
#
# Elastic Constant Matrix: (Units=GPa)
#
#
# Indices 1 2 3 4 5 6 
#
# 1 108.0407 56.3253 42.1786 0.0000 -21.7093 0.0000
# 2 56.3253 81.6217 9.7564 0.0000 -36.1733 0.0000
# 3 42.1786 9.7564 87.4979 0.0000 -28.8446 0.0000
# 4 0.0000 0.0000 0.0000 23.1792 0.0000 -6.3149
# 5 -21.7093 -36.1733 -28.8446 0.0000 36.8389 0.0000
# 6 0.0000 0.0000 0.0000 -6.3149 0.0000 25.1634
#
#
#
# Elastic Compliance Matrix: (Units=1/GPa)
#
#
# Indices 1 2 3 4 5 6 
#
# 1 0.023923 -0.024756 -0.016361 0.000000 -0.023021 0.000000
# 2 -0.024756 0.050132 0.023942 0.000000 0.053384 0.000000
# 3 -0.016361 0.023942 0.028600 0.000000 0.036262 0.000000
# 4 0.000000 0.000000 0.000000 0.046308 0.000000 0.011621
# 5 -0.023021 0.053384 0.036262 0.000000 0.094391 0.000000
# 6 0.000000 0.000000 0.000000 0.011621 0.000000 0.042657
#
#
# Mechanical properties :
#
#
# Convention : Reuss Voigt Hill
#
# Bulk Modulus (GPa) = 14.63985 54.85345 34.74665
# Shear Modulus (GPa) = 14.57176 28.29632 21.43404
#
# Velocity S-wave (km/s) = 2.71929 3.78935 3.29801
# Velocity P-wave (km/s) = 4.15794 6.85429 5.66877
#
# Compressibility (1/GPa) = 0.06830673
#
# Stress axis : x y z
#
# Youngs Moduli (GPa) = 41.80021 19.94729 34.96488
#
# Poissons Ratio (x) = 0.49381 0.57206
# Poissons Ratio (y) = 1.03479 -0.83714
# Poissons Ratio (z) = 0.68389 -0.47758
#
# Static dielectric constant tensor:
#      x y z
#    x 1.805960 0.000000 0.019600 
#    y 0.000000 1.642900 0.000000 
#    z 0.019600 0.000000 1.814370 
# 
# From -- ./inp_files/94226.got.cif
#   From: 2010.05.17/outbox.ucp.g08.bks.cvg/sg13_48_cif.got.tgz:94226.got - 2010.06.11 12:23:55.
