data_PCOD9238276
_publ_section_title
;
Structure prediction by ZEFSAII (Michael W. Deem and Ramdas Pophale) SiO2 
 PCOD9238276
Probable space group: P 2/C
;
_chemical_formula_sum "Si O2"
_cell_formula_units_Z 18
_cell_length_a 5.591155
_cell_length_b 26.905337
_cell_length_c 5.496793
_cell_angle_alpha 90.000000
_cell_angle_beta 76.920460
_cell_angle_gamma 90.000000
_cell_volume 805.440849
_symmetry_space_group_name_H-M "P 2/C"
_symmetry_group_IT_number 13
_symmetry_cell_setting 'monoclinic'
loop_
_space_group_symop_operation_xyz
x,y,z
-x,y,1/2-z
-x,-y,-z
x,-y,1/2+z
loop_
_atom_site_type_symbol
_atom_site_label
_atom_site_fract_x
_atom_site_fract_y
_atom_site_fract_z
Si Si1 0.000000 0.590429 0.750000
Si Si2 0.881685 0.114429 0.525221
Si Si3 0.352953 0.219011 0.036281
Si Si4 0.500000 0.531419 0.750000
Si Si5 0.500000 0.031332 0.750000
Si Si6 0.786701 0.679250 0.105551
O O1 0.235970 0.560618 0.802812
O O2 0.126017 0.627871 0.530702
O O3 0.766242 0.164786 0.444818
O O4 0.723664 0.069443 0.669838
O O5 0.000000 0.133659 0.750000
O O6 0.000000 0.092656 0.250000
O O7 0.500000 0.220158 0.750000
O O8 0.215576 0.271571 0.059821
O O9 0.500000 0.219974 0.250000
O O10 0.500000 0.500000 0.500000
O O11 0.500000 0.000000 0.500000
O O12 0.500000 0.672695 0.250000
O O13 0.000000 0.690729 0.250000
#
# Coordination Sequence:
#
# PCOD9238276 Si02
#       6
#     2   4   4   2   2   4
#     4  12  28  48  84 112 160 202 270 324 402 452
#     4  12  26  45  76 105 142 192 249 309 377 462
#     4  11  25  45  74 108 154 198 246 300 383 468
#     4  12  30  54  82 114 156 214 270 332 386 458
#     4  12  28  48  72 102 146 186 252 322 384 440
#     4  11  27  46  76 115 161 206 255 320 392 475
#
# _framework density 22.348012000000001
#
# number of rings (size 3 to 8) (size 9 to 14) (size 15 to 20)
#    0.000    0.444    1.111    5.333   15.556    2.667 
#    0.000    0.000    0.000    0.000    0.000    0.000 
#    0.000    0.000    0.000    0.000    0.000    0.000 
#
# Total GULP energy -100315.556522 kJ/mol
# GULP energy per Si atom -5573.086473 kJ/mol
# Density = 2.229715 g / cm^3
# Si number density = 22.348012 Si / 1000 Ang^3
#
#
#
# Elastic Constant Matrix: (Units=GPa)
#
#
# Indices 1 2 3 4 5 6 
#
# 1 172.0821 86.7067 90.5625 0.0000 18.7081 0.0000
# 2 86.7067 163.0292 63.6573 0.0000 18.1208 0.0000
# 3 90.5625 63.6573 183.3824 0.0000 15.6387 0.0000
# 4 0.0000 0.0000 0.0000 238.8909 0.0000 -315.9376
# 5 18.7081 18.1208 15.6387 0.0000 69.3873 0.0000
# 6 0.0000 0.0000 0.0000 -315.9376 0.0000 1036.5464
#
#
#
# Elastic Compliance Matrix: (Units=1/GPa)
#
#
# Indices 1 2 3 4 5 6 
#
# 1 0.009511 -0.003653 -0.003356 0.000000 -0.000854 0.000000
# 2 -0.003653 0.008620 -0.001101 0.000000 -0.001018 0.000000
# 3 -0.003356 -0.001101 0.007536 0.000000 -0.000506 0.000000
# 4 0.000000 0.000000 0.000000 0.007013 0.000000 0.002138
# 5 -0.000854 -0.001018 -0.000506 0.000000 0.015022 0.000000
# 6 0.000000 0.000000 0.000000 0.002138 0.000000 0.001616
#
#
# Mechanical properties :
#
#
# Convention : Reuss Voigt Hill
#
# Bulk Modulus (GPa) = 105.86633 111.14963 108.50798
# Shear Modulus (GPa) = 72.79380 287.46939 180.13160
#
# Velocity S-wave (km/s) = 5.71345 11.35396 8.98766
# Velocity P-wave (km/s) = 9.53935 14.89050 12.50452
#
# Compressibility (1/GPa) = 0.00944587
#
# Stress axis : x y z
#
# Youngs Moduli (GPa) = 105.14346 116.01056 132.69814
#
# Poissons Ratio (x) = 0.42379 0.44533
# Poissons Ratio (y) = 0.38409 0.14615
# Poissons Ratio (z) = 0.35286 0.12777
#
# Static dielectric constant tensor:
#      x y z
#    x 1.819700 0.000000 -0.109410 
#    y 0.000000 1.807490 0.000000 
#    z -0.109410 0.000000 1.750700 
# 
# From -- ./inp_files/499.got.cif
#   From: 2010.05.17/outbox.cif.g08.bks.cpg/sg13_1_cif.got.tgz:499.got - 2010.06.03 16:44:36.
