data_PCOD9238446
_publ_section_title
;
Structure prediction by ZEFSAII (Michael W. Deem and Ramdas Pophale) SiO2 
 PCOD9238446
Probable space group: P 2/C
;
_chemical_formula_sum "Si O2"
_cell_formula_units_Z 14
_cell_length_a 17.357879
_cell_length_b 4.993524
_cell_length_c 18.952748
_cell_angle_alpha 90.000000
_cell_angle_beta 159.054719
_cell_angle_gamma 90.000000
_cell_volume 587.250113
_symmetry_space_group_name_H-M "P 2/C"
_symmetry_group_IT_number 13
_symmetry_cell_setting 'monoclinic'
loop_
_space_group_symop_operation_xyz
x,y,z
-x,y,1/2-z
-x,-y,-z
x,-y,1/2+z
loop_
_atom_site_type_symbol
_atom_site_label
_atom_site_fract_x
_atom_site_fract_y
_atom_site_fract_z
Si Si1 0.149761 0.997533 0.721535
Si Si2 0.579471 0.892459 0.677770
Si Si3 0.500000 0.770091 0.250000
Si Si4 0.148916 0.489033 0.013335
O O1 0.238052 0.017076 0.717192
O O2 0.034567 0.709445 0.629707
O O3 0.975299 0.211664 0.596914
O O4 0.358296 0.065337 0.946891
O O5 0.666187 0.592629 0.770263
O O6 0.544088 0.045646 0.720584
O O7 0.288091 0.584408 0.065537
#
# Coordination Sequence:
#
# PCOD9238446 Si02
#       4
#     4   4   2   4
#     4  11  28  47  85 103 147 203 262 298 387 447
#     4  11  27  52  74 115 148 197 256 319 364 473
#     4  12  28  48  72 108 160 186 248 310 392 442
#     4  12  26  50  73 111 148 200 244 322 371 454
#
# _framework density 23.839926999999999
#
# number of rings (size 3 to 8) (size 9 to 14) (size 15 to 20)
#    0.000    0.571    2.857    2.571    8.000    3.429 
#    5.143    0.000    0.000    0.000    0.000    0.000 
#    0.000    0.000    0.000    0.000    0.000    0.000 
#
# Total GULP energy -78245.365541 kJ/mol
# GULP energy per Si atom -5588.954681 kJ/mol
# Density = 2.378567 g / cm^3
# Si number density = 23.839927 Si / 1000 Ang^3
#
#
#
# Elastic Constant Matrix: (Units=GPa)
#
#
# Indices 1 2 3 4 5 6 
#
# 1 109.1323 33.5364 55.4922 0.0000 40.5626 0.0000
# 2 33.5364 142.3410 46.8637 0.0000 5.2720 0.0000
# 3 55.4922 46.8637 155.2701 0.0000 12.5063 0.0000
# 4 0.0000 0.0000 0.0000 51.5079 0.0000 17.1819
# 5 40.5626 5.2720 12.5063 0.0000 39.7701 0.0000
# 6 0.0000 0.0000 0.0000 17.1819 0.0000 28.3483
#
#
#
# Elastic Compliance Matrix: (Units=1/GPa)
#
#
# Indices 1 2 3 4 5 6 
#
# 1 0.018572 -0.002231 -0.004578 0.000000 -0.017207 0.000000
# 2 -0.002231 0.008072 -0.001781 0.000000 0.001766 0.000000
# 3 -0.004578 -0.001781 0.008433 0.000000 0.002254 0.000000
# 4 0.000000 0.000000 0.000000 0.024334 0.000000 -0.014749
# 5 -0.017207 0.001766 0.002254 0.000000 0.041751 0.000000
# 6 0.000000 0.000000 0.000000 -0.014749 0.000000 0.044215
#
#
# Mechanical properties :
#
#
# Convention : Reuss Voigt Hill
#
# Bulk Modulus (GPa) = 55.87837 75.39200 65.63518
# Shear Modulus (GPa) = 29.66933 41.98202 35.82567
#
# Velocity S-wave (km/s) = 3.53161 4.20097 3.88075
# Velocity P-wave (km/s) = 6.33400 7.43127 6.90447
#
# Compressibility (1/GPa) = 0.01789601
#
# Stress axis : x y z
#
# Youngs Moduli (GPa) = 53.84364 123.88400 118.58648
#
# Poissons Ratio (x) = 0.27640 0.54292
# Poissons Ratio (y) = 0.12013 0.21122
# Poissons Ratio (z) = 0.24651 0.22066
#
# Static dielectric constant tensor:
#      x y z
#    x 1.881260 0.000000 -0.042190 
#    y 0.000000 1.932430 0.000000 
#    z -0.042190 0.000000 2.016710 
# 
# From -- ./inp_files/70128.got.cif
#   From: 2010.05.17/outbox.cif.g08.bks.cpg/sg13_36_cif.got.tgz:70128.got - 2010.06.03 16:44:36.
