data_PCOD9238521
_publ_section_title
;
Structure prediction by ZEFSAII (Michael W. Deem and Ramdas Pophale) SiO2 
 PCOD9238521
Probable space group: P 2/C
;
_chemical_formula_sum "Si O2"
_cell_formula_units_Z 16
_cell_length_a 13.416920
_cell_length_b 4.670578
_cell_length_c 19.336954
_cell_angle_alpha 90.000000
_cell_angle_beta 149.701770
_cell_angle_gamma 90.000000
_cell_volume 611.326910
_symmetry_space_group_name_H-M "P 2/C"
_symmetry_group_IT_number 13
_symmetry_cell_setting 'monoclinic'
loop_
_space_group_symop_operation_xyz
x,y,z
-x,y,1/2-z
-x,-y,-z
x,-y,1/2+z
loop_
_atom_site_type_symbol
_atom_site_label
_atom_site_fract_x
_atom_site_fract_y
_atom_site_fract_z
Si Si1 0.778915 0.141817 0.866175
Si Si2 0.389075 0.341742 0.315215
Si Si3 0.798734 0.152961 0.515395
Si Si4 0.050224 0.386692 0.205026
O O1 0.708590 0.461981 0.804383
O O2 0.679447 0.977050 0.743429
O O3 0.706368 0.026645 0.897013
O O4 0.000000 0.000000 0.000000
O O5 0.623609 0.314395 0.451290
O O6 0.278561 0.400201 0.321007
O O7 0.943877 0.414887 0.583770
O O8 0.940956 0.919121 0.636369
O O9 0.000000 0.506885 0.250000
#
# Coordination Sequence:
#
# PCOD9238521 Si02
#       4
#     4   4   4   4
#     4  12  22  44  72 100 140 180 223 290 360 414
#     4  12  25  44  71 104 141 179 229 289 353 416
#     4  12  26  43  71 103 138 183 231 288 352 414
#     4  12  26  46  69  99 140 190 239 284 336 410
#
# _framework density 26.172577
#
# number of rings (size 3 to 8) (size 9 to 14) (size 15 to 20)
#    0.000    0.000    5.000    5.250    0.000    4.000 
#    0.000    0.000    0.000    0.000    0.000    0.000 
#    0.000    0.000    0.000    0.000    0.000    0.000 
#
# Total GULP energy -89317.969620 kJ/mol
# GULP energy per Si atom -5582.373101 kJ/mol
# Density = 2.611301 g / cm^3
# Si number density = 26.172577 Si / 1000 Ang^3
#
#
#
# Elastic Constant Matrix: (Units=GPa)
#
#
# Indices 1 2 3 4 5 6 
#
# 1 158.5601 22.1405 41.4684 0.0000 19.3402 0.0000
# 2 22.1405 135.5253 24.7539 0.0000 7.9746 0.0000
# 3 41.4684 24.7539 84.0099 0.0000 38.5223 0.0000
# 4 0.0000 0.0000 0.0000 31.0669 0.0000 8.1734
# 5 19.3402 7.9746 38.5223 0.0000 51.2448 0.0000
# 6 0.0000 0.0000 0.0000 8.1734 0.0000 20.2498
#
#
#
# Elastic Compliance Matrix: (Units=1/GPa)
#
#
# Indices 1 2 3 4 5 6 
#
# 1 0.007283 -0.000567 -0.003369 0.000000 -0.000127 0.000000
# 2 -0.000567 0.007863 -0.002402 0.000000 0.000796 0.000000
# 3 -0.003369 -0.002402 0.020632 0.000000 -0.013864 0.000000
# 4 0.000000 0.000000 0.000000 0.036013 0.000000 -0.014536
# 5 -0.000127 0.000796 -0.013864 0.000000 0.029860 0.000000
# 6 0.000000 0.000000 0.000000 -0.014536 0.000000 0.055250
#
#
# Mechanical properties :
#
#
# Convention : Reuss Voigt Hill
#
# Bulk Modulus (GPa) = 43.28860 61.64677 52.46769
# Shear Modulus (GPa) = 28.20432 39.82779 34.01606
#
# Velocity S-wave (km/s) = 3.28629 3.90518 3.60902
# Velocity P-wave (km/s) = 5.56553 6.62865 6.12022
#
# Compressibility (1/GPa) = 0.02310077
#
# Stress axis : x y z
#
# Youngs Moduli (GPa) = 137.31276 127.17447 48.46943
#
# Poissons Ratio (x) = 0.07209 0.16331
# Poissons Ratio (y) = 0.07783 0.11643
# Poissons Ratio (z) = 0.46265 0.30549
#
# Static dielectric constant tensor:
#      x y z
#    x 2.254290 0.000000 0.067470 
#    y 0.000000 2.061580 0.000000 
#    z 0.067470 0.000000 2.079920 
# 
# From -- ./inp_files/48752.got.cif
#   From: 2010.05.17/outbox.cif.g08.bks.cpg/sg13_25_cif.got.tgz:48752.got - 2010.06.03 16:44:36.
