data_PCOD9238081
_publ_section_title
;
Structure prediction by ZEFSAII (Michael W. Deem and Ramdas Pophale) SiO2 
 PCOD9238081
Probable space group: P 2/C
;
_chemical_formula_sum "Si O2"
_cell_formula_units_Z 28
_cell_length_a 14.749357
_cell_length_b 9.217805
_cell_length_c 12.170734
_cell_angle_alpha 90.000000
_cell_angle_beta 52.779719
_cell_angle_gamma 90.000000
_cell_volume 1317.658110
_symmetry_space_group_name_H-M "P 2/C"
_symmetry_group_IT_number 13
_symmetry_cell_setting 'monoclinic'
loop_
_space_group_symop_operation_xyz
x,y,z
-x,y,1/2-z
-x,-y,-z
x,-y,1/2+z
loop_
_atom_site_type_symbol
_atom_site_label
_atom_site_fract_x
_atom_site_fract_y
_atom_site_fract_z
Si Si1 0.406159 0.389105 0.108744
Si Si2 0.131965 0.943862 0.912241
Si Si3 0.811239 0.574399 0.266904
Si Si4 0.500000 0.281890 0.250000
Si Si5 0.822038 0.747309 0.037213
Si Si6 0.731137 0.164739 0.983032
Si Si7 0.000000 0.613360 0.750000
Si Si8 0.281347 0.845920 0.604555
O O1 0.287242 0.456259 0.163263
O O2 0.429345 0.380131 0.219254
O O3 0.394448 0.223640 0.074943
O O4 0.500000 0.500000 0.000000
O O5 0.181627 0.854684 0.771702
O O6 0.190756 0.099885 0.890592
O O7 0.174510 0.854035 0.988472
O O8 0.000000 0.000000 0.000000
O O9 0.820295 0.629483 0.134880
O O10 0.773208 0.708011 0.371896
O O11 0.918214 0.493584 0.241376
O O12 0.397247 0.195408 0.381730
O O13 0.936754 0.715734 0.884358
O O14 0.736896 0.757261 0.996001
O O15 0.719723 0.012231 0.930427
#
# Coordination Sequence:
#
# PCOD9238081 Si02
#       8
#     4   4   4   2   4   4   2   4
#     4  12  27  48  74 106 143 194 246 311 377 445
#     4  11  24  43  77 104 149 194 249 305 369 446
#     4  12  27  46  73 108 149 190 253 303 379 453
#     4  12  26  48  76 102 144 196 246 316 370 442
#     4  11  25  45  68 106 145 192 243 302 368 443
#     4  11  26  48  73 108 146 193 250 307 378 444
#     4  12  26  44  74 106 152 202 240 308 380 452
#     4  11  24  50  72 106 146 194 247 305 370 449
#
# _framework density 21.249821000000001
#
# number of rings (size 3 to 8) (size 9 to 14) (size 15 to 20)
#    0.000    0.571    5.714    1.286    6.000    2.286 
#    5.143    0.000    0.000    0.000    0.000    0.000 
#    0.000    0.000    0.000    0.000    0.000    0.000 
#
# Total GULP energy -156043.283154 kJ/mol
# GULP energy per Si atom -5572.974398 kJ/mol
# Density = 2.120146 g / cm^3
# Si number density = 21.249821 Si / 1000 Ang^3
#
#
#
# Elastic Constant Matrix: (Units=GPa)
#
#
# Indices 1 2 3 4 5 6 
#
# 1 97.1278 28.9293 14.2376 0.0000 16.6197 0.0000
# 2 28.9293 52.5897 19.4230 0.0000 17.4758 0.0000
# 3 14.2376 19.4230 87.2346 0.0000 12.8667 0.0000
# 4 0.0000 0.0000 0.0000 -160.6463 0.0000 29.6882
# 5 16.6197 17.4758 12.8667 0.0000 29.6018 0.0000
# 6 0.0000 0.0000 0.0000 29.6882 0.0000 34.4819
#
#
#
# Elastic Compliance Matrix: (Units=1/GPa)
#
#
# Indices 1 2 3 4 5 6 
#
# 1 0.012640 -0.005641 -0.000269 0.000000 -0.003649 0.000000
# 2 -0.005641 0.027173 -0.003452 0.000000 -0.011374 0.000000
# 3 -0.000269 -0.003452 0.012772 0.000000 -0.003363 0.000000
# 4 0.000000 0.000000 0.000000 -0.005370 0.000000 0.004624
# 5 -0.003649 -0.011374 -0.003363 0.000000 0.044007 0.000000
# 6 0.000000 0.000000 0.000000 0.004624 0.000000 0.025020
#
#
# Mechanical properties :
#
#
# Convention : Reuss Voigt Hill
#
# Bulk Modulus (GPa) = 29.53227 40.23688 34.88457
# Shear Modulus (GPa) = 34.18779 -7.68837 13.24971
#
# Velocity S-wave (km/s) = 4.01540 -1.90419 2.49975
# Velocity P-wave (km/s) = 5.95195 3.76054 4.97832
#
# Compressibility (1/GPa) = 0.03386127
#
# Stress axis : x y z
#
# Youngs Moduli (GPa) = 79.11547 36.80144 78.29804
#
# Poissons Ratio (x) = 0.20760 0.02104
# Poissons Ratio (y) = 0.44630 0.27027
# Poissons Ratio (z) = 0.02126 0.12703
#
# Static dielectric constant tensor:
#      x y z
#    x 1.912880 0.000000 -0.247380 
#    y 0.000000 1.583230 0.000000 
#    z -0.247380 0.000000 2.399640 
# 
# From -- ./inp_files/36326.got.cif
#   From: 2010.05.17/outbox.cif.g08.bks.cpg/sg13_19_cif.got.tgz:36326.got - 2010.06.03 16:44:36.
