data_PCOD9238961
_publ_section_title
;
Structure prediction by ZEFSAII (Michael W. Deem and Ramdas Pophale) SiO2 
 PCOD9238961
Probable space group: P 2/C
;
_chemical_formula_sum "Si O2"
_cell_formula_units_Z 28
_cell_length_a 15.000000
_cell_length_b 12.000000
_cell_length_c 9.000000
_cell_angle_alpha 90.000000
_cell_angle_beta 60.000000
_cell_angle_gamma 90.000000
_cell_volume 1402.961154
_symmetry_space_group_name_H-M "P 2/C"
_symmetry_group_IT_number 13
_symmetry_cell_setting 'monoclinic'
loop_
_space_group_symop_operation_xyz
x,y,z
-x,y,1/2-z
-x,-y,-z
x,-y,1/2+z
loop_
_atom_site_type_symbol
_atom_site_label
_atom_site_fract_x
_atom_site_fract_y
_atom_site_fract_z
Si Si1 0.903176 0.397370 0.734096
Si Si2 0.423674 0.482146 0.431347
Si Si3 0.717937 0.287590 0.037754
Si Si4 0.102033 0.360561 0.108881
Si Si5 0.544976 0.836643 0.060556
Si Si6 0.281516 0.329803 0.137826
Si Si7 0.400377 0.920632 0.937494
O O1 0.913010 0.392652 0.548931
O O2 0.890904 0.524330 0.802069
O O3 0.000000 0.354458 0.750000
O O4 0.804049 0.323108 0.850705
O O5 0.500000 0.533897 0.250000
O O6 0.500000 0.500000 0.500000
O O7 0.384180 0.361232 0.413149
O O8 0.323184 0.551304 0.552378
O O9 0.762064 0.326901 0.160206
O O10 0.688045 0.158254 0.051220
O O11 0.203028 0.294016 0.075132
O O12 0.000000 0.299988 0.250000
O O13 0.500000 0.792608 0.250000
O O14 0.613471 0.947843 0.029502
O O15 0.617923 0.746399 0.928447
O O16 0.444563 0.871709 0.053036
O O17 0.500000 0.911886 0.750000
#
# Coordination Sequence:
#
# PCOD9238961 Si02
#       7
#     4   4   4   4   4   4   4
#     4  11  23  40  61  85 115 153 195 241 292 352
#     4  12  24  35  51  81 121 157 191 226 283 347
#     4  12  23  38  59  83 118 159 194 239 295 348
#     4  11  23  40  61  85 116 151 196 242 291 351
#     4  10  22  37  60  86 117 155 206 246 285 343
#     4  12  23  38  58  85 117 157 196 240 293 346
#     4  10  20  40  60  83 116 162 201 242 289 343
#
# _framework density 19.957787
#
# number of rings (size 3 to 8) (size 9 to 14) (size 15 to 20)
#    0.000    0.857    4.286    5.143    4.000    0.000 
#    0.000    0.000    0.000    0.857    0.000    4.000 
#    0.000    0.000    0.000    0.000    0.000    0.000 
#
# Total GULP energy -155965.237483 kJ/mol
# GULP energy per Si atom -5570.187053 kJ/mol
# Density = 1.991236 g / cm^3
# Si number density = 19.957787 Si / 1000 Ang^3
#
#
#
# Elastic Constant Matrix: (Units=GPa)
#
#
# Indices 1 2 3 4 5 6 
#
# 1 99.3424 1.0406 24.2954 0.0000 10.0699 0.0000
# 2 1.0406 52.3838 -1.6710 0.0000 -0.9858 0.0000
# 3 24.2954 -1.6710 100.3816 0.0000 28.6108 0.0000
# 4 0.0000 0.0000 0.0000 17.9059 0.0000 15.9040
# 5 10.0699 -0.9858 28.6108 0.0000 31.3491 0.0000
# 6 0.0000 0.0000 0.0000 15.9040 0.0000 22.0727
#
#
#
# Elastic Compliance Matrix: (Units=1/GPa)
#
#
# Indices 1 2 3 4 5 6 
#
# 1 0.010754 -0.000311 -0.002190 0.000000 -0.001465 0.000000
# 2 -0.000311 0.019113 0.000262 0.000000 0.000462 0.000000
# 3 -0.002190 0.000262 0.013913 0.000000 -0.011986 0.000000
# 4 0.000000 0.000000 0.000000 0.155120 0.000000 -0.111769
# 5 -0.001465 0.000462 -0.011986 0.000000 0.043323 0.000000
# 6 0.000000 0.000000 0.000000 -0.111769 0.000000 0.125837
#
#
# Mechanical properties :
#
#
# Convention : Reuss Voigt Hill
#
# Bulk Modulus (GPa) = 25.44522 33.27086 29.35804
# Shear Modulus (GPa) = 12.96550 29.49507 21.23028
#
# Velocity S-wave (km/s) = 2.55158 3.84848 3.26507
# Velocity P-wave (km/s) = 4.63227 6.03776 5.38110
#
# Compressibility (1/GPa) = 0.03930011
#
# Stress axis : x y z
#
# Youngs Moduli (GPa) = 92.99186 52.32012 71.87740
#
# Poissons Ratio (x) = 0.01628 0.15743
# Poissons Ratio (y) = 0.02893 -0.01882
# Poissons Ratio (z) = 0.20368 -0.01370
#
# Static dielectric constant tensor:
#      x y z
#    x 1.895480 0.000000 0.109700 
#    y 0.000000 1.292600 0.000000 
#    z 0.109700 0.000000 1.842170 
# 
# From -- ./inp_files/18734.got.cif
#   From: 2010.05.17/outbox.ucp.g08.bks.cvg/sg13_10_cif.got.tgz:18734.got - 2010.06.11 12:23:55.
