data_PCOD9238664
_publ_section_title
;
Structure prediction by ZEFSAII (Michael W. Deem and Ramdas Pophale) SiO2 
 PCOD9238664
Probable space group: P 2/C
;
_chemical_formula_sum "Si O2"
_cell_formula_units_Z 18
_cell_length_a 19.053072
_cell_length_b 8.307964
_cell_length_c 7.850847
_cell_angle_alpha 90.000000
_cell_angle_beta 140.848054
_cell_angle_gamma 90.000000
_cell_volume 784.632610
_symmetry_space_group_name_H-M "P 2/C"
_symmetry_group_IT_number 13
_symmetry_cell_setting 'monoclinic'
loop_
_space_group_symop_operation_xyz
x,y,z
-x,y,1/2-z
-x,-y,-z
x,-y,1/2+z
loop_
_atom_site_type_symbol
_atom_site_label
_atom_site_fract_x
_atom_site_fract_y
_atom_site_fract_z
Si Si1 0.255865 0.322926 0.013083
Si Si2 0.074695 0.129194 0.542987
Si Si3 0.288947 0.086842 0.383018
Si Si4 0.500000 0.141713 0.250000
Si Si5 0.331014 0.323911 0.763288
O O1 0.125750 0.272124 0.753639
O O2 0.292902 0.311572 0.886775
O O3 0.298879 0.194635 0.232486
O O4 0.297589 0.497474 0.147590
O O5 0.179275 0.023524 0.672070
O O6 0.000000 0.000000 0.500000
O O7 0.000000 0.196043 0.250000
O O8 0.279422 0.202498 0.528781
O O9 0.398604 0.977264 0.602320
O O10 0.541590 0.261040 0.479105
#
# Coordination Sequence:
#
# PCOD9238664 Si02
#       5
#     4   4   4   2   4
#     4  12  26  49  76 111 159 199 253 317 387 454
#     4  12  24  48  81 110 147 201 261 317 372 456
#     4  12  26  50  79 115 149 200 267 313 381 460
#     4  12  28  48  84 112 152 206 258 320 378 464
#     4  12  27  48  75 114 160 199 249 320 389 454
#
# _framework density 22.940671999999999
#
# number of rings (size 3 to 8) (size 9 to 14) (size 15 to 20)
#    0.000    0.000    6.667    3.333    3.111    1.778 
#    0.000    5.556    0.000    0.000    0.000    0.000 
#    0.000    0.000    0.000    0.000    0.000    0.000 
#
# Total GULP energy -100573.835861 kJ/mol
# GULP energy per Si atom -5587.435326 kJ/mol
# Density = 2.288846 g / cm^3
# Si number density = 22.940672 Si / 1000 Ang^3
#
#
#
# Elastic Constant Matrix: (Units=GPa)
#
#
# Indices 1 2 3 4 5 6 
#
# 1 130.5803 63.1512 49.7635 0.0000 -10.7038 0.0000
# 2 63.1512 200.9286 101.0018 0.0000 -3.7938 0.0000
# 3 49.7635 101.0018 166.7281 0.0000 -10.6266 0.0000
# 4 0.0000 0.0000 0.0000 45.2396 0.0000 -20.4573
# 5 -10.7038 -3.7938 -10.6266 0.0000 50.2740 0.0000
# 6 0.0000 0.0000 0.0000 -20.4573 0.0000 19.3903
#
#
#
# Elastic Compliance Matrix: (Units=1/GPa)
#
#
# Indices 1 2 3 4 5 6 
#
# 1 0.009382 -0.002245 -0.001342 0.000000 0.001544 0.000000
# 2 -0.002245 0.007700 -0.004043 0.000000 -0.000751 0.000000
# 3 -0.001342 -0.004043 0.008930 0.000000 0.001297 0.000000
# 4 0.000000 0.000000 0.000000 0.042272 0.000000 0.044598
# 5 0.001544 -0.000751 0.001297 0.000000 0.020437 0.000000
# 6 0.000000 0.000000 0.000000 0.044598 0.000000 0.098625
#
#
# Mechanical properties :
#
#
# Convention : Reuss Voigt Hill
#
# Bulk Modulus (GPa) = 92.99482 102.89667 97.94574
# Shear Modulus (GPa) = 24.24959 41.93548 33.09253
#
# Velocity S-wave (km/s) = 3.25477 4.28015 3.80218
# Velocity P-wave (km/s) = 7.39931 8.32928 7.87803
#
# Compressibility (1/GPa) = 0.01075329
#
# Stress axis : x y z
#
# Youngs Moduli (GPa) = 106.58935 129.86251 111.98345
#
# Poissons Ratio (x) = 0.29155 0.15025
# Poissons Ratio (y) = 0.23930 0.45271
# Poissons Ratio (z) = 0.14301 0.52499
#
# Static dielectric constant tensor:
#      x y z
#    x 1.928500 0.000000 0.040730 
#    y 0.000000 1.882140 0.000000 
#    z 0.040730 0.000000 1.937970 
# 
# From -- ./inp_files/22927.got.cif
#   From: 2010.05.17/outbox.cif.g08.bks.cpg/sg13_12_cif.got.tgz:22927.got - 2010.06.03 16:44:36.
