data_PCOD9238463
_publ_section_title
;
Structure prediction by ZEFSAII (Michael W. Deem and Ramdas Pophale) SiO2 
 PCOD9238463
Probable space group: P 2/C
;
_chemical_formula_sum "Si O2"
_cell_formula_units_Z 26
_cell_length_a 14.720787
_cell_length_b 14.286418
_cell_length_c 9.747365
_cell_angle_alpha 90.000000
_cell_angle_beta 37.273435
_cell_angle_gamma 90.000000
_cell_volume 1241.484989
_symmetry_space_group_name_H-M "P 2/C"
_symmetry_group_IT_number 13
_symmetry_cell_setting 'monoclinic'
loop_
_space_group_symop_operation_xyz
x,y,z
-x,y,1/2-z
-x,-y,-z
x,-y,1/2+z
loop_
_atom_site_type_symbol
_atom_site_label
_atom_site_fract_x
_atom_site_fract_y
_atom_site_fract_z
Si Si1 0.292379 0.716431 0.214528
Si Si2 0.635669 0.782621 0.781116
Si Si3 0.500000 0.910831 0.750000
Si Si4 0.606950 0.459616 0.749369
Si Si5 0.702734 0.954514 0.882977
Si Si6 0.174085 0.631108 0.072513
Si Si7 0.162729 0.910328 0.487995
O O1 0.301612 0.630602 0.309810
O O2 0.210232 0.677609 0.177103
O O3 0.217921 0.811478 0.359971
O O4 0.469435 0.738975 0.979125
O O5 0.633028 0.847598 0.648840
O O6 0.663631 0.853414 0.870705
O O7 0.759906 0.704145 0.617774
O O8 0.564550 0.973698 0.552378
O O9 0.500000 0.436071 0.750000
O O10 0.723858 0.539196 0.563325
O O11 0.500000 0.500000 0.000000
O O12 0.740438 0.941681 0.997109
O O13 0.823708 0.008419 0.643428
O O14 0.000000 0.614364 0.250000
O O15 0.000000 0.899882 0.750000
#
# Coordination Sequence:
#
# PCOD9238463 Si02
#       7
#     4   4   2   4   4   4   4
#     4  12  26  48  75 105 148 189 251 304 358 443
#     4  12  22  42  73 100 140 189 246 294 357 430
#     4  12  20  44  70 100 134 188 252 302 346 422
#     4  12  25  50  80 108 143 191 242 300 369 443
#     4  12  25  43  70 106 144 197 249 304 365 434
#     4  12  27  46  76 110 146 194 237 302 380 439
#     4  12  28  46  68 106 154 197 243 306 374 435
#
# _framework density 20.942661000000001
#
# number of rings (size 3 to 8) (size 9 to 14) (size 15 to 20)
#    0.000    0.000    7.692    1.846    4.308    1.846 
#    0.000    0.000    0.000    0.000    0.000    0.000 
#    0.000    0.000    0.000    0.000    0.000    0.000 
#
# Total GULP energy -145364.560526 kJ/mol
# GULP energy per Si atom -5590.944636 kJ/mol
# Density = 2.089499 g / cm^3
# Si number density = 20.942661 Si / 1000 Ang^3
#
#
#
# Elastic Constant Matrix: (Units=GPa)
#
#
# Indices 1 2 3 4 5 6 
#
# 1 92.2709 45.7796 39.4361 0.0000 3.8381 0.0000
# 2 45.7796 116.1371 26.6912 0.0000 3.1508 0.0000
# 3 39.4361 26.6912 92.5350 0.0000 -9.5750 0.0000
# 4 0.0000 0.0000 0.0000 36.1605 0.0000 15.5297
# 5 3.8381 3.1508 -9.5750 0.0000 39.4891 0.0000
# 6 0.0000 0.0000 0.0000 15.5297 0.0000 37.3229
#
#
#
# Elastic Compliance Matrix: (Units=1/GPa)
#
#
# Indices 1 2 3 4 5 6 
#
# 1 0.015725 -0.004853 -0.005559 0.000000 -0.002489 0.000000
# 2 -0.004853 0.010798 -0.001114 0.000000 -0.000660 0.000000
# 3 -0.005559 -0.001114 0.013912 0.000000 0.004002 0.000000
# 4 0.000000 0.000000 0.000000 0.033671 0.000000 -0.014010
# 5 -0.002489 -0.000660 0.004002 0.000000 0.026588 0.000000
# 6 0.000000 0.000000 0.000000 -0.014010 0.000000 0.032623
#
#
# Mechanical properties :
#
#
# Convention : Reuss Voigt Hill
#
# Bulk Modulus (GPa) = 57.53698 58.30632 57.92165
# Shear Modulus (GPa) = 30.83280 35.19692 33.01486
#
# Velocity S-wave (km/s) = 3.84115 4.10400 3.97475
# Velocity P-wave (km/s) = 6.87065 7.09637 6.98442
#
# Compressibility (1/GPa) = 0.01738013
#
# Stress axis : x y z
#
# Youngs Moduli (GPa) = 63.59207 92.61229 71.88263
#
# Poissons Ratio (x) = 0.44949 0.39962
# Poissons Ratio (y) = 0.30864 0.08011
# Poissons Ratio (z) = 0.35353 0.10321
#
# Static dielectric constant tensor:
#      x y z
#    x 1.782780 0.000000 0.007670 
#    y 0.000000 1.770000 0.000000 
#    z 0.007670 0.000000 1.775940 
# 
# From -- ./inp_files/19844.got.cif
#   From: 2010.05.17/outbox.cif.g08.bks.cpg/sg13_10_cif.got.tgz:19844.got - 2010.06.03 16:44:36.
