data_PCOD9238601
_publ_section_title
;
Structure prediction by ZEFSAII (Michael W. Deem and Ramdas Pophale) SiO2 
 PCOD9238601
Probable space group: P 2/C
;
_chemical_formula_sum "Si O2"
_cell_formula_units_Z 14
_cell_length_a 10.216619
_cell_length_b 9.914356
_cell_length_c 8.236019
_cell_angle_alpha 90.000000
_cell_angle_beta 132.457940
_cell_angle_gamma 90.000000
_cell_volume 615.477032
_symmetry_space_group_name_H-M "P 2/C"
_symmetry_group_IT_number 13
_symmetry_cell_setting 'monoclinic'
loop_
_space_group_symop_operation_xyz
x,y,z
-x,y,1/2-z
-x,-y,-z
x,-y,1/2+z
loop_
_atom_site_type_symbol
_atom_site_label
_atom_site_fract_x
_atom_site_fract_y
_atom_site_fract_z
Si Si1 0.619899 0.394441 0.003520
Si Si2 0.527431 0.850844 0.963154
Si Si3 0.936234 0.150996 0.885610
Si Si4 0.000000 0.655200 0.750000
O O1 0.500000 0.366660 0.750000
O O2 0.500000 0.500000 0.000000
O O3 0.617454 0.252738 0.092839
O O4 0.819937 0.431243 0.122920
O O5 0.500000 0.846602 0.750000
O O6 0.725811 0.822320 0.188963
O O7 0.500000 0.000000 0.000000
O O8 0.000000 0.168224 0.750000
O O9 0.985484 0.252903 0.074730
O O10 0.000000 0.000000 0.000000
#
# Coordination Sequence:
#
# PCOD9238601 Si02
#       4
#     4   4   4   2
#     4  12  27  51  76 110 151 201 260 315 387 464
#     4  12  25  45  73 110 152 194 253 322 379 456
#     4  12  24  42  72 114 154 200 254 315 390 461
#     4  12  26  50  78 108 156 202 258 322 386 462
#
# _framework density 22.746586000000001
#
# number of rings (size 3 to 8) (size 9 to 14) (size 15 to 20)
#    0.000    0.000    4.286    6.857    0.000    1.143 
#    2.571    0.000    0.000    0.000    0.000    0.000 
#    0.000    0.000    0.000    0.000    0.000    0.000 
#
# Total GULP energy -78192.395610 kJ/mol
# GULP energy per Si atom -5585.171115 kJ/mol
# Density = 2.269481 g / cm^3
# Si number density = 22.746586 Si / 1000 Ang^3
#
#
#
# Elastic Constant Matrix: (Units=GPa)
#
#
# Indices 1 2 3 4 5 6 
#
# 1 165.2711 41.2090 69.1544 0.0000 18.5888 0.0000
# 2 41.2090 58.7059 3.3071 0.0000 -0.3395 0.0000
# 3 69.1544 3.3071 157.2751 0.0000 0.9418 0.0000
# 4 0.0000 0.0000 0.0000 -6.4300 0.0000 7.9748
# 5 18.5888 -0.3395 0.9418 0.0000 74.2110 0.0000
# 6 0.0000 0.0000 0.0000 7.9748 0.0000 38.5654
#
#
#
# Elastic Compliance Matrix: (Units=1/GPa)
#
#
# Indices 1 2 3 4 5 6 
#
# 1 0.009677 -0.006576 -0.004102 0.000000 -0.002402 0.000000
# 2 -0.006576 0.021523 0.002428 0.000000 0.001715 0.000000
# 3 -0.004102 0.002428 0.008105 0.000000 0.000936 0.000000
# 4 0.000000 0.000000 0.000000 -0.123776 0.000000 0.025595
# 5 -0.002402 0.001715 0.000936 0.000000 0.014073 0.000000
# 6 0.000000 0.000000 0.000000 0.025595 0.000000 0.020637
#
#
# Mechanical properties :
#
#
# Convention : Reuss Voigt Hill
#
# Bulk Modulus (GPa) = 43.84734 67.62146 55.73440
# Shear Modulus (GPa) = -194.85351 39.10806 -77.87273
#
# Velocity S-wave (km/s) = -9.26546 4.15093 -5.85741
# Velocity P-wave (km/s) = 9.75432 7.26405 4.60327
#
# Compressibility (1/GPa) = 0.02280640
#
# Stress axis : x y z
#
# Youngs Moduli (GPa) = 103.33870 46.46210 123.37418
#
# Poissons Ratio (x) = 0.30551 0.50612
# Poissons Ratio (y) = 0.67951 -0.29961
# Poissons Ratio (z) = 0.42393 -0.11283
#
# Static dielectric constant tensor:
#      x y z
#    x 6.207720 0.000000 -0.902520 
#    y 0.000000 1.913420 0.000000 
#    z -0.902520 0.000000 2.027430 
# 
# From -- ./inp_files/15134.got.cif
#   From: 2010.05.17/outbox.cif.g08.bks.cpg/sg13_8_cif.got.tgz:15134.got - 2010.06.03 16:44:36.
