data_PCOD9238787
_publ_section_title
;
Structure prediction by ZEFSAII (Michael W. Deem and Ramdas Pophale) SiO2 
 PCOD9238787
Probable space group: P 2/C
;
_chemical_formula_sum "Si O2"
_cell_formula_units_Z 14
_cell_length_a 6.872041
_cell_length_b 8.056852
_cell_length_c 14.981409
_cell_angle_alpha 90.000000
_cell_angle_beta 132.855539
_cell_angle_gamma 90.000000
_cell_volume 608.064677
_symmetry_space_group_name_H-M "P 2/C"
_symmetry_group_IT_number 13
_symmetry_cell_setting 'monoclinic'
loop_
_space_group_symop_operation_xyz
x,y,z
-x,y,1/2-z
-x,-y,-z
x,-y,1/2+z
loop_
_atom_site_type_symbol
_atom_site_label
_atom_site_fract_x
_atom_site_fract_y
_atom_site_fract_z
Si Si1 0.481529 0.906308 0.090518
Si Si2 0.766135 0.599736 0.118544
Si Si3 0.500000 0.152103 0.250000
Si Si4 0.026085 0.698179 0.501712
O O1 0.655043 0.741545 0.147137
O O2 0.581190 0.036484 0.193579
O O3 0.199542 0.828158 0.036782
O O4 0.500000 0.000000 0.000000
O O5 0.000000 0.509882 0.250000
O O6 0.500000 0.500000 0.000000
O O7 0.886954 0.705126 0.073921
O O8 0.734759 0.262023 0.358548
O O9 0.000000 0.500000 0.500000
#
# Coordination Sequence:
#
# PCOD9238787 Si02
#       4
#     4   4   2   4
#     4  12  27  49  78 116 161 211 266 341 410 483
#     4  12  28  50  80 116 162 217 270 332 410 490
#     4  12  28  48  82 114 158 204 270 346 404 484
#     4  12  28  50  78 117 159 212 272 330 410 497
#
# _framework density 23.023865000000001
#
# number of rings (size 3 to 8) (size 9 to 14) (size 15 to 20)
#    0.000    0.000    5.714    2.571    8.000    1.143 
#    0.000    0.000    0.000    0.000    0.000    0.000 
#    0.000    0.000    0.000    0.000    0.000    0.000 
#
# Total GULP energy -78072.897639 kJ/mol
# GULP energy per Si atom -5576.635546 kJ/mol
# Density = 2.297146 g / cm^3
# Si number density = 23.023865 Si / 1000 Ang^3
#
#
#
# Elastic Constant Matrix: (Units=GPa)
#
#
# Indices 1 2 3 4 5 6 
#
# 1 118.1138 28.2405 67.3289 0.0000 -3.9920 0.0000
# 2 28.2405 126.2059 69.0970 0.0000 3.9883 0.0000
# 3 67.3289 69.0970 209.3057 0.0000 0.4181 0.0000
# 4 0.0000 0.0000 0.0000 51.2547 0.0000 6.5518
# 5 -3.9920 3.9883 0.4181 0.0000 36.5810 0.0000
# 6 0.0000 0.0000 0.0000 6.5518 0.0000 48.1769
#
#
#
# Elastic Compliance Matrix: (Units=1/GPa)
#
#
# Indices 1 2 3 4 5 6 
#
# 1 0.010462 -0.000655 -0.003152 0.000000 0.001249 0.000000
# 2 -0.000655 0.009751 -0.003006 0.000000 -0.001100 0.000000
# 3 -0.003152 -0.003006 0.006784 0.000000 -0.000094 0.000000
# 4 0.000000 0.000000 0.000000 0.019856 0.000000 -0.002700
# 5 0.001249 -0.001100 -0.000094 0.000000 0.027594 0.000000
# 6 0.000000 0.000000 0.000000 -0.002700 0.000000 0.021124
#
#
# Mechanical properties :
#
#
# Convention : Reuss Voigt Hill
#
# Bulk Modulus (GPa) = 74.78729 86.99537 80.89133
# Shear Modulus (GPa) = 43.99382 46.46645 45.23014
#
# Velocity S-wave (km/s) = 4.37600 4.49730 4.43706
# Velocity P-wave (km/s) = 7.62139 8.05199 7.83964
#
# Compressibility (1/GPa) = 0.01337126
#
# Stress axis : x y z
#
# Youngs Moduli (GPa) = 95.58649 102.55691 147.40466
#
# Poissons Ratio (x) = 0.06717 0.46456
# Poissons Ratio (y) = 0.06261 0.44311
# Poissons Ratio (z) = 0.30125 0.30829
#
# Static dielectric constant tensor:
#      x y z
#    x 1.783650 0.000000 0.374610 
#    y 0.000000 1.972710 0.000000 
#    z 0.374610 0.000000 1.450680 
# 
# From -- ./inp_files/31671.got.cif
#   From: 2010.05.17/outbox.cif.g08.bks.cpg/sg13_16_cif.got.tgz:31671.got - 2010.06.03 16:44:36.
