data_PCOD9238425
_publ_section_title
;
Structure prediction by ZEFSAII (Michael W. Deem and Ramdas Pophale) SiO2 
 PCOD9238425
Probable space group: P 2/C
;
_chemical_formula_sum "Si O2"
_cell_formula_units_Z 22
_cell_length_a 14.011743
_cell_length_b 5.212028
_cell_length_c 22.885716
_cell_angle_alpha 90.000000
_cell_angle_beta 30.936305
_cell_angle_gamma 90.000000
_cell_volume 859.207812
_symmetry_space_group_name_H-M "P 2/C"
_symmetry_group_IT_number 13
_symmetry_cell_setting 'monoclinic'
loop_
_space_group_symop_operation_xyz
x,y,z
-x,y,1/2-z
-x,-y,-z
x,-y,1/2+z
loop_
_atom_site_type_symbol
_atom_site_label
_atom_site_fract_x
_atom_site_fract_y
_atom_site_fract_z
Si Si1 0.998801 0.900481 0.067139
Si Si2 0.771165 0.613500 0.701459
Si Si3 0.500000 0.468044 0.750000
Si Si4 0.791873 0.412892 0.380940
Si Si5 0.463783 0.229733 0.078645
Si Si6 0.662643 0.135530 0.558419
O O1 0.873976 0.122538 0.161867
O O2 0.909106 0.622833 0.119876
O O3 0.000000 0.000000 0.000000
O O4 0.201013 0.915536 0.989005
O O5 0.652080 0.632913 0.704572
O O6 0.630213 0.562445 0.828433
O O7 0.588663 0.289014 0.653199
O O8 0.685534 0.209711 0.394564
O O9 0.654864 0.656931 0.452921
O O10 0.000000 0.459765 0.250000
O O11 0.782581 0.310222 0.451673
O O12 0.509660 0.998309 0.098025
#
# Coordination Sequence:
#
# PCOD9238425 Si02
#       6
#     4   4   2   4   4   4
#     4  12  28  45  77 114 162 205 268 319 401 479
#     4  12  27  49  75 114 159 209 261 331 396 481
#     4  12  26  46  80 112 162 208 266 324 418 476
#     4  11  26  51  76 116 151 212 271 335 397 476
#     4  11  27  47  83 108 161 203 278 324 412 466
#     4  12  27  49  77 116 157 214 262 339 401 485
#
# _framework density 25.604979
#
# number of rings (size 3 to 8) (size 9 to 14) (size 15 to 20)
#    0.000    0.364    3.636    3.273    7.636    1.455 
#    3.273    0.000    0.000    0.000    0.000    0.000 
#    0.000    0.000    0.000    0.000    0.000    0.000 
#
# Total GULP energy -123373.053987 kJ/mol
# GULP energy per Si atom -5607.866090 kJ/mol
# Density = 2.554670 g / cm^3
# Si number density = 25.604979 Si / 1000 Ang^3
#
#
#
# Elastic Constant Matrix: (Units=GPa)
#
#
# Indices 1 2 3 4 5 6 
#
# 1 136.1725 11.9226 43.7931 0.0000 9.3453 0.0000
# 2 11.9226 52.4903 17.1951 0.0000 1.7559 0.0000
# 3 43.7931 17.1951 169.5531 0.0000 17.1230 0.0000
# 4 0.0000 0.0000 0.0000 31.2406 0.0000 2.2804
# 5 9.3453 1.7559 17.1230 0.0000 49.2551 0.0000
# 6 0.0000 0.0000 0.0000 2.2804 0.0000 46.7096
#
#
#
# Elastic Compliance Matrix: (Units=1/GPa)
#
#
# Indices 1 2 3 4 5 6 
#
# 1 0.008114 -0.001196 -0.001890 0.000000 -0.000840 0.000000
# 2 -0.001196 0.019882 -0.001719 0.000000 0.000116 0.000000
# 3 -0.001890 -0.001719 0.006755 0.000000 -0.001929 0.000000
# 4 0.000000 0.000000 0.000000 0.032124 0.000000 -0.001568
# 5 -0.000840 0.000116 -0.001929 0.000000 0.021128 0.000000
# 6 0.000000 0.000000 0.000000 -0.001568 0.000000 0.021485
#
#
# Mechanical properties :
#
#
# Convention : Reuss Voigt Hill
#
# Bulk Modulus (GPa) = 39.77463 56.00418 47.88941
# Shear Modulus (GPa) = 39.22245 44.46139 41.84192
#
# Velocity S-wave (km/s) = 3.91810 4.17158 4.04683
# Velocity P-wave (km/s) = 6.00303 6.71734 6.37020
#
# Compressibility (1/GPa) = 0.02514165
#
# Stress axis : x y z
#
# Youngs Moduli (GPa) = 123.24914 50.29655 148.03842
#
# Poissons Ratio (x) = 0.06015 0.27972
# Poissons Ratio (y) = 0.14739 0.25450
# Poissons Ratio (z) = 0.23288 0.08647
#
# Static dielectric constant tensor:
#      x y z
#    x 2.002140 0.000000 -0.000640 
#    y 0.000000 2.057650 0.000000 
#    z -0.000640 0.000000 2.077400 
# 
# From -- ./inp_files/86961.got.cif
#   From: 2010.05.17/outbox.cif.g08.bks.cpg/sg13_44_cif.got.tgz:86961.got - 2010.06.03 16:44:36.
