data_PCOD9238569
_publ_section_title
;
Structure prediction by ZEFSAII (Michael W. Deem and Ramdas Pophale) SiO2 
 PCOD9238569
Probable space group: P 2/C
;
_chemical_formula_sum "Si O2"
_cell_formula_units_Z 14
_cell_length_a 13.604945
_cell_length_b 4.870936
_cell_length_c 17.009005
_cell_angle_alpha 90.000000
_cell_angle_beta 152.653001
_cell_angle_gamma 90.000000
_cell_volume 517.795914
_symmetry_space_group_name_H-M "P 2/C"
_symmetry_group_IT_number 13
_symmetry_cell_setting 'monoclinic'
loop_
_space_group_symop_operation_xyz
x,y,z
-x,y,1/2-z
-x,-y,-z
x,-y,1/2+z
loop_
_atom_site_type_symbol
_atom_site_label
_atom_site_fract_x
_atom_site_fract_y
_atom_site_fract_z
Si Si1 0.717499 0.352171 0.684776
Si Si2 0.000000 0.557621 0.750000
Si Si3 0.690978 0.168045 0.270595
Si Si4 0.698243 0.069451 0.931112
O O1 0.500000 0.500000 0.500000
O O2 0.884353 0.377116 0.733318
O O3 0.693125 0.049859 0.701319
O O4 0.774336 0.546546 0.798747
O O5 0.837459 0.753391 0.587444
O O6 0.190822 0.939610 0.566742
O O7 0.441536 0.158827 0.121847
O O8 0.500000 0.238560 0.750000
#
# Coordination Sequence:
#
# PCOD9238569 Si02
#       4
#     4   2   4   4
#     4  12  23  44  69 103 135 183 223 285 336 404
#     4  12  24  40  76 102 134 184 238 268 348 410
#     4   9  23  45  68  91 147 173 218 289 339 386
#     4   8  21  45  67 105 133 183 225 286 331 415
#
# _framework density 27.037680999999999
#
# number of rings (size 3 to 8) (size 9 to 14) (size 15 to 20)
#    1.714    0.000    2.857    0.857    0.000    8.000 
#    0.000    0.000    0.000    0.000    0.000    0.000 
#    0.000    0.000    0.000    0.000    0.000    0.000 
#
# Total GULP energy -78480.816254 kJ/mol
# GULP energy per Si atom -5605.772590 kJ/mol
# Density = 2.697614 g / cm^3
# Si number density = 27.037681 Si / 1000 Ang^3
#
#
#
# Elastic Constant Matrix: (Units=GPa)
#
#
# Indices 1 2 3 4 5 6 
#
# 1 194.4907 38.5451 37.6057 0.0000 18.6403 0.0000
# 2 38.5451 98.8615 17.6292 0.0000 -4.9417 0.0000
# 3 37.6057 17.6292 117.6369 0.0000 -33.8624 0.0000
# 4 0.0000 0.0000 0.0000 27.2411 0.0000 -8.2446
# 5 18.6403 -4.9417 -33.8624 0.0000 56.3913 0.0000
# 6 0.0000 0.0000 0.0000 -8.2446 0.0000 37.7013
#
#
#
# Elastic Compliance Matrix: (Units=1/GPa)
#
#
# Indices 1 2 3 4 5 6 
#
# 1 0.006551 -0.002235 -0.002949 0.000000 -0.004132 0.000000
# 2 -0.002235 0.011155 -0.000560 0.000000 0.001380 0.000000
# 3 -0.002949 -0.000560 0.011840 0.000000 0.008036 0.000000
# 4 0.000000 0.000000 0.000000 0.039311 0.000000 0.008597
# 5 -0.004132 0.001380 0.008036 0.000000 0.024045 0.000000
# 6 0.000000 0.000000 0.000000 0.008597 0.000000 0.028404
#
#
# Mechanical properties :
#
#
# Convention : Reuss Voigt Hill
#
# Bulk Modulus (GPa) = 55.37264 66.50545 60.93904
# Shear Modulus (GPa) = 36.01960 45.41402 40.71681
#
# Velocity S-wave (km/s) = 3.65389 4.10281 3.88484
# Velocity P-wave (km/s) = 6.19076 6.86256 6.53530
#
# Compressibility (1/GPa) = 0.01805946
#
# Stress axis : x y z
#
# Youngs Moduli (GPa) = 152.65714 89.64316 84.45730
#
# Poissons Ratio (x) = 0.20033 0.24902
# Poissons Ratio (y) = 0.34115 0.04731
# Poissons Ratio (z) = 0.45011 0.05021
#
# Static dielectric constant tensor:
#      x y z
#    x 2.103190 0.000000 -0.018940 
#    y 0.000000 2.039710 0.000000 
#    z -0.018940 0.000000 2.275730 
# 
# From -- ./inp_files/35058.got.cif
#   From: 2010.05.17/outbox.cif.g08.bks.cpg/sg13_18_cif.got.tgz:35058.got - 2010.06.03 16:44:36.
