data_PCOD9238612
_publ_section_title
;
Structure prediction by ZEFSAII (Michael W. Deem and Ramdas Pophale) SiO2 
 PCOD9238612
Probable space group: P 2/C
;
_chemical_formula_sum "Si O2"
_cell_formula_units_Z 12
_cell_length_a 9.242506
_cell_length_b 4.769261
_cell_length_c 18.949003
_cell_angle_alpha 90.000000
_cell_angle_beta 27.504921
_cell_angle_gamma 90.000000
_cell_volume 385.748674
_symmetry_space_group_name_H-M "P 2/C"
_symmetry_group_IT_number 13
_symmetry_cell_setting 'monoclinic'
loop_
_space_group_symop_operation_xyz
x,y,z
-x,y,1/2-z
-x,-y,-z
x,-y,1/2+z
loop_
_atom_site_type_symbol
_atom_site_label
_atom_site_fract_x
_atom_site_fract_y
_atom_site_fract_z
Si Si1 0.477230 0.104810 0.444738
Si Si2 0.089965 0.351773 0.106391
Si Si3 0.188207 0.721531 0.426432
O O1 0.702938 0.147815 0.420535
O O2 0.217007 0.346234 0.574354
O O3 0.337689 0.846997 0.448240
O O4 0.738563 0.245366 0.277451
O O5 0.005673 0.498284 0.056333
O O6 0.500000 0.714487 0.250000
O O7 0.000000 0.000000 0.500000
#
# Coordination Sequence:
#
# PCOD9238612 Si02
#       3
#     4   4   4
#     4  12  26  45  69  98 135 182 228 280 340 400
#     4  12  25  46  69 101 138 178 226 283 337 405
#     4  12  24  43  70 103 137 178 223 277 342 409
#
# _framework density 31.108335
#
# number of rings (size 3 to 8) (size 9 to 14) (size 15 to 20)
#    0.000    0.000    0.000   11.000    0.000    2.667 
#    0.000    0.000    0.000    0.000    0.000    0.000 
#    0.000    0.000    0.000    0.000    0.000    0.000 
#
# Total GULP energy -67046.016953 kJ/mol
# GULP energy per Si atom -5587.168079 kJ/mol
# Density = 3.103753 g / cm^3
# Si number density = 31.108335 Si / 1000 Ang^3
#
#
#
# Elastic Constant Matrix: (Units=GPa)
#
#
# Indices 1 2 3 4 5 6 
#
# 1 211.4590 90.6337 115.9010 0.0000 50.0562 0.0000
# 2 90.6337 352.9698 147.0765 0.0000 -25.3351 0.0000
# 3 115.9010 147.0765 278.5268 0.0000 2.0386 0.0000
# 4 0.0000 0.0000 0.0000 55.5646 0.0000 -15.5583
# 5 50.0562 -25.3351 2.0386 0.0000 85.8572 0.0000
# 6 0.0000 0.0000 0.0000 -15.5583 0.0000 103.5834
#
#
#
# Elastic Compliance Matrix: (Units=1/GPa)
#
#
# Indices 1 2 3 4 5 6 
#
# 1 0.007838 -0.001308 -0.002535 0.000000 -0.004895 0.000000
# 2 -0.001308 0.003961 -0.001562 0.000000 0.001968 0.000000
# 3 -0.002535 -0.001562 0.005464 0.000000 0.000887 0.000000
# 4 0.000000 0.000000 0.000000 0.018787 0.000000 0.002822
# 5 -0.004895 0.001968 0.000887 0.000000 0.015061 0.000000
# 6 0.000000 0.000000 0.000000 0.002822 0.000000 0.010078
#
#
# Mechanical properties :
#
#
# Convention : Reuss Voigt Hill
#
# Bulk Modulus (GPa) = 154.96629 172.24199 163.60414
# Shear Modulus (GPa) = 67.43215 81.62401 74.52808
#
# Velocity S-wave (km/s) = 4.66086 5.12792 4.89996
# Velocity P-wave (km/s) = 8.88189 9.51575 9.20428
#
# Compressibility (1/GPa) = 0.00645302
#
# Stress axis : x y z
#
# Youngs Moduli (GPa) = 127.58659 252.46597 183.03171
#
# Poissons Ratio (x) = 0.33011 0.46402
# Poissons Ratio (y) = 0.16682 0.28587
# Poissons Ratio (z) = 0.32346 0.39432
#
# Static dielectric constant tensor:
#      x y z
#    x 4.844440 0.000000 0.878810 
#    y 0.000000 2.517820 0.000000 
#    z 0.878810 0.000000 2.388500 
# 
# From -- ./inp_files/30970.got.cif
#   From: 2010.05.17/outbox.cif.g08.bks.cpg/sg13_16_cif.got.tgz:30970.got - 2010.06.03 16:44:36.
