data_PCOD9238093
_publ_section_title
;
Structure prediction by ZEFSAII (Michael W. Deem and Ramdas Pophale) SiO2 
 PCOD9238093
Probable space group: P 2/C
;
_chemical_formula_sum "Si O2"
_cell_formula_units_Z 24
_cell_length_a 14.429341
_cell_length_b 6.797552
_cell_length_c 19.236629
_cell_angle_alpha 90.000000
_cell_angle_beta 41.398217
_cell_angle_gamma 90.000000
_cell_volume 1247.725324
_symmetry_space_group_name_H-M "P 2/C"
_symmetry_group_IT_number 13
_symmetry_cell_setting 'monoclinic'
loop_
_space_group_symop_operation_xyz
x,y,z
-x,y,1/2-z
-x,-y,-z
x,-y,1/2+z
loop_
_atom_site_type_symbol
_atom_site_label
_atom_site_fract_x
_atom_site_fract_y
_atom_site_fract_z
Si Si1 0.343272 0.876752 0.827503
Si Si2 0.893620 0.566620 0.499987
Si Si3 0.237441 0.812943 0.499971
Si Si4 0.453451 0.710929 0.499961
Si Si5 0.001682 0.123211 0.827523
Si Si6 0.685436 0.000027 0.314584
O O1 0.500000 0.798735 0.750000
O O2 0.230021 0.704315 0.900465
O O3 0.329719 0.968198 0.758776
O O4 0.315533 0.045863 0.900591
O O5 0.831036 0.372111 0.499989
O O6 0.969085 0.704317 0.400439
O O7 0.000000 0.500000 0.500000
O O8 0.342127 0.732106 0.499944
O O9 0.116825 0.954192 0.599344
O O10 0.500000 0.500000 0.500000
O O11 0.593027 0.819531 0.394578
O O12 0.382238 0.819624 0.605329
O O13 0.000000 0.201215 0.750000
O O14 0.152660 0.031640 0.758811
#
# Coordination Sequence:
#
# PCOD9238093 Si02
#       6
#     4   4   4   4   4   4
#     4  11  24  44  70  96 133 179 221 272 336 402
#     4  11  26  44  67 101 135 171 226 282 329 398
#     4  11  24  45  67  99 136 172 220 278 335 394
#     4  11  26  40  66  99 137 170 218 276 327 393
#     4  11  24  44  70  96 133 179 221 272 336 402
#     4  11  24  45  66  94 132 173 220 269 336 390
#
# _framework density 19.235002999999999
#
# number of rings (size 3 to 8) (size 9 to 14) (size 15 to 20)
#    0.000    1.000    3.333    2.000    4.667    8.000 
#    0.000    0.000    0.000    0.000    0.000    0.000 
#    0.000    0.000    0.000    0.000    0.000    0.000 
#
# Total GULP energy -134205.540573 kJ/mol
# GULP energy per Si atom -5591.897524 kJ/mol
# Density = 1.919122 g / cm^3
# Si number density = 19.235003 Si / 1000 Ang^3
#
#
#
# Elastic Constant Matrix: (Units=GPa)
#
#
# Indices 1 2 3 4 5 6 
#
# 1 159.1497 74.9441 79.2492 0.0000 -1.7748 0.0000
# 2 74.9441 157.6063 68.8817 0.0000 0.0680 0.0000
# 3 79.2492 68.8817 147.8064 0.0000 1.8663 0.0000
# 4 0.0000 0.0000 0.0000 74.4704 0.0000 1.2549
# 5 -1.7748 0.0680 1.8663 0.0000 15.0086 0.0000
# 6 0.0000 0.0000 0.0000 1.2549 0.0000 40.0592
#
#
#
# Elastic Compliance Matrix: (Units=1/GPa)
#
#
# Indices 1 2 3 4 5 6 
#
# 1 0.009549 -0.002882 -0.003797 0.000000 0.001615 0.000000
# 2 -0.002882 0.008840 -0.002574 0.000000 -0.000061 0.000000
# 3 -0.003797 -0.002574 0.010022 0.000000 -0.001684 0.000000
# 4 0.000000 0.000000 0.000000 0.013435 0.000000 -0.000421
# 5 0.001615 -0.000061 -0.001684 0.000000 0.067029 0.000000
# 6 0.000000 0.000000 0.000000 -0.000421 0.000000 0.024976
#
#
# Mechanical properties :
#
#
# Convention : Reuss Voigt Hill
#
# Bulk Modulus (GPa) = 100.95193 101.19028 101.07110
# Shear Modulus (GPa) = 32.12110 42.00681 37.06396
#
# Velocity S-wave (km/s) = 4.09091 4.67826 4.39441
# Velocity P-wave (km/s) = 8.65514 9.05003 8.85479
#
# Compressibility (1/GPa) = 0.00990570
#
# Stress axis : x y z
#
# Youngs Moduli (GPa) = 104.71783 113.11917 99.77642
#
# Poissons Ratio (x) = 0.32600 0.37890
# Poissons Ratio (y) = 0.30179 0.25681
# Poissons Ratio (z) = 0.39766 0.29115
#
# Static dielectric constant tensor:
#      x y z
#    x 1.653130 0.000000 0.000180 
#    y 0.000000 1.633540 0.000000 
#    z 0.000180 0.000000 1.657770 
# 
# From -- ./inp_files/79241.got.cif
#   From: 2010.05.17/outbox.cif.g08.bks.cpg/sg13_40_cif.got.tgz:79241.got - 2010.06.03 16:44:36.
