data_PCOD9238199
_publ_section_title
;
Structure prediction by ZEFSAII (Michael W. Deem and Ramdas Pophale) SiO2 
 PCOD9238199
Probable space group: P 2/C
;
_chemical_formula_sum "Si O2"
_cell_formula_units_Z 16
_cell_length_a 25.972716
_cell_length_b 5.048972
_cell_length_c 26.548542
_cell_angle_alpha 90.000000
_cell_angle_beta 169.085432
_cell_angle_gamma 90.000000
_cell_volume 659.196809
_symmetry_space_group_name_H-M "P 2/C"
_symmetry_group_IT_number 13
_symmetry_cell_setting 'monoclinic'
loop_
_space_group_symop_operation_xyz
x,y,z
-x,y,1/2-z
-x,-y,-z
x,-y,1/2+z
loop_
_atom_site_type_symbol
_atom_site_label
_atom_site_fract_x
_atom_site_fract_y
_atom_site_fract_z
Si Si1 0.392617 0.394438 0.994752
Si Si2 0.061580 0.736512 0.367712
Si Si3 0.726342 0.217097 0.873026
Si Si4 0.033193 0.878922 0.477210
O O1 0.471864 0.677905 0.095454
O O2 0.680979 0.267728 0.257359
O O3 0.224536 0.247687 0.877437
O O4 0.201011 0.329198 0.762989
O O5 0.000000 0.730930 0.250000
O O6 0.187262 0.467441 0.510613
O O7 0.261695 0.972092 0.576937
O O8 0.943794 0.122853 0.039889
O O9 0.000000 0.000000 0.500000
#
# Coordination Sequence:
#
# PCOD9238199 Si02
#       4
#     4   4   4   4
#     4  11  24  48  70 110 149 189 248 309 364 453
#     4  11  26  49  76 108 148 197 249 310 384 449
#     4  11  24  48  70 109 148 189 248 310 365 457
#     4  11  26  47  77 109 150 201 249 309 379 442
#
# _framework density 24.27196
#
# number of rings (size 3 to 8) (size 9 to 14) (size 15 to 20)
#    0.000    1.000    5.000    1.500    7.000    3.000 
#    4.500    0.000    0.000    0.000    0.000    0.000 
#    0.000    0.000    0.000    0.000    0.000    0.000 
#
# Total GULP energy -89395.235512 kJ/mol
# GULP energy per Si atom -5587.202219 kJ/mol
# Density = 2.421672 g / cm^3
# Si number density = 24.271960 Si / 1000 Ang^3
#
#
#
# Elastic Constant Matrix: (Units=GPa)
#
#
# Indices 1 2 3 4 5 6 
#
# 1 91.6176 6.2229 -16.5952 0.0000 -31.8017 0.0000
# 2 6.2229 164.2908 46.8633 0.0000 -18.5384 0.0000
# 3 -16.5952 46.8633 144.8499 0.0000 -17.9704 0.0000
# 4 0.0000 0.0000 0.0000 43.0590 0.0000 -11.3744
# 5 -31.8017 -18.5384 -17.9704 0.0000 35.5832 0.0000
# 6 0.0000 0.0000 0.0000 -11.3744 0.0000 26.2200
#
#
#
# Elastic Compliance Matrix: (Units=1/GPa)
#
#
# Indices 1 2 3 4 5 6 
#
# 1 0.018074 0.000166 0.004301 0.000000 0.018412 0.000000
# 2 0.000166 0.006933 -0.001875 0.000000 0.002813 0.000000
# 3 0.004301 -0.001875 0.008917 0.000000 0.007371 0.000000
# 4 0.000000 0.000000 0.000000 0.026230 0.000000 0.011379
# 5 0.018412 0.002813 0.007371 0.000000 0.049746 0.000000
# 6 0.000000 0.000000 0.000000 0.011379 0.000000 0.043075
#
#
# Mechanical properties :
#
#
# Convention : Reuss Voigt Hill
#
# Bulk Modulus (GPa) = 25.56988 52.63781 39.10385
# Shear Modulus (GPa) = 31.08945 45.25694 38.17319
#
# Velocity S-wave (km/s) = 3.58282 4.32276 3.97007
# Velocity P-wave (km/s) = 5.26052 6.82999 6.09598
#
# Compressibility (1/GPa) = 0.03910851
#
# Stress axis : x y z
#
# Youngs Moduli (GPa) = 55.32915 144.24304 112.13928
#
# Poissons Ratio (x) = -0.02396 -0.48232
# Poissons Ratio (y) = -0.00919 0.21025
# Poissons Ratio (z) = -0.23798 0.27044
#
# Static dielectric constant tensor:
#      x y z
#    x 1.886030 0.000000 -0.008060 
#    y 0.000000 2.008590 0.000000 
#    z -0.008060 0.000000 2.009620 
# 
# From -- ./inp_files/94037.got.cif
#   From: 2010.05.17/outbox.cif.g08.bks.cpg/sg13_48_cif.got.tgz:94037.got - 2010.06.03 16:44:36.
