data_PCOD9238966
_publ_section_title
;
Structure prediction by ZEFSAII (Michael W. Deem and Ramdas Pophale) SiO2 
 PCOD9238966
Probable space group: P 2/C
;
_chemical_formula_sum "Si O2"
_cell_formula_units_Z 32
_cell_length_a 12.000000
_cell_length_b 15.000000
_cell_length_c 18.000000
_cell_angle_alpha 90.000000
_cell_angle_beta 150.000000
_cell_angle_gamma 90.000000
_cell_volume 1620.000000
_symmetry_space_group_name_H-M "P 2/C"
_symmetry_group_IT_number 13
_symmetry_cell_setting 'monoclinic'
loop_
_space_group_symop_operation_xyz
x,y,z
-x,y,1/2-z
-x,-y,-z
x,-y,1/2+z
loop_
_atom_site_type_symbol
_atom_site_label
_atom_site_fract_x
_atom_site_fract_y
_atom_site_fract_z
Si Si1 0.235081 0.738114 0.582289
Si Si2 0.379844 0.219600 0.430958
Si Si3 0.013717 0.210159 0.412939
Si Si4 0.798636 0.931592 0.572916
Si Si5 0.486537 0.585142 0.046515
Si Si6 0.094703 0.424717 0.628481
Si Si7 0.216528 0.139117 0.927949
Si Si8 0.812745 0.409020 0.984707
O O1 0.500000 0.728249 0.750000
O O2 0.117857 0.781654 0.586317
O O3 0.187348 0.803791 0.486032
O O4 0.115758 0.641555 0.501672
O O5 0.160869 0.213688 0.254653
O O6 0.362106 0.144276 0.484751
O O7 0.389016 0.322841 0.459143
O O8 0.587401 0.189433 0.501885
O O9 0.133895 0.116137 0.465723
O O10 0.152995 0.302494 0.488012
O O11 0.000000 0.937312 0.750000
O O12 0.723293 0.034462 0.521957
O O13 0.737310 0.610808 0.213732
O O14 0.500000 0.500000 0.000000
O O15 0.349423 0.562041 0.042465
O O16 0.228588 0.424690 0.627195
O O17 0.026146 0.524660 0.613059
O O18 0.000000 0.140674 0.750000
#
# Coordination Sequence:
#
# PCOD9238966 Si02
#       8
#     4   4   4   4   4   4   4   4
#     4  11  23  42  67  93 128 171 214 262 320 380
#     4  11  21  38  63  90 128 164 210 256 320 380
#     4  10  20  40  65  91 120 169 215 256 308 386
#     4   9  20  38  64  91 123 167 212 263 318 381
#     4  12  25  38  63  98 129 165 208 265 317 373
#     4  10  24  41  64  91 127 169 212 256 315 381
#     4  11  23  40  63  94 127 163 211 271 324 374
#     4  10  22  42  63  86 126 166 212 252 312 375
#
# _framework density 19.753086
#
# number of rings (size 3 to 8) (size 9 to 14) (size 15 to 20)
#    0.000    1.500    2.500    2.250    1.750    5.000 
#    0.000    0.000    5.500    0.000    0.000    0.000 
#    0.000    0.000    0.000    0.000    0.000    0.000 
#
# Total GULP energy -178365.914727 kJ/mol
# GULP energy per Si atom -5573.934835 kJ/mol
# Density = 1.970813 g / cm^3
# Si number density = 19.753086 Si / 1000 Ang^3
#
#
#
# Elastic Constant Matrix: (Units=GPa)
#
#
# Indices 1 2 3 4 5 6 
#
# 1 119.3067 51.4694 17.5735 0.0000 3.1377 0.0000
# 2 51.4694 111.3425 11.2628 0.0000 -4.1191 0.0000
# 3 17.5735 11.2628 48.6629 0.0000 -9.6323 0.0000
# 4 0.0000 0.0000 0.0000 26.9824 0.0000 -3.1653
# 5 3.1377 -4.1191 -9.6323 0.0000 6.3252 0.0000
# 6 0.0000 0.0000 0.0000 -3.1653 0.0000 35.1303
#
#
#
# Elastic Compliance Matrix: (Units=1/GPa)
#
#
# Indices 1 2 3 4 5 6 
#
# 1 0.012551 -0.005842 -0.007395 0.000000 -0.021292 0.000000
# 2 -0.005842 0.011984 0.002082 0.000000 0.013872 0.000000
# 3 -0.007395 0.002082 0.033973 0.000000 0.056760 0.000000
# 4 0.000000 0.000000 0.000000 0.037457 0.000000 0.003375
# 5 -0.021292 0.013872 0.056760 0.000000 0.264132 0.000000
# 6 0.000000 0.000000 0.000000 0.003375 0.000000 0.028770
#
#
# Mechanical properties :
#
#
# Convention : Reuss Voigt Hill
#
# Bulk Modulus (GPa) = 27.62509 48.88039 38.25274
# Shear Modulus (GPa) = 11.81353 26.95468 19.38411
#
# Velocity S-wave (km/s) = 2.44818 3.69803 3.13600
# Velocity P-wave (km/s) = 4.69116 6.55998 5.70265
#
# Compressibility (1/GPa) = 0.03619898
#
# Stress axis : x y z
#
# Youngs Moduli (GPa) = 79.67467 83.44302 29.43485
#
# Poissons Ratio (x) = 0.48743 0.21767
# Poissons Ratio (y) = 0.46542 -0.06127
# Poissons Ratio (z) = 0.58919 -0.17370
#
# Static dielectric constant tensor:
#      x y z
#    x 1.731370 0.000000 0.004320 
#    y 0.000000 1.672480 0.000000 
#    z 0.004320 0.000000 1.688160 
# 
# From -- ./inp_files/66930.got.cif
#   From: 2010.05.17/outbox.ucp.g08.bks.cvg/sg13_34_cif.got.tgz:66930.got - 2010.06.11 12:23:55.
