data_PCOD9238238
_publ_section_title
;
Structure prediction by ZEFSAII (Michael W. Deem and Ramdas Pophale) SiO2 
 PCOD9238238
Probable space group: P 2/C
;
_chemical_formula_sum "Si O2"
_cell_formula_units_Z 18
_cell_length_a 20.363113
_cell_length_b 6.029480
_cell_length_c 9.284534
_cell_angle_alpha 90.000000
_cell_angle_beta 143.679541
_cell_angle_gamma 90.000000
_cell_volume 675.190850
_symmetry_space_group_name_H-M "P 2/C"
_symmetry_group_IT_number 13
_symmetry_cell_setting 'monoclinic'
loop_
_space_group_symop_operation_xyz
x,y,z
-x,y,1/2-z
-x,-y,-z
x,-y,1/2+z
loop_
_atom_site_type_symbol
_atom_site_label
_atom_site_fract_x
_atom_site_fract_y
_atom_site_fract_z
Si Si1 0.875042 0.293464 0.492301
Si Si2 0.651840 0.487123 0.209177
Si Si3 0.870827 0.977263 0.734992
Si Si4 0.500000 0.831876 0.250000
Si Si5 0.661475 0.791999 0.989498
O O1 0.778484 0.439549 0.386632
O O2 0.849823 0.255735 0.278716
O O3 0.000000 0.372165 0.750000
O O4 0.863602 0.056191 0.557274
O O5 0.635088 0.422976 0.344934
O O6 0.572425 0.313096 0.987464
O O7 0.635871 0.726184 0.108993
O O8 0.785400 0.142154 0.663013
O O9 0.000000 0.000000 0.000000
O O10 0.413295 0.995739 0.175527
#
# Coordination Sequence:
#
# PCOD9238238 Si02
#       5
#     4   4   4   2   4
#     4   9  18  37  63  91 129 164 215 267 326 395
#     4  11  25  43  66 100 135 172 224 276 334 401
#     4   9  18  37  64  93 125 169 217 266 328 395
#     4  12  24  44  72  92 134 178 232 278 332 394
#     4  11  25  43  67 102 135 176 226 276 338 399
#
# _framework density 26.659130999999999
#
# number of rings (size 3 to 8) (size 9 to 14) (size 15 to 20)
#    0.000    1.778    2.222    1.333    0.000    7.111 
#    0.000   13.333    0.000    0.000    0.000    0.000 
#    0.000    0.000    0.000    0.000    0.000    0.000 
#
# Total GULP energy -100611.046367 kJ/mol
# GULP energy per Si atom -5589.502576 kJ/mol
# Density = 2.659845 g / cm^3
# Si number density = 26.659131 Si / 1000 Ang^3
#
#
#
# Elastic Constant Matrix: (Units=GPa)
#
#
# Indices 1 2 3 4 5 6 
#
# 1 99.2554 25.8098 57.5443 0.0000 15.8344 0.0000
# 2 25.8098 50.1763 58.3790 0.0000 15.2984 0.0000
# 3 57.5443 58.3790 107.9834 0.0000 9.3026 0.0000
# 4 0.0000 0.0000 0.0000 30.1020 0.0000 -1.1269
# 5 15.8344 15.2984 9.3026 0.0000 41.4309 0.0000
# 6 0.0000 0.0000 0.0000 -1.1269 0.0000 48.3592
#
#
#
# Elastic Compliance Matrix: (Units=1/GPa)
#
#
# Indices 1 2 3 4 5 6 
#
# 1 0.016225 0.008153 -0.012502 0.000000 -0.006404 0.000000
# 2 0.008153 0.066521 -0.038671 0.000000 -0.018996 0.000000
# 3 -0.012502 -0.038671 0.035882 0.000000 0.011001 0.000000
# 4 0.000000 0.000000 0.000000 0.033249 0.000000 0.000775
# 5 -0.006404 -0.018996 0.011001 0.000000 0.031128 0.000000
# 6 0.000000 0.000000 0.000000 0.000775 0.000000 0.020697
#
#
# Mechanical properties :
#
#
# Convention : Reuss Voigt Hill
#
# Bulk Modulus (GPa) = 30.68730 60.09793 45.39261
# Shear Modulus (GPa) = 16.63302 31.69057 24.16180
#
# Velocity S-wave (km/s) = 2.50054 3.45154 3.01379
# Velocity P-wave (km/s) = 4.45790 6.20292 5.40135
#
# Compressibility (1/GPa) = 0.03258677
#
# Stress axis : x y z
#
# Youngs Moduli (GPa) = 61.63335 15.03281 27.86885
#
# Poissons Ratio (x) = -0.12256 0.34842
# Poissons Ratio (y) = -0.50249 1.07773
# Poissons Ratio (z) = 0.77056 0.58134
#
# Static dielectric constant tensor:
#      x y z
#    x 2.085230 0.000000 -0.028020 
#    y 0.000000 2.049640 0.000000 
#    z -0.028020 0.000000 2.096180 
# 
# From -- ./inp_files/31310.got.cif
#   From: 2010.05.17/outbox.cif.g08.bks.cpg/sg13_16_cif.got.tgz:31310.got - 2010.06.03 16:44:36.
