data_PCOD9238660
_publ_section_title
;
Structure prediction by ZEFSAII (Michael W. Deem and Ramdas Pophale) SiO2 
 PCOD9238660
Probable space group: P 2/C
;
_chemical_formula_sum "Si O2"
_cell_formula_units_Z 20
_cell_length_a 7.704961
_cell_length_b 6.670160
_cell_length_c 17.030282
_cell_angle_alpha 90.000000
_cell_angle_beta 83.866436
_cell_angle_gamma 90.000000
_cell_volume 870.232471
_symmetry_space_group_name_H-M "P 2/C"
_symmetry_group_IT_number 13
_symmetry_cell_setting 'monoclinic'
loop_
_space_group_symop_operation_xyz
x,y,z
-x,y,1/2-z
-x,-y,-z
x,-y,1/2+z
loop_
_atom_site_type_symbol
_atom_site_label
_atom_site_fract_x
_atom_site_fract_y
_atom_site_fract_z
Si Si1 0.303702 0.464212 0.486363
Si Si2 0.786174 0.699379 0.674509
Si Si3 0.096670 0.159447 0.051554
Si Si4 0.500000 0.986874 0.250000
Si Si5 0.268957 0.157786 0.628298
Si Si6 0.000000 0.634809 0.250000
O O1 0.500000 0.500000 0.500000
O O2 0.306717 0.386990 0.397906
O O3 0.171320 0.650401 0.501513
O O4 0.255531 0.304097 0.554926
O O5 0.663053 0.867778 0.719303
O O6 0.962719 0.784922 0.626991
O O7 0.849591 0.515461 0.725434
O O8 0.257886 0.058839 0.088627
O O9 0.000000 0.000000 0.000000
O O10 0.568003 0.851730 0.319703
O O11 0.097066 0.220369 0.684729
#
# Coordination Sequence:
#
# PCOD9238660 Si02
#       6
#     4   4   4   2   4   2
#     4  12  28  46  76 107 148 192 250 307 362 442
#     4  12  26  49  74 109 144 196 246 305 371 444
#     4  12  24  48  77 106 141 191 252 304 365 438
#     4  12  30  44  76 110 156 192 246 312 376 440
#     4  12  27  49  72 109 145 197 243 304 373 440
#     4  12  26  46  78 102 154 194 244 304 378 440
#
# _framework density 22.982365000000001
#
# number of rings (size 3 to 8) (size 9 to 14) (size 15 to 20)
#    0.000    0.000    4.000    5.400    8.400    1.600 
#    0.000    0.000    0.000    0.000    0.000    0.000 
#    0.000    0.000    0.000    0.000    0.000    0.000 
#
# Total GULP energy -111830.540662 kJ/mol
# GULP energy per Si atom -5591.527033 kJ/mol
# Density = 2.293006 g / cm^3
# Si number density = 22.982365 Si / 1000 Ang^3
#
#
#
# Elastic Constant Matrix: (Units=GPa)
#
#
# Indices 1 2 3 4 5 6 
#
# 1 73.0897 19.4849 6.8289 0.0000 20.4782 0.0000
# 2 19.4849 74.3729 12.2239 0.0000 9.4427 0.0000
# 3 6.8289 12.2239 57.4498 0.0000 17.2174 0.0000
# 4 0.0000 0.0000 0.0000 51.0200 0.0000 30.7668
# 5 20.4782 9.4427 17.2174 0.0000 61.7853 0.0000
# 6 0.0000 0.0000 0.0000 30.7668 0.0000 68.7101
#
#
#
# Elastic Compliance Matrix: (Units=1/GPa)
#
#
# Indices 1 2 3 4 5 6 
#
# 1 0.015971 -0.003624 0.000320 0.000000 -0.004829 0.000000
# 2 -0.003624 0.014871 -0.002632 0.000000 -0.000338 0.000000
# 3 0.000320 -0.002632 0.019465 0.000000 -0.005128 0.000000
# 4 0.000000 0.000000 0.000000 0.026850 0.000000 -0.012023
# 5 -0.004829 -0.000338 -0.005128 0.000000 0.019266 0.000000
# 6 0.000000 0.000000 0.000000 -0.012023 0.000000 0.019938
#
#
# Mechanical properties :
#
#
# Convention : Reuss Voigt Hill
#
# Bulk Modulus (GPa) = 26.01793 31.33196 28.67494
# Shear Modulus (GPa) = 35.44977 47.39472 41.42225
#
# Velocity S-wave (km/s) = 3.93170 4.54610 4.25001
# Velocity P-wave (km/s) = 5.65300 6.42017 6.04876
#
# Compressibility (1/GPa) = 0.03843504
#
# Stress axis : x y z
#
# Youngs Moduli (GPa) = 62.61402 67.24650 51.37326
#
# Poissons Ratio (x) = 0.24368 -0.01643
# Poissons Ratio (y) = 0.22689 0.13522
# Poissons Ratio (z) = -0.02002 0.17699
#
# Static dielectric constant tensor:
#      x y z
#    x 1.803260 0.000000 0.034990 
#    y 0.000000 2.242410 0.000000 
#    z 0.034990 0.000000 1.675410 
# 
# From -- ./inp_files/62365.got.cif
#   From: 2010.05.17/outbox.cif.g08.bks.cpg/sg13_32_cif.got.tgz:62365.got - 2010.06.03 16:44:36.
