data_PCOD9238035
_publ_section_title
;
Structure prediction by ZEFSAII (Michael W. Deem and Ramdas Pophale) SiO2 
 PCOD9238035
Probable space group: P 2/C
;
_chemical_formula_sum "Si O2"
_cell_formula_units_Z 12
_cell_length_a 8.410105
_cell_length_b 13.514686
_cell_length_c 9.703998
_cell_angle_alpha 90.000000
_cell_angle_beta 30.926996
_cell_angle_gamma 90.000000
_cell_volume 566.859115
_symmetry_space_group_name_H-M "P 2/C"
_symmetry_group_IT_number 13
_symmetry_cell_setting 'monoclinic'
loop_
_space_group_symop_operation_xyz
x,y,z
-x,y,1/2-z
-x,-y,-z
x,-y,1/2+z
loop_
_atom_site_type_symbol
_atom_site_label
_atom_site_fract_x
_atom_site_fract_y
_atom_site_fract_z
Si Si1 0.304105 0.061326 0.257786
Si Si2 0.754968 0.292415 0.183361
Si Si3 0.596261 0.405369 0.835524
O O1 0.500000 0.059123 0.250000
O O2 0.195681 0.175850 0.329208
O O3 0.000000 0.000000 0.500000
O O4 0.500000 0.000000 0.000000
O O5 0.500000 0.304733 0.250000
O O6 0.612546 0.324354 0.434813
O O7 0.052797 0.361355 0.925521
O O8 0.500000 0.424327 0.750000
O O9 0.500000 0.500000 0.000000
#
# Coordination Sequence:
#
# PCOD9238035 Si02
#       3
#     4   4   4
#     4  11  24  42  67  99 136 176 220 272 332 396
#     4  11  25  45  68  97 135 177 221 275 334 395
#     4  12  26  45  68  98 132 173 223 279 335 397
#
# _framework density 21.169281000000002
#
# number of rings (size 3 to 8) (size 9 to 14) (size 15 to 20)
#    0.000    0.667    0.000    7.000    0.000   16.000 
#    0.000    0.000    0.000    0.000    0.000    0.000 
#    0.000    0.000    0.000    0.000    0.000    0.000 
#
# Total GULP energy -66969.483597 kJ/mol
# GULP energy per Si atom -5580.790300 kJ/mol
# Density = 2.112110 g / cm^3
# Si number density = 21.169281 Si / 1000 Ang^3
#
#
#
# Elastic Constant Matrix: (Units=GPa)
#
#
# Indices 1 2 3 4 5 6 
#
# 1 96.5811 94.1362 68.6209 0.0000 8.1968 0.0000
# 2 94.1362 168.7917 83.1120 0.0000 -8.7662 0.0000
# 3 68.6209 83.1120 200.8688 0.0000 -9.8434 0.0000
# 4 0.0000 0.0000 0.0000 44.7657 0.0000 -1.7005
# 5 8.1968 -8.7662 -9.8434 0.0000 51.4839 0.0000
# 6 0.0000 0.0000 0.0000 -1.7005 0.0000 35.3576
#
#
#
# Elastic Compliance Matrix: (Units=1/GPa)
#
#
# Indices 1 2 3 4 5 6 
#
# 1 0.026879 -0.013404 -0.003995 0.000000 -0.007326 0.000000
# 2 -0.013404 0.014148 -0.001062 0.000000 0.004340 0.000000
# 3 -0.003995 -0.001062 0.006870 0.000000 0.001769 0.000000
# 4 0.000000 0.000000 0.000000 0.022379 0.000000 0.001076
# 5 -0.007326 0.004340 0.001769 0.000000 0.021667 0.000000
# 6 0.000000 0.000000 0.000000 0.001076 0.000000 0.028334
#
#
# Mechanical properties :
#
#
# Convention : Reuss Voigt Hill
#
# Bulk Modulus (GPa) = 91.12667 106.44218 98.78443
# Shear Modulus (GPa) = 31.08336 41.01296 36.04816
#
# Velocity S-wave (km/s) = 3.83603 4.40634 4.13104
# Velocity P-wave (km/s) = 7.92214 8.73375 8.33783
#
# Compressibility (1/GPa) = 0.01097374
#
# Stress axis : x y z
#
# Youngs Moduli (GPa) = 37.20412 70.68017 145.57020
#
# Poissons Ratio (x) = 0.94737 0.58161
# Poissons Ratio (y) = 0.49867 0.15465
# Poissons Ratio (z) = 0.14865 0.07509
#
# Static dielectric constant tensor:
#      x y z
#    x 1.746290 0.000000 -0.000760 
#    y 0.000000 1.818610 0.000000 
#    z -0.000760 0.000000 1.697230 
# 
# From -- ./inp_files/10928.got.cif
#   From: 2010.05.17/outbox.cif.g08.bks.cpg/sg13_6_cif.got.tgz:10928.got - 2010.06.03 16:44:36.
