data_PCOD9238933
_publ_section_title
;
Structure prediction by ZEFSAII (Michael W. Deem and Ramdas Pophale) SiO2 
 PCOD9238933
Probable space group: P 2/C
;
_chemical_formula_sum "Si O2"
_cell_formula_units_Z 26
_cell_length_a 15.000000
_cell_length_b 15.000000
_cell_length_c 9.000000
_cell_angle_alpha 90.000000
_cell_angle_beta 40.000000
_cell_angle_gamma 90.000000
_cell_volume 1301.644910
_symmetry_space_group_name_H-M "P 2/C"
_symmetry_group_IT_number 13
_symmetry_cell_setting 'monoclinic'
loop_
_space_group_symop_operation_xyz
x,y,z
-x,y,1/2-z
-x,-y,-z
x,-y,1/2+z
loop_
_atom_site_type_symbol
_atom_site_label
_atom_site_fract_x
_atom_site_fract_y
_atom_site_fract_z
Si Si1 0.163708 0.983253 0.751588
Si Si2 0.541553 0.799842 0.363303
Si Si3 0.147949 0.798656 0.630745
Si Si4 0.500000 0.488703 0.250000
Si Si5 0.316803 0.108336 0.334164
Si Si6 0.141171 0.728008 0.979463
Si Si7 0.376847 0.385081 0.129396
O O1 0.154750 0.904761 0.642214
O O2 0.242621 0.945431 0.794773
O O3 0.263439 0.057692 0.549901
O O4 0.000000 0.000000 0.000000
O O5 0.500000 0.834248 0.250000
O O6 0.473029 0.866657 0.574908
O O7 0.459982 0.706409 0.488431
O O8 0.707155 0.779813 0.141780
O O9 0.141546 0.760916 0.807474
O O10 0.000000 0.773100 0.750000
O O11 0.444165 0.430251 0.186712
O O12 0.388847 0.553372 0.469643
O O13 0.240596 0.203329 0.438297
O O14 0.219395 0.635110 0.871431
O O15 0.000000 0.727045 0.250000
#
# Coordination Sequence:
#
# PCOD9238933 Si02
#       7
#     4   4   4   2   4   4   4
#     4  11  20  35  54  84 118 155 204 257 299 354
#     4  11  19  42  62  82 119 159 197 245 307 360
#     4  11  22  36  58  84 114 158 205 252 301 351
#     4  10  20  36  64  94 114 146 198 238 290 360
#     4  10  21  35  59  80 113 163 203 248 306 349
#     4  10  20  37  59  82 118 158 196 239 303 355
#     4  10  20  38  64  89 118 154 191 241 291 362
#
# _framework density 19.974726
#
# number of rings (size 3 to 8) (size 9 to 14) (size 15 to 20)
#    0.000    1.538    5.385    3.231    0.000    1.846 
#    0.000    2.308    0.000    3.692    0.000    0.000 
#    0.000    0.000    0.000    0.000    0.000    0.000 
#
# Total GULP energy -144885.883673 kJ/mol
# GULP energy per Si atom -5572.533987 kJ/mol
# Density = 1.992926 g / cm^3
# Si number density = 19.974726 Si / 1000 Ang^3
#
#
#
# Elastic Constant Matrix: (Units=GPa)
#
#
# Indices 1 2 3 4 5 6 
#
# 1 29.6470 1.5966 21.5103 0.0000 -16.7394 0.0000
# 2 1.5966 46.1670 37.4170 0.0000 1.6226 0.0000
# 3 21.5103 37.4170 194.4267 0.0000 -25.7680 0.0000
# 4 0.0000 0.0000 0.0000 27.3586 0.0000 0.2565
# 5 -16.7394 1.6226 -25.7680 0.0000 33.5211 0.0000
# 6 0.0000 0.0000 0.0000 0.2565 0.0000 12.1584
#
#
#
# Elastic Compliance Matrix: (Units=1/GPa)
#
#
# Indices 1 2 3 4 5 6 
#
# 1 0.047953 -0.000630 -0.002234 0.000000 0.022260 0.000000
# 2 -0.000630 0.026656 -0.005871 0.000000 -0.006118 0.000000
# 3 -0.002234 -0.005871 0.007137 0.000000 0.004655 0.000000
# 4 0.000000 0.000000 0.000000 0.036559 0.000000 -0.000771
# 5 0.022260 -0.006118 0.004655 0.000000 0.044822 0.000000
# 6 0.000000 0.000000 0.000000 -0.000771 0.000000 0.082264
#
#
# Mechanical properties :
#
#
# Convention : Reuss Voigt Hill
#
# Bulk Modulus (GPa) = 15.55788 43.47650 29.51719
# Shear Modulus (GPa) = 17.58787 28.58873 23.08830
#
# Velocity S-wave (km/s) = 2.97055 3.78728 3.40351
# Velocity P-wave (km/s) = 4.42394 6.39826 5.50041
#
# Compressibility (1/GPa) = 0.06427613
#
# Stress axis : x y z
#
# Youngs Moduli (GPa) = 20.85360 37.51568 140.10949
#
# Poissons Ratio (x) = 0.02364 0.31299
# Poissons Ratio (y) = 0.01314 0.82257
# Poissons Ratio (z) = 0.04658 0.22025
#
# Static dielectric constant tensor:
#      x y z
#    x 1.755170 0.000000 0.001940 
#    y 0.000000 1.759770 0.000000 
#    z 0.001940 0.000000 1.744240 
# 
# From -- ./inp_files/16593.got.cif
#   From: 2010.05.17/outbox.ucp.g08.bks.cvg/sg13_9_cif.got.tgz:16593.got - 2010.06.11 12:23:55.
