data_PCOD9238869
_publ_section_title
;
Structure prediction by ZEFSAII (Michael W. Deem and Ramdas Pophale) SiO2 
 PCOD9238869
Probable space group: P 2/C
;
_chemical_formula_sum "Si O2"
_cell_formula_units_Z 32
_cell_length_a 9.000000
_cell_length_b 15.000000
_cell_length_c 24.000000
_cell_angle_alpha 90.000000
_cell_angle_beta 30.000000
_cell_angle_gamma 90.000000
_cell_volume 1620.000000
_symmetry_space_group_name_H-M "P 2/C"
_symmetry_group_IT_number 13
_symmetry_cell_setting 'monoclinic'
loop_
_space_group_symop_operation_xyz
x,y,z
-x,y,1/2-z
-x,-y,-z
x,-y,1/2+z
loop_
_atom_site_type_symbol
_atom_site_label
_atom_site_fract_x
_atom_site_fract_y
_atom_site_fract_z
Si Si1 0.664903 0.340731 0.464282
Si Si2 0.786076 0.318822 0.692068
Si Si3 0.191286 0.743456 0.746081
Si Si4 0.210946 0.875681 0.257655
Si Si5 0.032768 0.939294 0.808110
Si Si6 0.320190 0.553239 0.170309
Si Si7 0.377142 0.619515 0.942065
Si Si8 0.525004 0.140619 0.946320
O O1 0.527811 0.398652 0.557473
O O2 0.560845 0.383990 0.440432
O O3 0.534993 0.240939 0.513234
O O4 0.014199 0.321127 0.345618
O O5 0.500000 0.339348 0.750000
O O6 0.784155 0.212407 0.705636
O O7 0.767562 0.373215 0.755554
O O8 0.053376 0.358249 0.568899
O O9 0.507026 0.703664 0.629762
O O10 0.000000 0.742816 0.750000
O O11 0.195635 0.844904 0.763132
O O12 0.446422 0.862536 0.130386
O O13 0.863441 0.879528 0.352435
O O14 0.226212 0.979405 0.270218
O O15 0.000000 0.950390 0.750000
O O16 0.719237 0.921201 0.942948
O O17 0.519761 0.468986 0.123615
O O18 0.000000 0.523235 0.250000
#
# Coordination Sequence:
#
# PCOD9238869 Si02
#       8
#     4   4   4   4   4   4   4   4
#     4  10  17  33  56  93 125 143 185 255 301 357
#     4  12  28  44  59  85 123 165 207 249 300 359
#     4   8  18  31  50  92 128 153 183 241 316 354
#     4  11  20  34  57  81 119 159 203 241 295 349
#     4  10  19  28  54  95 131 151 186 247 313 357
#     4  12  22  37  67  95 115 153 202 252 309 359
#     4  11  22  36  63  87 125 155 195 249 303 356
#     4  10  18  31  54  93 122 153 190 249 303 352
#
# _framework density 19.753086
#
# number of rings (size 3 to 8) (size 9 to 14) (size 15 to 20)
#    0.000    1.500    5.000    2.625    1.750    0.500 
#    0.000    0.000    0.000    3.000    0.000    0.000 
#    0.000    0.000    0.000    0.000    0.000    0.000 
#
# Total GULP energy -178170.437159 kJ/mol
# GULP energy per Si atom -5567.826161 kJ/mol
# Density = 1.970813 g / cm^3
# Si number density = 19.753086 Si / 1000 Ang^3
#
#
#
# Elastic Constant Matrix: (Units=GPa)
#
#
# Indices 1 2 3 4 5 6 
#
# 1 6.1900 2.3810 17.1705 0.0000 -10.0928 0.0000
# 2 2.3810 103.7117 56.6513 0.0000 -9.9691 0.0000
# 3 17.1705 56.6513 130.0861 0.0000 13.3725 0.0000
# 4 0.0000 0.0000 0.0000 37.8835 0.0000 3.6425
# 5 -10.0928 -9.9691 13.3725 0.0000 3.7599 0.0000
# 6 0.0000 0.0000 0.0000 3.6425 0.0000 -6.3302
#
#
#
# Elastic Compliance Matrix: (Units=1/GPa)
#
#
# Indices 1 2 3 4 5 6 
#
# 1 0.004569 -0.014968 0.013768 0.000000 -0.076387 0.000000
# 2 -0.014968 0.009851 -0.001370 0.000000 -0.009187 0.000000
# 3 0.013768 -0.001370 0.004794 0.000000 0.016276 0.000000
# 4 0.000000 0.000000 0.000000 0.025013 0.000000 0.014393
# 5 -0.076387 -0.009187 0.016276 0.000000 -0.021327 0.000000
# 6 0.000000 0.000000 0.000000 0.014393 0.000000 -0.149691
#
#
# Mechanical properties :
#
#
# Convention : Reuss Voigt Hill
#
# Bulk Modulus (GPa) = 71.05559 43.59927 57.32743
# Shear Modulus (GPa) = -42.74985 17.98163 -12.38411
#
# Velocity S-wave (km/s) = -4.65716 3.02042 -2.50660
# Velocity P-wave (km/s) = 2.67043 5.85525 4.55056
#
# Compressibility (1/GPa) = 0.01407349
#
# Stress axis : x y z
#
# Youngs Moduli (GPa) = 218.84306 101.51202 208.61451
#
# Poissons Ratio (x) = 1.51942 -2.87212
# Poissons Ratio (y) = 3.27562 0.28581
# Poissons Ratio (z) = -3.01295 0.13907
#
# Static dielectric constant tensor:
#      x y z
#    x 1.683810 0.000000 0.010210 
#    y 0.000000 1.801960 0.000000 
#    z 0.010210 0.000000 1.695880 
# 
# From -- ./inp_files/30395.got.cif
#   From: 2010.05.17/outbox.ucp.g08.bks.cvg/sg13_16_cif.got.tgz:30395.got - 2010.06.11 12:23:55.
