data_PCOD9238217
_publ_section_title
;
Structure prediction by ZEFSAII (Michael W. Deem and Ramdas Pophale) SiO2 
 PCOD9238217
Probable space group: P 2/C
;
_chemical_formula_sum "Si O2"
_cell_formula_units_Z 18
_cell_length_a 12.500451
_cell_length_b 7.152287
_cell_length_c 15.715811
_cell_angle_alpha 90.000000
_cell_angle_beta 27.349372
_cell_angle_gamma 90.000000
_cell_volume 645.524435
_symmetry_space_group_name_H-M "P 2/C"
_symmetry_group_IT_number 13
_symmetry_cell_setting 'monoclinic'
loop_
_space_group_symop_operation_xyz
x,y,z
-x,y,1/2-z
-x,-y,-z
x,-y,1/2+z
loop_
_atom_site_type_symbol
_atom_site_label
_atom_site_fract_x
_atom_site_fract_y
_atom_site_fract_z
Si Si1 0.450892 0.275517 0.038458
Si Si2 0.000000 0.308493 0.250000
Si Si3 0.950710 0.903453 0.182105
Si Si4 0.282300 0.353164 0.340384
Si Si5 0.767620 0.273590 0.569767
O O1 0.242498 0.226328 0.119614
O O2 0.356704 0.252558 0.200989
O O3 0.500000 0.500000 0.000000
O O4 0.679851 0.151503 0.862071
O O5 0.877909 0.403061 0.416026
O O6 0.000000 0.891525 0.250000
O O7 0.086677 0.755884 0.028657
O O8 0.076442 0.091305 0.055068
O O9 0.500000 0.356246 0.250000
O O10 0.230916 0.572573 0.357783
O O11 0.500000 0.215573 0.750000
#
# Coordination Sequence:
#
# PCOD9238217 Si02
#       5
#     4   2   4   4   4
#     4  12  28  50  85 120 169 223 277 348 418 506
#     4  12  28  52  74 118 172 222 276 338 426 498
#     4  12  26  49  85 122 167 219 282 345 422 501
#     4  11  24  48  84 125 168 219 278 347 424 500
#     4  11  26  48  82 122 171 212 281 347 417 503
#
# _framework density 27.884304
#
# number of rings (size 3 to 8) (size 9 to 14) (size 15 to 20)
#    0.000    0.444    3.333    4.667    3.111    6.222 
#    0.000    7.778    0.000    0.000    0.000    0.000 
#    0.000    0.000    0.000    0.000    0.000    0.000 
#
# Total GULP energy -100588.402724 kJ/mol
# GULP energy per Si atom -5588.244596 kJ/mol
# Density = 2.782084 g / cm^3
# Si number density = 27.884304 Si / 1000 Ang^3
#
#
#
# Elastic Constant Matrix: (Units=GPa)
#
#
# Indices 1 2 3 4 5 6 
#
# 1 133.5142 47.3152 90.1531 0.0000 -15.9133 0.0000
# 2 47.3152 172.9054 128.3677 0.0000 -4.9629 0.0000
# 3 90.1531 128.3677 297.6376 0.0000 -15.7654 0.0000
# 4 0.0000 0.0000 0.0000 115.8135 0.0000 -67.4063
# 5 -15.9133 -4.9629 -15.7654 0.0000 67.0150 0.0000
# 6 0.0000 0.0000 0.0000 -67.4063 0.0000 121.2781
#
#
#
# Elastic Compliance Matrix: (Units=1/GPa)
#
#
# Indices 1 2 3 4 5 6 
#
# 1 0.009645 -0.000718 -0.002525 0.000000 0.001643 0.000000
# 2 -0.000718 0.008565 -0.003495 0.000000 -0.000358 0.000000
# 3 -0.002525 -0.003495 0.005657 0.000000 0.000472 0.000000
# 4 0.000000 0.000000 0.000000 0.012763 0.000000 0.007094
# 5 0.001643 -0.000358 0.000472 0.000000 0.015397 0.000000
# 6 0.000000 0.000000 0.000000 0.007094 0.000000 0.012188
#
#
# Mechanical properties :
#
#
# Convention : Reuss Voigt Hill
#
# Bulk Modulus (GPa) = 96.23927 126.19214 111.21570
# Shear Modulus (GPa) = 61.61078 83.36942 72.49010
#
# Velocity S-wave (km/s) = 4.70565 5.47387 5.10423
# Velocity P-wave (km/s) = 8.00705 9.23606 8.64343
#
# Compressibility (1/GPa) = 0.01039077
#
# Stress axis : x y z
#
# Youngs Moduli (GPa) = 103.68221 116.75843 176.76814
#
# Poissons Ratio (x) = 0.08379 0.44631
# Poissons Ratio (y) = 0.07441 0.61789
# Poissons Ratio (z) = 0.26178 0.40812
#
# Static dielectric constant tensor:
#      x y z
#    x 2.323850 0.000000 -0.003270 
#    y 0.000000 2.347030 0.000000 
#    z -0.003270 0.000000 2.164460 
# 
# From -- ./inp_files/27803.got.cif
#   From: 2010.05.17/outbox.cif.g08.bks.cpg/sg13_14_cif.got.tgz:27803.got - 2010.06.03 16:44:36.
