data_PCOD9238437
_publ_section_title
;
Structure prediction by ZEFSAII (Michael W. Deem and Ramdas Pophale) SiO2 
 PCOD9238437
Probable space group: P 2/C
;
_chemical_formula_sum "Si O2"
_cell_formula_units_Z 18
_cell_length_a 5.167785
_cell_length_b 18.260151
_cell_length_c 8.933865
_cell_angle_alpha 90.000000
_cell_angle_beta 112.466199
_cell_angle_gamma 90.000000
_cell_volume 779.057601
_symmetry_space_group_name_H-M "P 2/C"
_symmetry_group_IT_number 13
_symmetry_cell_setting 'monoclinic'
loop_
_space_group_symop_operation_xyz
x,y,z
-x,y,1/2-z
-x,-y,-z
x,-y,1/2+z
loop_
_atom_site_type_symbol
_atom_site_label
_atom_site_fract_x
_atom_site_fract_y
_atom_site_fract_z
Si Si1 0.500000 0.256642 0.250000
Si Si2 0.734582 0.840129 0.539879
Si Si3 0.500000 0.075668 0.750000
Si Si4 0.009321 0.292330 0.932460
Si Si5 0.000000 0.025252 0.250000
Si Si6 0.817935 0.445418 0.859679
O O1 0.330991 0.202479 0.322599
O O2 0.698995 0.301219 0.409431
O O3 0.477183 0.868820 0.385784
O O4 0.881584 0.917013 0.604051
O O5 0.894657 0.782998 0.472258
O O6 0.760820 0.022442 0.774960
O O7 0.000000 0.286997 0.750000
O O8 0.820744 0.363436 0.929347
O O9 0.500000 0.467709 0.750000
O O10 0.000000 0.439656 0.750000
O O11 0.000000 0.500000 0.000000
#
# Coordination Sequence:
#
# PCOD9238437 Si02
#       6
#     2   4   2   4   2   4
#     4  12  25  46  76 109 150 198 260 322 385 458
#     4  12  26  47  71 105 145 194 260 315 386 467
#     4  12  29  44  76  95 150 194 250 328 397 448
#     4  11  27  47  79 111 154 201 258 314 385 459
#     4  12  26  48  68 106 140 198 250 322 394 468
#     4  11  27  50  81 119 162 205 257 312 386 463
#
# _framework density 23.104837
#
# number of rings (size 3 to 8) (size 9 to 14) (size 15 to 20)
#    0.000    0.444    2.222    4.000   14.000    1.778 
#    0.000    0.000    0.000    0.000    0.000    0.000 
#    0.000    0.000    0.000    0.000    0.000    0.000 
#
# Total GULP energy -100492.411148 kJ/mol
# GULP energy per Si atom -5582.911730 kJ/mol
# Density = 2.305225 g / cm^3
# Si number density = 23.104837 Si / 1000 Ang^3
#
#
#
# Elastic Constant Matrix: (Units=GPa)
#
#
# Indices 1 2 3 4 5 6 
#
# 1 107.7944 19.3070 50.1589 0.0000 5.8800 0.0000
# 2 19.3070 58.5898 74.7314 0.0000 0.8148 0.0000
# 3 50.1589 74.7314 165.5875 0.0000 5.8654 0.0000
# 4 0.0000 0.0000 0.0000 281.7697 0.0000 -63.7858
# 5 5.8800 0.8148 5.8654 0.0000 41.0322 0.0000
# 6 0.0000 0.0000 0.0000 -63.7858 0.0000 66.1756
#
#
#
# Elastic Compliance Matrix: (Units=1/GPa)
#
#
# Indices 1 2 3 4 5 6 
#
# 1 0.010895 0.001383 -0.003888 0.000000 -0.001033 0.000000
# 2 0.001383 0.040530 -0.018770 0.000000 0.001680 0.000000
# 3 -0.003888 -0.018770 0.015735 0.000000 -0.001319 0.000000
# 4 0.000000 0.000000 0.000000 0.004540 0.000000 0.004376
# 5 -0.001033 0.001680 -0.001319 0.000000 0.024674 0.000000
# 6 0.000000 0.000000 0.000000 0.004376 0.000000 0.019329
#
#
# Mechanical properties :
#
#
# Convention : Reuss Voigt Hill
#
# Bulk Modulus (GPa) = 40.63431 68.92960 54.78195
# Shear Modulus (GPa) = 30.03824 90.31380 60.17602
#
# Velocity S-wave (km/s) = 3.60958 6.25888 5.10894
# Velocity P-wave (km/s) = 5.91584 9.06254 7.65267
#
# Compressibility (1/GPa) = 0.02460975
#
# Stress axis : x y z
#
# Youngs Moduli (GPa) = 91.78874 24.67313 63.55414
#
# Poissons Ratio (x) = -0.03413 0.24708
# Poissons Ratio (y) = -0.12696 1.19291
# Poissons Ratio (z) = 0.35685 0.46312
#
# Static dielectric constant tensor:
#      x y z
#    x 1.905120 0.000000 0.203680 
#    y 0.000000 1.831430 0.000000 
#    z 0.203680 0.000000 2.136130 
# 
# From -- ./inp_files/9682.got.cif
#   From: 2010.05.17/outbox.cif.g08.bks.cpg/sg13_5_cif.got.tgz:9682.got - 2010.06.03 16:44:36.
