data_PCOD9238618
_publ_section_title
;
Structure prediction by ZEFSAII (Michael W. Deem and Ramdas Pophale) SiO2 
 PCOD9238618
Probable space group: P 2/C
;
_chemical_formula_sum "Si O2"
_cell_formula_units_Z 18
_cell_length_a 11.728826
_cell_length_b 6.222846
_cell_length_c 9.890084
_cell_angle_alpha 90.000000
_cell_angle_beta 91.628207
_cell_angle_gamma 90.000000
_cell_volume 721.552930
_symmetry_space_group_name_H-M "P 2/C"
_symmetry_group_IT_number 13
_symmetry_cell_setting 'monoclinic'
loop_
_space_group_symop_operation_xyz
x,y,z
-x,y,1/2-z
-x,-y,-z
x,-y,1/2+z
loop_
_atom_site_type_symbol
_atom_site_label
_atom_site_fract_x
_atom_site_fract_y
_atom_site_fract_z
Si Si1 0.500000 0.738251 0.250000
Si Si2 0.323084 0.957221 0.775336
Si Si3 0.812389 0.408045 0.081395
Si Si4 0.608884 0.597703 0.922549
Si Si5 0.114182 0.738464 0.193429
O O1 0.400852 0.583070 0.194264
O O2 0.576627 0.894564 0.159245
O O3 0.266448 0.789757 0.874642
O O4 0.382871 0.819635 0.657694
O O5 0.220020 0.100493 0.714925
O O6 0.866144 0.527882 0.211337
O O7 0.724803 0.571791 0.007585
O O8 0.894171 0.327434 0.963907
O O9 0.500000 0.500000 0.000000
O O10 0.000000 0.842659 0.250000
#
# Coordination Sequence:
#
# PCOD9238618 Si02
#       5
#     2   4   4   4   4
#     4  12  24  44  70 116 150 198 250 312 382 454
#     4  12  26  46  76 116 149 206 256 312 380 467
#     4  12  26  51  77 112 159 196 258 322 380 454
#     4  12  25  44  74 112 157 200 249 317 385 452
#     4  12  29  51  81 113 153 205 260 322 383 452
#
# _framework density 24.946193000000001
#
# number of rings (size 3 to 8) (size 9 to 14) (size 15 to 20)
#    0.000    0.000    4.444    5.333    6.222    3.556 
#    0.000    0.000    0.000    0.000    0.000    0.000 
#    0.000    0.000    0.000    0.000    0.000    0.000 
#
# Total GULP energy -100626.572459 kJ/mol
# GULP energy per Si atom -5590.365137 kJ/mol
# Density = 2.488941 g / cm^3
# Si number density = 24.946193 Si / 1000 Ang^3
#
#
#
# Elastic Constant Matrix: (Units=GPa)
#
#
# Indices 1 2 3 4 5 6 
#
# 1 97.9076 40.8007 10.5896 0.0000 -25.4437 0.0000
# 2 40.8007 96.5839 26.3888 0.0000 -14.2018 0.0000
# 3 10.5896 26.3888 112.0179 0.0000 -27.5464 0.0000
# 4 0.0000 0.0000 0.0000 -2.9841 0.0000 -24.9052
# 5 -25.4437 -14.2018 -27.5464 0.0000 43.1933 0.0000
# 6 0.0000 0.0000 0.0000 -24.9052 0.0000 23.9653
#
#
#
# Elastic Compliance Matrix: (Units=1/GPa)
#
#
# Indices 1 2 3 4 5 6 
#
# 1 0.014294 -0.005392 0.001842 0.000000 0.007822 0.000000
# 2 -0.005392 0.013303 -0.002763 0.000000 -0.000564 0.000000
# 3 0.001842 -0.002763 0.011205 0.000000 0.007323 0.000000
# 4 0.000000 0.000000 0.000000 -0.034643 0.000000 -0.036001
# 5 0.007822 -0.000564 0.007323 0.000000 0.032244 0.000000
# 6 0.000000 0.000000 0.000000 -0.036001 0.000000 0.004314
#
#
# Mechanical properties :
#
#
# Convention : Reuss Voigt Hill
#
# Bulk Modulus (GPa) = 38.20018 51.34083 44.77051
# Shear Modulus (GPa) = 80.55803 28.08358 54.32080
#
# Velocity S-wave (km/s) = 5.68883 3.35888 4.67145
# Velocity P-wave (km/s) = 7.64831 5.97228 6.86166
#
# Compressibility (1/GPa) = 0.02617788
#
# Stress axis : x y z
#
# Youngs Moduli (GPa) = 69.95892 75.16955 89.24952
#
# Poissons Ratio (x) = 0.40528 -0.16444
# Poissons Ratio (y) = 0.37719 0.24659
# Poissons Ratio (z) = -0.12890 0.20769
#
# Static dielectric constant tensor:
#      x y z
#    x 1.977530 0.000000 -0.043620 
#    y 0.000000 1.968040 0.000000 
#    z -0.043620 0.000000 2.183630 
# 
# From -- ./inp_files/31274.got.cif
#   From: 2010.05.17/outbox.cif.g08.bks.cpg/sg13_16_cif.got.tgz:31274.got - 2010.06.03 16:44:36.
