data_PCOD9238815
_publ_section_title
;
Structure prediction by ZEFSAII (Michael W. Deem and Ramdas Pophale) SiO2 
 PCOD9238815
Probable space group: P 2/C
;
_chemical_formula_sum "Si O2"
_cell_formula_units_Z 20
_cell_length_a 7.211202
_cell_length_b 8.958550
_cell_length_c 18.489870
_cell_angle_alpha 90.000000
_cell_angle_beta 42.268247
_cell_angle_gamma 90.000000
_cell_volume 803.410910
_symmetry_space_group_name_H-M "P 2/C"
_symmetry_group_IT_number 13
_symmetry_cell_setting 'monoclinic'
loop_
_space_group_symop_operation_xyz
x,y,z
-x,y,1/2-z
-x,-y,-z
x,-y,1/2+z
loop_
_atom_site_type_symbol
_atom_site_label
_atom_site_fract_x
_atom_site_fract_y
_atom_site_fract_z
Si Si1 0.453665 0.636430 0.133488
Si Si2 0.598728 0.696111 0.586475
Si Si3 0.772302 0.961462 0.632197
Si Si4 0.001486 0.591976 0.360314
Si Si5 0.144382 0.253370 0.093324
O O1 0.567634 0.474103 0.120572
O O2 0.241090 0.605999 0.129045
O O3 0.265417 0.675465 0.254430
O O4 0.675568 0.740381 0.032546
O O5 0.624442 0.818620 0.638698
O O6 0.886220 0.681122 0.460861
O O7 0.350275 0.735459 0.602363
O O8 0.500000 0.038780 0.750000
O O9 0.967020 0.895394 0.639857
O O10 0.000000 0.000000 0.500000
O O11 0.021899 0.411782 0.361380
#
# Coordination Sequence:
#
# PCOD9238815 Si02
#       5
#     4   4   4   4   4
#     4   8  14  28  56  93 124 148 180 226 285 354
#     4   9  19  37  60  86 118 153 187 231 290 350
#     4  12  28  45  60  82 112 153 207 252 285 332
#     4   8  14  28  56  93 124 148 180 226 285 354
#     4   9  19  37  60  86 118 153 187 231 290 350
#
# _framework density 24.893861999999999
#
# number of rings (size 3 to 8) (size 9 to 14) (size 15 to 20)
#    0.000    2.800    0.000    3.600    0.000    8.000 
#    0.000    2.000    0.000    0.000    0.000    0.000 
#    0.000    0.000    0.000    0.000    0.000    0.000 
#
# Total GULP energy -111441.596997 kJ/mol
# GULP energy per Si atom -5572.079850 kJ/mol
# Density = 2.483720 g / cm^3
# Si number density = 24.893862 Si / 1000 Ang^3
#
#
#
# Elastic Constant Matrix: (Units=GPa)
#
#
# Indices 1 2 3 4 5 6 
#
# 1 80.2525 23.0093 -15.2936 0.0000 -0.7375 0.0000
# 2 23.0093 48.4165 11.9992 0.0000 -4.3402 0.0000
# 3 -15.2936 11.9992 148.7643 0.0000 -19.1014 0.0000
# 4 0.0000 0.0000 0.0000 -2.7124 0.0000 0.9541
# 5 -0.7375 -4.3402 -19.1014 0.0000 19.1699 0.0000
# 6 0.0000 0.0000 0.0000 0.9541 0.0000 32.8026
#
#
#
# Elastic Compliance Matrix: (Units=1/GPa)
#
#
# Indices 1 2 3 4 5 6 
#
# 1 0.015107 -0.007650 0.002319 0.000000 0.001160 0.000000
# 2 -0.007650 0.025160 -0.002434 0.000000 0.002977 0.000000
# 3 0.002319 -0.002434 0.008139 0.000000 0.007648 0.000000
# 4 0.000000 0.000000 0.000000 -0.364946 0.000000 0.010615
# 5 0.001160 0.002977 0.007648 0.000000 0.060504 0.000000
# 6 0.000000 0.000000 0.000000 0.010615 0.000000 0.030177
#
#
# Mechanical properties :
#
#
# Convention : Reuss Voigt Hill
#
# Bulk Modulus (GPa) = 30.41736 35.20700 32.81218
# Shear Modulus (GPa) = -25.07865 27.03325 0.97730
#
# Velocity S-wave (km/s) = -3.17744 3.29894 0.62725
# Velocity P-wave (km/s) = 1.10278 5.35576 3.70595
#
# Compressibility (1/GPa) = 0.03287597
#
# Stress axis : x y z
#
# Youngs Moduli (GPa) = 66.19633 39.74616 122.86956
#
# Poissons Ratio (x) = 0.30406 -0.28493
# Poissons Ratio (y) = 0.50640 0.29901
# Poissons Ratio (z) = -0.15351 0.09672
#
# Static dielectric constant tensor:
#      x y z
#    x 2.006740 0.000000 -0.079920 
#    y 0.000000 1.926680 0.000000 
#    z -0.079920 0.000000 2.169090 
# 
# From -- ./inp_files/75520.got.cif
#   From: 2010.05.17/outbox.cif.g08.bks.cpg/sg13_38_cif.got.tgz:75520.got - 2010.06.03 16:44:36.
