data_PCOD9238137
_publ_section_title
;
Structure prediction by ZEFSAII (Michael W. Deem and Ramdas Pophale) SiO2 
 PCOD9238137
Probable space group: P 2/C
;
_chemical_formula_sum "Si O2"
_cell_formula_units_Z 28
_cell_length_a 13.840268
_cell_length_b 5.413522
_cell_length_c 18.785771
_cell_angle_alpha 90.000000
_cell_angle_beta 56.530721
_cell_angle_gamma 90.000000
_cell_volume 1174.124249
_symmetry_space_group_name_H-M "P 2/C"
_symmetry_group_IT_number 13
_symmetry_cell_setting 'monoclinic'
loop_
_space_group_symop_operation_xyz
x,y,z
-x,y,1/2-z
-x,-y,-z
x,-y,1/2+z
loop_
_atom_site_type_symbol
_atom_site_label
_atom_site_fract_x
_atom_site_fract_y
_atom_site_fract_z
Si Si1 0.794882 0.773720 0.428934
Si Si2 0.500000 0.555075 0.750000
Si Si3 0.615547 0.147761 0.465502
Si Si4 0.869955 0.066094 0.538173
Si Si5 0.000000 0.755935 0.250000
Si Si6 0.199745 0.053264 0.770933
Si Si7 0.313266 0.395997 0.931803
Si Si8 0.336644 0.568262 0.688323
O O1 0.698540 0.605661 0.504584
O O2 0.895716 0.642101 0.341332
O O3 0.730220 0.978414 0.407535
O O4 0.843481 0.904945 0.479409
O O5 0.389356 0.430633 0.831870
O O6 0.436134 0.652978 0.704429
O O7 0.623208 0.192412 0.546804
O O8 0.618663 0.377484 0.409649
O O9 0.500000 0.000000 0.500000
O O10 0.810158 0.033876 0.639013
O O11 0.818563 0.330218 0.535188
O O12 0.000000 0.000000 0.500000
O O13 0.078484 0.893113 0.278476
O O14 0.286010 0.291124 0.720883
O O15 0.238846 0.775688 0.736949
#
# Coordination Sequence:
#
# PCOD9238137 Si02
#       8
#     4   2   4   4   2   4   4   4
#     4  11  24  47  72 112 150 205 266 320 400 477
#     4  12  26  48  80 110 156 216 264 338 396 484
#     4  11  26  45  76 107 154 202 260 333 395 473
#     4  11  24  45  73 108 155 202 260 331 396 471
#     4  12  24  46  78 110 162 212 264 336 394 484
#     4  12  27  49  75 117 156 207 268 325 402 476
#     4  11  26  47  74 112 154 205 272 322 402 479
#     4  12  28  49  77 115 159 205 267 329 398 482
#
# _framework density 23.847562
#
# number of rings (size 3 to 8) (size 9 to 14) (size 15 to 20)
#    0.000    0.571    4.286    2.571    2.000    5.143 
#    0.000    0.000    0.000    0.000    0.000    0.000 
#    0.000    0.000    0.000    0.000    0.000    0.000 
#
# Total GULP energy -155902.934668 kJ/mol
# GULP energy per Si atom -5567.961952 kJ/mol
# Density = 2.379328 g / cm^3
# Si number density = 23.847562 Si / 1000 Ang^3
#
#
#
# Elastic Constant Matrix: (Units=GPa)
#
#
# Indices 1 2 3 4 5 6 
#
# 1 140.6203 13.7699 16.1633 0.0000 9.9049 0.0000
# 2 13.7699 52.9789 38.2164 0.0000 -5.0538 0.0000
# 3 16.1633 38.2164 159.7539 0.0000 3.1502 0.0000
# 4 0.0000 0.0000 0.0000 17.7281 0.0000 -0.6904
# 5 9.9049 -5.0538 3.1502 0.0000 38.5616 0.0000
# 6 0.0000 0.0000 0.0000 -0.6904 0.0000 14.2042
#
#
#
# Elastic Compliance Matrix: (Units=1/GPa)
#
#
# Indices 1 2 3 4 5 6 
#
# 1 0.007485 -0.001977 -0.000242 0.000000 -0.002162 0.000000
# 2 -0.001977 0.023799 -0.005574 0.000000 0.004082 0.000000
# 3 -0.000242 -0.005574 0.007643 0.000000 -0.001293 0.000000
# 4 0.000000 0.000000 0.000000 0.056515 0.000000 0.002747
# 5 -0.002162 0.004082 -0.001293 0.000000 0.027129 0.000000
# 6 0.000000 0.000000 0.000000 0.002747 0.000000 0.070535
#
#
# Mechanical properties :
#
#
# Convention : Reuss Voigt Hill
#
# Bulk Modulus (GPa) = 42.84155 54.40582 48.62368
# Shear Modulus (GPa) = 23.09766 33.11233 28.10499
#
# Velocity S-wave (km/s) = 3.11554 3.73030 3.43669
# Velocity P-wave (km/s) = 5.56290 6.43561 6.01510
#
# Compressibility (1/GPa) = 0.02334183
#
# Stress axis : x y z
#
# Youngs Moduli (GPa) = 133.59978 42.01781 130.83996
#
# Poissons Ratio (x) = 0.08309 0.03162
# Poissons Ratio (y) = 0.26418 0.72927
# Poissons Ratio (z) = 0.03228 0.23420
#
# Static dielectric constant tensor:
#      x y z
#    x 1.424360 0.000000 0.193910 
#    y 0.000000 1.775790 0.000000 
#    z 0.193910 0.000000 1.837590 
# 
# From -- ./inp_files/67296.got.cif
#   From: 2010.05.17/outbox.cif.g08.bks.cpg/sg13_34_cif.got.tgz:67296.got - 2010.06.03 16:44:36.
