data_PCOD9238264
_publ_section_title
;
Structure prediction by ZEFSAII (Michael W. Deem and Ramdas Pophale) SiO2 
 PCOD9238264
Probable space group: P 2/C
;
_chemical_formula_sum "Si O2"
_cell_formula_units_Z 18
_cell_length_a 6.029469
_cell_length_b 6.124146
_cell_length_c 22.086737
_cell_angle_alpha 90.000000
_cell_angle_beta 102.253095
_cell_angle_gamma 90.000000
_cell_volume 796.981702
_symmetry_space_group_name_H-M "P 2/C"
_symmetry_group_IT_number 13
_symmetry_cell_setting 'monoclinic'
loop_
_space_group_symop_operation_xyz
x,y,z
-x,y,1/2-z
-x,-y,-z
x,-y,1/2+z
loop_
_atom_site_type_symbol
_atom_site_label
_atom_site_fract_x
_atom_site_fract_y
_atom_site_fract_z
Si Si1 0.087355 0.954835 0.361223
Si Si2 0.000000 0.641089 0.250000
Si Si3 0.834313 0.353609 0.530752
Si Si4 0.698729 0.702692 0.804527
Si Si5 0.533444 0.300317 0.086027
O O1 0.309676 0.098064 0.386610
O O2 0.882532 0.115220 0.332285
O O3 0.039943 0.818142 0.419282
O O4 0.117848 0.792179 0.306890
O O5 0.824135 0.487158 0.274949
O O6 0.655238 0.242932 0.474880
O O7 0.692459 0.514187 0.566340
O O8 0.000000 0.500000 0.500000
O O9 0.500000 0.791962 0.750000
O O10 0.590679 0.619028 0.860650
#
# Coordination Sequence:
#
# PCOD9238264 Si02
#       5
#     4   2   4   4   4
#     4  12  25  45  71 101 136 178 228 281 337 404
#     4  12  26  46  70  98 140 182 226 284 340 400
#     4  11  25  47  72 101 140 180 224 281 341 405
#     4  12  26  46  69 100 138 179 229 280 340 406
#     4  11  25  45  71 103 137 178 227 279 340 406
#
# _framework density 22.585208000000002
#
# number of rings (size 3 to 8) (size 9 to 14) (size 15 to 20)
#    0.000    0.444    0.000    9.333    0.000   11.556 
#    0.000    4.444    0.000    0.000    0.000    0.000 
#    0.000    0.000    0.000    0.000    0.000    0.000 
#
# Total GULP energy -100939.765977 kJ/mol
# GULP energy per Si atom -5607.764777 kJ/mol
# Density = 2.253380 g / cm^3
# Si number density = 22.585208 Si / 1000 Ang^3
#
#
#
# Elastic Constant Matrix: (Units=GPa)
#
#
# Indices 1 2 3 4 5 6 
#
# 1 125.7637 85.1794 96.5073 0.0000 -11.2646 0.0000
# 2 85.1794 115.0438 100.0828 0.0000 14.9607 0.0000
# 3 96.5073 100.0828 203.0988 0.0000 6.4501 0.0000
# 4 0.0000 0.0000 0.0000 33.7360 0.0000 -17.7714
# 5 -11.2646 14.9607 6.4501 0.0000 64.7180 0.0000
# 6 0.0000 0.0000 0.0000 -17.7714 0.0000 3.4548
#
#
#
# Elastic Compliance Matrix: (Units=1/GPa)
#
#
# Indices 1 2 3 4 5 6 
#
# 1 0.019511 -0.012350 -0.003395 0.000000 0.006589 0.000000
# 2 -0.012350 0.023547 -0.005511 0.000000 -0.007044 0.000000
# 3 -0.003395 -0.005511 0.009260 0.000000 -0.000240 0.000000
# 4 0.000000 0.000000 0.000000 -0.017337 0.000000 -0.089182
# 5 0.006589 -0.007044 -0.000240 0.000000 0.018251 0.000000
# 6 0.000000 0.000000 0.000000 -0.089182 0.000000 -0.169297
#
#
# Mechanical properties :
#
#
# Convention : Reuss Voigt Hill
#
# Bulk Modulus (GPa) = 101.97393 111.93838 106.95616
# Shear Modulus (GPa) = -71.13976 31.19087 -19.97445
#
# Velocity S-wave (km/s) = -5.61843 3.72025 -2.97712
# Velocity P-wave (km/s) = 1.77757 8.25373 5.97008
#
# Compressibility (1/GPa) = 0.00980643
#
# Stress axis : x y z
#
# Youngs Moduli (GPa) = 51.25273 42.46841 107.98798
#
# Poissons Ratio (x) = 0.52448 0.36659
# Poissons Ratio (y) = 0.63297 0.59516
# Poissons Ratio (z) = 0.17399 0.23406
#
# Static dielectric constant tensor:
#      x y z
#    x 1.817130 0.000000 0.010000 
#    y 0.000000 1.813550 0.000000 
#    z 0.010000 0.000000 1.825780 
# 
# From -- ./inp_files/82957.got.cif
#   From: 2010.05.17/outbox.cif.g08.bks.cpg/sg13_42_cif.got.tgz:82957.got - 2010.06.03 16:44:36.
