data_PCOD9238167
_publ_section_title
;
Structure prediction by ZEFSAII (Michael W. Deem and Ramdas Pophale) SiO2 
 PCOD9238167
Probable space group: P 2/C
;
_chemical_formula_sum "Si O2"
_cell_formula_units_Z 12
_cell_length_a 16.592036
_cell_length_b 4.396148
_cell_length_c 8.227509
_cell_angle_alpha 90.000000
_cell_angle_beta 136.722312
_cell_angle_gamma 90.000000
_cell_volume 411.405333
_symmetry_space_group_name_H-M "P 2/C"
_symmetry_group_IT_number 13
_symmetry_cell_setting 'monoclinic'
loop_
_space_group_symop_operation_xyz
x,y,z
-x,y,1/2-z
-x,-y,-z
x,-y,1/2+z
loop_
_atom_site_type_symbol
_atom_site_label
_atom_site_fract_x
_atom_site_fract_y
_atom_site_fract_z
Si Si1 0.743138 0.268765 0.008906
Si Si2 0.081791 0.214006 0.732837
Si Si3 0.586541 0.171813 0.506289
O O1 0.829269 0.529591 0.204232
O O2 0.830567 0.024653 0.057109
O O3 0.663296 0.375734 0.741086
O O4 0.666022 0.069688 0.021802
O O5 0.000000 0.360347 0.750000
O O6 0.000000 0.000000 0.500000
O O7 0.500000 0.332704 0.250000
O O8 0.500000 0.000000 0.500000
#
# Coordination Sequence:
#
# PCOD9238167 Si02
#       3
#     4   4   4
#     4  11  24  46  74 111 153 201 255 320 391 467
#     4  12  27  48  74 109 151 202 262 325 389 463
#     4   9  21  46  75 112 155 201 255 319 391 468
#
# _framework density 29.168313999999999
#
# number of rings (size 3 to 8) (size 9 to 14) (size 15 to 20)
#    0.000    1.333    0.000    4.000    0.000    8.000 
#    0.000   36.667    0.000    0.000    0.000    0.000 
#    0.000    0.000    0.000    0.000    0.000    0.000 
#
# Total GULP energy -67214.572343 kJ/mol
# GULP energy per Si atom -5601.214362 kJ/mol
# Density = 2.910193 g / cm^3
# Si number density = 29.168314 Si / 1000 Ang^3
#
#
#
# Elastic Constant Matrix: (Units=GPa)
#
#
# Indices 1 2 3 4 5 6 
#
# 1 222.9405 61.9399 48.4082 0.0000 17.5142 0.0000
# 2 61.9399 125.8773 60.1945 0.0000 18.3645 0.0000
# 3 48.4082 60.1945 241.6917 0.0000 -5.1123 0.0000
# 4 0.0000 0.0000 0.0000 36.3236 0.0000 20.3610
# 5 17.5142 18.3645 -5.1123 0.0000 27.6940 0.0000
# 6 0.0000 0.0000 0.0000 20.3610 0.0000 75.1585
#
#
#
# Elastic Compliance Matrix: (Units=1/GPa)
#
#
# Indices 1 2 3 4 5 6 
#
# 1 0.005351 -0.002026 -0.000613 0.000000 -0.002154 0.000000
# 2 -0.002026 0.011086 -0.002493 0.000000 -0.006531 0.000000
# 3 -0.000613 -0.002493 0.004944 0.000000 0.002954 0.000000
# 4 0.000000 0.000000 0.000000 0.032460 0.000000 -0.008794
# 5 -0.002154 -0.006531 0.002954 0.000000 0.042347 0.000000
# 6 0.000000 0.000000 0.000000 -0.008794 0.000000 0.015687
#
#
# Mechanical properties :
#
#
# Convention : Reuss Voigt Hill
#
# Bulk Modulus (GPa) = 89.95437 103.51052 96.73244
# Shear Modulus (GPa) = 39.73195 55.83300 47.78247
#
# Velocity S-wave (km/s) = 3.69475 4.37986 4.05181
# Velocity P-wave (km/s) = 7.00773 7.81933 7.42463
#
# Compressibility (1/GPa) = 0.01111675
#
# Stress axis : x y z
#
# Youngs Moduli (GPa) = 186.89809 90.20270 202.27711
#
# Poissons Ratio (x) = 0.18271 0.12394
# Poissons Ratio (y) = 0.37858 0.50438
# Poissons Ratio (z) = 0.11452 0.22492
#
# Static dielectric constant tensor:
#      x y z
#    x 2.164020 0.000000 0.051300 
#    y 0.000000 2.249960 0.000000 
#    z 0.051300 0.000000 2.262680 
# 
# From -- ./inp_files/14076.got.cif
#   From: 2010.05.17/outbox.cif.g08.bks.cpg/sg13_8_cif.got.tgz:14076.got - 2010.06.03 16:44:36.
