data_PCOD9238131
_publ_section_title
;
Structure prediction by ZEFSAII (Michael W. Deem and Ramdas Pophale) SiO2 
 PCOD9238131
Probable space group: P 2/C
;
_chemical_formula_sum "Si O2"
_cell_formula_units_Z 20
_cell_length_a 7.614993
_cell_length_b 12.643241
_cell_length_c 8.714376
_cell_angle_alpha 90.000000
_cell_angle_beta 101.835224
_cell_angle_gamma 90.000000
_cell_volume 821.168376
_symmetry_space_group_name_H-M "P 2/C"
_symmetry_group_IT_number 13
_symmetry_cell_setting 'monoclinic'
loop_
_space_group_symop_operation_xyz
x,y,z
-x,y,1/2-z
-x,-y,-z
x,-y,1/2+z
loop_
_atom_site_type_symbol
_atom_site_label
_atom_site_fract_x
_atom_site_fract_y
_atom_site_fract_z
Si Si1 0.302531 0.705696 0.637552
Si Si2 0.853446 0.088249 0.914580
Si Si3 0.141058 0.481824 0.656231
Si Si4 0.694821 0.910468 0.708570
Si Si5 0.304539 0.277289 0.764026
O O1 0.500000 0.707367 0.750000
O O2 0.220086 0.598380 0.690989
O O3 0.209878 0.812169 0.686826
O O4 0.301909 0.710792 0.450742
O O5 0.853471 0.205906 0.841160
O O6 0.776044 0.023218 0.759022
O O7 0.717352 0.103168 0.032720
O O8 0.000000 0.000000 0.000000
O O9 0.290259 0.392293 0.679060
O O10 0.000000 0.436062 0.750000
O O11 0.000000 0.500000 0.500000
O O12 0.500000 0.914898 0.750000
O O13 0.500000 0.233044 0.750000
#
# Coordination Sequence:
#
# PCOD9238131 Si02
#       5
#     4   4   4   4   4
#     4  11  26  47  75 107 149 199 253 302 368 443
#     4  12  27  45  73 110 149 191 248 313 380 439
#     4  12  28  46  73 111 154 196 247 310 375 435
#     4  11  24  45  72 102 145 195 244 302 370 454
#     4  12  27  49  77 108 152 199 250 304 368 453
#
# _framework density 24.355540000000001
#
# number of rings (size 3 to 8) (size 9 to 14) (size 15 to 20)
#    0.000    0.400    2.000    6.000    8.400    3.200 
#    0.000    0.000    0.000    0.000    0.000    0.000 
#    0.000    0.000    0.000    0.000    0.000    0.000 
#
# Total GULP energy -111429.647515 kJ/mol
# GULP energy per Si atom -5571.482376 kJ/mol
# Density = 2.430011 g / cm^3
# Si number density = 24.355540 Si / 1000 Ang^3
#
#
#
# Elastic Constant Matrix: (Units=GPa)
#
#
# Indices 1 2 3 4 5 6 
#
# 1 67.5102 -3.8522 18.3609 0.0000 -9.0525 0.0000
# 2 -3.8522 146.0669 15.2940 0.0000 -0.9848 0.0000
# 3 18.3609 15.2940 140.3532 0.0000 -4.2461 0.0000
# 4 0.0000 0.0000 0.0000 37.2451 0.0000 -2.2424
# 5 -9.0525 -0.9848 -4.2461 0.0000 32.3747 0.0000
# 6 0.0000 0.0000 0.0000 -2.2424 0.0000 -18.1908
#
#
#
# Elastic Compliance Matrix: (Units=1/GPa)
#
#
# Indices 1 2 3 4 5 6 
#
# 1 0.015969 0.000663 -0.002034 0.000000 0.004219 0.000000
# 2 0.000663 0.006953 -0.000836 0.000000 0.000287 0.000000
# 3 -0.002034 -0.000836 0.007494 0.000000 0.000389 0.000000
# 4 0.000000 0.000000 0.000000 0.026651 0.000000 -0.003285
# 5 0.004219 0.000287 0.000389 0.000000 0.032128 0.000000
# 6 0.000000 0.000000 0.000000 -0.003285 0.000000 -0.054568
#
#
# Mechanical properties :
#
#
# Convention : Reuss Voigt Hill
#
# Bulk Modulus (GPa) = 38.45792 45.94843 42.20317
# Shear Modulus (GPa) = 104.80348 31.89428 68.34888
#
# Velocity S-wave (km/s) = 6.56689 3.62267 5.30320
# Velocity P-wave (km/s) = 8.56290 6.03365 7.40703
#
# Compressibility (1/GPa) = 0.02600245
#
# Stress axis : x y z
#
# Youngs Moduli (GPa) = 62.62078 143.82108 133.44472
#
# Poissons Ratio (x) = -0.09528 0.27138
# Poissons Ratio (y) = -0.04149 0.11151
# Poissons Ratio (z) = 0.12735 0.12018
#
# Static dielectric constant tensor:
#      x y z
#    x 2.004620 0.000000 0.005450 
#    y 0.000000 2.055320 0.000000 
#    z 0.005450 0.000000 1.898530 
# 
# From -- ./inp_files/11780.got.cif
#   From: 2010.05.17/outbox.cif.g08.bks.cpg/sg13_6_cif.got.tgz:11780.got - 2010.06.03 16:44:36.
