data_PCOD9238906
_publ_section_title
;
Structure prediction by ZEFSAII (Michael W. Deem and Ramdas Pophale) SiO2 
 PCOD9238906
Probable space group: P 2/C
;
_chemical_formula_sum "Si O2"
_cell_formula_units_Z 26
_cell_length_a 30.000000
_cell_length_b 9.000000
_cell_length_c 30.000000
_cell_angle_alpha 90.000000
_cell_angle_beta 10.000000
_cell_angle_gamma 90.000000
_cell_volume 1406.550239
_symmetry_space_group_name_H-M "P 2/C"
_symmetry_group_IT_number 13
_symmetry_cell_setting 'monoclinic'
loop_
_space_group_symop_operation_xyz
x,y,z
-x,y,1/2-z
-x,-y,-z
x,-y,1/2+z
loop_
_atom_site_type_symbol
_atom_site_label
_atom_site_fract_x
_atom_site_fract_y
_atom_site_fract_z
Si Si1 0.573743 0.604574 0.127151
Si Si2 0.000000 0.391945 0.750000
Si Si3 0.271723 0.106979 0.704077
Si Si4 0.898947 0.852571 0.036412
Si Si5 0.347064 0.157626 0.029144
Si Si6 0.713122 0.189044 0.909434
Si Si7 0.235717 0.666935 0.931504
O O1 0.500000 0.659646 0.250000
O O2 0.639524 0.734435 0.027050
O O3 0.345817 0.502908 0.329627
O O4 0.811941 0.494187 0.904717
O O5 0.168210 0.296836 0.549695
O O6 0.353891 0.190663 0.577755
O O7 0.500000 0.000000 0.500000
O O8 0.178532 0.206253 0.837816
O O9 0.031740 0.008961 0.921185
O O10 0.129630 0.785658 0.778865
O O11 0.632355 0.855256 0.270912
O O12 0.260959 0.987016 0.103774
O O13 0.473759 0.250563 0.173674
O O14 0.973723 0.283367 0.663447
#
# Coordination Sequence:
#
# PCOD9238906 Si02
#       7
#     4   2   4   4   4   4   4
#     4  10  24  45  70  86 125 175 219 247 322 403
#     4  10  22  48  66  88 114 182 208 246 308 408
#     4  10  19  36  60  93 130 171 201 246 318 397
#     4  10  20  34  59  92 128 164 199 254 308 379
#     4  11  23  39  63  99 127 157 210 269 317 358
#     4  11  22  37  65  98 126 155 212 268 310 353
#     4  11  23  42  64  91 124 168 211 255 310 388
#
# _framework density 18.484942
#
# number of rings (size 3 to 8) (size 9 to 14) (size 15 to 20)
#    0.000    1.538    4.615    1.846    6.462    0.000 
#    2.769    0.000    0.000    5.538    0.000    0.000 
#    0.000    0.000    0.000    0.000    0.000    0.000 
#
# Total GULP energy -144757.441671 kJ/mol
# GULP energy per Si atom -5567.593910 kJ/mol
# Density = 1.844287 g / cm^3
# Si number density = 18.484942 Si / 1000 Ang^3
#
#
#
# Elastic Constant Matrix: (Units=GPa)
#
#
# Indices 1 2 3 4 5 6 
#
# 1 160.4143 59.2182 66.6150 0.0000 21.6909 0.0000
# 2 59.2182 49.2540 26.8011 0.0000 12.1748 0.0000
# 3 66.6150 26.8011 152.5612 0.0000 5.3350 0.0000
# 4 0.0000 0.0000 0.0000 27.2002 0.0000 0.9511
# 5 21.6909 12.1748 5.3350 0.0000 62.1404 0.0000
# 6 0.0000 0.0000 0.0000 0.9511 0.0000 38.3249
#
#
#
# Elastic Compliance Matrix: (Units=1/GPa)
#
#
# Indices 1 2 3 4 5 6 
#
# 1 0.012543 -0.012985 -0.003141 0.000000 -0.001565 0.000000
# 2 -0.012985 0.036967 -0.000732 0.000000 -0.002647 0.000000
# 3 -0.003141 -0.000732 0.008036 0.000000 0.000550 0.000000
# 4 0.000000 0.000000 0.000000 0.036796 0.000000 -0.000913
# 5 -0.001565 -0.002647 0.000550 0.000000 0.017110 0.000000
# 6 0.000000 0.000000 0.000000 -0.000913 0.000000 0.026115
#
#
# Mechanical properties :
#
#
# Convention : Reuss Voigt Hill
#
# Bulk Modulus (GPa) = 41.96305 74.16644 58.06474
# Shear Modulus (GPa) = 27.89754 39.50612 33.70183
#
# Velocity S-wave (km/s) = 3.88906 4.62801 4.27453
# Velocity P-wave (km/s) = 6.55110 8.29263 7.47277
#
# Compressibility (1/GPa) = 0.02383049
#
# Stress axis : x y z
#
# Youngs Moduli (GPa) = 79.72388 27.05102 124.44547
#
# Poissons Ratio (x) = 0.35125 0.39090
# Poissons Ratio (y) = 1.03520 0.09108
# Poissons Ratio (z) = 0.25042 0.01980
#
# Static dielectric constant tensor:
#      x y z
#    x 1.680480 0.000000 0.047390 
#    y 0.000000 1.653160 0.000000 
#    z 0.047390 0.000000 1.714530 
# 
# From -- ./inp_files/97970.got.cif
#   From: 2010.05.17/outbox.ucp.g08.bks.cvg/sg13_49_cif.got.tgz:97970.got - 2010.06.11 12:23:55.
