data_PCOD9238094
_publ_section_title
;
Structure prediction by ZEFSAII (Michael W. Deem and Ramdas Pophale) SiO2 
 PCOD9238094
Probable space group: P 2/C
;
_chemical_formula_sum "Si O2"
_cell_formula_units_Z 20
_cell_length_a 8.297739
_cell_length_b 11.499872
_cell_length_c 11.936405
_cell_angle_alpha 90.000000
_cell_angle_beta 128.994254
_cell_angle_gamma 90.000000
_cell_volume 885.246427
_symmetry_space_group_name_H-M "P 2/C"
_symmetry_group_IT_number 13
_symmetry_cell_setting 'monoclinic'
loop_
_space_group_symop_operation_xyz
x,y,z
-x,y,1/2-z
-x,-y,-z
x,-y,1/2+z
loop_
_atom_site_type_symbol
_atom_site_label
_atom_site_fract_x
_atom_site_fract_y
_atom_site_fract_z
Si Si1 0.883871 0.508021 0.824178
Si Si2 0.475000 0.125714 0.544973
Si Si3 0.977053 0.123972 0.047980
Si Si4 0.646732 0.748977 0.711124
Si Si5 0.850877 0.749807 0.290725
O O1 0.736418 0.619914 0.761437
O O2 0.775339 0.382373 0.766413
O O3 0.000000 0.518711 0.750000
O O4 0.000000 0.500000 0.000000
O O5 0.249745 0.131411 0.499959
O O6 0.484082 0.228040 0.457093
O O7 0.666117 0.156955 0.708194
O O8 0.500000 0.000000 0.500000
O O9 0.990072 0.221942 0.958600
O O10 0.163869 0.158524 0.210937
O O11 0.000000 0.000000 0.000000
O O12 0.500000 0.778539 0.750000
O O13 0.000000 0.764687 0.250000
#
# Coordination Sequence:
#
# PCOD9238094 Si02
#       5
#     4   4   4   4   4
#     4  11  25  48  77 107 147 193 244 301 368 436
#     4  12  26  44  69 106 141 186 241 296 366 435
#     4  12  24  44  70  97 140 187 236 298 361 434
#     4  12  26  45  71 102 143 187 244 300 363 431
#     4  11  24  44  71 101 143 183 240 295 361 431
#
# _framework density 22.592578
#
# number of rings (size 3 to 8) (size 9 to 14) (size 15 to 20)
#    0.000    0.400    2.000    7.200    2.800    2.400 
#    0.000    0.000    0.000    0.000    0.000    0.000 
#    0.000    0.000    0.000    0.000    0.000    0.000 
#
# Total GULP energy -111733.147019 kJ/mol
# GULP energy per Si atom -5586.657351 kJ/mol
# Density = 2.254116 g / cm^3
# Si number density = 22.592578 Si / 1000 Ang^3
#
#
#
# Elastic Constant Matrix: (Units=GPa)
#
#
# Indices 1 2 3 4 5 6 
#
# 1 122.0038 13.3631 18.2890 0.0000 -8.4923 0.0000
# 2 13.3631 121.6981 11.5283 0.0000 7.3139 0.0000
# 3 18.2890 11.5283 92.4247 0.0000 -13.7520 0.0000
# 4 0.0000 0.0000 0.0000 43.5097 0.0000 4.5064
# 5 -8.4923 7.3139 -13.7520 0.0000 37.9559 0.0000
# 6 0.0000 0.0000 0.0000 4.5064 0.0000 28.9137
#
#
#
# Elastic Compliance Matrix: (Units=1/GPa)
#
#
# Indices 1 2 3 4 5 6 
#
# 1 0.008611 -0.000915 -0.001350 0.000000 0.001614 0.000000
# 2 -0.000915 0.008572 -0.001231 0.000000 -0.002302 0.000000
# 3 -0.001350 -0.001231 0.011871 0.000000 0.004236 0.000000
# 4 0.000000 0.000000 0.000000 0.023360 0.000000 -0.003641
# 5 0.001614 -0.002302 0.004236 0.000000 0.028686 0.000000
# 6 0.000000 0.000000 0.000000 -0.003641 0.000000 0.035153
#
#
# Mechanical properties :
#
#
# Convention : Reuss Voigt Hill
#
# Bulk Modulus (GPa) = 45.32338 46.94304 46.13321
# Shear Modulus (GPa) = 38.28510 41.60561 39.94536
#
# Velocity S-wave (km/s) = 4.12100 4.29600 4.20941
# Velocity P-wave (km/s) = 6.53822 6.74023 6.63999
#
# Compressibility (1/GPa) = 0.02206367
#
# Stress axis : x y z
#
# Youngs Moduli (GPa) = 116.12610 116.65262 84.24233
#
# Poissons Ratio (x) = 0.10670 0.11371
# Poissons Ratio (y) = 0.10622 0.10369
# Poissons Ratio (z) = 0.15674 0.14358
#
# Static dielectric constant tensor:
#      x y z
#    x 1.802870 0.000000 -0.032670 
#    y 0.000000 1.774210 0.000000 
#    z -0.032670 0.000000 1.791960 
# 
# From -- ./inp_files/29646.got.cif
#   From: 2010.05.17/outbox.cif.g08.bks.cpg/sg13_15_cif.got.tgz:29646.got - 2010.06.03 16:44:36.
