data_PCOD9238013
_publ_section_title
;
Structure prediction by ZEFSAII (Michael W. Deem and Ramdas Pophale) SiO2 
 PCOD9238013
Probable space group: P 2/C
;
_chemical_formula_sum "Si O2"
_cell_formula_units_Z 20
_cell_length_a 8.173971
_cell_length_b 12.927869
_cell_length_c 11.607049
_cell_angle_alpha 90.000000
_cell_angle_beta 129.500737
_cell_angle_gamma 90.000000
_cell_volume 946.418680
_symmetry_space_group_name_H-M "P 2/C"
_symmetry_group_IT_number 13
_symmetry_cell_setting 'monoclinic'
loop_
_space_group_symop_operation_xyz
x,y,z
-x,y,1/2-z
-x,-y,-z
x,-y,1/2+z
loop_
_atom_site_type_symbol
_atom_site_label
_atom_site_fract_x
_atom_site_fract_y
_atom_site_fract_z
Si Si1 0.613671 0.028352 0.928474
Si Si2 0.792032 0.433727 0.083490
Si Si3 0.584003 0.357219 0.417165
Si Si4 0.894956 0.835445 0.082247
Si Si5 0.270627 0.758217 0.090599
O O1 0.500000 0.031817 0.750000
O O2 0.692636 0.145969 0.979304
O O3 0.500000 0.000000 0.000000
O O4 0.786920 0.939377 0.988841
O O5 0.609349 0.385154 0.083861
O O6 0.000000 0.453595 0.250000
O O7 0.724402 0.539522 0.992103
O O8 0.824181 0.344470 0.005760
O O9 0.500000 0.343346 0.250000
O O10 0.720409 0.256255 0.512143
O O11 0.000000 0.860692 0.250000
O O12 0.093258 0.798363 0.097230
O O13 0.500000 0.734160 0.250000
#
# Coordination Sequence:
#
# PCOD9238013 Si02
#       5
#     4   4   4   4   4
#     4  11  24  44  68  97 133 171 218 270 326 388
#     4  11  24  41  64  93 125 164 210 262 319 380
#     4  11  24  42  64  92 127 166 212 262 318 385
#     4  12  24  41  67  96 129 169 216 267 323 383
#     4  11  24  42  63  92 129 168 211 262 320 383
#
# _framework density 21.132296
#
# number of rings (size 3 to 8) (size 9 to 14) (size 15 to 20)
#    0.000    0.800    0.000    8.400    0.000    8.800 
#    0.000    0.000    0.000    0.000    0.000    0.000 
#    0.000    0.000    0.000    0.000    0.000    0.000 
#
# Total GULP energy -111768.869812 kJ/mol
# GULP energy per Si atom -5588.443491 kJ/mol
# Density = 2.108420 g / cm^3
# Si number density = 21.132296 Si / 1000 Ang^3
#
#
#
# Elastic Constant Matrix: (Units=GPa)
#
#
# Indices 1 2 3 4 5 6 
#
# 1 45.9089 -28.7711 -3.7158 0.0000 3.2488 0.0000
# 2 -28.7711 75.8911 22.0397 0.0000 14.0635 0.0000
# 3 -3.7158 22.0397 85.4626 0.0000 13.0866 0.0000
# 4 0.0000 0.0000 0.0000 9.3124 0.0000 -33.6726
# 5 3.2488 14.0635 13.0866 0.0000 29.3883 0.0000
# 6 0.0000 0.0000 0.0000 -33.6726 0.0000 102.5257
#
#
#
# Elastic Compliance Matrix: (Units=1/GPa)
#
#
# Indices 1 2 3 4 5 6 
#
# 1 0.031044 0.013776 -0.000717 0.000000 -0.009705 0.000000
# 2 0.013776 0.021256 -0.003318 0.000000 -0.010217 0.000000
# 3 -0.000717 -0.003318 0.013168 0.000000 -0.004197 0.000000
# 4 0.000000 0.000000 0.000000 -0.572510 0.000000 -0.188030
# 5 -0.009705 -0.010217 -0.004197 0.000000 0.041858 0.000000
# 6 0.000000 0.000000 0.000000 -0.188030 0.000000 -0.052001
#
#
# Mechanical properties :
#
#
# Convention : Reuss Voigt Hill
#
# Bulk Modulus (GPa) = 11.77154 20.70759 16.23957
# Shear Modulus (GPa) = -9.83577 42.75927 16.46175
#
# Velocity S-wave (km/s) = -2.15974 4.50311 2.79406
# Velocity P-wave (km/s) = 0.79801 6.07105 4.25563
#
# Compressibility (1/GPa) = 0.08495063
#
# Stress axis : x y z
#
# Youngs Moduli (GPa) = 32.21198 47.04461 75.94037
#
# Poissons Ratio (x) = -0.64808 0.05443
# Poissons Ratio (y) = -0.44375 0.25199
# Poissons Ratio (z) = 0.02309 0.15611
#
# Static dielectric constant tensor:
#      x y z
#    x 1.864790 0.000000 -0.070980 
#    y 0.000000 1.711080 0.000000 
#    z -0.070980 0.000000 1.777770 
# 
# From -- ./inp_files/29270.got.cif
#   From: 2010.05.17/outbox.cif.g08.bks.cpg/sg13_15_cif.got.tgz:29270.got - 2010.06.03 16:44:36.
