data_PCOD9238857
_publ_section_title
;
Structure prediction by ZEFSAII (Michael W. Deem and Ramdas Pophale) SiO2 
 PCOD9238857
Probable space group: P 2/C
;
_chemical_formula_sum "Si O2"
_cell_formula_units_Z 12
_cell_length_a 12.109126
_cell_length_b 6.392720
_cell_length_c 10.556342
_cell_angle_alpha 90.000000
_cell_angle_beta 35.711713
_cell_angle_gamma 90.000000
_cell_volume 476.987495
_symmetry_space_group_name_H-M "P 2/C"
_symmetry_group_IT_number 13
_symmetry_cell_setting 'monoclinic'
loop_
_space_group_symop_operation_xyz
x,y,z
-x,y,1/2-z
-x,-y,-z
x,-y,1/2+z
loop_
_atom_site_type_symbol
_atom_site_label
_atom_site_fract_x
_atom_site_fract_y
_atom_site_fract_z
Si Si1 0.500000 0.447780 0.250000
Si Si2 0.111721 0.540463 0.023211
Si Si3 0.388279 0.040463 0.476789
Si Si4 0.000000 0.947780 0.250000
O O1 0.325453 0.542958 0.335186
O O2 0.394829 0.292354 0.447961
O O3 0.000000 0.457399 0.250000
O O4 0.105171 0.792354 0.052039
O O5 0.000000 0.500000 0.000000
O O6 0.500000 0.957399 0.250000
O O7 0.174547 0.957042 0.664814
O O8 0.500000 0.000000 0.500000
#
# Coordination Sequence:
#
# PCOD9238857 Si02
#       4
#     2   4   4   2
#     4   8  18  34  50  66 102 124 152 196 238 276
#     4   9  17  33  52  69  95 128 156 192 238 277
#     4   9  17  33  52  69  95 128 156 192 238 277
#     4   8  18  34  50  66 102 124 152 196 238 276
#
# _framework density 25.157890999999999
#
# number of rings (size 3 to 8) (size 9 to 14) (size 15 to 20)
#    2.000    1.333    0.000    0.000    0.000    2.667 
#    0.000    3.333    0.000    0.000    0.000    0.000 
#    0.000    0.000    0.000    0.000    0.000    0.000 
#
# Total GULP energy -66853.581720 kJ/mol
# GULP energy per Si atom -5571.131810 kJ/mol
# Density = 2.510063 g / cm^3
# Si number density = 25.157891 Si / 1000 Ang^3
#
#
#
# Elastic Constant Matrix: (Units=GPa)
#
#
# Indices 1 2 3 4 5 6 
#
# 1 316.3046 20.9146 116.5814 0.0000 -59.1066 0.0000
# 2 20.9146 26.0596 5.0302 0.0000 -9.8296 0.0000
# 3 116.5814 5.0302 144.4449 0.0000 -61.6893 0.0000
# 4 0.0000 0.0000 0.0000 2.2815 0.0000 -4.8463
# 5 -59.1066 -9.8296 -61.6893 0.0000 66.4167 0.0000
# 6 0.0000 0.0000 0.0000 -4.8463 0.0000 28.1457
#
#
#
# Elastic Compliance Matrix: (Units=1/GPa)
#
#
# Indices 1 2 3 4 5 6 
#
# 1 0.004745 -0.002929 -0.003496 0.000000 0.000542 0.000000
# 2 -0.002929 0.042772 0.004085 0.000000 0.007518 0.000000
# 3 -0.003496 0.004085 0.014142 0.000000 0.010628 0.000000
# 4 0.000000 0.000000 0.000000 0.691078 0.000000 0.118994
# 5 0.000542 0.007518 0.010628 0.000000 0.026523 0.000000
# 6 0.000000 0.000000 0.000000 0.118994 0.000000 0.056018
#
#
# Mechanical properties :
#
#
# Convention : Reuss Voigt Hill
#
# Bulk Modulus (GPa) = 17.55050 85.76237 51.65644
# Shear Modulus (GPa) = 5.82105 42.32095 24.07100
#
# Velocity S-wave (km/s) = 1.52277 4.10593 3.09657
# Velocity P-wave (km/s) = 3.17538 7.52608 5.77602
#
# Compressibility (1/GPa) = 0.05697844
#
# Stress axis : x y z
#
# Youngs Moduli (GPa) = 210.74396 23.38003 70.71218
#
# Poissons Ratio (x) = 0.06848 0.24723
# Poissons Ratio (y) = 0.61727 -0.28888
# Poissons Ratio (z) = 0.73683 -0.09552
#
# Static dielectric constant tensor:
#      x y z
#    x 1.996030 0.000000 -0.052980 
#    y 0.000000 2.234440 0.000000 
#    z -0.052980 0.000000 2.016160 
# 
# From -- ./inp_files/11132.got.cif
#   From: 2010.05.17/outbox.cif.g08.bks.cpg/sg13_6_cif.got.tgz:11132.got - 2010.06.03 16:44:36.
