data_PCOD9238000
_publ_section_title
;
Structure prediction by ZEFSAII (Michael W. Deem and Ramdas Pophale) SiO2 
 PCOD9238000
Probable space group: P 2/C
;
_chemical_formula_sum "Si O2"
_cell_formula_units_Z 16
_cell_length_a 16.684529
_cell_length_b 5.607789
_cell_length_c 9.908315
_cell_angle_alpha 90.000000
_cell_angle_beta 138.415543
_cell_angle_gamma 90.000000
_cell_volume 615.307917
_symmetry_space_group_name_H-M "P 2/C"
_symmetry_group_IT_number 13
_symmetry_cell_setting 'monoclinic'
loop_
_space_group_symop_operation_xyz
x,y,z
-x,y,1/2-z
-x,-y,-z
x,-y,1/2+z
loop_
_atom_site_type_symbol
_atom_site_label
_atom_site_fract_x
_atom_site_fract_y
_atom_site_fract_z
Si Si1 0.601772 0.281499 0.214957
Si Si2 0.631002 0.226248 0.766589
Si Si3 0.803901 0.536757 0.313140
Si Si4 0.026516 0.798059 0.141779
O O1 0.612489 0.521397 0.317549
O O2 0.698964 0.340347 0.216607
O O3 0.623494 0.033819 0.318769
O O4 0.472677 0.248481 0.979543
O O5 0.758788 0.253209 0.854229
O O6 0.925648 0.408170 0.510581
O O7 0.845647 0.667350 0.227624
O O8 0.000000 0.917490 0.250000
O O9 0.000000 0.000000 0.000000
#
# Coordination Sequence:
#
# PCOD9238000 Si02
#       4
#     4   4   4   4
#     4   8  14  27  53  87 120 154 197 254 320 386
#     4   8  14  27  53  87 120 154 197 254 320 386
#     4   9  19  36  58  84 121 163 212 262 316 383
#     4  11  24  40  61  91 128 174 224 277 336 395
#
# _framework density 26.003240999999999
#
# number of rings (size 3 to 8) (size 9 to 14) (size 15 to 20)
#    1.500    1.500    0.000    1.500    0.000    4.000 
#    0.000    0.000    0.000    6.000    0.000    7.000 
#    0.000    0.000    0.000    0.000    0.000    0.000 
#
# Total GULP energy -89074.513712 kJ/mol
# GULP energy per Si atom -5567.157107 kJ/mol
# Density = 2.594406 g / cm^3
# Si number density = 26.003241 Si / 1000 Ang^3
#
#
#
# Elastic Constant Matrix: (Units=GPa)
#
#
# Indices 1 2 3 4 5 6 
#
# 1 186.5762 33.4297 41.1176 0.0000 4.1680 0.0000
# 2 33.4297 218.1980 24.6588 0.0000 1.4896 0.0000
# 3 41.1176 24.6588 54.2945 0.0000 3.5181 0.0000
# 4 0.0000 0.0000 0.0000 25.5232 0.0000 11.0011
# 5 4.1680 1.4896 3.5181 0.0000 45.3474 0.0000
# 6 0.0000 0.0000 0.0000 11.0011 0.0000 24.2813
#
#
#
# Elastic Compliance Matrix: (Units=1/GPa)
#
#
# Indices 1 2 3 4 5 6 
#
# 1 0.006479 -0.000462 -0.004683 0.000000 -0.000217 0.000000
# 2 -0.000462 0.004864 -0.001861 0.000000 0.000027 0.000000
# 3 -0.004683 -0.001861 0.022893 0.000000 -0.001284 0.000000
# 4 0.000000 0.000000 0.000000 0.048688 0.000000 -0.022059
# 5 -0.000217 0.000027 -0.001284 0.000000 0.022171 0.000000
# 6 0.000000 0.000000 0.000000 -0.022059 0.000000 0.051178
#
#
# Mechanical properties :
#
#
# Convention : Reuss Voigt Hill
#
# Bulk Modulus (GPa) = 49.44518 73.05343 61.24931
# Shear Modulus (GPa) = 28.24434 43.02122 35.63278
#
# Velocity S-wave (km/s) = 3.29931 4.07191 3.70580
# Velocity P-wave (km/s) = 5.79398 7.08959 6.47427
#
# Compressibility (1/GPa) = 0.02022442
#
# Stress axis : x y z
#
# Youngs Moduli (GPa) = 154.33503 205.59673 43.68156
#
# Poissons Ratio (x) = 0.09498 0.20456
# Poissons Ratio (y) = 0.07130 0.08129
# Poissons Ratio (z) = 0.72275 0.38260
#
# Static dielectric constant tensor:
#      x y z
#    x 2.028010 0.000000 -0.006670 
#    y 0.000000 2.109920 0.000000 
#    z -0.006670 0.000000 2.058000 
# 
# From -- ./inp_files/20592.got.cif
#   From: 2010.05.17/outbox.cif.g08.bks.cpg/sg13_11_cif.got.tgz:20592.got - 2010.06.03 16:44:36.
