data_PCOD9238124
_publ_section_title
;
Structure prediction by ZEFSAII (Michael W. Deem and Ramdas Pophale) SiO2 
 PCOD9238124
Probable space group: P 2/C
;
_chemical_formula_sum "Si O2"
_cell_formula_units_Z 18
_cell_length_a 4.887702
_cell_length_b 9.942593
_cell_length_c 19.986055
_cell_angle_alpha 90.000000
_cell_angle_beta 131.698583
_cell_angle_gamma 90.000000
_cell_volume 725.189028
_symmetry_space_group_name_H-M "P 2/C"
_symmetry_group_IT_number 13
_symmetry_cell_setting 'monoclinic'
loop_
_space_group_symop_operation_xyz
x,y,z
-x,y,1/2-z
-x,-y,-z
x,-y,1/2+z
loop_
_atom_site_type_symbol
_atom_site_label
_atom_site_fract_x
_atom_site_fract_y
_atom_site_fract_z
Si Si1 0.986405 0.841264 0.995085
Si Si2 0.805047 0.752628 0.611253
Si Si3 0.067739 0.815575 0.164128
Si Si4 0.068358 0.480920 0.688582
Si Si5 0.000000 0.948444 0.750000
O O1 0.581446 0.781658 0.915599
O O2 0.222575 0.806460 0.968713
O O3 0.068403 0.801837 0.084234
O O4 0.000000 0.000000 0.000000
O O5 0.085061 0.837895 0.704023
O O6 0.897294 0.596119 0.615767
O O7 0.500000 0.838218 0.250000
O O8 0.919246 0.670222 0.162739
O O9 0.867929 0.935685 0.172934
O O10 0.500000 0.468747 0.750000
O O11 0.000000 0.539957 0.750000
#
# Coordination Sequence:
#
# PCOD9238124 Si02
#       5
#     4   4   4   4   2
#     4  12  26  45  69 106 143 176 233 294 343 405
#     4  12  27  43  73 103 139 184 230 288 345 413
#     4  11  26  44  72  98 140 186 233 284 353 416
#     4  11  24  45  70 102 139 184 234 284 339 417
#     4  12  24  42  74  98 134 186 232 274 356 414
#
# _framework density 24.821114999999999
#
# number of rings (size 3 to 8) (size 9 to 14) (size 15 to 20)
#    0.000    0.444    4.444    3.333    3.111    1.778 
#    0.000    0.000    0.000    0.000    0.000    0.000 
#    0.000    0.000    0.000    0.000    0.000    0.000 
#
# Total GULP energy -100251.329073 kJ/mol
# GULP energy per Si atom -5569.518282 kJ/mol
# Density = 2.476462 g / cm^3
# Si number density = 24.821115 Si / 1000 Ang^3
#
#
#
# Elastic Constant Matrix: (Units=GPa)
#
#
# Indices 1 2 3 4 5 6 
#
# 1 73.3382 -2.0353 8.8135 0.0000 -2.7964 0.0000
# 2 -2.0353 147.5497 7.4401 0.0000 -6.2627 0.0000
# 3 8.8135 7.4401 108.3688 0.0000 -32.0050 0.0000
# 4 0.0000 0.0000 0.0000 28.3379 0.0000 -14.4470
# 5 -2.7964 -6.2627 -32.0050 0.0000 54.0253 0.0000
# 6 0.0000 0.0000 0.0000 -14.4470 0.0000 32.2244
#
#
#
# Elastic Compliance Matrix: (Units=1/GPa)
#
#
# Indices 1 2 3 4 5 6 
#
# 1 0.013779 0.000250 -0.001113 0.000000 0.000083 0.000000
# 2 0.000250 0.006823 -0.000305 0.000000 0.000623 0.000000
# 3 -0.001113 -0.000305 0.011286 0.000000 0.006593 0.000000
# 4 0.000000 0.000000 0.000000 0.045744 0.000000 0.020508
# 5 0.000083 0.000623 0.006593 0.000000 0.022492 0.000000
# 6 0.000000 0.000000 0.000000 0.020508 0.000000 0.040227
#
#
# Mechanical properties :
#
#
# Convention : Reuss Voigt Hill
#
# Bulk Modulus (GPa) = 33.83892 39.74370 36.79131
# Shear Modulus (GPa) = 32.77870 43.92010 38.34940
#
# Velocity S-wave (km/s) = 3.63794 4.21106 3.93495
# Velocity P-wave (km/s) = 5.59544 6.30007 5.95818
#
# Compressibility (1/GPa) = 0.02955177
#
# Stress axis : x y z
#
# Youngs Moduli (GPa) = 72.57245 146.57084 88.60201
#
# Poissons Ratio (x) = -0.03660 0.09865
# Poissons Ratio (y) = -0.01812 0.02699
# Poissons Ratio (z) = 0.08080 0.04465
#
# Static dielectric constant tensor:
#      x y z
#    x 1.810750 0.000000 0.171430 
#    y 0.000000 2.080460 0.000000 
#    z 0.171430 0.000000 2.041430 
# 
# From -- ./inp_files/60410.got.cif
#   From: 2010.05.17/outbox.cif.g08.bks.cpg/sg13_31_cif.got.tgz:60410.got - 2010.06.03 16:44:36.
