data_PCOD9238942
_publ_section_title
;
Structure prediction by ZEFSAII (Michael W. Deem and Ramdas Pophale) SiO2 
 PCOD9238942
Probable space group: P 2/C
;
_chemical_formula_sum "Si O2"
_cell_formula_units_Z 24
_cell_length_a 18.000000
_cell_length_b 12.000000
_cell_length_c 12.000000
_cell_angle_alpha 90.000000
_cell_angle_beta 30.000000
_cell_angle_gamma 90.000000
_cell_volume 1296.000000
_symmetry_space_group_name_H-M "P 2/C"
_symmetry_group_IT_number 13
_symmetry_cell_setting 'monoclinic'
loop_
_space_group_symop_operation_xyz
x,y,z
-x,y,1/2-z
-x,-y,-z
x,-y,1/2+z
loop_
_atom_site_type_symbol
_atom_site_label
_atom_site_fract_x
_atom_site_fract_y
_atom_site_fract_z
Si Si1 0.820309 0.653949 0.965942
Si Si2 0.325092 0.058306 0.469829
Si Si3 0.851412 0.835266 0.744567
Si Si4 0.174685 0.189274 0.482156
Si Si5 0.845285 0.593437 0.381927
Si Si6 0.820514 0.253041 0.701343
O O1 0.786670 0.744902 0.915108
O O2 0.778792 0.529941 0.977846
O O3 0.000000 0.652821 0.750000
O O4 0.762341 0.692185 0.162558
O O5 0.271844 0.095904 0.416167
O O6 0.287038 0.164593 0.598561
O O7 0.218597 0.955045 0.638770
O O8 0.500000 0.031914 0.250000
O O9 0.819421 0.812333 0.657120
O O10 0.030116 0.818002 0.520667
O O11 0.235508 0.307704 0.447022
O O12 0.000000 0.177407 0.750000
O O13 0.861257 0.647333 0.237124
O O14 0.000000 0.585857 0.250000
#
# Coordination Sequence:
#
# PCOD9238942 Si02
#       6
#     4   4   4   4   4   4
#     4   9  21  30  57  93 122 146 193 246 292 346
#     4  11  25  40  60  85 117 159 202 249 295 346
#     4  11  21  37  59  86 118 156 198 241 292 354
#     4  10  20  37  62  87 115 157 194 240 299 352
#     4   9  16  32  56  89 121 147 190 239 298 342
#     4  10  20  38  59  88 123 156 193 244 297 349
#
# _framework density 18.518519000000001
#
# number of rings (size 3 to 8) (size 9 to 14) (size 15 to 20)
#    0.000    2.000    5.000    0.500    4.667    3.333 
#    0.000    0.000    0.000    8.000    0.000    0.000 
#    0.000    0.000    0.000    0.000    0.000    0.000 
#
# Total GULP energy -133703.761641 kJ/mol
# GULP energy per Si atom -5570.990068 kJ/mol
# Density = 1.847637 g / cm^3
# Si number density = 18.518519 Si / 1000 Ang^3
#
#
#
# Elastic Constant Matrix: (Units=GPa)
#
#
# Indices 1 2 3 4 5 6 
#
# 1 105.8153 53.9370 33.4406 0.0000 34.5440 0.0000
# 2 53.9370 131.6586 31.4148 0.0000 20.5517 0.0000
# 3 33.4406 31.4148 40.2439 0.0000 12.5011 0.0000
# 4 0.0000 0.0000 0.0000 4.4954 0.0000 0.9357
# 5 34.5440 20.5517 12.5011 0.0000 33.2815 0.0000
# 6 0.0000 0.0000 0.0000 0.9357 0.0000 13.9341
#
#
#
# Elastic Compliance Matrix: (Units=1/GPa)
#
#
# Indices 1 2 3 4 5 6 
#
# 1 0.018284 -0.003361 -0.008286 0.000000 -0.013790 0.000000
# 2 -0.003361 0.010310 -0.004938 0.000000 -0.001024 0.000000
# 3 -0.008286 -0.004938 0.036192 0.000000 -0.001945 0.000000
# 4 0.000000 0.000000 0.000000 0.225604 0.000000 -0.015150
# 5 -0.013790 -0.001024 -0.001945 0.000000 0.045722 0.000000
# 6 0.000000 0.000000 0.000000 -0.015150 0.000000 0.072784
#
#
# Mechanical properties :
#
#
# Convention : Reuss Voigt Hill
#
# Bulk Modulus (GPa) = 31.62790 57.25586 44.44188
# Shear Modulus (GPa) = 11.04718 20.93722 15.99220
#
# Velocity S-wave (km/s) = 2.44508 3.36610 2.94186
# Velocity P-wave (km/s) = 5.00873 6.78917 5.96574
#
# Compressibility (1/GPa) = 0.03161766
#
# Stress axis : x y z
#
# Youngs Moduli (GPa) = 54.69319 96.99157 27.63025
#
# Poissons Ratio (x) = 0.32596 0.22894
# Poissons Ratio (y) = 0.18381 0.13643
# Poissons Ratio (z) = 0.45318 0.47891
#
# Static dielectric constant tensor:
#      x y z
#    x 1.657610 0.000000 0.018430 
#    y 0.000000 1.674670 0.000000 
#    z 0.018430 0.000000 1.647150 
# 
# From -- ./inp_files/39107.got.cif
#   From: 2010.05.17/outbox.ucp.g08.bks.cvg/sg13_20_cif.got.tgz:39107.got - 2010.06.11 12:23:55.
