data_PCOD9238984
_publ_section_title
;
Structure prediction by ZEFSAII (Michael W. Deem and Ramdas Pophale) SiO2 
 PCOD9238984
Probable space group: P 2/C
;
_chemical_formula_sum "Si O2"
_cell_formula_units_Z 28
_cell_length_a 27.000000
_cell_length_b 9.000000
_cell_length_c 9.000000
_cell_angle_alpha 90.000000
_cell_angle_beta 140.000000
_cell_angle_gamma 90.000000
_cell_volume 1405.776502
_symmetry_space_group_name_H-M "P 2/C"
_symmetry_group_IT_number 13
_symmetry_cell_setting 'monoclinic'
loop_
_space_group_symop_operation_xyz
x,y,z
-x,y,1/2-z
-x,-y,-z
x,-y,1/2+z
loop_
_atom_site_type_symbol
_atom_site_label
_atom_site_fract_x
_atom_site_fract_y
_atom_site_fract_z
Si Si1 0.586504 0.647597 0.385427
Si Si2 0.867168 0.652126 0.230946
Si Si3 0.582200 0.341736 0.517764
Si Si4 0.845609 0.339350 0.032172
Si Si5 0.283979 0.841688 0.664214
Si Si6 0.298158 0.148839 0.843204
Si Si7 0.011294 0.157871 0.097730
O O1 0.500000 0.671822 0.250000
O O2 0.616368 0.491378 0.522059
O O3 0.582096 0.644048 0.195928
O O4 0.645706 0.767843 0.584667
O O5 0.859764 0.491753 0.145511
O O6 0.863892 0.641186 0.400972
O O7 0.947677 0.731970 0.383525
O O8 0.793746 0.745995 0.009214
O O9 0.623969 0.193993 0.559389
O O10 0.500000 0.337385 0.250000
O O11 0.903742 0.219266 0.232580
O O12 0.760090 0.277857 0.839547
O O13 0.304351 0.857086 0.535794
O O14 0.267993 0.996853 0.706478
O O15 0.000000 0.148728 0.250000
O O16 0.000000 0.000000 0.000000
#
# Coordination Sequence:
#
# PCOD9238984 Si02
#       7
#     4   4   4   4   4   4   4
#     4  11  22  39  62  88 117 152 192 238 287 344
#     4  10  22  38  59  85 116 151 194 239 285 340
#     4  11  22  39  62  88 117 152 192 238 287 344
#     4  10  22  38  59  85 116 151 194 239 285 340
#     4  11  23  39  58  85 117 153 194 240 291 346
#     4  11  23  39  58  85 117 153 194 240 291 346
#     4  10  21  38  58  86 118 152 191 236 286 340
#
# _framework density 19.917818
#
# number of rings (size 3 to 8) (size 9 to 14) (size 15 to 20)
#    0.000    1.429    0.000    6.429    0.000    6.286 
#    0.000    2.857    0.000    0.000    0.000    0.000 
#    0.000    0.000    0.000    0.000    0.000    0.000 
#
# Total GULP energy -156345.651707 kJ/mol
# GULP energy per Si atom -5583.773275 kJ/mol
# Density = 1.987248 g / cm^3
# Si number density = 19.917818 Si / 1000 Ang^3
#
#
#
# Elastic Constant Matrix: (Units=GPa)
#
#
# Indices 1 2 3 4 5 6 
#
# 1 26.6119 8.1280 39.8340 0.0000 -0.7712 0.0000
# 2 8.1280 91.7135 56.1534 0.0000 -8.2440 0.0000
# 3 39.8340 56.1534 125.1064 0.0000 -14.3190 0.0000
# 4 0.0000 0.0000 0.0000 39.5175 0.0000 -3.8340
# 5 -0.7712 -8.2440 -14.3190 0.0000 13.1716 0.0000
# 6 0.0000 0.0000 0.0000 -3.8340 0.0000 15.2336
#
#
#
# Elastic Compliance Matrix: (Units=1/GPa)
#
#
# Indices 1 2 3 4 5 6 
#
# 1 0.087573 0.012106 -0.036391 0.000000 -0.026857 0.000000
# 2 0.012106 0.016774 -0.011536 0.000000 -0.001333 0.000000
# 3 -0.036391 -0.011536 0.027054 0.000000 0.020060 0.000000
# 4 0.000000 0.000000 0.000000 0.025939 0.000000 0.006528
# 5 -0.026857 -0.001333 0.020060 0.000000 0.095321 0.000000
# 6 0.000000 0.000000 0.000000 0.006528 0.000000 0.067287
#
#
# Mechanical properties :
#
#
# Convention : Reuss Voigt Hill
#
# Bulk Modulus (GPa) = 16.73392 50.18473 33.45932
# Shear Modulus (GPa) = 12.15038 22.87229 17.51133
#
# Velocity S-wave (km/s) = 2.47255 3.39238 2.96831
# Velocity P-wave (km/s) = 4.07076 6.37142 5.34631
#
# Compressibility (1/GPa) = 0.05975886
#
# Stress axis : x y z
#
# Youngs Moduli (GPa) = 11.41902 59.61620 36.96321
#
# Poissons Ratio (x) = -0.72171 1.34513
# Poissons Ratio (y) = -0.13824 0.42641
# Poissons Ratio (z) = 0.41555 0.68774
#
# Static dielectric constant tensor:
#      x y z
#    x 1.706850 0.000000 0.048630 
#    y 0.000000 1.739720 0.000000 
#    z 0.048630 0.000000 1.687850 
# 
# From -- ./inp_files/24589.got.cif
#   From: 2010.05.17/outbox.ucp.g08.bks.cvg/sg13_13_cif.got.tgz:24589.got - 2010.06.11 12:23:55.
