data_PCOD9238202
_publ_section_title
;
Structure prediction by ZEFSAII (Michael W. Deem and Ramdas Pophale) SiO2 
 PCOD9238202
Probable space group: P 2/C
;
_chemical_formula_sum "Si O2"
_cell_formula_units_Z 28
_cell_length_a 16.467123
_cell_length_b 5.311356
_cell_length_c 14.188445
_cell_angle_alpha 90.000000
_cell_angle_beta 116.469344
_cell_angle_gamma 90.000000
_cell_volume 1110.874256
_symmetry_space_group_name_H-M "P 2/C"
_symmetry_group_IT_number 13
_symmetry_cell_setting 'monoclinic'
loop_
_space_group_symop_operation_xyz
x,y,z
-x,y,1/2-z
-x,-y,-z
x,-y,1/2+z
loop_
_atom_site_type_symbol
_atom_site_label
_atom_site_fract_x
_atom_site_fract_y
_atom_site_fract_z
Si Si1 0.980146 0.751486 0.548662
Si Si2 0.605438 0.252773 0.130880
Si Si3 0.208052 0.953336 0.066389
Si Si4 0.500000 0.576677 0.750000
Si Si5 0.277431 0.762534 0.296253
Si Si6 0.000000 0.596490 0.750000
Si Si7 0.638857 0.283633 0.941644
Si Si8 0.817371 0.380385 0.571060
O O1 0.872829 0.781269 0.517712
O O2 0.000000 0.500000 0.500000
O O3 0.032322 0.750272 0.675178
O O4 0.000000 0.000000 0.500000
O O5 0.530369 0.275194 0.172645
O O6 0.677722 0.482926 0.186430
O O7 0.647067 0.977285 0.161538
O O8 0.580759 0.270479 0.007091
O O9 0.218488 0.840840 0.175414
O O10 0.309886 0.956582 0.075092
O O11 0.174809 0.231419 0.023598
O O12 0.582047 0.406516 0.829509
O O13 0.220284 0.792834 0.362072
O O14 0.083641 0.442591 0.835489
O O15 0.729594 0.439603 0.014515
#
# Coordination Sequence:
#
# PCOD9238202 Si02
#       8
#     4   4   4   2   4   2   4   4
#     4  12  29  48  74 117 157 204 270 328 385 468
#     4  11  25  47  73 112 148 196 255 318 385 479
#     4  12  24  46  76 106 158 204 256 324 386 462
#     4  12  24  48  80 110 154 202 252 326 400 466
#     4  11  25  45  77 108 153 200 254 316 395 458
#     4  12  26  52  80 116 160 222 266 332 396 466
#     4  11  24  48  72 112 152 200 259 316 391 466
#     4  11  25  49  77 112 159 206 267 323 393 471
#
# _framework density 25.205375
#
# number of rings (size 3 to 8) (size 9 to 14) (size 15 to 20)
#    0.000    0.571    4.286    3.000    0.000    6.286 
#    2.571    2.143    0.000    0.000    0.000    0.000 
#    0.000    0.000    0.000    0.000    0.000    0.000 
#
# Total GULP energy -156451.115325 kJ/mol
# GULP energy per Si atom -5587.539833 kJ/mol
# Density = 2.514801 g / cm^3
# Si number density = 25.205375 Si / 1000 Ang^3
#
#
#
# Elastic Constant Matrix: (Units=GPa)
#
#
# Indices 1 2 3 4 5 6 
#
# 1 108.6846 19.5521 12.2229 0.0000 -2.5915 0.0000
# 2 19.5521 58.5057 4.8280 0.0000 8.6659 0.0000
# 3 12.2229 4.8280 111.3593 0.0000 -6.0866 0.0000
# 4 0.0000 0.0000 0.0000 -17.4469 0.0000 -10.3885
# 5 -2.5915 8.6659 -6.0866 0.0000 32.6957 0.0000
# 6 0.0000 0.0000 0.0000 -10.3885 0.0000 25.2061
#
#
#
# Elastic Compliance Matrix: (Units=1/GPa)
#
#
# Indices 1 2 3 4 5 6 
#
# 1 0.009962 -0.003489 -0.000857 0.000000 0.001555 0.000000
# 2 -0.003489 0.019133 -0.000746 0.000000 -0.005486 0.000000
# 3 -0.000857 -0.000746 0.009207 0.000000 0.001844 0.000000
# 4 0.000000 0.000000 0.000000 -0.046023 0.000000 -0.018968
# 5 0.001555 -0.005486 0.001844 0.000000 0.032506 0.000000
# 6 0.000000 0.000000 0.000000 -0.018968 0.000000 0.031856
#
#
# Mechanical properties :
#
#
# Convention : Reuss Voigt Hill
#
# Bulk Modulus (GPa) = 35.56579 39.08394 37.32486
# Shear Modulus (GPa) = 65.61907 24.22076 44.91991
#
# Velocity S-wave (km/s) = 5.10786 3.10326 4.22614
# Velocity P-wave (km/s) = 6.99486 5.32730 6.21724
#
# Compressibility (1/GPa) = 0.02811691
#
# Stress axis : x y z
#
# Youngs Moduli (GPa) = 100.38119 52.26704 108.61098
#
# Poissons Ratio (x) = 0.18235 0.09310
# Poissons Ratio (y) = 0.35021 0.08107
# Poissons Ratio (z) = 0.08605 0.03901
#
# Static dielectric constant tensor:
#      x y z
#    x 2.116980 0.000000 -0.079670 
#    y 0.000000 2.212210 0.000000 
#    z -0.079670 0.000000 2.026150 
# 
# From -- ./inp_files/54415.got.cif
#   From: 2010.05.17/outbox.cif.g08.bks.cpg/sg13_28_cif.got.tgz:54415.got - 2010.06.03 16:44:36.
