data_PCOD9238646
_publ_section_title
;
Structure prediction by ZEFSAII (Michael W. Deem and Ramdas Pophale) SiO2 
 PCOD9238646
Probable space group: P 2/C
;
_chemical_formula_sum "Si O2"
_cell_formula_units_Z 16
_cell_length_a 9.709973
_cell_length_b 11.044720
_cell_length_c 8.545167
_cell_angle_alpha 90.000000
_cell_angle_beta 50.246056
_cell_angle_gamma 90.000000
_cell_volume 704.539630
_symmetry_space_group_name_H-M "P 2/C"
_symmetry_group_IT_number 13
_symmetry_cell_setting 'monoclinic'
loop_
_space_group_symop_operation_xyz
x,y,z
-x,y,1/2-z
-x,-y,-z
x,-y,1/2+z
loop_
_atom_site_type_symbol
_atom_site_label
_atom_site_fract_x
_atom_site_fract_y
_atom_site_fract_z
Si Si1 0.249864 0.812509 0.255596
Si Si2 0.788377 0.046103 0.403998
Si Si3 0.411934 0.756785 0.645785
Si Si4 0.043854 0.631496 0.902456
O O1 0.278127 0.900501 0.383739
O O2 0.078776 0.729763 0.417162
O O3 0.228025 0.905105 0.126243
O O4 0.424885 0.733183 0.092522
O O5 0.684427 0.122293 0.348252
O O6 0.000000 0.072545 0.250000
O O7 0.500000 0.769446 0.750000
O O8 0.253096 0.660506 0.768236
O O9 0.000000 0.639000 0.750000
O O10 0.000000 0.500000 0.000000
#
# Coordination Sequence:
#
# PCOD9238646 Si02
#       4
#     4   4   4   4
#     4  12  26  48  79 111 162 193 257 313 386 455
#     4  12  24  46  78 112 158 207 242 312 395 460
#     4  12  27  48  76 117 151 202 254 315 385 454
#     4  12  30  56  80 109 151 206 261 317 380 451
#
# _framework density 22.709865000000001
#
# number of rings (size 3 to 8) (size 9 to 14) (size 15 to 20)
#    0.000    0.000    5.000    3.750    7.000    1.000 
#    0.000    0.000    0.000    0.000    0.000    0.000 
#    0.000    0.000    0.000    0.000    0.000    0.000 
#
# Total GULP energy -89604.088464 kJ/mol
# GULP energy per Si atom -5600.255529 kJ/mol
# Density = 2.265818 g / cm^3
# Si number density = 22.709865 Si / 1000 Ang^3
#
#
#
# Elastic Constant Matrix: (Units=GPa)
#
#
# Indices 1 2 3 4 5 6 
#
# 1 135.0205 10.2802 70.0568 0.0000 -3.2113 0.0000
# 2 10.2802 95.2260 61.8983 0.0000 6.2802 0.0000
# 3 70.0568 61.8983 180.4020 0.0000 -19.7384 0.0000
# 4 0.0000 0.0000 0.0000 37.5841 0.0000 1.5099
# 5 -3.2113 6.2802 -19.7384 0.0000 39.3981 0.0000
# 6 0.0000 0.0000 0.0000 1.5099 0.0000 19.8247
#
#
#
# Elastic Compliance Matrix: (Units=1/GPa)
#
#
# Indices 1 2 3 4 5 6 
#
# 1 0.009624 0.002124 -0.004674 0.000000 -0.001896 0.000000
# 2 0.002124 0.014875 -0.006527 0.000000 -0.005468 0.000000
# 3 -0.004674 -0.006527 0.010231 0.000000 0.005785 0.000000
# 4 0.000000 0.000000 0.000000 0.026689 0.000000 -0.002033
# 5 -0.001896 -0.005468 0.005785 0.000000 0.028997 0.000000
# 6 0.000000 0.000000 0.000000 -0.002033 0.000000 0.050597
#
#
# Mechanical properties :
#
#
# Convention : Reuss Voigt Hill
#
# Bulk Modulus (GPa) = 60.32484 77.23547 68.78016
# Shear Modulus (GPa) = 30.35962 37.25560 33.80761
#
# Velocity S-wave (km/s) = 3.66026 4.05471 3.86252
# Velocity P-wave (km/s) = 6.66965 7.48360 7.08832
#
# Compressibility (1/GPa) = 0.01657692
#
# Stress axis : x y z
#
# Youngs Moduli (GPa) = 103.90157 67.22543 97.74576
#
# Poissons Ratio (x) = -0.14279 0.45684
# Poissons Ratio (y) = -0.22069 0.63799
# Poissons Ratio (z) = 0.48561 0.43878
#
# Static dielectric constant tensor:
#      x y z
#    x 1.841520 0.000000 0.006010 
#    y 0.000000 1.828030 0.000000 
#    z 0.006010 0.000000 1.884270 
# 
# From -- ./inp_files/11503.got.cif
#   From: 2010.05.17/outbox.cif.g08.bks.cpg/sg13_6_cif.got.tgz:11503.got - 2010.06.03 16:44:36.
