data_PCOD9238977
_publ_section_title
;
Structure prediction by ZEFSAII (Michael W. Deem and Ramdas Pophale) SiO2 
 PCOD9238977
Probable space group: P 2/C
;
_chemical_formula_sum "Si O2"
_cell_formula_units_Z 32
_cell_length_a 9.000000
_cell_length_b 15.000000
_cell_length_c 15.000000
_cell_angle_alpha 90.000000
_cell_angle_beta 60.000000
_cell_angle_gamma 90.000000
_cell_volume 1753.701443
_symmetry_space_group_name_H-M "P 2/C"
_symmetry_group_IT_number 13
_symmetry_cell_setting 'monoclinic'
loop_
_space_group_symop_operation_xyz
x,y,z
-x,y,1/2-z
-x,-y,-z
x,-y,1/2+z
loop_
_atom_site_type_symbol
_atom_site_label
_atom_site_fract_x
_atom_site_fract_y
_atom_site_fract_z
Si Si1 0.350945 0.110829 0.865873
Si Si2 0.851667 0.678123 0.976430
Si Si3 0.224631 0.686342 0.118424
Si Si4 0.977098 0.505508 0.359693
Si Si5 0.427389 0.784878 0.524864
Si Si6 0.300723 0.379877 0.796796
Si Si7 0.037471 0.810558 0.036734
Si Si8 0.401934 0.102069 0.371966
O O1 0.500000 0.137680 0.750000
O O2 0.149072 0.136514 0.901898
O O3 0.376612 0.004930 0.874370
O O4 0.403105 0.158456 0.942024
O O5 0.907245 0.578849 0.933872
O O6 0.745464 0.724661 0.928236
O O7 0.737069 0.674029 0.101232
O O8 0.006169 0.738224 0.967342
O O9 0.150422 0.591639 0.105075
O O10 0.253753 0.671773 0.217382
O O11 0.094047 0.759648 0.112414
O O12 0.411050 0.717433 0.028982
O O13 0.000000 0.478391 0.250000
O O14 0.162109 0.540128 0.337757
O O15 0.474891 0.854413 0.588898
O O16 0.500000 0.405867 0.750000
O O17 0.208082 0.863597 0.953532
O O18 0.500000 0.127231 0.250000
#
# Coordination Sequence:
#
# PCOD9238977 Si02
#       8
#     4   4   4   4   4   4   4   4
#     4  10  22  38  66  95 125 157 198 253 317 377
#     4  11  22  38  61  86 119 162 204 249 309 360
#     4  10  21  37  57  87 123 156 194 253 308 359
#     4  10  23  39  56  82 123 160 202 250 302 363
#     4  10  22  37  64  91 119 156 205 255 299 370
#     4  11  21  37  58  85 121 158 199 256 314 364
#     4  10  22  38  63  92 123 160 204 258 300 372
#     4  10  22  44  62  87 126 165 202 251 309 367
#
# _framework density 18.247119999999999
#
# number of rings (size 3 to 8) (size 9 to 14) (size 15 to 20)
#    0.000    1.750    2.500    1.125    3.500    1.500 
#    0.000    2.500    0.000   10.500    0.000    0.000 
#    0.000    0.000    0.000    0.000    0.000    0.000 
#
# Total GULP energy -178191.223955 kJ/mol
# GULP energy per Si atom -5568.475749 kJ/mol
# Density = 1.820559 g / cm^3
# Si number density = 18.247120 Si / 1000 Ang^3
#
#
#
# Elastic Constant Matrix: (Units=GPa)
#
#
# Indices 1 2 3 4 5 6 
#
# 1 162.9301 53.9282 48.2825 0.0000 4.3611 0.0000
# 2 53.9282 101.1445 49.6029 0.0000 4.4869 0.0000
# 3 48.2825 49.6029 87.5379 0.0000 6.1414 0.0000
# 4 0.0000 0.0000 0.0000 31.1210 0.0000 -1.6466
# 5 4.3611 4.4869 6.1414 0.0000 29.4441 0.0000
# 6 0.0000 0.0000 0.0000 -1.6466 0.0000 22.8697
#
#
#
# Elastic Compliance Matrix: (Units=1/GPa)
#
#
# Indices 1 2 3 4 5 6 
#
# 1 0.007898 -0.002871 -0.002718 0.000000 -0.000165 0.000000
# 2 -0.002871 0.014742 -0.006741 0.000000 -0.000415 0.000000
# 3 -0.002718 -0.006741 0.016889 0.000000 -0.002093 0.000000
# 4 0.000000 0.000000 0.000000 0.032256 0.000000 0.002322
# 5 -0.000165 -0.000415 -0.002093 0.000000 0.034487 0.000000
# 6 0.000000 0.000000 0.000000 0.002322 0.000000 0.043893
#
#
# Mechanical properties :
#
#
# Convention : Reuss Voigt Hill
#
# Bulk Modulus (GPa) = 67.24991 72.80442 70.02717
# Shear Modulus (GPa) = 27.81192 30.00688 28.90940
#
# Velocity S-wave (km/s) = 3.90831 4.05961 3.98468
# Velocity P-wave (km/s) = 7.56978 7.87145 7.72209
#
# Compressibility (1/GPa) = 0.01486991
#
# Stress axis : x y z
#
# Youngs Moduli (GPa) = 126.62141 67.83512 59.20988
#
# Poissons Ratio (x) = 0.19473 0.16092
# Poissons Ratio (y) = 0.36349 0.39912
# Poissons Ratio (z) = 0.34412 0.45726
#
# Static dielectric constant tensor:
#      x y z
#    x 1.636550 0.000000 -0.007860 
#    y 0.000000 1.659260 0.000000 
#    z -0.007860 0.000000 1.655730 
# 
# From -- ./inp_files/47675.got.cif
#   From: 2010.05.17/outbox.ucp.g08.bks.cvg/sg13_24_cif.got.tgz:47675.got - 2010.06.11 12:23:55.
