data_PCOD9238522
_publ_section_title
;
Structure prediction by ZEFSAII (Michael W. Deem and Ramdas Pophale) SiO2 
 PCOD9238522
Probable space group: P 2/C
;
_chemical_formula_sum "Si O2"
_cell_formula_units_Z 22
_cell_length_a 12.726482
_cell_length_b 9.054349
_cell_length_c 16.250659
_cell_angle_alpha 90.000000
_cell_angle_beta 146.733789
_cell_angle_gamma 90.000000
_cell_volume 1027.156975
_symmetry_space_group_name_H-M "P 2/C"
_symmetry_group_IT_number 13
_symmetry_cell_setting 'monoclinic'
loop_
_space_group_symop_operation_xyz
x,y,z
-x,y,1/2-z
-x,-y,-z
x,-y,1/2+z
loop_
_atom_site_type_symbol
_atom_site_label
_atom_site_fract_x
_atom_site_fract_y
_atom_site_fract_z
Si Si1 0.687104 0.586856 0.598769
Si Si2 0.936421 0.155451 0.864170
Si Si3 0.971667 0.347899 0.431507
Si Si4 0.506143 0.107108 0.924714
Si Si5 0.128482 0.871880 0.917083
Si Si6 0.000000 0.629130 0.250000
O O1 0.500000 0.500000 0.500000
O O2 0.612996 0.738959 0.513274
O O3 0.819485 0.481953 0.629215
O O4 0.802419 0.623935 0.757024
O O5 0.711973 0.142220 0.741235
O O6 0.962638 0.265684 0.803644
O O7 0.055913 0.225958 0.016303
O O8 0.006460 0.995312 0.884467
O O9 0.132771 0.274000 0.477218
O O10 0.000000 0.500000 0.500000
O O11 0.665353 0.051324 0.964580
O O12 0.500000 0.000000 0.000000
O O13 0.000000 0.843189 0.750000
#
# Coordination Sequence:
#
# PCOD9238522 Si02
#       6
#     4   4   4   4   4   2
#     4  12  24  43  72 102 140 191 245 294 367 454
#     4  12  25  46  74 105 147 187 246 317 377 445
#     4  12  25  45  69 106 149 185 241 320 371 434
#     4  12  23  44  76 106 136 193 253 296 368 462
#     4  12  24  44  76 102 141 199 245 301 382 455
#     4  12  22  44  74 100 144 196 242 300 390 442
#
# _framework density 21.418344000000001
#
# number of rings (size 3 to 8) (size 9 to 14) (size 15 to 20)
#    0.000    0.000    8.182    1.636    0.000    0.727 
#    0.000    2.727    0.000    0.000    0.000    0.000 
#    0.000    0.000    0.000    0.000    0.000    0.000 
#
# Total GULP energy -122860.163650 kJ/mol
# GULP energy per Si atom -5584.552893 kJ/mol
# Density = 2.136959 g / cm^3
# Si number density = 21.418344 Si / 1000 Ang^3
#
#
#
# Elastic Constant Matrix: (Units=GPa)
#
#
# Indices 1 2 3 4 5 6 
#
# 1 120.4543 37.3557 38.0016 0.0000 22.5111 0.0000
# 2 37.3557 98.8440 12.8638 0.0000 -0.4032 0.0000
# 3 38.0016 12.8638 69.2544 0.0000 17.8898 0.0000
# 4 0.0000 0.0000 0.0000 37.7645 0.0000 0.3522
# 5 22.5111 -0.4032 17.8898 0.0000 53.2573 0.0000
# 6 0.0000 0.0000 0.0000 0.3522 0.0000 56.0329
#
#
#
# Elastic Compliance Matrix: (Units=1/GPa)
#
#
# Indices 1 2 3 4 5 6 
#
# 1 0.011612 -0.003776 -0.004813 0.000000 -0.003320 0.000000
# 2 -0.003776 0.011626 -0.000572 0.000000 0.001876 0.000000
# 3 -0.004813 -0.000572 0.018245 0.000000 -0.004099 0.000000
# 4 0.000000 0.000000 0.000000 0.026481 0.000000 -0.000166
# 5 -0.003320 0.001876 -0.004099 0.000000 0.021571 0.000000
# 6 0.000000 0.000000 0.000000 -0.000166 0.000000 0.017848
#
#
# Mechanical properties :
#
#
# Convention : Reuss Voigt Hill
#
# Bulk Modulus (GPa) = 43.17437 51.66610 47.42024
# Shear Modulus (GPa) = 37.47422 42.76640 40.12031
#
# Velocity S-wave (km/s) = 4.18740 4.47331 4.33271
# Velocity P-wave (km/s) = 6.60155 7.13130 6.87153
#
# Compressibility (1/GPa) = 0.02316189
#
# Stress axis : x y z
#
# Youngs Moduli (GPa) = 86.12115 86.01432 54.80806
#
# Poissons Ratio (x) = 0.32475 0.26377
# Poissons Ratio (y) = 0.32515 0.03137
# Poissons Ratio (z) = 0.41447 0.04923
#
# Static dielectric constant tensor:
#      x y z
#    x 3.314220 0.000000 0.591280 
#    y 0.000000 1.890400 0.000000 
#    z 0.591280 0.000000 1.993620 
# 
# From -- ./inp_files/68307.got.cif
#   From: 2010.05.17/outbox.cif.g08.bks.cpg/sg13_35_cif.got.tgz:68307.got - 2010.06.03 16:44:36.
