data_PCOD9238929
_publ_section_title
;
Structure prediction by ZEFSAII (Michael W. Deem and Ramdas Pophale) SiO2 
 PCOD9238929
Probable space group: P 2/C
;
_chemical_formula_sum "Si O2"
_cell_formula_units_Z 28
_cell_length_a 15.000000
_cell_length_b 9.000000
_cell_length_c 12.000000
_cell_angle_alpha 90.000000
_cell_angle_beta 120.000000
_cell_angle_gamma 90.000000
_cell_volume 1402.961154
_symmetry_space_group_name_H-M "P 2/C"
_symmetry_group_IT_number 13
_symmetry_cell_setting 'monoclinic'
loop_
_space_group_symop_operation_xyz
x,y,z
-x,y,1/2-z
-x,-y,-z
x,-y,1/2+z
loop_
_atom_site_type_symbol
_atom_site_label
_atom_site_fract_x
_atom_site_fract_y
_atom_site_fract_z
Si Si1 0.704873 0.212040 0.122822
Si Si2 0.277395 0.073842 0.988103
Si Si3 0.768074 0.428976 0.966719
Si Si4 0.136243 0.854929 0.043879
Si Si5 0.897480 0.295405 0.612772
Si Si6 0.615332 0.316102 0.292502
Si Si7 0.915073 0.854063 0.876437
O O1 0.632182 0.267684 0.175945
O O2 0.821015 0.203952 0.245149
O O3 0.675949 0.042570 0.070349
O O4 0.712150 0.328895 0.026026
O O5 0.191883 0.190417 0.891286
O O6 0.351463 0.176948 0.108182
O O7 0.217171 0.957328 0.029436
O O8 0.816332 0.307817 0.911661
O O9 0.690118 0.545360 0.863205
O O10 0.855420 0.536755 0.073363
O O11 0.101970 0.968301 0.119227
O O12 0.031188 0.832382 0.907906
O O13 0.911192 0.228315 0.495433
O O14 0.000000 0.288692 0.750000
O O15 0.500000 0.357250 0.250000
#
# Coordination Sequence:
#
# PCOD9238929 Si02
#       7
#     4   4   4   4   4   4   4
#     4  11  22  41  66  89 129 162 206 263 315 374
#     4   9  21  39  60  93 122 159 217 254 307 372
#     4  10  23  40  59  94 128 161 212 255 313 383
#     4   9  19  35  57  88 129 157 214 236 293 383
#     4  10  21  34  52  89 133 165 208 249 291 376
#     4  11  24  48  66  87 126 161 211 278 321 370
#     4  10  20  36  60  90 127 181 198 238 321 357
#
# _framework density 19.957787
#
# number of rings (size 3 to 8) (size 9 to 14) (size 15 to 20)
#    0.000    2.000    4.286    0.000    8.000    4.000 
#    2.571    2.857    0.000    0.000    0.000    0.000 
#    0.000    0.000    0.000    0.000    0.000    0.000 
#
# Total GULP energy -156194.716660 kJ/mol
# GULP energy per Si atom -5578.382738 kJ/mol
# Density = 1.991236 g / cm^3
# Si number density = 19.957787 Si / 1000 Ang^3
#
#
#
# Elastic Constant Matrix: (Units=GPa)
#
#
# Indices 1 2 3 4 5 6 
#
# 1 43.5441 30.4789 11.9143 0.0000 6.8115 0.0000
# 2 30.4789 145.6281 17.1858 0.0000 -5.5039 0.0000
# 3 11.9143 17.1858 23.6392 0.0000 -14.7686 0.0000
# 4 0.0000 0.0000 0.0000 20.3377 0.0000 -4.3202
# 5 6.8115 -5.5039 -14.7686 0.0000 9.6546 0.0000
# 6 0.0000 0.0000 0.0000 -4.3202 0.0000 19.9833
#
#
#
# Elastic Compliance Matrix: (Units=1/GPa)
#
#
# Indices 1 2 3 4 5 6 
#
# 1 -0.001293 -0.002851 0.051404 0.000000 0.077919 0.000000
# 2 -0.002851 0.008175 -0.007633 0.000000 -0.005005 0.000000
# 3 0.051404 -0.007633 -0.077416 0.000000 -0.159040 0.000000
# 4 0.000000 0.000000 0.000000 0.051536 0.000000 0.011142
# 5 0.077919 -0.005005 -0.159040 0.000000 -0.197531 0.000000
# 6 0.000000 0.000000 0.000000 0.011142 0.000000 0.052450
#
#
# Mechanical properties :
#
#
# Convention : Reuss Voigt Hill
#
# Bulk Modulus (GPa) = 88.45288 36.88549 62.66919
# Shear Modulus (GPa) = -20.64845 20.21062 -0.21892
#
# Velocity S-wave (km/s) = -3.22002 3.18570 -0.33155
# Velocity P-wave (km/s) = 5.53096 5.66158 5.59665
#
# Compressibility (1/GPa) = 0.01130545
#
# Stress axis : x y z
#
# Youngs Moduli (GPa) = -773.46163 122.32252 -12.91721
#
# Poissons Ratio (x) = 0.34871 0.66399
# Poissons Ratio (y) = -2.20496 -0.09860
# Poissons Ratio (z) = 39.75875 0.93371
#
# Static dielectric constant tensor:
#      x y z
#    x 1.759780 0.000000 -0.043830 
#    y 0.000000 1.695660 0.000000 
#    z -0.043830 0.000000 1.748930 
# 
# From -- ./inp_files/36146.got.cif
#   From: 2010.05.17/outbox.ucp.g08.bks.cvg/sg13_19_cif.got.tgz:36146.got - 2010.06.11 12:23:55.
