data_PCOD9238745
_publ_section_title
;
Structure prediction by ZEFSAII (Michael W. Deem and Ramdas Pophale) SiO2 
 PCOD9238745
Probable space group: P 2/C
;
_chemical_formula_sum "Si O2"
_cell_formula_units_Z 12
_cell_length_a 12.368823
_cell_length_b 4.903703
_cell_length_c 8.920069
_cell_angle_alpha 90.000000
_cell_angle_beta 143.556482
_cell_angle_gamma 90.000000
_cell_volume 321.387638
_symmetry_space_group_name_H-M "P 2/C"
_symmetry_group_IT_number 13
_symmetry_cell_setting 'monoclinic'
loop_
_space_group_symop_operation_xyz
x,y,z
-x,y,1/2-z
-x,-y,-z
x,-y,1/2+z
loop_
_atom_site_type_symbol
_atom_site_label
_atom_site_fract_x
_atom_site_fract_y
_atom_site_fract_z
Si Si1 0.228239 0.127620 0.621481
Si Si2 0.544580 0.650048 0.671116
Si Si3 0.122008 0.551224 0.748755
O O1 0.085995 0.311184 0.569549
O O2 0.159745 0.154960 0.377173
O O3 0.284734 0.823815 0.723152
O O4 0.404613 0.324864 0.857301
O O5 0.500000 0.903009 0.750000
O O6 0.338915 0.537855 0.537099
O O7 0.000000 0.419687 0.750000
#
# Coordination Sequence:
#
# PCOD9238745 Si02
#       3
#     4   4   4
#     4   9  24  44  74 103 147 184 248 300 378 430
#     4  12  26  47  72 102 146 201 244 300 364 440
#     4   8  20  42  76 105 144 188 238 315 374 430
#
# _framework density 37.338082999999997
#
# number of rings (size 3 to 8) (size 9 to 14) (size 15 to 20)
#    2.000    0.000    0.000    2.000    4.667    5.333 
#    0.000    3.333    0.000    0.000    0.000    0.000 
#    0.000    0.000    0.000    0.000    0.000    0.000 
#
# Total GULP energy -66825.231374 kJ/mol
# GULP energy per Si atom -5568.769281 kJ/mol
# Density = 3.725310 g / cm^3
# Si number density = 37.338083 Si / 1000 Ang^3
#
#
#
# Elastic Constant Matrix: (Units=GPa)
#
#
# Indices 1 2 3 4 5 6 
#
# 1 328.2041 44.0595 100.5308 0.0000 -68.2248 0.0000
# 2 44.0595 319.4854 123.2842 0.0000 -25.6188 0.0000
# 3 100.5308 123.2842 443.8286 0.0000 -28.8986 0.0000
# 4 0.0000 0.0000 0.0000 141.7462 0.0000 -2.2106
# 5 -68.2248 -25.6188 -28.8986 0.0000 139.2784 0.0000
# 6 0.0000 0.0000 0.0000 -2.2106 0.0000 40.3434
#
#
#
# Elastic Compliance Matrix: (Units=1/GPa)
#
#
# Indices 1 2 3 4 5 6 
#
# 1 0.003604 -0.000105 -0.000683 0.000000 0.001604 0.000000
# 2 -0.000105 0.003537 -0.000932 0.000000 0.000406 0.000000
# 3 -0.000683 -0.000932 0.002670 0.000000 0.000048 0.000000
# 4 0.000000 0.000000 0.000000 0.007061 0.000000 0.000387
# 5 0.001604 0.000406 0.000048 0.000000 0.008050 0.000000
# 6 0.000000 0.000000 0.000000 0.000387 0.000000 0.024808
#
#
# Mechanical properties :
#
#
# Convention : Reuss Voigt Hill
#
# Bulk Modulus (GPa) = 156.97151 180.80745 168.88948
# Shear Modulus (GPa) = 90.42764 119.18317 104.80541
#
# Velocity S-wave (km/s) = 4.92658 5.65591 5.30379
# Velocity P-wave (km/s) = 8.63096 9.54892 9.10152
#
# Compressibility (1/GPa) = 0.00637058
#
# Stress axis : x y z
#
# Youngs Moduli (GPa) = 277.50483 282.74359 374.55559
#
# Poissons Ratio (x) = 0.02966 0.25569
# Poissons Ratio (y) = 0.02911 0.34918
# Poissons Ratio (z) = 0.18944 0.26359
#
# Static dielectric constant tensor:
#      x y z
#    x 4.544180 0.000000 1.237260 
#    y 0.000000 2.622650 0.000000 
#    z 1.237260 0.000000 3.868650 
# 
# From -- ./inp_files/51804.got.cif
#   From: 2010.05.17/outbox.cif.g08.bks.cpg/sg13_26_cif.got.tgz:51804.got - 2010.06.03 16:44:36.
