data_PCOD9238420
_publ_section_title
;
Structure prediction by ZEFSAII (Michael W. Deem and Ramdas Pophale) SiO2 
 PCOD9238420
Probable space group: P 2/C
;
_chemical_formula_sum "Si O2"
_cell_formula_units_Z 16
_cell_length_a 9.142568
_cell_length_b 4.912511
_cell_length_c 17.924572
_cell_angle_alpha 90.000000
_cell_angle_beta 128.540475
_cell_angle_gamma 90.000000
_cell_volume 629.681141
_symmetry_space_group_name_H-M "P 2/C"
_symmetry_group_IT_number 13
_symmetry_cell_setting 'monoclinic'
loop_
_space_group_symop_operation_xyz
x,y,z
-x,y,1/2-z
-x,-y,-z
x,-y,1/2+z
loop_
_atom_site_type_symbol
_atom_site_label
_atom_site_fract_x
_atom_site_fract_y
_atom_site_fract_z
Si Si1 0.593722 0.674710 0.640527
Si Si2 0.263012 0.063222 0.104811
Si Si3 0.126584 0.560458 0.151770
Si Si4 0.737627 0.696354 0.531191
O O1 0.752981 0.530735 0.738866
O O2 0.677199 0.808408 0.592615
O O3 0.437918 0.461299 0.561216
O O4 0.481397 0.878453 0.658719
O O5 0.199442 0.849354 0.146698
O O6 0.177965 0.350844 0.101310
O O7 0.201714 0.930470 0.006907
O O8 0.908957 0.510912 0.097879
#
# Coordination Sequence:
#
# PCOD9238420 Si02
#       4
#     4   4   4   4
#     4  11  27  47  76 106 151 189 243 299 364 434
#     4  12  26  48  71 110 140 192 244 299 355 431
#     4  12  28  47  76 106 148 190 245 298 361 433
#     4  11  26  50  72 109 146 195 239 298 368 431
#
# _framework density 25.409685
#
# number of rings (size 3 to 8) (size 9 to 14) (size 15 to 20)
#    0.000    0.500    2.500    3.750   10.500    0.000 
#    0.000    2.500    0.000    0.000    0.000    0.000 
#    0.000    0.000    0.000    0.000    0.000    0.000 
#
# Total GULP energy -89742.349503 kJ/mol
# GULP energy per Si atom -5608.896844 kJ/mol
# Density = 2.535185 g / cm^3
# Si number density = 25.409685 Si / 1000 Ang^3
#
#
#
# Elastic Constant Matrix: (Units=GPa)
#
#
# Indices 1 2 3 4 5 6 
#
# 1 67.0264 -5.1137 50.2660 0.0000 -4.4764 0.0000
# 2 -5.1137 74.5319 15.9167 0.0000 14.6594 0.0000
# 3 50.2660 15.9167 156.8019 0.0000 19.8609 0.0000
# 4 0.0000 0.0000 0.0000 34.1679 0.0000 3.9044
# 5 -4.4764 14.6594 19.8609 0.0000 47.1659 0.0000
# 6 0.0000 0.0000 0.0000 3.9044 0.0000 16.5107
#
#
#
# Elastic Compliance Matrix: (Units=1/GPa)
#
#
# Indices 1 2 3 4 5 6 
#
# 1 0.021034 0.002168 -0.007532 0.000000 0.004494 0.000000
# 2 0.002168 0.014646 -0.001723 0.000000 -0.003621 0.000000
# 3 -0.007532 -0.001723 0.009496 0.000000 -0.004178 0.000000
# 4 0.000000 0.000000 0.000000 0.030080 0.000000 -0.007113
# 5 0.004494 -0.003621 -0.004178 0.000000 0.024513 0.000000
# 6 0.000000 0.000000 0.000000 -0.007113 0.000000 0.062249
#
#
# Mechanical properties :
#
#
# Convention : Reuss Voigt Hill
#
# Bulk Modulus (GPa) = 32.25693 46.72200 39.48946
# Shear Modulus (GPa) = 26.80592 35.38832 31.09712
#
# Velocity S-wave (km/s) = 3.25152 3.73595 3.50212
# Velocity P-wave (km/s) = 5.17869 6.08582 5.65049
#
# Compressibility (1/GPa) = 0.03100109
#
# Stress axis : x y z
#
# Youngs Moduli (GPa) = 47.54293 68.27840 105.30630
#
# Poissons Ratio (x) = -0.14801 0.79317
# Poissons Ratio (y) = -0.10306 0.18144
# Poissons Ratio (z) = 0.35809 0.11764
#
# Static dielectric constant tensor:
#      x y z
#    x 2.036110 0.000000 0.032030 
#    y 0.000000 1.974140 0.000000 
#    z 0.032030 0.000000 2.007550 
# 
# From -- ./inp_files/62178.got.cif
#   From: 2010.05.17/outbox.cif.g08.bks.cpg/sg13_32_cif.got.tgz:62178.got - 2010.06.03 16:44:36.
