data_PCOD9238649
_publ_section_title
;
Structure prediction by ZEFSAII (Michael W. Deem and Ramdas Pophale) SiO2 
 PCOD9238649
Probable space group: P 2/C
;
_chemical_formula_sum "Si O2"
_cell_formula_units_Z 14
_cell_length_a 5.084011
_cell_length_b 9.362338
_cell_length_c 13.167026
_cell_angle_alpha 90.000000
_cell_angle_beta 72.195296
_cell_angle_gamma 90.000000
_cell_volume 596.709584
_symmetry_space_group_name_H-M "P 2/C"
_symmetry_group_IT_number 13
_symmetry_cell_setting 'monoclinic'
loop_
_space_group_symop_operation_xyz
x,y,z
-x,y,1/2-z
-x,-y,-z
x,-y,1/2+z
loop_
_atom_site_type_symbol
_atom_site_label
_atom_site_fract_x
_atom_site_fract_y
_atom_site_fract_z
Si Si1 0.726165 0.765036 0.837118
Si Si2 0.500000 0.964431 0.250000
Si Si3 0.269742 0.599851 0.978253
Si Si4 0.901691 0.156742 0.542452
O O1 0.443166 0.673468 0.865780
O O2 0.000000 0.705653 0.750000
O O3 0.671778 0.923024 0.798702
O O4 0.790222 0.780024 0.949439
O O5 0.317379 0.866970 0.343950
O O6 0.500000 0.500000 0.000000
O O7 0.000000 0.500000 0.000000
O O8 0.147790 0.739567 0.048837
O O9 0.000000 0.000000 0.500000
#
# Coordination Sequence:
#
# PCOD9238649 Si02
#       4
#     4   2   4   4
#     4  12  24  47  83 113 159 206 261 328 412 466
#     4  12  26  44  80 124 150 206 266 342 394 474
#     4  12  27  52  76 110 162 212 265 324 401 486
#     4  12  25  48  80 115 156 205 268 329 395 476
#
# _framework density 23.461998000000001
#
# number of rings (size 3 to 8) (size 9 to 14) (size 15 to 20)
#    0.000    0.000    8.571    0.857    0.000    0.000 
#    5.143    0.000    0.000    0.000    0.000    0.000 
#    0.000    0.000    0.000    0.000    0.000    0.000 
#
# Total GULP energy -78245.325406 kJ/mol
# GULP energy per Si atom -5588.951815 kJ/mol
# Density = 2.340860 g / cm^3
# Si number density = 23.461998 Si / 1000 Ang^3
#
#
#
# Elastic Constant Matrix: (Units=GPa)
#
#
# Indices 1 2 3 4 5 6 
#
# 1 160.7713 66.2546 73.8881 0.0000 -40.2538 0.0000
# 2 66.2546 147.7896 58.9222 0.0000 -28.9293 0.0000
# 3 73.8881 58.9222 217.8667 0.0000 -55.6665 0.0000
# 4 0.0000 0.0000 0.0000 10.2591 0.0000 -27.5460
# 5 -40.2538 -28.9293 -55.6665 0.0000 58.8631 0.0000
# 6 0.0000 0.0000 0.0000 -27.5460 0.0000 58.3578
#
#
#
# Elastic Compliance Matrix: (Units=1/GPa)
#
#
# Indices 1 2 3 4 5 6 
#
# 1 0.008837 -0.002746 -0.001391 0.000000 0.003378 0.000000
# 2 -0.002746 0.008694 -0.001066 0.000000 0.001387 0.000000
# 3 -0.001391 -0.001066 0.006558 0.000000 0.004726 0.000000
# 4 0.000000 0.000000 0.000000 -0.364556 0.000000 -0.172077
# 5 0.003378 0.001387 0.004726 0.000000 0.024450 0.000000
# 6 0.000000 0.000000 0.000000 -0.172077 0.000000 -0.064088
#
#
# Mechanical properties :
#
#
# Convention : Reuss Voigt Hill
#
# Bulk Modulus (GPa) = 73.08335 102.72859 87.90597
# Shear Modulus (GPa) = -13.69339 47.32020 16.81340
#
# Velocity S-wave (km/s) = -2.41849 4.49585 2.67989
# Velocity P-wave (km/s) = 4.83927 8.41608 6.86472
#
# Compressibility (1/GPa) = 0.01368301
#
# Stress axis : x y z
#
# Youngs Moduli (GPa) = 113.16503 115.02659 152.49470
#
# Poissons Ratio (x) = 0.31582 0.21216
# Poissons Ratio (y) = 0.31071 0.16249
# Poissons Ratio (z) = 0.15744 0.12257
#
# Static dielectric constant tensor:
#      x y z
#    x 2.028020 0.000000 0.025330 
#    y 0.000000 1.867890 0.000000 
#    z 0.025330 0.000000 1.855560 
# 
# From -- ./inp_files/43027.got.cif
#   From: 2010.05.17/outbox.cif.g08.bks.cpg/sg13_22_cif.got.tgz:43027.got - 2010.06.03 16:44:36.
