data_PCOD9238489
_publ_section_title
;
Structure prediction by ZEFSAII (Michael W. Deem and Ramdas Pophale) SiO2 
 PCOD9238489
Probable space group: P 2/C
;
_chemical_formula_sum "Si O2"
_cell_formula_units_Z 22
_cell_length_a 7.300621
_cell_length_b 5.545379
_cell_length_c 21.059350
_cell_angle_alpha 90.000000
_cell_angle_beta 88.567737
_cell_angle_gamma 90.000000
_cell_volume 852.315317
_symmetry_space_group_name_H-M "P 2/C"
_symmetry_group_IT_number 13
_symmetry_cell_setting 'monoclinic'
loop_
_space_group_symop_operation_xyz
x,y,z
-x,y,1/2-z
-x,-y,-z
x,-y,1/2+z
loop_
_atom_site_type_symbol
_atom_site_label
_atom_site_fract_x
_atom_site_fract_y
_atom_site_fract_z
Si Si1 0.000000 0.361152 0.750000
Si Si2 0.264358 0.784351 0.006297
Si Si3 0.719667 0.750680 0.748675
Si Si4 0.796650 0.952104 0.356135
Si Si5 0.600382 0.799762 0.183231
Si Si6 0.684809 0.714930 0.048196
O O1 0.831823 0.521892 0.725559
O O2 0.910569 0.221337 0.809448
O O3 0.171841 0.883381 0.071751
O O4 0.483036 0.746525 0.017996
O O5 0.213543 0.512691 0.985202
O O6 0.238848 0.011191 0.959046
O O7 0.500000 0.730919 0.750000
O O8 0.806389 0.793900 0.818403
O O9 0.739772 0.989482 0.704830
O O10 0.578712 0.915491 0.349246
O O11 0.500000 0.723604 0.250000
O O12 0.666569 0.648638 0.122381
#
# Coordination Sequence:
#
# PCOD9238489 Si02
#       6
#     2   4   4   4   4   4
#     4  12  22  36  64  98 124 168 216 276 332 386
#     4   9  18  32  56  85 124 166 217 265 314 397
#     4   9  21  40  60  92 128 168 211 271 332 394
#     4   9  20  36  56  89 126 168 211 269 326 384
#     4   8  17  39  56  89 124 164 210 265 323 391
#     4   9  17  33  54  88 121 166 213 266 323 380
#
# _framework density 25.812042999999999
#
# number of rings (size 3 to 8) (size 9 to 14) (size 15 to 20)
#    0.000    3.273    0.000    0.545    2.545    2.909 
#   22.909    0.000    0.000    2.182    0.000    0.000 
#    0.000    0.000    0.000    0.000    0.000    0.000 
#
# Total GULP energy -122520.149374 kJ/mol
# GULP energy per Si atom -5569.097699 kJ/mol
# Density = 2.575329 g / cm^3
# Si number density = 25.812043 Si / 1000 Ang^3
#
#
#
# Elastic Constant Matrix: (Units=GPa)
#
#
# Indices 1 2 3 4 5 6 
#
# 1 108.7243 20.7093 19.3680 0.0000 -4.9848 0.0000
# 2 20.7093 116.7997 35.0701 0.0000 -4.8245 0.0000
# 3 19.3680 35.0701 113.0139 0.0000 -1.4159 0.0000
# 4 0.0000 0.0000 0.0000 22.8817 0.0000 2.4515
# 5 -4.9848 -4.8245 -1.4159 0.0000 15.2231 0.0000
# 6 0.0000 0.0000 0.0000 2.4515 0.0000 19.8085
#
#
#
# Elastic Compliance Matrix: (Units=1/GPa)
#
#
# Indices 1 2 3 4 5 6 
#
# 1 0.009782 -0.001246 -0.001256 0.000000 0.002691 0.000000
# 2 -0.001246 0.009714 -0.002771 0.000000 0.002413 0.000000
# 3 -0.001256 -0.002771 0.009919 0.000000 -0.000367 0.000000
# 4 0.000000 0.000000 0.000000 0.044290 0.000000 -0.005481
# 5 0.002691 0.002413 -0.000367 0.000000 0.067301 0.000000
# 6 0.000000 0.000000 0.000000 -0.005481 0.000000 0.051162
#
#
# Mechanical properties :
#
#
# Convention : Reuss Voigt Hill
#
# Bulk Modulus (GPa) = 52.99548 54.31475 53.65512
# Shear Modulus (GPa) = 23.92296 29.14202 26.53249
#
# Velocity S-wave (km/s) = 3.04766 3.36372 3.20958
# Velocity P-wave (km/s) = 5.74110 6.01450 5.87939
#
# Compressibility (1/GPa) = 0.01886953
#
# Stress axis : x y z
#
# Youngs Moduli (GPa) = 102.22780 102.94210 100.81747
#
# Poissons Ratio (x) = 0.12828 0.12663
# Poissons Ratio (y) = 0.12739 0.27933
# Poissons Ratio (z) = 0.12840 0.28522
#
# Static dielectric constant tensor:
#      x y z
#    x 2.390600 0.000000 0.185680 
#    y 0.000000 2.161130 0.000000 
#    z 0.185680 0.000000 2.158280 
# 
# From -- ./inp_files/74529.got.cif
#   From: 2010.05.17/outbox.cif.g08.bks.cpg/sg13_38_cif.got.tgz:74529.got - 2010.06.03 16:44:36.
