data_PCOD9238897
_publ_section_title
;
Structure prediction by ZEFSAII (Michael W. Deem and Ramdas Pophale) SiO2 
 PCOD9238897
Probable space group: P 2/C
;
_chemical_formula_sum "Si O2"
_cell_formula_units_Z 28
_cell_length_a 9.000000
_cell_length_b 15.000000
_cell_length_c 21.000000
_cell_angle_alpha 90.000000
_cell_angle_beta 30.000000
_cell_angle_gamma 90.000000
_cell_volume 1417.500000
_symmetry_space_group_name_H-M "P 2/C"
_symmetry_group_IT_number 13
_symmetry_cell_setting 'monoclinic'
loop_
_space_group_symop_operation_xyz
x,y,z
-x,y,1/2-z
-x,-y,-z
x,-y,1/2+z
loop_
_atom_site_type_symbol
_atom_site_label
_atom_site_fract_x
_atom_site_fract_y
_atom_site_fract_z
Si Si1 0.207880 0.588560 0.996767
Si Si2 0.608288 0.783558 0.525186
Si Si3 0.152515 0.351395 0.375625
Si Si4 0.831647 0.492863 0.243408
Si Si5 0.838585 0.120053 0.741047
Si Si6 0.718340 0.799072 0.990497
Si Si7 0.828882 0.081810 0.246067
O O1 0.344209 0.685018 0.964813
O O2 0.092484 0.600164 0.966311
O O3 0.478765 0.515585 0.892280
O O4 0.972534 0.566553 0.141673
O O5 0.428443 0.774850 0.524351
O O6 0.427790 0.846902 0.641365
O O7 0.921138 0.832224 0.393285
O O8 0.500000 0.323503 0.250000
O O9 0.127457 0.409945 0.320338
O O10 0.919915 0.274295 0.449068
O O11 0.000000 0.492408 0.250000
O O12 0.543750 0.175332 0.864467
O O13 0.000000 0.115385 0.750000
O O14 0.749805 0.018925 0.756372
O O15 0.938761 0.879645 0.890780
O O16 0.000000 0.074872 0.250000
#
# Coordination Sequence:
#
# PCOD9238897 Si02
#       7
#     4   4   4   4   4   4   4
#     4  11  24  41  61  87 122 158 196 246 302 359
#     4  10  20  35  57  88 120 151 196 247 295 349
#     4  10  22  40  61  86 119 157 202 247 299 359
#     4  11  23  41  64  89 115 151 200 249 299 354
#     4   9  18  31  53  88 121 150 194 249 297 341
#     4  10  19  34  59  85 114 156 200 243 294 352
#     4   9  16  30  55  85 118 154 194 243 293 346
#
# _framework density 19.753086
#
# number of rings (size 3 to 8) (size 9 to 14) (size 15 to 20)
#    0.000    2.000    0.000    4.286    0.000    7.429 
#    0.000    2.143    0.000    9.429    0.000    0.000 
#    0.000    0.000    0.000    0.000    0.000    0.000 
#
# Total GULP energy -156084.473955 kJ/mol
# GULP energy per Si atom -5574.445498 kJ/mol
# Density = 1.970813 g / cm^3
# Si number density = 19.753086 Si / 1000 Ang^3
#
#
#
# Elastic Constant Matrix: (Units=GPa)
#
#
# Indices 1 2 3 4 5 6 
#
# 1 85.2853 32.1648 25.9756 0.0000 9.6988 0.0000
# 2 32.1648 89.1909 43.9421 0.0000 -19.4469 0.0000
# 3 25.9756 43.9421 112.9486 0.0000 -3.3720 0.0000
# 4 0.0000 0.0000 0.0000 27.2477 0.0000 -1.0684
# 5 9.6988 -19.4469 -3.3720 0.0000 27.5389 0.0000
# 6 0.0000 0.0000 0.0000 -1.0684 0.0000 11.8932
#
#
#
# Elastic Compliance Matrix: (Units=1/GPa)
#
#
# Indices 1 2 3 4 5 6 
#
# 1 0.016303 -0.007861 -0.001032 0.000000 -0.011419 0.000000
# 2 -0.007861 0.020426 -0.005646 0.000000 0.016501 0.000000
# 3 -0.001032 -0.005646 0.011220 0.000000 -0.002250 0.000000
# 4 0.000000 0.000000 0.000000 0.036830 0.000000 0.003308
# 5 -0.011419 0.016501 -0.002250 0.000000 0.051711 0.000000
# 6 0.000000 0.000000 0.000000 0.003308 0.000000 0.084379
#
#
# Mechanical properties :
#
#
# Convention : Reuss Voigt Hill
#
# Bulk Modulus (GPa) = 52.98949 54.62109 53.80529
# Shear Modulus (GPa) = 19.51309 25.69210 22.60259
#
# Velocity S-wave (km/s) = 3.14642 3.61038 3.38636
# Velocity P-wave (km/s) = 6.33120 6.71504 6.52594
#
# Compressibility (1/GPa) = 0.01887167
#
# Stress axis : x y z
#
# Youngs Moduli (GPa) = 61.33915 48.95629 89.12267
#
# Poissons Ratio (x) = 0.38482 0.09198
# Poissons Ratio (y) = 0.48216 0.50322
# Poissons Ratio (z) = 0.06331 0.27643
#
# Static dielectric constant tensor:
#      x y z
#    x 1.679130 0.000000 -0.016150 
#    y 0.000000 1.734110 0.000000 
#    z -0.016150 0.000000 1.716300 
# 
# From -- ./inp_files/76677.got.cif
#   From: 2010.05.17/outbox.ucp.g08.bks.cvg/sg13_39_cif.got.tgz:76677.got - 2010.06.11 12:23:55.
