data_PCOD9238313
_publ_section_title
;
Structure prediction by ZEFSAII (Michael W. Deem and Ramdas Pophale) SiO2 
 PCOD9238313
Probable space group: P 2/C
;
_chemical_formula_sum "Si O2"
_cell_formula_units_Z 26
_cell_length_a 15.960803
_cell_length_b 11.972644
_cell_length_c 21.065493
_cell_angle_alpha 90.000000
_cell_angle_beta 18.132511
_cell_angle_gamma 90.000000
_cell_volume 1252.789102
_symmetry_space_group_name_H-M "P 2/C"
_symmetry_group_IT_number 13
_symmetry_cell_setting 'monoclinic'
loop_
_space_group_symop_operation_xyz
x,y,z
-x,y,1/2-z
-x,-y,-z
x,-y,1/2+z
loop_
_atom_site_type_symbol
_atom_site_label
_atom_site_fract_x
_atom_site_fract_y
_atom_site_fract_z
Si Si1 0.756154 0.924980 0.329637
Si Si2 0.777815 0.905266 0.175473
Si Si3 0.660880 0.039533 0.070671
Si Si4 0.968573 0.673494 0.013160
Si Si5 0.000000 0.445802 0.750000
Si Si6 0.173882 0.525254 0.980062
Si Si7 0.426078 0.746089 0.938148
O O1 0.838285 0.873436 0.203670
O O2 0.676796 0.827266 0.433107
O O3 0.500000 0.000000 0.500000
O O4 0.025924 0.988330 0.155768
O O5 0.497661 0.968405 0.367325
O O6 0.791625 0.785613 0.132820
O O7 0.000000 0.000000 0.000000
O O8 0.500000 0.010664 0.250000
O O9 0.631168 0.172827 0.080578
O O10 0.017347 0.619142 0.048984
O O11 0.264330 0.716512 0.781466
O O12 0.862732 0.581811 0.039701
O O13 0.046466 0.494802 0.643444
O O14 0.258503 0.365793 0.564991
O O15 0.500000 0.550047 0.750000
#
# Coordination Sequence:
#
# PCOD9238313 Si02
#       7
#     4   4   4   4   2   4   4
#     4  12  23  40  62 100 145 181 234 286 346 422
#     4  12  23  42  68  99 140 189 228 282 355 430
#     4  12  24  38  65  99 139 188 228 280 347 425
#     4  11  25  47  72 103 140 189 238 291 363 430
#     4  12  24  42  78 106 132 184 248 302 354 428
#     4  11  26  50  75 101 141 185 241 308 358 421
#     4  12  23  40  70 103 136 180 236 296 348 425
#
# _framework density 20.753692000000001
#
# number of rings (size 3 to 8) (size 9 to 14) (size 15 to 20)
#    0.000    0.308    7.692    0.923    2.154    1.231 
#    2.769    0.000    0.000    0.000    0.000    0.000 
#    0.000    0.000    0.000    0.000    0.000    0.000 
#
# Total GULP energy -144876.323628 kJ/mol
# GULP energy per Si atom -5572.166293 kJ/mol
# Density = 2.070646 g / cm^3
# Si number density = 20.753692 Si / 1000 Ang^3
#
#
#
# Elastic Constant Matrix: (Units=GPa)
#
#
# Indices 1 2 3 4 5 6 
#
# 1 126.6760 29.9510 31.1867 0.0000 14.4472 0.0000
# 2 29.9510 93.5120 17.9082 0.0000 -3.3552 0.0000
# 3 31.1867 17.9082 89.9261 0.0000 -17.6577 0.0000
# 4 0.0000 0.0000 0.0000 27.0578 0.0000 -25.3333
# 5 14.4472 -3.3552 -17.6577 0.0000 43.5884 0.0000
# 6 0.0000 0.0000 0.0000 -25.3333 0.0000 -39.3697
#
#
#
# Elastic Compliance Matrix: (Units=1/GPa)
#
#
# Indices 1 2 3 4 5 6 
#
# 1 0.010092 -0.002654 -0.003985 0.000000 -0.005164 0.000000
# 2 -0.002654 0.011816 -0.001175 0.000000 0.001313 0.000000
# 3 -0.003985 -0.001175 0.014099 0.000000 0.006942 0.000000
# 4 0.000000 0.000000 0.000000 0.023063 0.000000 -0.014841
# 5 -0.005164 0.001313 0.006942 0.000000 0.027567 0.000000
# 6 0.000000 0.000000 0.000000 -0.014841 0.000000 -0.015851
#
#
# Mechanical properties :
#
#
# Convention : Reuss Voigt Hill
#
# Bulk Modulus (GPa) = 49.07048 52.02286 50.54667
# Shear Modulus (GPa) = 53.64366 21.65987 37.65176
#
# Velocity S-wave (km/s) = 5.08959 3.23408 4.26399
# Velocity P-wave (km/s) = 7.63112 6.25035 6.97499
#
# Compressibility (1/GPa) = 0.02037885
#
# Stress axis : x y z
#
# Youngs Moduli (GPa) = 99.09056 84.63052 70.92504
#
# Poissons Ratio (x) = 0.22464 0.28265
# Poissons Ratio (y) = 0.26302 0.08331
# Poissons Ratio (z) = 0.39489 0.09941
#
# Static dielectric constant tensor:
#      x y z
#    x 1.907260 0.000000 0.057990 
#    y 0.000000 1.742100 0.000000 
#    z 0.057990 0.000000 1.687620 
# 
# From -- ./inp_files/80162.got.cif
#   From: 2010.05.17/outbox.cif.g08.bks.cpg/sg13_41_cif.got.tgz:80162.got - 2010.06.03 16:44:36.
