data_PCOD9238605
_publ_section_title
;
Structure prediction by ZEFSAII (Michael W. Deem and Ramdas Pophale) SiO2 
 PCOD9238605
Probable space group: P 2/C
;
_chemical_formula_sum "Si O2"
_cell_formula_units_Z 20
_cell_length_a 6.302061
_cell_length_b 18.011955
_cell_length_c 8.580052
_cell_angle_alpha 90.000000
_cell_angle_beta 83.293269
_cell_angle_gamma 90.000000
_cell_volume 967.277879
_symmetry_space_group_name_H-M "P 2/C"
_symmetry_group_IT_number 13
_symmetry_cell_setting 'monoclinic'
loop_
_space_group_symop_operation_xyz
x,y,z
-x,y,1/2-z
-x,-y,-z
x,-y,1/2+z
loop_
_atom_site_type_symbol
_atom_site_label
_atom_site_fract_x
_atom_site_fract_y
_atom_site_fract_z
Si Si1 0.860642 0.216555 0.910418
Si Si2 0.909915 0.926190 0.083203
Si Si3 0.500000 0.606822 0.250000
Si Si4 0.401162 0.661182 0.925082
Si Si5 0.500000 0.130495 0.750000
Si Si6 0.165672 0.518754 0.852578
O O1 0.650331 0.179447 0.849562
O O2 0.000000 0.242272 0.750000
O O3 0.991072 0.151242 0.987041
O O4 0.794956 0.284303 0.022974
O O5 0.656654 0.917809 0.126967
O O6 0.000000 0.927639 0.250000
O O7 0.000000 0.000000 0.000000
O O8 0.487776 0.654329 0.412108
O O9 0.708050 0.552294 0.226889
O O10 0.500000 0.686203 0.750000
O O11 0.336856 0.576542 0.898650
O O12 0.000000 0.557442 0.750000
O O13 0.000000 0.500000 0.000000
#
# Coordination Sequence:
#
# PCOD9238605 Si02
#       6
#     4   4   2   4   2   4
#     4   9  21  40  62  89 127 169 212 257 326 388
#     4   9  19  38  62  94 123 162 209 251 311 391
#     4  12  25  46  68  89 134 174 222 278 335 396
#     4  12  25  44  66  97 131 169 223 278 334 392
#     4   8  17  40  64  83 126 168 204 248 319 378
#     4  12  24  43  66  93 125 172 222 271 329 394
#
# _framework density 20.676583000000001
#
# number of rings (size 3 to 8) (size 9 to 14) (size 15 to 20)
#    0.000    2.000    3.000    2.400    2.800    3.200 
#   12.600    0.000    0.000    0.000    0.000    0.000 
#    0.000    0.000    0.000    0.000    0.000    0.000 
#
# Total GULP energy -111367.934640 kJ/mol
# GULP energy per Si atom -5568.396732 kJ/mol
# Density = 2.062952 g / cm^3
# Si number density = 20.676583 Si / 1000 Ang^3
#
#
#
# Elastic Constant Matrix: (Units=GPa)
#
#
# Indices 1 2 3 4 5 6 
#
# 1 87.4303 16.4689 30.4156 0.0000 -28.1320 0.0000
# 2 16.4689 86.9515 36.8306 0.0000 -31.8752 0.0000
# 3 30.4156 36.8306 105.9368 0.0000 -21.3077 0.0000
# 4 0.0000 0.0000 0.0000 29.2517 0.0000 -15.3182
# 5 -28.1320 -31.8752 -21.3077 0.0000 40.5285 0.0000
# 6 0.0000 0.0000 0.0000 -15.3182 0.0000 18.6186
#
#
#
# Elastic Compliance Matrix: (Units=1/GPa)
#
#
# Indices 1 2 3 4 5 6 
#
# 1 0.015642 0.002434 -0.003096 0.000000 0.011144 0.000000
# 2 0.002434 0.017731 -0.004158 0.000000 0.013448 0.000000
# 3 -0.003096 -0.004158 0.011948 0.000000 0.000862 0.000000
# 4 0.000000 0.000000 0.000000 0.060064 0.000000 0.049417
# 5 0.011144 0.013448 0.000862 0.000000 0.043440 0.000000
# 6 0.000000 0.000000 0.000000 0.049417 0.000000 0.094367
#
#
# Mechanical properties :
#
#
# Convention : Reuss Voigt Hill
#
# Bulk Modulus (GPa) = 28.02655 49.74987 38.88821
# Shear Modulus (GPa) = 18.88751 30.78666 24.83709
#
# Velocity S-wave (km/s) = 3.02565 3.86289 3.46962
# Velocity P-wave (km/s) = 5.07841 6.63394 5.90760
#
# Compressibility (1/GPa) = 0.03568045
#
# Stress axis : x y z
#
# Youngs Moduli (GPa) = 63.93046 56.39825 83.69952
#
# Poissons Ratio (x) = -0.13727 0.25911
# Poissons Ratio (y) = -0.15560 0.34805
# Poissons Ratio (z) = 0.19791 0.23452
#
# Static dielectric constant tensor:
#      x y z
#    x 1.775060 0.000000 -0.017850 
#    y 0.000000 1.812260 0.000000 
#    z -0.017850 0.000000 1.756770 
# 
# From -- ./inp_files/9535.got.cif
#   From: 2010.05.17/outbox.cif.g08.bks.cpg/sg13_5_cif.got.tgz:9535.got - 2010.06.03 16:44:36.
