data_PCOD9238852
_publ_section_title
;
Structure prediction by ZEFSAII (Michael W. Deem and Ramdas Pophale) SiO2 
 PCOD9238852
Probable space group: P 2/C
;
_chemical_formula_sum "Si O2"
_cell_formula_units_Z 22
_cell_length_a 5.274500
_cell_length_b 5.421679
_cell_length_c 28.567281
_cell_angle_alpha 90.000000
_cell_angle_beta 90.058605
_cell_angle_gamma 90.000000
_cell_volume 816.927991
_symmetry_space_group_name_H-M "P 2/C"
_symmetry_group_IT_number 13
_symmetry_cell_setting 'monoclinic'
loop_
_space_group_symop_operation_xyz
x,y,z
-x,y,1/2-z
-x,-y,-z
x,-y,1/2+z
loop_
_atom_site_type_symbol
_atom_site_label
_atom_site_fract_x
_atom_site_fract_y
_atom_site_fract_z
Si Si1 0.500000 0.630442 0.250000
Si Si2 0.295811 0.362788 0.657919
Si Si3 0.095763 0.008481 0.295701
Si Si4 0.303025 0.599876 0.567449
Si Si5 0.311343 0.801866 0.476174
Si Si6 0.326765 0.012127 0.385756
O O1 0.616129 0.491433 0.295243
O O2 0.289434 0.812761 0.272240
O O3 0.166388 0.486352 0.612711
O O4 0.541246 0.228271 0.636374
O O5 0.119479 0.150353 0.678661
O O6 0.210309 0.145784 0.340504
O O7 0.000000 0.153839 0.250000
O O8 0.161137 0.695665 0.520913
O O9 0.507287 0.407541 0.546063
O O10 0.458470 0.817803 0.592130
O O11 0.171029 0.923489 0.431560
O O12 0.500000 0.000000 0.500000
#
# Coordination Sequence:
#
# PCOD9238852 Si02
#       6
#     2   4   4   4   4   4
#     4   8  16  32  52  70  98 138 174 216 268 318
#     4   9  17  31  50  73 102 136 176 219 264 315
#     4   9  17  32  54  75 102 141 177 217 270 321
#     4   9  16  29  52  77 103 136 174 215 262 313
#     4   8  15  29  52  77 102 138 175 210 259 315
#     4   9  17  31  51  74 103 137 173 216 264 312
#
# _framework density 26.930160000000001
#
# number of rings (size 3 to 8) (size 9 to 14) (size 15 to 20)
#    0.000    3.273    0.000    0.000    0.000    0.000 
#    0.000   11.818    0.000   56.727    0.000    0.000 
#    0.000    0.000    0.000    0.000    0.000    0.000 
#
# Total GULP energy -122682.037651 kJ/mol
# GULP energy per Si atom -5576.456257 kJ/mol
# Density = 2.686887 g / cm^3
# Si number density = 26.930160 Si / 1000 Ang^3
#
#
#
# Elastic Constant Matrix: (Units=GPa)
#
#
# Indices 1 2 3 4 5 6 
#
# 1 39.2443 5.7153 57.9152 0.0000 -4.8371 0.0000
# 2 5.7153 44.0012 68.4906 0.0000 -0.6935 0.0000
# 3 57.9152 68.4906 303.6486 0.0000 8.8717 0.0000
# 4 0.0000 0.0000 0.0000 -14.8697 0.0000 -117.8765
# 5 -4.8371 -0.6935 8.8717 0.0000 27.5605 0.0000
# 6 0.0000 0.0000 0.0000 -117.8765 0.0000 -112.7139
#
#
#
# Elastic Compliance Matrix: (Units=1/GPa)
#
#
# Indices 1 2 3 4 5 6 
#
# 1 0.041020 0.011590 -0.010758 0.000000 0.010954 0.000000
# 2 0.011590 0.038627 -0.011116 0.000000 0.006584 0.000000
# 3 -0.010758 -0.011116 0.007991 0.000000 -0.004740 0.000000
# 4 0.000000 0.000000 0.000000 0.009225 0.000000 -0.009647
# 5 0.010954 0.006584 -0.004740 0.000000 0.039898 0.000000
# 6 0.000000 0.000000 0.000000 -0.009647 0.000000 0.001217
#
#
# Mechanical properties :
#
#
# Convention : Reuss Voigt Hill
#
# Bulk Modulus (GPa) = 14.90958 72.34848 43.62903
# Shear Modulus (GPa) = 27.63933 -3.01975 12.30979
#
# Velocity S-wave (km/s) = 3.20712 -1.06008 2.14031
# Velocity P-wave (km/s) = 4.38891 5.04234 4.72693
#
# Compressibility (1/GPa) = 0.06707096
#
# Stress axis : x y z
#
# Youngs Moduli (GPa) = 24.37832 25.88852 125.14222
#
# Poissons Ratio (x) = -0.30005 1.34629
# Poissons Ratio (y) = -0.28255 1.39104
# Poissons Ratio (z) = 0.26226 0.28777
#
# Static dielectric constant tensor:
#      x y z
#    x 2.271320 0.000000 0.135360 
#    y 0.000000 2.165900 0.000000 
#    z 0.135360 0.000000 2.253530 
# 
# From -- ./inp_files/94624.got.cif
#   From: 2010.05.17/outbox.cif.g08.bks.cpg/sg13_48_cif.got.tgz:94624.got - 2010.06.03 16:44:36.
