data_PCOD9238512
_publ_section_title
;
Structure prediction by ZEFSAII (Michael W. Deem and Ramdas Pophale) SiO2 
 PCOD9238512
Probable space group: P 2/C
;
_chemical_formula_sum "Si O2"
_cell_formula_units_Z 28
_cell_length_a 8.835581
_cell_length_b 13.950201
_cell_length_c 14.751195
_cell_angle_alpha 90.000000
_cell_angle_beta 138.846948
_cell_angle_gamma 90.000000
_cell_volume 1196.510915
_symmetry_space_group_name_H-M "P 2/C"
_symmetry_group_IT_number 13
_symmetry_cell_setting 'monoclinic'
loop_
_space_group_symop_operation_xyz
x,y,z
-x,y,1/2-z
-x,-y,-z
x,-y,1/2+z
loop_
_atom_site_type_symbol
_atom_site_label
_atom_site_fract_x
_atom_site_fract_y
_atom_site_fract_z
Si Si1 0.361569 0.264030 0.313933
Si Si2 0.500000 0.578972 0.750000
Si Si3 0.103340 0.339057 0.702395
Si Si4 0.837420 0.831800 0.013356
Si Si5 0.139204 0.480134 0.472805
Si Si6 0.968861 0.873335 0.590064
Si Si7 0.000000 0.957947 0.250000
Si Si8 0.376137 0.711612 0.030719
O O1 0.336831 0.350343 0.232579
O O2 0.573346 0.196130 0.380625
O O3 0.132247 0.205065 0.208378
O O4 0.412913 0.294407 0.439348
O O5 0.385453 0.520989 0.616788
O O6 0.374632 0.318248 0.815891
O O7 0.000000 0.303649 0.750000
O O8 0.974942 0.269126 0.574768
O O9 0.005875 0.447319 0.654649
O O10 0.854281 0.884395 0.119367
O O11 0.947062 0.886308 0.976159
O O12 0.193346 0.372064 0.470839
O O13 0.000000 0.500000 0.500000
O O14 0.719724 0.818081 0.484873
O O15 0.026035 0.965142 0.678581
#
# Coordination Sequence:
#
# PCOD9238512 Si02
#       8
#     4   2   4   4   4   4   2   4
#     4  12  22  47  76 104 148 198 243 310 377 449
#     4  12  22  42  70 100 144 196 252 290 368 444
#     4  12  24  47  71 106 148 198 245 308 375 438
#     4  12  24  49  76 107 149 197 243 312 385 453
#     4  12  26  41  66 108 147 198 252 305 362 443
#     4  12  26  47  75 111 146 193 250 316 381 446
#     4  12  26  48  78 110 146 188 262 310 384 456
#     4  12  26  46  74 107 154 198 252 310 371 448
#
# _framework density 23.401375999999999
#
# number of rings (size 3 to 8) (size 9 to 14) (size 15 to 20)
#    0.000    0.000    6.429    3.000    0.000    6.857 
#    2.571    0.000    0.000    0.000    0.000    0.000 
#    0.000    0.000    0.000    0.000    0.000    0.000 
#
# Total GULP energy -155976.735511 kJ/mol
# GULP energy per Si atom -5570.597697 kJ/mol
# Density = 2.334811 g / cm^3
# Si number density = 23.401376 Si / 1000 Ang^3
#
#
#
# Elastic Constant Matrix: (Units=GPa)
#
#
# Indices 1 2 3 4 5 6 
#
# 1 100.2032 22.1627 24.1870 0.0000 -12.1263 0.0000
# 2 22.1627 77.7878 20.4120 0.0000 0.1674 0.0000
# 3 24.1870 20.4120 98.2946 0.0000 5.9022 0.0000
# 4 0.0000 0.0000 0.0000 15.0389 0.0000 -44.6627
# 5 -12.1263 0.1674 5.9022 0.0000 51.0961 0.0000
# 6 0.0000 0.0000 0.0000 -44.6627 0.0000 207.0960
#
#
#
# Elastic Compliance Matrix: (Units=1/GPa)
#
#
# Indices 1 2 3 4 5 6 
#
# 1 0.011527 -0.002643 -0.002470 0.000000 0.003030 0.000000
# 2 -0.002643 0.014206 -0.002275 0.000000 -0.000411 0.000000
# 3 -0.002470 -0.002275 0.011367 0.000000 -0.001892 0.000000
# 4 0.000000 0.000000 0.000000 0.184951 0.000000 0.039887
# 5 0.003030 -0.000411 -0.001892 0.000000 0.020510 0.000000
# 6 0.000000 0.000000 0.000000 0.039887 0.000000 0.013431
#
#
# Mechanical properties :
#
#
# Convention : Reuss Voigt Hill
#
# Bulk Modulus (GPa) = 44.79129 45.53433 45.16281
# Shear Modulus (GPa) = 17.97209 68.61446 43.29328
#
# Velocity S-wave (km/s) = 2.77428 5.42073 4.30587
# Velocity P-wave (km/s) = 5.42625 7.66024 6.63790
#
# Compressibility (1/GPa) = 0.02232577
#
# Stress axis : x y z
#
# Youngs Moduli (GPa) = 86.75334 70.39120 87.97232
#
# Poissons Ratio (x) = 0.18602 0.21725
# Poissons Ratio (y) = 0.22926 0.20015
# Poissons Ratio (z) = 0.21424 0.16015
#
# Static dielectric constant tensor:
#      x y z
#    x 2.153020 0.000000 0.085310 
#    y 0.000000 2.045940 0.000000 
#    z 0.085310 0.000000 1.711040 
# 
# From -- ./inp_files/47979.got.cif
#   From: 2010.05.17/outbox.cif.g08.bks.cpg/sg13_24_cif.got.tgz:47979.got - 2010.06.03 16:44:36.
