data_PCOD9238172
_publ_section_title
;
Structure prediction by ZEFSAII (Michael W. Deem and Ramdas Pophale) SiO2 
 PCOD9238172
Probable space group: P 2/C
;
_chemical_formula_sum "Si O2"
_cell_formula_units_Z 18
_cell_length_a 6.596706
_cell_length_b 5.174100
_cell_length_c 22.212417
_cell_angle_alpha 90.000000
_cell_angle_beta 95.555883
_cell_angle_gamma 90.000000
_cell_volume 754.592957
_symmetry_space_group_name_H-M "P 2/C"
_symmetry_group_IT_number 13
_symmetry_cell_setting 'monoclinic'
loop_
_space_group_symop_operation_xyz
x,y,z
-x,y,1/2-z
-x,-y,-z
x,-y,1/2+z
loop_
_atom_site_type_symbol
_atom_site_label
_atom_site_fract_x
_atom_site_fract_y
_atom_site_fract_z
Si Si1 0.054461 0.703783 0.052310
Si Si2 0.625754 0.812301 0.669822
Si Si3 0.662441 0.328390 0.824997
Si Si4 0.295736 0.974487 0.958287
Si Si5 0.000000 0.570199 0.750000
O O1 0.214455 0.645246 0.108779
O O2 0.167872 0.904488 0.013396
O O3 0.839219 0.794085 0.073243
O O4 0.000000 0.500000 0.000000
O O5 0.487659 0.569795 0.683087
O O6 0.666102 0.802983 0.599114
O O7 0.845453 0.758478 0.707748
O O8 0.482287 0.068752 0.679510
O O9 0.844274 0.382825 0.782312
O O10 0.500000 0.000000 0.000000
#
# Coordination Sequence:
#
# PCOD9238172 Si02
#       5
#     4   4   4   4   2
#     4  11  25  44  78 116 158 208 255 329 417 483
#     4  12  30  53  82 120 157 218 275 336 410 489
#     4  12  30  53  81 120 158 214 281 329 412 485
#     4  11  24  46  77 114 159 199 258 334 404 487
#     4  12  32  56  82 112 174 218 282 352 402 480
#
# _framework density 23.853919999999999
#
# number of rings (size 3 to 8) (size 9 to 14) (size 15 to 20)
#    0.000    0.444    2.222    3.333   12.444    7.111 
#    0.000    0.000    0.000    0.000    0.000    0.000 
#    0.000    0.000    0.000    0.000    0.000    0.000 
#
# Total GULP energy -100242.907733 kJ/mol
# GULP energy per Si atom -5569.050430 kJ/mol
# Density = 2.379963 g / cm^3
# Si number density = 23.853920 Si / 1000 Ang^3
#
#
#
# Elastic Constant Matrix: (Units=GPa)
#
#
# Indices 1 2 3 4 5 6 
#
# 1 192.3595 56.1956 69.0502 0.0000 49.1763 0.0000
# 2 56.1956 106.5435 11.6801 0.0000 28.6918 0.0000
# 3 69.0502 11.6801 174.6364 0.0000 41.6430 0.0000
# 4 0.0000 0.0000 0.0000 6.2393 0.0000 -17.6479
# 5 49.1763 28.6918 41.6430 0.0000 62.1266 0.0000
# 6 0.0000 0.0000 0.0000 -17.6479 0.0000 4.3200
#
#
#
# Elastic Compliance Matrix: (Units=1/GPa)
#
#
# Indices 1 2 3 4 5 6 
#
# 1 0.007627 -0.002901 -0.002025 0.000000 -0.003340 0.000000
# 2 -0.002901 0.011868 0.001324 0.000000 -0.004072 0.000000
# 3 -0.002025 0.001324 0.007382 0.000000 -0.003957 0.000000
# 4 0.000000 0.000000 0.000000 -0.015185 0.000000 -0.062033
# 5 -0.003340 -0.004072 -0.003957 0.000000 0.023272 0.000000
# 6 0.000000 0.000000 0.000000 -0.062033 0.000000 -0.021931
#
#
# Mechanical properties :
#
#
# Convention : Reuss Voigt Hill
#
# Bulk Modulus (GPa) = 50.83390 83.04345 66.93868
# Shear Modulus (GPa) = 186.60924 36.97809 111.79366
#
# Velocity S-wave (km/s) = 8.85437 3.94152 6.85330
# Velocity P-wave (km/s) = 11.22007 7.45674 9.52609
#
# Compressibility (1/GPa) = 0.01967191
#
# Stress axis : x y z
#
# Youngs Moduli (GPa) = 131.11335 84.26364 135.46760
#
# Poissons Ratio (x) = 0.24448 0.27436
# Poissons Ratio (y) = 0.38041 -0.17942
# Poissons Ratio (z) = 0.26554 -0.11160
#
# Static dielectric constant tensor:
#      x y z
#    x 1.240030 0.000000 0.092030 
#    y 0.000000 2.038330 0.000000 
#    z 0.092030 0.000000 1.624010 
# 
# From -- ./inp_files/82949.got.cif
#   From: 2010.05.17/outbox.cif.g08.bks.cpg/sg13_42_cif.got.tgz:82949.got - 2010.06.03 16:44:36.
