data_PCOD9238278
_publ_section_title
;
Structure prediction by ZEFSAII (Michael W. Deem and Ramdas Pophale) SiO2 
 PCOD9238278
Probable space group: P 2/C
;
_chemical_formula_sum "Si O2"
_cell_formula_units_Z 22
_cell_length_a 10.326102
_cell_length_b 6.404093
_cell_length_c 22.941478
_cell_angle_alpha 90.000000
_cell_angle_beta 141.976315
_cell_angle_gamma 90.000000
_cell_volume 934.516777
_symmetry_space_group_name_H-M "P 2/C"
_symmetry_group_IT_number 13
_symmetry_cell_setting 'monoclinic'
loop_
_space_group_symop_operation_xyz
x,y,z
-x,y,1/2-z
-x,-y,-z
x,-y,1/2+z
loop_
_atom_site_type_symbol
_atom_site_label
_atom_site_fract_x
_atom_site_fract_y
_atom_site_fract_z
Si Si1 0.712960 0.396756 0.394322
Si Si2 0.500000 0.242095 0.750000
Si Si3 0.945146 0.233865 0.793151
Si Si4 0.579934 0.958679 0.676184
Si Si5 0.300214 0.050420 0.470426
Si Si6 0.982788 0.578347 0.593930
O O1 0.643926 0.613825 0.341055
O O2 0.844782 0.442749 0.499152
O O3 0.860016 0.300250 0.395148
O O4 0.504273 0.267103 0.335689
O O5 0.614873 0.088643 0.747095
O O6 0.791621 0.039093 0.720841
O O7 0.000000 0.330182 0.750000
O O8 0.892541 0.429259 0.816956
O O9 0.135682 0.125734 0.894445
O O10 0.391218 0.036093 0.568057
O O11 0.172788 0.269117 0.425454
O O12 0.500000 0.000000 0.500000
#
# Coordination Sequence:
#
# PCOD9238278 Si02
#       6
#     4   2   4   4   4   4
#     4  11  25  45  76 111 150 194 244 314 383 438
#     4  12  24  44  70 114 148 192 242 306 378 450
#     4  12  27  50  76 108 149 200 254 307 367 453
#     4  12  26  47  75 113 154 194 252 308 378 452
#     4  12  27  50  74 108 153 201 250 308 374 443
#     4  11  26  48  75 110 149 196 252 309 379 444
#
# _framework density 23.541578999999999
#
# number of rings (size 3 to 8) (size 9 to 14) (size 15 to 20)
#    0.000    0.364    7.273    0.545    5.091    2.182 
#    3.273    0.000    0.000    0.000    0.000    0.000 
#    0.000    0.000    0.000    0.000    0.000    0.000 
#
# Total GULP energy -122704.560202 kJ/mol
# GULP energy per Si atom -5577.480009 kJ/mol
# Density = 2.348800 g / cm^3
# Si number density = 23.541579 Si / 1000 Ang^3
#
#
#
# Elastic Constant Matrix: (Units=GPa)
#
#
# Indices 1 2 3 4 5 6 
#
# 1 75.6650 43.9255 9.6149 0.0000 -15.7920 0.0000
# 2 43.9255 80.6815 42.0974 0.0000 -9.2902 0.0000
# 3 9.6149 42.0974 123.4096 0.0000 -12.3003 0.0000
# 4 0.0000 0.0000 0.0000 48.3667 0.0000 6.5494
# 5 -15.7920 -9.2902 -12.3003 0.0000 36.9234 0.0000
# 6 0.0000 0.0000 0.0000 6.5494 0.0000 32.2737
#
#
#
# Elastic Compliance Matrix: (Units=1/GPa)
#
#
# Indices 1 2 3 4 5 6 
#
# 1 0.021682 -0.012736 0.003372 0.000000 0.007192 0.000000
# 2 -0.012736 0.022726 -0.006964 0.000000 -0.002049 0.000000
# 3 0.003372 -0.006964 0.010535 0.000000 0.003199 0.000000
# 4 0.000000 0.000000 0.000000 0.021260 0.000000 -0.004314
# 5 0.007192 -0.002049 0.003199 0.000000 0.030709 0.000000
# 6 0.000000 0.000000 0.000000 -0.004314 0.000000 0.031860
#
#
# Mechanical properties :
#
#
# Convention : Reuss Voigt Hill
#
# Bulk Modulus (GPa) = 44.86894 52.33685 48.60289
# Shear Modulus (GPa) = 27.95522 35.78732 31.87127
#
# Velocity S-wave (km/s) = 3.44973 3.90317 3.68343
# Velocity P-wave (km/s) = 5.91340 6.52633 6.22741
#
# Compressibility (1/GPa) = 0.02228713
#
# Stress axis : x y z
#
# Youngs Moduli (GPa) = 46.12084 44.00259 94.92242
#
# Poissons Ratio (x) = 0.56040 -0.32008
# Poissons Ratio (y) = 0.58738 0.66106
# Poissons Ratio (z) = -0.15552 0.30644
#
# Static dielectric constant tensor:
#      x y z
#    x 2.499190 0.000000 0.101110 
#    y 0.000000 1.909040 0.000000 
#    z 0.101110 0.000000 1.845860 
# 
# From -- ./inp_files/85926.got.cif
#   From: 2010.05.17/outbox.cif.g08.bks.cpg/sg13_43_cif.got.tgz:85926.got - 2010.06.03 16:44:36.
