data_PCOD9238622
_publ_section_title
;
Structure prediction by ZEFSAII (Michael W. Deem and Ramdas Pophale) SiO2 
 PCOD9238622
Probable space group: P 2/C
;
_chemical_formula_sum "Si O2"
_cell_formula_units_Z 16
_cell_length_a 5.065836
_cell_length_b 10.463582
_cell_length_c 17.481079
_cell_angle_alpha 90.000000
_cell_angle_beta 124.965484
_cell_angle_gamma 90.000000
_cell_volume 759.359339
_symmetry_space_group_name_H-M "P 2/C"
_symmetry_group_IT_number 13
_symmetry_cell_setting 'monoclinic'
loop_
_space_group_symop_operation_xyz
x,y,z
-x,y,1/2-z
-x,-y,-z
x,-y,1/2+z
loop_
_atom_site_type_symbol
_atom_site_label
_atom_site_fract_x
_atom_site_fract_y
_atom_site_fract_z
Si Si1 0.396688 0.801651 0.147529
Si Si2 0.245463 0.591770 0.998676
Si Si3 0.883491 0.763432 0.813785
Si Si4 0.804265 0.963482 0.103097
O O1 0.500000 0.763198 0.250000
O O2 0.649153 0.902222 0.153459
O O3 0.045161 0.866849 0.099256
O O4 0.391526 0.686578 0.086503
O O5 0.054423 0.677895 0.906029
O O6 0.500000 0.500000 0.000000
O O7 0.000000 0.500000 0.000000
O O8 0.500000 0.756195 0.750000
O O9 0.000000 0.720945 0.750000
O O10 0.998445 0.908617 0.846576
O O11 0.500000 0.000000 0.000000
#
# Coordination Sequence:
#
# PCOD9238622 Si02
#       4
#     4   4   4   4
#     4  12  26  46  72 107 143 185 234 297 360 426
#     4  12  28  48  72  99 141 193 247 289 342 414
#     4  12  26  45  74 106 142 182 232 293 360 425
#     4  12  24  44  75 107 146 181 226 293 374 432
#
# _framework density 21.070394
#
# number of rings (size 3 to 8) (size 9 to 14) (size 15 to 20)
#    0.000    0.000    2.500    8.250    3.500    3.000 
#    0.000    0.000    0.000    0.000    0.000    0.000 
#    0.000    0.000    0.000    0.000    0.000    0.000 
#
# Total GULP energy -89672.670565 kJ/mol
# GULP energy per Si atom -5604.541910 kJ/mol
# Density = 2.102244 g / cm^3
# Si number density = 21.070394 Si / 1000 Ang^3
#
#
#
# Elastic Constant Matrix: (Units=GPa)
#
#
# Indices 1 2 3 4 5 6 
#
# 1 205.8652 81.0078 82.4025 0.0000 0.8245 0.0000
# 2 81.0078 141.6854 94.0811 0.0000 -7.9722 0.0000
# 3 82.4025 94.0811 187.2299 0.0000 -10.0369 0.0000
# 4 0.0000 0.0000 0.0000 9.8832 0.0000 -10.2660
# 5 0.8245 -7.9722 -10.0369 0.0000 43.6878 0.0000
# 6 0.0000 0.0000 0.0000 -10.2660 0.0000 64.6057
#
#
#
# Elastic Compliance Matrix: (Units=1/GPa)
#
#
# Indices 1 2 3 4 5 6 
#
# 1 0.006578 -0.002790 -0.001546 0.000000 -0.000989 0.000000
# 2 -0.002790 0.011798 -0.004639 0.000000 0.001140 0.000000
# 3 -0.001546 -0.004639 0.008412 0.000000 0.001115 0.000000
# 4 0.000000 0.000000 0.000000 0.121185 0.000000 0.019257
# 5 -0.000989 0.001140 0.001115 0.000000 0.023373 0.000000
# 6 0.000000 0.000000 0.000000 0.019257 0.000000 0.018538
#
#
# Mechanical properties :
#
#
# Convention : Reuss Voigt Hill
#
# Bulk Modulus (GPa) = 113.15315 116.64037 114.89676
# Shear Modulus (GPa) = 23.72130 42.12128 32.92129
#
# Velocity S-wave (km/s) = 3.35895 4.47595 3.95706
# Velocity P-wave (km/s) = 8.29834 9.06586 8.69058
#
# Compressibility (1/GPa) = 0.00883758
#
# Stress axis : x y z
#
# Youngs Moduli (GPa) = 152.01526 84.76258 118.87089
#
# Poissons Ratio (x) = 0.23649 0.18380
# Poissons Ratio (y) = 0.42412 0.55146
# Poissons Ratio (z) = 0.23505 0.39323
#
# Static dielectric constant tensor:
#      x y z
#    x 1.710540 0.000000 -0.009170 
#    y 0.000000 1.741110 0.000000 
#    z -0.009170 0.000000 1.760390 
# 
# From -- ./inp_files/52832.got.cif
#   From: 2010.05.17/outbox.cif.g08.bks.cpg/sg13_27_cif.got.tgz:52832.got - 2010.06.03 16:44:36.
