data_PCOD9238666
_publ_section_title
;
Structure prediction by ZEFSAII (Michael W. Deem and Ramdas Pophale) SiO2 
 PCOD9238666
Probable space group: P 2/C
;
_chemical_formula_sum "Si O2"
_cell_formula_units_Z 20
_cell_length_a 9.058170
_cell_length_b 9.832229
_cell_length_c 19.531019
_cell_angle_alpha 90.000000
_cell_angle_beta 28.249739
_cell_angle_gamma 90.000000
_cell_volume 823.319162
_symmetry_space_group_name_H-M "P 2/C"
_symmetry_group_IT_number 13
_symmetry_cell_setting 'monoclinic'
loop_
_space_group_symop_operation_xyz
x,y,z
-x,y,1/2-z
-x,-y,-z
x,-y,1/2+z
loop_
_atom_site_type_symbol
_atom_site_label
_atom_site_fract_x
_atom_site_fract_y
_atom_site_fract_z
Si Si1 0.102765 0.477215 0.786291
Si Si2 0.194639 0.140138 0.420403
Si Si3 0.373904 0.130181 0.590532
Si Si4 0.589894 0.251431 0.635831
Si Si5 0.555871 0.686727 0.561794
O O1 0.376235 0.378727 0.702084
O O2 0.247913 0.626967 0.722426
O O3 0.000000 0.446895 0.750000
O O4 0.802592 0.436746 0.953041
O O5 0.500000 0.126107 0.250000
O O6 0.293454 0.194411 0.454601
O O7 0.963084 0.256577 0.485116
O O8 0.000000 0.000000 0.500000
O O9 0.501856 0.141313 0.614651
O O10 0.489719 0.255051 0.495758
O O11 0.000000 0.130189 0.750000
O O12 0.500000 0.000000 0.500000
O O13 0.500000 0.214001 0.750000
#
# Coordination Sequence:
#
# PCOD9238666 Si02
#       5
#     4   4   4   4   4
#     4  12  26  48  81 110 161 207 264 328 395 473
#     4  12  29  49  76 114 157 207 263 328 406 475
#     4  12  26  49  77 115 153 206 269 329 394 476
#     4  12  24  49  78 108 160 207 255 331 401 465
#     4  12  27  50  78 114 158 212 266 324 402 475
#
# _framework density 24.291916000000001
#
# number of rings (size 3 to 8) (size 9 to 14) (size 15 to 20)
#    0.000    0.000    6.000    2.400    2.800    7.200 
#    0.000    0.000    0.000    0.000    0.000    0.000 
#    0.000    0.000    0.000    0.000    0.000    0.000 
#
# Total GULP energy -111983.496128 kJ/mol
# GULP energy per Si atom -5599.174806 kJ/mol
# Density = 2.423663 g / cm^3
# Si number density = 24.291916 Si / 1000 Ang^3
#
#
#
# Elastic Constant Matrix: (Units=GPa)
#
#
# Indices 1 2 3 4 5 6 
#
# 1 172.7104 36.2049 46.0335 0.0000 19.9620 0.0000
# 2 36.2049 81.4026 39.7135 0.0000 12.9944 0.0000
# 3 46.0335 39.7135 146.2403 0.0000 11.1139 0.0000
# 4 0.0000 0.0000 0.0000 38.6991 0.0000 -4.5024
# 5 19.9620 12.9944 11.1139 0.0000 39.3860 0.0000
# 6 0.0000 0.0000 0.0000 -4.5024 0.0000 35.2883
#
#
#
# Elastic Compliance Matrix: (Units=1/GPa)
#
#
# Indices 1 2 3 4 5 6 
#
# 1 0.006867 -0.001962 -0.001444 0.000000 -0.002425 0.000000
# 2 -0.001962 0.015259 -0.003290 0.000000 -0.003111 0.000000
# 3 -0.001444 -0.003290 0.008224 0.000000 -0.000503 0.000000
# 4 0.000000 0.000000 0.000000 0.026230 0.000000 0.003347
# 5 -0.002425 -0.003111 -0.000503 0.000000 0.027788 0.000000
# 6 0.000000 0.000000 0.000000 0.003347 0.000000 0.028765
#
#
# Mechanical properties :
#
#
# Convention : Reuss Voigt Hill
#
# Bulk Modulus (GPa) = 58.97082 71.58413 65.27747
# Shear Modulus (GPa) = 37.82802 41.23475 39.53139
#
# Velocity S-wave (km/s) = 3.95045 4.12450 4.03842
# Velocity P-wave (km/s) = 6.71839 7.22595 6.97678
#
# Compressibility (1/GPa) = 0.01695754
#
# Stress axis : x y z
#
# Youngs Moduli (GPa) = 145.63129 65.53536 121.59102
#
# Poissons Ratio (x) = 0.12860 0.17561
# Poissons Ratio (y) = 0.28577 0.39999
# Poissons Ratio (z) = 0.21033 0.21559
#
# Static dielectric constant tensor:
#      x y z
#    x 1.941610 0.000000 -0.015050 
#    y 0.000000 1.985880 0.000000 
#    z -0.015050 0.000000 1.903040 
# 
# From -- ./inp_files/64406.got.cif
#   From: 2010.05.17/outbox.cif.g08.bks.cpg/sg13_33_cif.got.tgz:64406.got - 2010.06.03 16:44:36.
