data_PCOD9238391
_publ_section_title
;
Structure prediction by ZEFSAII (Michael W. Deem and Ramdas Pophale) SiO2 
 PCOD9238391
Probable space group: P 2/C
;
_chemical_formula_sum "Si O2"
_cell_formula_units_Z 22
_cell_length_a 6.913858
_cell_length_b 6.892694
_cell_length_c 18.828969
_cell_angle_alpha 90.000000
_cell_angle_beta 87.822112
_cell_angle_gamma 90.000000
_cell_volume 896.648387
_symmetry_space_group_name_H-M "P 2/C"
_symmetry_group_IT_number 13
_symmetry_cell_setting 'monoclinic'
loop_
_space_group_symop_operation_xyz
x,y,z
-x,y,1/2-z
-x,-y,-z
x,-y,1/2+z
loop_
_atom_site_type_symbol
_atom_site_label
_atom_site_fract_x
_atom_site_fract_y
_atom_site_fract_z
Si Si1 0.500000 0.302111 0.750000
Si Si2 0.726928 0.644009 0.492207
Si Si3 0.699833 0.219211 0.509548
Si Si4 0.000000 0.000000 0.500000
Si Si5 0.846704 0.453823 0.835113
Si Si6 0.184029 0.129053 0.841467
Si Si7 0.000000 0.806866 0.750000
O O1 0.680019 0.412449 0.780421
O O2 0.399663 0.190543 0.816524
O O3 0.527335 0.763168 0.502899
O O4 0.747146 0.559257 0.412683
O O5 0.266072 0.558462 0.465049
O O6 0.906334 0.777888 0.504083
O O7 0.810409 0.088126 0.450944
O O8 0.807908 0.093469 0.573175
O O9 0.924431 0.661123 0.811241
O O10 0.016988 0.290920 0.831689
O O11 0.140442 0.949648 0.791175
#
# Coordination Sequence:
#
# PCOD9238391 Si02
#       7
#     2   4   4   2   4   4   2
#     4  12  22  50  70 100 146 188 230 310 354 420
#     4  11  26  47  73 106 148 194 238 296 368 435
#     4  11  26  46  73 108 147 191 241 296 364 430
#     4  12  24  44  72 106 142 184 240 296 350 434
#     4  12  25  47  72 104 146 187 240 302 359 435
#     4  12  25  47  72 106 147 181 247 306 351 433
#     4  12  26  44  72 108 136 192 248 294 368 422
#
# _framework density 24.535814999999999
#
# number of rings (size 3 to 8) (size 9 to 14) (size 15 to 20)
#    0.000    0.364    7.273    1.091    2.545    0.727 
#    0.000    3.636    0.000    0.000    0.000    0.000 
#    0.000    0.000    0.000    0.000    0.000    0.000 
#
# Total GULP energy -122533.906805 kJ/mol
# GULP energy per Si atom -5569.723037 kJ/mol
# Density = 2.447997 g / cm^3
# Si number density = 24.535815 Si / 1000 Ang^3
#
#
#
# Elastic Constant Matrix: (Units=GPa)
#
#
# Indices 1 2 3 4 5 6 
#
# 1 115.8316 44.5421 -20.6942 0.0000 -8.7075 0.0000
# 2 44.5421 100.1998 -5.0755 0.0000 1.6676 0.0000
# 3 -20.6942 -5.0755 66.9811 0.0000 1.2642 0.0000
# 4 0.0000 0.0000 0.0000 23.9978 0.0000 1.6386
# 5 -8.7075 1.6676 1.2642 0.0000 38.7162 0.0000
# 6 0.0000 0.0000 0.0000 1.6386 0.0000 31.0273
#
#
#
# Elastic Compliance Matrix: (Units=1/GPa)
#
#
# Indices 1 2 3 4 5 6 
#
# 1 0.011261 -0.004895 0.003058 0.000000 0.002644 0.000000
# 2 -0.004895 0.012154 -0.000561 0.000000 -0.001606 0.000000
# 3 0.003058 -0.000561 0.015828 0.000000 0.000195 0.000000
# 4 0.000000 0.000000 0.000000 0.041821 0.000000 -0.002209
# 5 0.002644 -0.001606 0.000195 0.000000 0.026486 0.000000
# 6 0.000000 0.000000 0.000000 -0.002209 0.000000 0.032346
#
#
# Mechanical properties :
#
#
# Convention : Reuss Voigt Hill
#
# Bulk Modulus (GPa) = 29.02924 35.61749 32.32336
# Shear Modulus (GPa) = 32.01542 36.36426 34.18984
#
# Velocity S-wave (km/s) = 3.61618 3.85397 3.73697
# Velocity P-wave (km/s) = 5.41228 5.86107 5.64114
#
# Compressibility (1/GPa) = 0.03444803
#
# Stress axis : x y z
#
# Youngs Moduli (GPa) = 88.80551 82.27570 63.17818
#
# Poissons Ratio (x) = 0.40272 -0.19321
# Poissons Ratio (y) = 0.43468 0.03544
# Poissons Ratio (z) = -0.27159 0.04615
#
# Static dielectric constant tensor:
#      x y z
#    x 2.334680 0.000000 -0.716100 
#    y 0.000000 2.151760 0.000000 
#    z -0.716100 0.000000 3.102370 
# 
# From -- ./inp_files/94625.got.cif
#   From: 2010.05.17/outbox.cif.g08.bks.cpg/sg13_48_cif.got.tgz:94625.got - 2010.06.03 16:44:36.
