data_PCOD9238483
_publ_section_title
;
Structure prediction by ZEFSAII (Michael W. Deem and Ramdas Pophale) SiO2 
 PCOD9238483
Probable space group: P 2/C
;
_chemical_formula_sum "Si O2"
_cell_formula_units_Z 24
_cell_length_a 14.764924
_cell_length_b 6.500916
_cell_length_c 18.801812
_cell_angle_alpha 90.000000
_cell_angle_beta 141.747815
_cell_angle_gamma 90.000000
_cell_volume 1117.334075
_symmetry_space_group_name_H-M "P 2/C"
_symmetry_group_IT_number 13
_symmetry_cell_setting 'monoclinic'
loop_
_space_group_symop_operation_xyz
x,y,z
-x,y,1/2-z
-x,-y,-z
x,-y,1/2+z
loop_
_atom_site_type_symbol
_atom_site_label
_atom_site_fract_x
_atom_site_fract_y
_atom_site_fract_z
Si Si1 0.148006 0.991225 0.253053
Si Si2 0.235255 0.671028 0.926064
Si Si3 0.000000 0.364315 0.750000
Si Si4 0.641901 0.991225 0.246948
Si Si5 0.176185 1.000000 1.000000
Si Si6 0.500000 0.635684 0.250000
Si Si7 0.616873 0.671028 0.926064
O O1 0.103468 0.785608 0.268182
O O2 0.197632 0.173354 0.337953
O O3 0.276623 0.957166 0.276623
O O4 0.996221 0.034377 0.116990
O O5 0.251703 0.811740 0.005435
O O6 0.095658 0.526724 0.852965
O O7 0.364257 0.500000 0.000000
O O8 0.521727 0.173353 0.162048
O O9 0.762242 0.034376 0.383010
O O10 0.567104 0.785607 0.231818
O O11 0.240832 0.188260 0.994565
O O12 0.389729 0.473276 0.147035
#
# Coordination Sequence:
#
# PCOD9238483 Si02
#       7
#     4   4   2   4   4   2   4
#     4  12  26  44  72 111 146 185 248 309 361 434
#     4  12  23  44  77  99 146 201 239 289 371 435
#     4  12  22  46  70 104 146 190 230 296 370 434
#     4  12  26  44  72 111 146 185 248 309 361 434
#     4  12  21  46  73 104 140 190 245 314 357 430
#     4  12  22  46  70 104 146 190 230 296 370 434
#     4  12  23  44  77  99 146 201 239 289 371 435
#
# _framework density 21.479699
#
# number of rings (size 3 to 8) (size 9 to 14) (size 15 to 20)
#    0.000    0.000   10.000    0.500    0.000    2.000 
#    0.000    7.500    0.000    0.000    0.000    0.000 
#    0.000    0.000    0.000    0.000    0.000    0.000 
#
# Total GULP energy -133735.587101 kJ/mol
# GULP energy per Si atom -5572.316129 kJ/mol
# Density = 2.143081 g / cm^3
# Si number density = 21.479699 Si / 1000 Ang^3
#
#
#
# Elastic Constant Matrix: (Units=GPa)
#
#
# Indices 1 2 3 4 5 6 
#
# 1 135.9818 71.4071 25.8438 0.0000 3.1438 0.0000
# 2 71.4071 165.1520 52.0393 0.0000 0.8325 0.0000
# 3 25.8438 52.0393 97.0110 0.0000 -1.4686 0.0000
# 4 0.0000 0.0000 0.0000 66.1288 0.0000 -2.5940
# 5 3.1438 0.8325 -1.4686 0.0000 18.7078 0.0000
# 6 0.0000 0.0000 0.0000 -2.5940 0.0000 5.8070
#
#
#
# Elastic Compliance Matrix: (Units=1/GPa)
#
#
# Indices 1 2 3 4 5 6 
#
# 1 0.009566 -0.003994 -0.000428 0.000000 -0.001463 0.000000
# 2 -0.003994 0.008962 -0.003744 0.000000 -0.000022 0.000000
# 3 -0.000428 -0.003744 0.012449 0.000000 0.001216 0.000000
# 4 0.000000 0.000000 0.000000 0.015392 0.000000 0.006875
# 5 -0.001463 -0.000022 0.001216 0.000000 0.053796 0.000000
# 6 0.000000 0.000000 0.000000 0.006875 0.000000 0.175278
#
#
# Mechanical properties :
#
#
# Convention : Reuss Voigt Hill
#
# Bulk Modulus (GPa) = 68.28116 77.41393 72.84754
# Shear Modulus (GPa) = 16.85453 34.71899 25.78676
#
# Velocity S-wave (km/s) = 2.80424 4.02476 3.46861
# Velocity P-wave (km/s) = 6.50713 7.59717 7.07318
#
# Compressibility (1/GPa) = 0.01464533
#
# Stress axis : x y z
#
# Youngs Moduli (GPa) = 104.53180 111.58692 80.32936
#
# Poissons Ratio (x) = 0.44568 0.03440
# Poissons Ratio (y) = 0.41750 0.30072
# Poissons Ratio (z) = 0.04476 0.41774
#
# Static dielectric constant tensor:
#      x y z
#    x 1.716160 0.000000 -0.011360 
#    y 0.000000 1.780910 0.000000 
#    z -0.011360 0.000000 1.980320 
# 
# From -- ./inp_files/79399.got.cif
#   From: 2010.05.17/outbox.cif.g08.bks.cpg/sg13_40_cif.got.tgz:79399.got - 2010.06.03 16:44:36.
