data_PCOD9238174
_publ_section_title
;
Structure prediction by ZEFSAII (Michael W. Deem and Ramdas Pophale) SiO2 
 PCOD9238174
Probable space group: P 2/C
;
_chemical_formula_sum "Si O2"
_cell_formula_units_Z 28
_cell_length_a 13.021292
_cell_length_b 9.444190
_cell_length_c 15.622308
_cell_angle_alpha 90.000000
_cell_angle_beta 35.806853
_cell_angle_gamma 90.000000
_cell_volume 1123.984824
_symmetry_space_group_name_H-M "P 2/C"
_symmetry_group_IT_number 13
_symmetry_cell_setting 'monoclinic'
loop_
_space_group_symop_operation_xyz
x,y,z
-x,y,1/2-z
-x,-y,-z
x,-y,1/2+z
loop_
_atom_site_type_symbol
_atom_site_label
_atom_site_fract_x
_atom_site_fract_y
_atom_site_fract_z
Si Si1 0.920199 0.199066 0.710065
Si Si2 0.837683 0.241561 0.426978
Si Si3 0.502904 0.172260 0.129500
Si Si4 0.479526 0.256480 0.565391
Si Si5 0.098403 0.465179 0.519882
Si Si6 0.780326 0.032534 0.055986
Si Si7 0.551914 0.478198 0.300982
O O1 0.985743 0.358533 0.651498
O O2 0.034576 0.109353 0.566696
O O3 0.000000 0.158785 0.750000
O O4 0.716363 0.192220 0.819413
O O5 0.643833 0.227440 0.516540
O O6 0.863799 0.398042 0.447757
O O7 0.000000 0.213666 0.250000
O O8 0.824631 0.131160 0.513902
O O9 0.561037 0.337222 0.107848
O O10 0.350151 0.090005 0.283460
O O11 0.437169 0.199575 0.078940
O O12 0.673016 0.083221 0.042507
O O13 0.437230 0.418512 0.625739
O O14 0.272249 0.407474 0.354882
O O15 0.000000 0.500000 0.500000
O O16 0.500000 0.563536 0.250000
#
# Coordination Sequence:
#
# PCOD9238174 Si02
#       7
#     4   4   4   4   4   4   4
#     4  12  24  48  79 115 157 212 271 331 406 490
#     4  12  31  53  76 118 169 213 275 348 410 492
#     4  11  24  46  82 117 155 213 272 326 415 486
#     4  12  28  46  84 119 161 209 275 338 415 483
#     4  12  26  47  78 114 158 208 262 334 410 483
#     4  11  25  51  78 108 167 217 267 336 409 495
#     4  12  22  44  78 119 160 200 266 335 406 481
#
# _framework density 24.911369000000001
#
# number of rings (size 3 to 8) (size 9 to 14) (size 15 to 20)
#    0.000    0.286    7.143    1.286    2.000    5.143 
#    0.000    1.429    0.000    0.000    0.000    0.000 
#    0.000    0.000    0.000    0.000    0.000    0.000 
#
# Total GULP energy -155889.850580 kJ/mol
# GULP energy per Si atom -5567.494664 kJ/mol
# Density = 2.485467 g / cm^3
# Si number density = 24.911369 Si / 1000 Ang^3
#
#
#
# Elastic Constant Matrix: (Units=GPa)
#
#
# Indices 1 2 3 4 5 6 
#
# 1 99.2520 7.7796 31.7044 0.0000 -8.4032 0.0000
# 2 7.7796 102.3855 33.6761 0.0000 2.8565 0.0000
# 3 31.7044 33.6761 109.7733 0.0000 -7.3761 0.0000
# 4 0.0000 0.0000 0.0000 1.2471 0.0000 23.0570
# 5 -8.4032 2.8565 -7.3761 0.0000 38.2624 0.0000
# 6 0.0000 0.0000 0.0000 23.0570 0.0000 -42.8081
#
#
#
# Elastic Compliance Matrix: (Units=1/GPa)
#
#
# Indices 1 2 3 4 5 6 
#
# 1 0.011231 0.000135 -0.003161 0.000000 0.001847 0.000000
# 2 0.000135 0.010947 -0.003496 0.000000 -0.001462 0.000000
# 3 -0.003161 -0.003496 0.011211 0.000000 0.001728 0.000000
# 4 0.000000 0.000000 0.000000 0.073174 0.000000 0.039413
# 5 0.001847 -0.001462 0.001728 0.000000 0.026983 0.000000
# 6 0.000000 0.000000 0.000000 0.039413 0.000000 -0.002132
#
#
# Mechanical properties :
#
#
# Convention : Reuss Voigt Hill
#
# Bulk Modulus (GPa) = 49.14990 50.85901 50.00446
# Shear Modulus (GPa) = 33.05995 15.22365 24.14180
#
# Velocity S-wave (km/s) = 3.64689 2.47475 3.11643
# Velocity P-wave (km/s) = 6.12420 5.35034 5.75031
#
# Compressibility (1/GPa) = 0.02034592
#
# Stress axis : x y z
#
# Youngs Moduli (GPa) = 89.04013 91.34698 89.19753
#
# Poissons Ratio (x) = -0.01231 0.28195
# Poissons Ratio (y) = -0.01200 0.31179
# Poissons Ratio (z) = 0.28145 0.31931
#
# Static dielectric constant tensor:
#      x y z
#    x 2.638920 0.000000 -0.528200 
#    y 0.000000 2.163600 0.000000 
#    z -0.528200 0.000000 2.604010 
# 
# From -- ./inp_files/80814.got.cif
#   From: 2010.05.17/outbox.cif.g08.bks.cpg/sg13_41_cif.got.tgz:80814.got - 2010.06.03 16:44:36.
