data_PCOD9238739
_publ_section_title
;
Structure prediction by ZEFSAII (Michael W. Deem and Ramdas Pophale) SiO2 
 PCOD9238739
Probable space group: P 2/C
;
_chemical_formula_sum "Si O2"
_cell_formula_units_Z 24
_cell_length_a 23.758596
_cell_length_b 4.985762
_cell_length_c 13.738386
_cell_angle_alpha 90.000000
_cell_angle_beta 33.308302
_cell_angle_gamma 90.000000
_cell_volume 893.663887
_symmetry_space_group_name_H-M "P 2/C"
_symmetry_group_IT_number 13
_symmetry_cell_setting 'monoclinic'
loop_
_space_group_symop_operation_xyz
x,y,z
-x,y,1/2-z
-x,-y,-z
x,-y,1/2+z
loop_
_atom_site_type_symbol
_atom_site_label
_atom_site_fract_x
_atom_site_fract_y
_atom_site_fract_z
Si Si1 0.670049 0.004115 0.078879
Si Si2 0.652875 0.793994 0.904478
Si Si3 0.607878 0.337771 0.847145
Si Si4 0.856601 0.803006 0.432416
Si Si5 0.000000 0.346744 0.250000
Si Si6 0.500000 0.418085 0.250000
Si Si7 0.043509 0.968326 0.543019
O O1 0.635366 0.763064 0.199740
O O2 0.613019 0.939487 0.403747
O O3 0.711810 0.906751 0.913902
O O4 0.757393 0.143494 0.014882
O O5 0.684068 0.561019 0.782763
O O6 0.566858 0.617122 0.086926
O O7 0.578374 0.787312 0.689908
O O8 0.500000 0.500000 0.000000
O O9 0.910290 0.531448 0.329438
O O10 0.943153 0.015864 0.263286
O O11 0.866323 0.870245 0.532994
O O12 0.068790 0.321403 0.044569
O O13 0.000000 0.000000 0.500000
#
# Coordination Sequence:
#
# PCOD9238739 Si02
#       7
#     4   4   4   4   2   2   4
#     4  12  28  48  75 109 157 207 263 331 390 454
#     4  12  28  47  72 108 140 204 268 315 392 455
#     4  12  28  48  77 104 145 203 271 328 389 458
#     4   9  22  42  69 109 147 190 241 309 375 456
#     4   8  18  42  70 106 146 190 236 306 390 458
#     4  12  26  46  72 102 156 208 254 330 384 448
#     4   9  19  41  75 106 147 187 238 299 380 465
#
# _framework density 26.855733000000001
#
# number of rings (size 3 to 8) (size 9 to 14) (size 15 to 20)
#    0.000    1.667    1.667    3.000    4.667    6.667 
#    0.000    0.000    0.000    0.000    0.000    0.000 
#    0.000    0.000    0.000    0.000    0.000    0.000 
#
# Total GULP energy -133655.667733 kJ/mol
# GULP energy per Si atom -5568.986156 kJ/mol
# Density = 2.679461 g / cm^3
# Si number density = 26.855733 Si / 1000 Ang^3
#
#
#
# Elastic Constant Matrix: (Units=GPa)
#
#
# Indices 1 2 3 4 5 6 
#
# 1 242.3232 93.4632 47.6187 0.0000 20.0312 0.0000
# 2 93.4632 172.0612 39.9778 0.0000 30.1207 0.0000
# 3 47.6187 39.9778 79.4618 0.0000 44.9853 0.0000
# 4 0.0000 0.0000 0.0000 -23.6378 0.0000 64.1057
# 5 20.0312 30.1207 44.9853 0.0000 55.7835 0.0000
# 6 0.0000 0.0000 0.0000 64.1057 0.0000 14.6917
#
#
#
# Elastic Compliance Matrix: (Units=1/GPa)
#
#
# Indices 1 2 3 4 5 6 
#
# 1 0.005605 -0.002659 -0.003118 0.000000 0.001938 0.000000
# 2 -0.002659 0.007924 -0.000941 0.000000 -0.002565 0.000000
# 3 -0.003118 -0.000941 0.025770 0.000000 -0.019154 0.000000
# 4 0.000000 0.000000 0.000000 -0.003296 0.000000 0.014384
# 5 0.001938 -0.002565 -0.019154 0.000000 0.034062 0.000000
# 6 0.000000 0.000000 0.000000 0.014384 0.000000 0.005304
#
#
# Mechanical properties :
#
#
# Convention : Reuss Voigt Hill
#
# Bulk Modulus (GPa) = 38.66559 95.10727 66.88643
# Shear Modulus (GPa) = 51.32143 30.21991 40.77067
#
# Velocity S-wave (km/s) = 4.37625 3.35814 3.90055
# Velocity P-wave (km/s) = 6.32172 7.10825 6.72649
#
# Compressibility (1/GPa) = 0.02586279
#
# Stress axis : x y z
#
# Youngs Moduli (GPa) = 178.41426 126.19771 38.80490
#
# Poissons Ratio (x) = 0.33561 0.12099
# Poissons Ratio (y) = 0.47447 0.03651
# Poissons Ratio (z) = 0.55626 0.11874
#
# Static dielectric constant tensor:
#      x y z
#    x 1.189340 0.000000 0.344090 
#    y 0.000000 2.292830 0.000000 
#    z 0.344090 0.000000 2.245370 
# 
# From -- ./inp_files/41264.got.cif
#   From: 2010.05.17/outbox.cif.g08.bks.cpg/sg13_21_cif.got.tgz:41264.got - 2010.06.03 16:44:36.
