data_PCOD9238462
_publ_section_title
;
Structure prediction by ZEFSAII (Michael W. Deem and Ramdas Pophale) SiO2 
 PCOD9238462
Probable space group: P 2/C
;
_chemical_formula_sum "Si O2"
_cell_formula_units_Z 14
_cell_length_a 9.333367
_cell_length_b 7.072037
_cell_length_c 18.091308
_cell_angle_alpha 90.000000
_cell_angle_beta 145.833902
_cell_angle_gamma 90.000000
_cell_volume 670.618010
_symmetry_space_group_name_H-M "P 2/C"
_symmetry_group_IT_number 13
_symmetry_cell_setting 'monoclinic'
loop_
_space_group_symop_operation_xyz
x,y,z
-x,y,1/2-z
-x,-y,-z
x,-y,1/2+z
loop_
_atom_site_type_symbol
_atom_site_label
_atom_site_fract_x
_atom_site_fract_y
_atom_site_fract_z
Si Si1 0.321673 0.452577 0.584204
Si Si2 0.500000 0.205394 0.250000
Si Si3 0.165835 0.885861 0.128670
Si Si4 0.082489 0.583185 0.201030
O O1 0.320646 0.650983 0.628600
O O2 0.271069 0.285749 0.621484
O O3 0.102617 0.452639 0.428508
O O4 0.611582 0.446946 0.676791
O O5 0.355666 0.051216 0.238719
O O6 0.041759 0.788424 0.146308
O O7 0.000000 0.000000 0.000000
O O8 0.000000 0.571194 0.250000
#
# Coordination Sequence:
#
# PCOD9238462 Si02
#       4
#     4   2   4   4
#     4  12  24  46  72  98 136 185 230 278 333 408
#     4  12  20  40  76  98 128 170 250 270 318 392
#     4  12  23  42  72 102 131 180 238 276 327 410
#     4  12  25  44  68 104 142 177 220 286 352 394
#
# _framework density 20.876266999999999
#
# number of rings (size 3 to 8) (size 9 to 14) (size 15 to 20)
#    0.000    0.000    8.571    3.429    0.000    0.000 
#    0.000   11.429    0.000    0.000    0.000    0.000 
#    0.000    0.000    0.000    0.000    0.000    0.000 
#
# Total GULP energy -78022.009308 kJ/mol
# GULP energy per Si atom -5573.000665 kJ/mol
# Density = 2.082875 g / cm^3
# Si number density = 20.876267 Si / 1000 Ang^3
#
#
#
# Elastic Constant Matrix: (Units=GPa)
#
#
# Indices 1 2 3 4 5 6 
#
# 1 133.1295 37.6031 57.0278 0.0000 -8.3660 0.0000
# 2 37.6031 139.5765 33.2665 0.0000 -9.3262 0.0000
# 3 57.0278 33.2665 121.8550 0.0000 -0.4025 0.0000
# 4 0.0000 0.0000 0.0000 45.7849 0.0000 8.4841
# 5 -8.3660 -9.3262 -0.4025 0.0000 36.6514 0.0000
# 6 0.0000 0.0000 0.0000 8.4841 0.0000 21.0729
#
#
#
# Elastic Compliance Matrix: (Units=1/GPa)
#
#
# Indices 1 2 3 4 5 6 
#
# 1 0.009852 -0.001536 -0.004186 0.000000 0.001812 0.000000
# 2 -0.001536 0.008041 -0.001471 0.000000 0.001679 0.000000
# 3 -0.004186 -0.001471 0.010563 0.000000 -0.001214 0.000000
# 4 0.000000 0.000000 0.000000 0.023602 0.000000 -0.009502
# 5 0.001812 0.001679 -0.001214 0.000000 0.028112 0.000000
# 6 0.000000 0.000000 0.000000 -0.009502 0.000000 0.051280
#
#
# Mechanical properties :
#
#
# Convention : Reuss Voigt Hill
#
# Bulk Modulus (GPa) = 71.06458 72.26177 71.66317
# Shear Modulus (GPa) = 33.21718 38.47940 35.84829
#
# Velocity S-wave (km/s) = 3.99324 4.29792 4.14838
# Velocity P-wave (km/s) = 7.44151 7.70188 7.57282
#
# Compressibility (1/GPa) = 0.01407171
#
# Stress axis : x y z
#
# Youngs Moduli (GPa) = 101.50205 124.36197 94.67125
#
# Poissons Ratio (x) = 0.19097 0.39625
# Poissons Ratio (y) = 0.15586 0.13926
# Poissons Ratio (z) = 0.42484 0.18294
#
# Static dielectric constant tensor:
#      x y z
#    x 1.795260 0.000000 0.152480 
#    y 0.000000 1.767690 0.000000 
#    z 0.152480 0.000000 1.956660 
# 
# From -- ./inp_files/27129.got.cif
#   From: 2010.05.17/outbox.cif.g08.bks.cpg/sg13_14_cif.got.tgz:27129.got - 2010.06.03 16:44:36.
