data_PCOD9238371
_publ_section_title
;
Structure prediction by ZEFSAII (Michael W. Deem and Ramdas Pophale) SiO2 
 PCOD9238371
Probable space group: P 2/C
;
_chemical_formula_sum "Si O2"
_cell_formula_units_Z 32
_cell_length_a 24.848011
_cell_length_b 8.621155
_cell_length_c 14.740057
_cell_angle_alpha 90.000000
_cell_angle_beta 151.803463
_cell_angle_gamma 90.000000
_cell_volume 1491.955121
_symmetry_space_group_name_H-M "P 2/C"
_symmetry_group_IT_number 13
_symmetry_cell_setting 'monoclinic'
loop_
_space_group_symop_operation_xyz
x,y,z
-x,y,1/2-z
-x,-y,-z
x,-y,1/2+z
loop_
_atom_site_type_symbol
_atom_site_label
_atom_site_fract_x
_atom_site_fract_y
_atom_site_fract_z
Si Si1 0.236957 0.274785 0.662084
Si Si2 0.062536 0.837071 0.574716
Si Si3 0.164633 0.656390 0.248109
Si Si4 0.871590 0.064395 0.520558
Si Si5 0.694821 0.153965 0.409933
Si Si6 0.499258 0.317326 0.478923
Si Si7 0.558431 0.838744 0.241239
Si Si8 0.220775 0.344892 0.435566
O O1 0.191715 0.362063 0.682773
O O2 0.374536 0.269062 0.867122
O O3 0.202206 0.352068 0.515388
O O4 0.182014 0.104087 0.579223
O O5 0.122514 0.846682 0.566383
O O6 0.148223 0.793324 0.782353
O O7 0.964225 0.708992 0.428942
O O8 0.000000 0.000000 0.500000
O O9 0.245577 0.791636 0.409052
O O10 0.189619 0.502082 0.340187
O O11 0.792544 0.143394 0.478780
O O12 0.000000 0.049578 0.750000
O O13 0.631041 0.989598 0.321881
O O14 0.598771 0.275692 0.237208
O O15 0.500000 0.500000 0.500000
O O16 0.478651 0.215471 0.539731
O O17 0.500000 0.867926 0.250000
O O18 0.647938 0.698738 0.384166
#
# Coordination Sequence:
#
# PCOD9238371 Si02
#       8
#     4   4   4   4   4   4   4   4
#     4  11  26  45  74 101 143 190 230 297 364 415
#     4  12  24  44  74 105 136 181 240 289 347 429
#     4  12  27  45  71 107 140 186 237 288 365 429
#     4  12  24  45  75 105 143 186 238 300 353 417
#     4  12  25  45  73 102 144 186 242 291 351 429
#     4  11  26  47  69 104 145 187 236 291 360 426
#     4  11  26  43  70 105 137 186 243 294 348 419
#     4  11  26  48  67 103 149 180 236 292 360 426
#
# _framework density 21.448366
#
# number of rings (size 3 to 8) (size 9 to 14) (size 15 to 20)
#    0.000    0.500    5.000    3.750    5.250    1.000 
#    0.000    0.000    0.000    0.000    0.000    0.000 
#    0.000    0.000    0.000    0.000    0.000    0.000 
#
# Total GULP energy -179209.008873 kJ/mol
# GULP energy per Si atom -5600.281527 kJ/mol
# Density = 2.139955 g / cm^3
# Si number density = 21.448366 Si / 1000 Ang^3
#
#
#
# Elastic Constant Matrix: (Units=GPa)
#
#
# Indices 1 2 3 4 5 6 
#
# 1 177.6738 32.2680 34.5873 0.0000 -10.0278 0.0000
# 2 32.2680 50.5654 18.5887 0.0000 10.0044 0.0000
# 3 34.5873 18.5887 93.6091 0.0000 -10.5885 0.0000
# 4 0.0000 0.0000 0.0000 31.6911 0.0000 -5.6188
# 5 -10.0278 10.0044 -10.5885 0.0000 25.3604 0.0000
# 6 0.0000 0.0000 0.0000 -5.6188 0.0000 6.8999
#
#
#
# Elastic Compliance Matrix: (Units=1/GPa)
#
#
# Indices 1 2 3 4 5 6 
#
# 1 0.006969 -0.004861 -0.001135 0.000000 0.004200 0.000000
# 2 -0.004861 0.027896 -0.005464 0.000000 -0.015208 0.000000
# 3 -0.001135 -0.005464 0.012994 0.000000 0.007132 0.000000
# 4 0.000000 0.000000 0.000000 0.036879 0.000000 0.030032
# 5 0.004200 -0.015208 0.007132 0.000000 0.050069 0.000000
# 6 0.000000 0.000000 0.000000 0.030032 0.000000 0.169387
#
#
# Mechanical properties :
#
#
# Convention : Reuss Voigt Hill
#
# Bulk Modulus (GPa) = 40.09645 54.74847 47.42246
# Shear Modulus (GPa) = 14.90644 28.55057 21.72850
#
# Velocity S-wave (km/s) = 2.63913 3.65242 3.18631
# Velocity P-wave (km/s) = 5.29355 6.58544 5.97452
#
# Compressibility (1/GPa) = 0.02493986
#
# Stress axis : x y z
#
# Youngs Moduli (GPa) = 143.49242 35.84773 76.96087
#
# Poissons Ratio (x) = 0.17426 0.08732
# Poissons Ratio (y) = 0.69751 0.42049
# Poissons Ratio (z) = 0.16281 0.19586
#
# Static dielectric constant tensor:
#      x y z
#    x 1.759020 0.000000 -0.006840 
#    y 0.000000 1.789370 0.000000 
#    z -0.006840 0.000000 1.651800 
# 
# From -- ./inp_files/58818.got.cif
#   From: 2010.05.17/outbox.cif.g08.bks.cpg/sg13_30_cif.got.tgz:58818.got - 2010.06.03 16:44:36.
