data_PCOD9238523
_publ_section_title
;
Structure prediction by ZEFSAII (Michael W. Deem and Ramdas Pophale) SiO2 
 PCOD9238523
Probable space group: P 2/C
;
_chemical_formula_sum "Si O2"
_cell_formula_units_Z 22
_cell_length_a 8.755930
_cell_length_b 8.691624
_cell_length_c 13.799790
_cell_angle_alpha 90.000000
_cell_angle_beta 109.660897
_cell_angle_gamma 90.000000
_cell_volume 988.982113
_symmetry_space_group_name_H-M "P 2/C"
_symmetry_group_IT_number 13
_symmetry_cell_setting 'monoclinic'
loop_
_space_group_symop_operation_xyz
x,y,z
-x,y,1/2-z
-x,-y,-z
x,-y,1/2+z
loop_
_atom_site_type_symbol
_atom_site_label
_atom_site_fract_x
_atom_site_fract_y
_atom_site_fract_z
Si Si1 0.500000 0.270335 0.750000
Si Si2 0.192062 0.465420 0.622061
Si Si3 0.095895 0.257161 0.861380
Si Si4 0.678902 0.749262 0.739048
Si Si5 0.628641 0.950712 0.110513
Si Si6 0.685883 0.473753 0.066102
O O1 0.350942 0.380382 0.694880
O O2 0.461952 0.168275 0.836718
O O3 0.201857 0.641342 0.668212
O O4 0.218195 0.466100 0.513126
O O5 0.041589 0.351487 0.610689
O O6 0.220884 0.124026 0.917813
O O7 0.221289 0.390979 0.858452
O O8 0.000000 0.191483 0.750000
O O9 0.500000 0.739016 0.750000
O O10 0.686826 0.667982 0.636954
O O11 0.695640 0.924921 0.704467
O O12 0.500000 0.000000 0.000000
O O13 0.500000 0.500000 0.000000
#
# Coordination Sequence:
#
# PCOD9238523 Si02
#       6
#     2   4   4   4   4   4
#     4  12  22  44  74 106 148 200 250 306 382 452
#     4  12  24  45  76 111 148 201 254 316 378 448
#     4  12  25  48  71 106 155 195 248 318 378 443
#     4  12  23  43  73 113 145 189 257 316 366 451
#     4  12  27  46  72 106 154 203 253 305 384 465
#     4  12  23  44  77 112 146 195 257 305 375 461
#
# _framework density 22.245094999999999
#
# number of rings (size 3 to 8) (size 9 to 14) (size 15 to 20)
#    0.000    0.000    7.273    3.818    0.000    0.000 
#    3.273    3.636    0.000    0.000    0.000    0.000 
#    0.000    0.000    0.000    0.000    0.000    0.000 
#
# Total GULP energy -122589.684731 kJ/mol
# GULP energy per Si atom -5572.258397 kJ/mol
# Density = 2.219446 g / cm^3
# Si number density = 22.245095 Si / 1000 Ang^3
#
#
#
# Elastic Constant Matrix: (Units=GPa)
#
#
# Indices 1 2 3 4 5 6 
#
# 1 134.6269 55.0100 46.9043 0.0000 9.5506 0.0000
# 2 55.0100 91.0932 14.8858 0.0000 -4.1729 0.0000
# 3 46.9043 14.8858 88.0427 0.0000 -8.8046 0.0000
# 4 0.0000 0.0000 0.0000 19.3513 0.0000 0.7589
# 5 9.5506 -4.1729 -8.8046 0.0000 37.2118 0.0000
# 6 0.0000 0.0000 0.0000 0.7589 0.0000 47.7639
#
#
#
# Elastic Compliance Matrix: (Units=1/GPa)
#
#
# Indices 1 2 3 4 5 6 
#
# 1 0.012846 -0.006996 -0.006216 0.000000 -0.005552 0.000000
# 2 -0.006996 0.015125 0.001556 0.000000 0.003860 0.000000
# 3 -0.006216 0.001556 0.014937 0.000000 0.005304 0.000000
# 4 0.000000 0.000000 0.000000 0.051708 0.000000 -0.000822
# 5 -0.005552 0.003860 0.005304 0.000000 0.029986 0.000000
# 6 0.000000 0.000000 0.000000 -0.000822 0.000000 0.020949
#
#
# Mechanical properties :
#
#
# Convention : Reuss Voigt Hill
#
# Bulk Modulus (GPa) = 51.03161 60.81809 55.92485
# Shear Modulus (GPa) = 28.50666 33.99623 31.25145
#
# Velocity S-wave (km/s) = 3.58366 3.91353 3.75222
# Velocity P-wave (km/s) = 6.33356 6.91523 6.63077
#
# Compressibility (1/GPa) = 0.01959570
#
# Stress axis : x y z
#
# Youngs Moduli (GPa) = 77.84338 66.11450 66.94722
#
# Poissons Ratio (x) = 0.46255 0.41616
# Poissons Ratio (y) = 0.54461 -0.10417
# Poissons Ratio (z) = 0.48389 -0.10287
#
# Static dielectric constant tensor:
#      x y z
#    x 1.838310 0.000000 0.003570 
#    y 0.000000 1.915020 0.000000 
#    z 0.003570 0.000000 1.694510 
# 
# From -- ./inp_files/46195.got.cif
#   From: 2010.05.17/outbox.cif.g08.bks.cpg/sg13_24_cif.got.tgz:46195.got - 2010.06.03 16:44:36.
