data_PCOD9238122
_publ_section_title
;
Structure prediction by ZEFSAII (Michael W. Deem and Ramdas Pophale) SiO2 
 PCOD9238122
Probable space group: P 2/C
;
_chemical_formula_sum "Si O2"
_cell_formula_units_Z 16
_cell_length_a 5.567492
_cell_length_b 8.331577
_cell_length_c 14.683234
_cell_angle_alpha 90.000000
_cell_angle_beta 58.837989
_cell_angle_gamma 90.000000
_cell_volume 582.819258
_symmetry_space_group_name_H-M "P 2/C"
_symmetry_group_IT_number 13
_symmetry_cell_setting 'monoclinic'
loop_
_space_group_symop_operation_xyz
x,y,z
-x,y,1/2-z
-x,-y,-z
x,-y,1/2+z
loop_
_atom_site_type_symbol
_atom_site_label
_atom_site_fract_x
_atom_site_fract_y
_atom_site_fract_z
Si Si1 0.596916 0.770408 0.429131
Si Si2 0.730963 0.909013 0.867808
Si Si3 0.500000 0.733320 0.750000
Si Si4 0.500000 0.771196 0.250000
Si Si5 0.972886 0.483371 0.613827
O O1 0.316100 0.771012 0.543787
O O2 0.571481 0.844795 0.332660
O O3 0.743986 0.598185 0.400355
O O4 0.756976 0.932583 0.429675
O O5 0.499797 0.838928 0.840980
O O6 0.000000 0.909301 0.750000
O O7 0.780401 0.623510 0.694017
O O8 0.235172 0.665780 0.328173
O O9 0.000000 0.500000 0.500000
#
# Coordination Sequence:
#
# PCOD9238122 Si02
#       5
#     4   4   2   2   4
#     4  11  25  48  72 107 155 203 250 310 387 460
#     4  11  25  44  75 111 151 196 257 315 375 454
#     4  11  25  46  74 114 151 197 256 319 373 450
#     4  11  25  42  70 100 143 199 246 303 375 450
#     4  11  24  45  69 105 151 198 254 311 380 453
#
# _framework density 27.452763999999998
#
# number of rings (size 3 to 8) (size 9 to 14) (size 15 to 20)
#    0.000    1.000    2.500    3.000    3.500    5.000 
#    0.000    6.250    0.000    0.000    0.000    0.000 
#    0.000    0.000    0.000    0.000    0.000    0.000 
#
# Total GULP energy -89124.416834 kJ/mol
# GULP energy per Si atom -5570.276052 kJ/mol
# Density = 2.739028 g / cm^3
# Si number density = 27.452764 Si / 1000 Ang^3
#
#
#
# Elastic Constant Matrix: (Units=GPa)
#
#
# Indices 1 2 3 4 5 6 
#
# 1 47.8895 32.4935 23.3727 0.0000 -9.6571 0.0000
# 2 32.4935 162.2597 45.6828 0.0000 -7.3088 0.0000
# 3 23.3727 45.6828 185.4567 0.0000 -6.6187 0.0000
# 4 0.0000 0.0000 0.0000 -258.5628 0.0000 -224.1465
# 5 -9.6571 -7.3088 -6.6187 0.0000 59.3184 0.0000
# 6 0.0000 0.0000 0.0000 -224.1465 0.0000 -138.1420
#
#
#
# Elastic Compliance Matrix: (Units=1/GPa)
#
#
# Indices 1 2 3 4 5 6 
#
# 1 0.025528 -0.004392 -0.002014 0.000000 0.003390 0.000000
# 2 -0.004392 0.007402 -0.001268 0.000000 0.000055 0.000000
# 3 -0.002014 -0.001268 0.005965 0.000000 0.000181 0.000000
# 4 0.000000 0.000000 0.000000 0.009512 0.000000 -0.015434
# 5 0.003390 0.000055 0.000181 0.000000 0.017437 0.000000
# 6 0.000000 0.000000 0.000000 -0.015434 0.000000 0.017803
#
#
# Mechanical properties :
#
#
# Convention : Reuss Voigt Hill
#
# Bulk Modulus (GPa) = 42.46980 66.52265 54.49622
# Shear Modulus (GPa) = 46.79668 -47.87348 -0.53840
#
# Velocity S-wave (km/s) = 4.13319 -4.18047 -0.44333
# Velocity P-wave (km/s) = 6.18720 0.99120 4.43079
#
# Compressibility (1/GPa) = 0.02354614
#
# Stress axis : x y z
#
# Youngs Moduli (GPa) = 39.17196 135.09879 167.65263
#
# Poissons Ratio (x) = 0.59341 0.33771
# Poissons Ratio (y) = 0.17206 0.21254
# Poissons Ratio (z) = 0.07891 0.17127
#
# Static dielectric constant tensor:
#      x y z
#    x 1.546930 0.000000 -0.006860 
#    y 0.000000 2.704230 0.000000 
#    z -0.006860 0.000000 2.258890 
# 
# From -- ./inp_files/43159.got.cif
#   From: 2010.05.17/outbox.cif.g08.bks.cpg/sg13_22_cif.got.tgz:43159.got - 2010.06.03 16:44:36.
