data_PCOD9238767
_publ_section_title
;
Structure prediction by ZEFSAII (Michael W. Deem and Ramdas Pophale) SiO2 
 PCOD9238767
Probable space group: P 2/C
;
_chemical_formula_sum "Si O2"
_cell_formula_units_Z 14
_cell_length_a 4.750603
_cell_length_b 22.250188
_cell_length_c 4.753819
_cell_angle_alpha 90.000000
_cell_angle_beta 106.173911
_cell_angle_gamma 90.000000
_cell_volume 482.599138
_symmetry_space_group_name_H-M "P 2/C"
_symmetry_group_IT_number 13
_symmetry_cell_setting 'monoclinic'
loop_
_space_group_symop_operation_xyz
x,y,z
-x,y,1/2-z
-x,-y,-z
x,-y,1/2+z
loop_
_atom_site_type_symbol
_atom_site_label
_atom_site_fract_x
_atom_site_fract_y
_atom_site_fract_z
Si Si1 0.000000 0.500000 0.500000
Si Si2 0.500000 0.416856 0.750000
Si Si3 0.500000 0.673827 0.750000
Si Si4 0.000000 0.242106 0.250000
Si Si5 0.500000 0.826829 0.250000
Si Si6 0.500000 0.915529 0.750000
Si Si7 0.000000 0.000000 0.500000
O O1 0.251105 0.464491 0.790432
O O2 0.000000 0.550655 0.750000
O O3 0.449660 0.370415 0.491344
O O4 0.220125 0.716360 0.632557
O O5 0.224332 0.208064 0.527122
O O6 0.413495 0.870228 0.481998
O O7 0.252827 0.962992 0.795935
O O8 0.000000 0.049034 0.750000
#
# Coordination Sequence:
#
# PCOD9238767 Si02
#       7
#     2   2   2   2   2   2   2
#     4  12  26  50  76 124 172 220 274 346 402 564
#     4  12  29  51  84 126 172 226 272 348 438 518
#     4  12  31  57  92 120 172 226 294 364 442 490
#     4  12  32  64  88 130 168 228 316 378 420 522
#     4  12  31  57  92 120 172 226 294 364 442 490
#     4  12  29  51  84 126 172 226 272 348 438 518
#     4  12  26  50  76 124 172 220 274 346 402 564
#
# _framework density 29.009585999999999
#
# number of rings (size 3 to 8) (size 9 to 14) (size 15 to 20)
#    0.000    0.000    0.000    6.857   12.000    8.000 
#    0.000    0.000    0.000    0.000    0.000    0.000 
#    0.000    0.000    0.000    0.000    0.000    0.000 
#
# Total GULP energy -77956.759027 kJ/mol
# GULP energy per Si atom -5568.339930 kJ/mol
# Density = 2.894356 g / cm^3
# Si number density = 29.009586 Si / 1000 Ang^3
#
#
#
# Elastic Constant Matrix: (Units=GPa)
#
#
# Indices 1 2 3 4 5 6 
#
# 1 209.2427 111.3649 52.6720 0.0000 47.3711 0.0000
# 2 111.3649 220.1367 110.2024 0.0000 54.1193 0.0000
# 3 52.6720 110.2024 334.4212 0.0000 -34.3292 0.0000
# 4 0.0000 0.0000 0.0000 43.1246 0.0000 11.4749
# 5 47.3711 54.1193 -34.3292 0.0000 69.1340 0.0000
# 6 0.0000 0.0000 0.0000 11.4749 0.0000 92.4591
#
#
#
# Elastic Compliance Matrix: (Units=1/GPa)
#
#
# Indices 1 2 3 4 5 6 
#
# 1 0.006942 -0.002422 -0.000620 0.000000 -0.003168 0.000000
# 2 -0.002422 0.009279 -0.003426 0.000000 -0.007306 0.000000
# 3 -0.000620 -0.003426 0.004780 0.000000 0.005481 0.000000
# 4 0.000000 0.000000 0.000000 0.023981 0.000000 -0.002976
# 5 -0.003168 -0.007306 0.005481 0.000000 0.025076 0.000000
# 6 0.000000 0.000000 0.000000 -0.002976 0.000000 0.011185
#
#
# Mechanical properties :
#
#
# Convention : Reuss Voigt Hill
#
# Bulk Modulus (GPa) = 124.02501 145.80882 134.91692
# Shear Modulus (GPa) = 51.61685 73.58098 62.59891
#
# Velocity S-wave (km/s) = 4.22275 5.04177 4.65033
# Velocity P-wave (km/s) = 8.16220 9.17954 8.68578
#
# Compressibility (1/GPa) = 0.00806289
#
# Stress axis : x y z
#
# Youngs Moduli (GPa) = 144.05424 107.76710 209.22266
#
# Poissons Ratio (x) = 0.26104 0.12980
# Poissons Ratio (y) = 0.34894 0.71684
# Poissons Ratio (z) = 0.08937 0.36923
#
# Static dielectric constant tensor:
#      x y z
#    x -2.623960 0.000000 4.353050 
#    y 0.000000 2.207350 0.000000 
#    z 4.353050 0.000000 -0.041500 
# 
# From -- ./inp_files/328.got.cif
#   From: 2010.05.17/outbox.cif.g08.bks.cpg/sg13_1_cif.got.tgz:328.got - 2010.06.03 16:44:36.
