data_PCOD9238401
_publ_section_title
;
Structure prediction by ZEFSAII (Michael W. Deem and Ramdas Pophale) SiO2 
 PCOD9238401
Probable space group: P 2/C
;
_chemical_formula_sum "Si O2"
_cell_formula_units_Z 14
_cell_length_a 8.945726
_cell_length_b 6.253755
_cell_length_c 15.509766
_cell_angle_alpha 90.000000
_cell_angle_beta 143.910013
_cell_angle_gamma 90.000000
_cell_volume 511.113855
_symmetry_space_group_name_H-M "P 2/C"
_symmetry_group_IT_number 13
_symmetry_cell_setting 'monoclinic'
loop_
_space_group_symop_operation_xyz
x,y,z
-x,y,1/2-z
-x,-y,-z
x,-y,1/2+z
loop_
_atom_site_type_symbol
_atom_site_label
_atom_site_fract_x
_atom_site_fract_y
_atom_site_fract_z
Si Si1 0.213889 0.976658 0.226497
Si Si2 0.822003 0.698015 0.949250
Si Si3 0.395652 0.539986 0.355066
Si Si4 0.000000 0.288362 0.250000
O O1 0.410953 0.784607 0.331054
O O2 0.232491 0.136594 0.154409
O O3 0.200820 0.110043 0.308746
O O4 0.956259 0.849933 0.082550
O O5 0.578716 0.588764 0.878077
O O6 0.000000 0.500000 0.000000
O O7 0.500000 0.500000 0.500000
O O8 0.103273 0.460631 0.227750
#
# Coordination Sequence:
#
# PCOD9238401 Si02
#       4
#     4   4   4   2
#     4  11  26  47  73 107 148 201 255 318 391 455
#     4  11  26  48  75 109 150 197 258 321 387 466
#     4  12  26  47  74 109 152 198 257 322 389 468
#     4  12  26  46  70 102 146 198 254 310 384 464
#
# _framework density 27.391155999999999
#
# number of rings (size 3 to 8) (size 9 to 14) (size 15 to 20)
#    0.000    0.571    0.000    7.714    0.000   16.000 
#    0.000    0.000    0.000    0.000    0.000    0.000 
#    0.000    0.000    0.000    0.000    0.000    0.000 
#
# Total GULP energy -78020.681085 kJ/mol
# GULP energy per Si atom -5572.905792 kJ/mol
# Density = 2.732881 g / cm^3
# Si number density = 27.391156 Si / 1000 Ang^3
#
#
#
# Elastic Constant Matrix: (Units=GPa)
#
#
# Indices 1 2 3 4 5 6 
#
# 1 207.2667 115.9920 52.7018 0.0000 18.0997 0.0000
# 2 115.9920 252.6598 70.4007 0.0000 7.6414 0.0000
# 3 52.7018 70.4007 84.1667 0.0000 -21.0668 0.0000
# 4 0.0000 0.0000 0.0000 67.3952 0.0000 5.7628
# 5 18.0997 7.6414 -21.0668 0.0000 48.4994 0.0000
# 6 0.0000 0.0000 0.0000 5.7628 0.0000 77.1390
#
#
#
# Elastic Compliance Matrix: (Units=1/GPa)
#
#
# Indices 1 2 3 4 5 6 
#
# 1 0.007377 -0.002210 -0.003784 0.000000 -0.004049 0.000000
# 2 -0.002210 0.006248 -0.004356 0.000000 -0.002052 0.000000
# 3 -0.003784 -0.004356 0.020667 0.000000 0.011076 0.000000
# 4 0.000000 0.000000 0.000000 0.014933 0.000000 -0.001116
# 5 -0.004049 -0.002052 0.011076 0.000000 0.027264 0.000000
# 6 0.000000 0.000000 0.000000 -0.001116 0.000000 0.013047
#
#
# Mechanical properties :
#
#
# Convention : Reuss Voigt Hill
#
# Bulk Modulus (GPa) = 73.57548 113.58691 93.58119
# Shear Modulus (GPa) = 43.56632 58.93997 51.25314
#
# Velocity S-wave (km/s) = 3.99247 4.64377 4.33038
# Velocity P-wave (km/s) = 6.94063 8.38518 7.69687
#
# Compressibility (1/GPa) = 0.01359148
#
# Stress axis : x y z
#
# Youngs Moduli (GPa) = 135.55317 160.04439 48.38700
#
# Poissons Ratio (x) = 0.35367 0.18311
# Poissons Ratio (y) = 0.29955 0.21078
# Poissons Ratio (z) = 0.51297 0.69719
#
# Static dielectric constant tensor:
#      x y z
#    x 2.055980 0.000000 -0.008380 
#    y 0.000000 2.192200 0.000000 
#    z -0.008380 0.000000 2.558120 
# 
# From -- ./inp_files/31035.got.cif
#   From: 2010.05.17/outbox.cif.g08.bks.cpg/sg13_16_cif.got.tgz:31035.got - 2010.06.03 16:44:36.
