data_PCOD9238629
_publ_section_title
;
Structure prediction by ZEFSAII (Michael W. Deem and Ramdas Pophale) SiO2 
 PCOD9238629
Probable space group: P 2/C
;
_chemical_formula_sum "Si O2"
_cell_formula_units_Z 20
_cell_length_a 9.309518
_cell_length_b 10.856233
_cell_length_c 9.980441
_cell_angle_alpha 90.000000
_cell_angle_beta 113.042708
_cell_angle_gamma 90.000000
_cell_volume 928.206515
_symmetry_space_group_name_H-M "P 2/C"
_symmetry_group_IT_number 13
_symmetry_cell_setting 'monoclinic'
loop_
_space_group_symop_operation_xyz
x,y,z
-x,y,1/2-z
-x,-y,-z
x,-y,1/2+z
loop_
_atom_site_type_symbol
_atom_site_label
_atom_site_fract_x
_atom_site_fract_y
_atom_site_fract_z
Si Si1 0.887137 0.995883 0.834335
Si Si2 0.316170 0.768009 0.190569
Si Si3 0.173442 0.656248 0.869160
Si Si4 0.327981 0.765454 0.678884
Si Si5 0.337209 0.579885 0.435646
O O1 0.781832 0.118493 0.784781
O O2 0.000000 0.980908 0.750000
O O3 0.783825 0.877980 0.830547
O O4 0.000000 0.000000 0.000000
O O5 0.500000 0.801763 0.250000
O O6 0.315574 0.647417 0.285300
O O7 0.236800 0.735860 0.017775
O O8 0.289696 0.674086 0.786541
O O9 0.197185 0.514179 0.915857
O O10 0.000000 0.681864 0.750000
O O11 0.500000 0.817892 0.750000
O O12 0.324916 0.688052 0.541253
O O13 0.500000 0.500000 0.500000
#
# Coordination Sequence:
#
# PCOD9238629 Si02
#       5
#     4   4   4   4   4
#     4  12  27  47  72 106 150 193 248 312 370 435
#     4  12  25  47  77 105 147 199 254 297 375 445
#     4  12  27  44  71 111 150 190 246 308 372 434
#     4  12  24  45  74 102 146 191 245 301 373 434
#     4  12  25  45  73 109 146 195 244 308 360 448
#
# _framework density 21.54693
#
# number of rings (size 3 to 8) (size 9 to 14) (size 15 to 20)
#    0.000    0.000    4.000    6.000    0.000    5.600 
#    0.000    6.000    0.000    0.000    0.000    0.000 
#    0.000    0.000    0.000    0.000    0.000    0.000 
#
# Total GULP energy -111792.484219 kJ/mol
# GULP energy per Si atom -5589.624211 kJ/mol
# Density = 2.149789 g / cm^3
# Si number density = 21.546930 Si / 1000 Ang^3
#
#
#
# Elastic Constant Matrix: (Units=GPa)
#
#
# Indices 1 2 3 4 5 6 
#
# 1 167.1177 59.3029 72.8639 0.0000 13.7603 0.0000
# 2 59.3029 96.8197 26.5817 0.0000 22.2136 0.0000
# 3 72.8639 26.5817 146.5567 0.0000 7.5767 0.0000
# 4 0.0000 0.0000 0.0000 29.9128 0.0000 -5.1669
# 5 13.7603 22.2136 7.5767 0.0000 35.3840 0.0000
# 6 0.0000 0.0000 0.0000 -5.1669 0.0000 46.1891
#
#
#
# Elastic Compliance Matrix: (Units=1/GPa)
#
#
# Indices 1 2 3 4 5 6 
#
# 1 0.009277 -0.004678 -0.003771 0.000000 0.000137 0.000000
# 2 -0.004678 0.014924 0.000009 0.000000 -0.007552 0.000000
# 3 -0.003771 0.000009 0.008717 0.000000 -0.000406 0.000000
# 4 0.000000 0.000000 0.000000 0.034089 0.000000 0.003813
# 5 0.000137 -0.007552 -0.000406 0.000000 0.033036 0.000000
# 6 0.000000 0.000000 0.000000 0.003813 0.000000 0.022077
#
#
# Mechanical properties :
#
#
# Convention : Reuss Voigt Hill
#
# Bulk Modulus (GPa) = 62.34779 80.88788 71.61784
# Shear Modulus (GPa) = 34.63926 39.08023 36.85975
#
# Velocity S-wave (km/s) = 4.01386 4.26341 4.14052
# Velocity P-wave (km/s) = 7.10493 7.86494 7.49458
#
# Compressibility (1/GPa) = 0.01603906
#
# Stress axis : x y z
#
# Youngs Moduli (GPa) = 107.79755 67.00646 114.71509
#
# Poissons Ratio (x) = 0.31347 0.43255
# Poissons Ratio (y) = 0.50430 -0.00108
# Poissons Ratio (z) = 0.40647 -0.00063
#
# Static dielectric constant tensor:
#      x y z
#    x 1.762670 0.000000 0.010210 
#    y 0.000000 1.403680 0.000000 
#    z 0.010210 0.000000 1.763440 
# 
# From -- ./inp_files/11878.got.cif
#   From: 2010.05.17/outbox.cif.g08.bks.cpg/sg13_6_cif.got.tgz:11878.got - 2010.06.03 16:44:36.
