data_PCOD9238234
_publ_section_title
;
Structure prediction by ZEFSAII (Michael W. Deem and Ramdas Pophale) SiO2 
 PCOD9238234
Probable space group: P 2/C
;
_chemical_formula_sum "Si O2"
_cell_formula_units_Z 26
_cell_length_a 23.540018
_cell_length_b 8.830454
_cell_length_c 18.081267
_cell_angle_alpha 90.000000
_cell_angle_beta 16.413876
_cell_angle_gamma 90.000000
_cell_volume 1062.063636
_symmetry_space_group_name_H-M "P 2/C"
_symmetry_group_IT_number 13
_symmetry_cell_setting 'monoclinic'
loop_
_space_group_symop_operation_xyz
x,y,z
-x,y,1/2-z
-x,-y,-z
x,-y,1/2+z
loop_
_atom_site_type_symbol
_atom_site_label
_atom_site_fract_x
_atom_site_fract_y
_atom_site_fract_z
Si Si1 0.041323 0.370010 0.550289
Si Si2 0.329373 0.449221 0.595451
Si Si3 0.500000 0.410017 0.750000
Si Si4 0.000000 0.571844 0.750000
Si Si5 0.163178 0.037253 0.426351
Si Si6 0.500000 0.059277 0.250000
Si Si7 0.191466 0.187867 0.095124
Si Si8 0.551376 0.137182 0.029778
O O1 0.245730 0.420066 0.253439
O O2 0.042429 0.191817 0.565683
O O3 0.859677 0.406662 0.721335
O O4 0.023725 0.468879 0.647660
O O5 0.505260 0.492230 0.317961
O O6 0.395387 0.306208 0.562770
O O7 0.693706 0.302328 0.492493
O O8 0.826731 0.697255 0.950440
O O9 0.335187 0.081993 0.270795
O O10 0.017486 0.896181 0.626890
O O11 0.287408 0.984192 0.199737
O O12 0.576137 0.153200 0.086553
O O13 0.342712 0.950499 0.406104
#
# Coordination Sequence:
#
# PCOD9238234 Si02
#       8
#     4   4   2   2   4   2   4   4
#     4  11  27  45  76 105 152 193 247 301 378 442
#     4  11  25  48  72 113 146 197 246 304 370 451
#     4  11  25  46  76 111 147 194 250 311 365 450
#     4  12  24  46  72 108 142 196 234 312 364 444
#     4  11  27  48  70 110 146 200 244 307 372 441
#     4  11  25  42  74 109 135 200 242 309 359 446
#     4  11  25  45  74 101 149 190 251 292 376 435
#     4  11  26  46  74 105 153 189 252 306 366 444
#
# _framework density 24.480642
#
# number of rings (size 3 to 8) (size 9 to 14) (size 15 to 20)
#    0.000    0.923    1.538    3.231    8.615    6.154 
#    0.000    0.000    0.000    0.000    0.000    0.000 
#    0.000    0.000    0.000    0.000    0.000    0.000 
#
# Total GULP energy -145155.821482 kJ/mol
# GULP energy per Si atom -5582.916211 kJ/mol
# Density = 2.442492 g / cm^3
# Si number density = 24.480642 Si / 1000 Ang^3
#
#
#
# Elastic Constant Matrix: (Units=GPa)
#
#
# Indices 1 2 3 4 5 6 
#
# 1 93.4682 38.0536 41.3398 0.0000 9.1205 0.0000
# 2 38.0536 135.1441 50.2764 0.0000 -2.3283 0.0000
# 3 41.3398 50.2764 90.7595 0.0000 -8.3989 0.0000
# 4 0.0000 0.0000 0.0000 52.1326 0.0000 3.6256
# 5 9.1205 -2.3283 -8.3989 0.0000 31.8956 0.0000
# 6 0.0000 0.0000 0.0000 3.6256 0.0000 33.8552
#
#
#
# Elastic Compliance Matrix: (Units=1/GPa)
#
#
# Indices 1 2 3 4 5 6 
#
# 1 0.014843 -0.001966 -0.006230 0.000000 -0.006028 0.000000
# 2 -0.001966 0.009596 -0.004411 0.000000 0.000101 0.000000
# 3 -0.006230 -0.004411 0.016845 0.000000 0.005895 0.000000
# 4 0.000000 0.000000 0.000000 0.019326 0.000000 -0.002070
# 5 -0.006028 0.000101 0.005895 0.000000 0.034636 0.000000
# 6 0.000000 0.000000 0.000000 -0.002070 0.000000 0.029759
#
#
# Mechanical properties :
#
#
# Convention : Reuss Voigt Hill
#
# Bulk Modulus (GPa) = 62.22536 64.30127 63.26332
# Shear Modulus (GPa) = 32.13937 36.22347 34.18142
#
# Velocity S-wave (km/s) = 3.62726 3.85083 3.74071
# Velocity P-wave (km/s) = 6.55866 6.78933 6.67499
#
# Compressibility (1/GPa) = 0.01607062
#
# Stress axis : x y z
#
# Youngs Moduli (GPa) = 67.37372 104.21371 59.36650
#
# Poissons Ratio (x) = 0.20485 0.36983
# Poissons Ratio (y) = 0.13243 0.26186
# Poissons Ratio (z) = 0.41971 0.45967
#
# Static dielectric constant tensor:
#      x y z
#    x 1.991570 0.000000 -0.044050 
#    y 0.000000 1.900510 0.000000 
#    z -0.044050 0.000000 2.014570 
# 
# From -- ./inp_files/71295.got.cif
#   From: 2010.05.17/outbox.cif.g08.bks.cpg/sg13_36_cif.got.tgz:71295.got - 2010.06.03 16:44:36.
