data_PCOD9238673
_publ_section_title
;
Structure prediction by ZEFSAII (Michael W. Deem and Ramdas Pophale) SiO2 
 PCOD9238673
Probable space group: P 2/C
;
_chemical_formula_sum "Si O2"
_cell_formula_units_Z 20
_cell_length_a 18.071015
_cell_length_b 5.650671
_cell_length_c 14.142331
_cell_angle_alpha 90.000000
_cell_angle_beta 29.496636
_cell_angle_gamma 90.000000
_cell_volume 711.045378
_symmetry_space_group_name_H-M "P 2/C"
_symmetry_group_IT_number 13
_symmetry_cell_setting 'monoclinic'
loop_
_space_group_symop_operation_xyz
x,y,z
-x,y,1/2-z
-x,-y,-z
x,-y,1/2+z
loop_
_atom_site_type_symbol
_atom_site_label
_atom_site_fract_x
_atom_site_fract_y
_atom_site_fract_z
Si Si1 0.454139 0.243902 0.410169
Si Si2 0.976602 0.500028 0.637204
Si Si3 0.744901 0.237978 0.608483
Si Si4 0.675809 0.250935 0.479578
Si Si5 0.500000 0.500000 0.000000
Si Si6 0.000000 0.111390 0.750000
O O1 0.500000 0.259057 0.250000
O O2 0.386965 0.516692 0.508309
O O3 0.585080 0.288092 0.338767
O O4 0.366257 0.001181 0.514479
O O5 0.853000 0.702682 0.786396
O O6 0.923996 0.264956 0.749389
O O7 0.000000 0.500000 0.500000
O O8 0.129698 0.560883 0.519115
O O9 0.641979 0.255067 0.629186
O O10 0.628751 0.285768 0.821803
O O11 0.861046 0.022701 0.456889
#
# Coordination Sequence:
#
# PCOD9238673 Si02
#       6
#     4   4   4   4   2   2
#     4  12  28  52  82 119 172 227 285 370 446 537
#     4  12  27  49  83 128 173 229 302 374 454 539
#     4  12  26  50  82 121 171 233 291 375 446 550
#     4  12  25  52  81 120 169 225 288 366 444 525
#     4  12  30  54  82 128 172 230 306 358 466 550
#     4  12  24  50  86 122 178 236 296 382 460 522
#
# _framework density 28.127599
#
# number of rings (size 3 to 8) (size 9 to 14) (size 15 to 20)
#    0.000    0.000    6.000    3.000    2.800    1.600 
#    0.000    0.000    0.000    0.000    0.000    0.000 
#    0.000    0.000    0.000    0.000    0.000    0.000 
#
# Total GULP energy -111526.910365 kJ/mol
# GULP energy per Si atom -5576.345518 kJ/mol
# Density = 2.806358 g / cm^3
# Si number density = 28.127599 Si / 1000 Ang^3
#
#
#
# Elastic Constant Matrix: (Units=GPa)
#
#
# Indices 1 2 3 4 5 6 
#
# 1 155.3447 112.7181 52.9603 0.0000 17.9946 0.0000
# 2 112.7181 220.5203 101.1936 0.0000 4.2473 0.0000
# 3 52.9603 101.1936 144.9585 0.0000 8.7977 0.0000
# 4 0.0000 0.0000 0.0000 45.9922 0.0000 -12.1065
# 5 17.9946 4.2473 8.7977 0.0000 66.8403 0.0000
# 6 0.0000 0.0000 0.0000 -12.1065 0.0000 74.4110
#
#
#
# Elastic Compliance Matrix: (Units=1/GPa)
#
#
# Indices 1 2 3 4 5 6 
#
# 1 0.010641 -0.005410 0.000042 0.000000 -0.002527 0.000000
# 2 -0.005410 0.009425 -0.004692 0.000000 0.001475 0.000000
# 3 0.000042 -0.004692 0.010223 0.000000 -0.001059 0.000000
# 4 0.000000 0.000000 0.000000 0.022716 0.000000 0.003696
# 5 -0.002527 0.001475 -0.001059 0.000000 0.015687 0.000000
# 6 0.000000 0.000000 0.000000 0.003696 0.000000 0.014040
#
#
# Mechanical properties :
#
#
# Convention : Reuss Voigt Hill
#
# Bulk Modulus (GPa) = 98.33991 117.17415 107.75703
# Shear Modulus (GPa) = 47.06287 54.37879 50.72083
#
# Velocity S-wave (km/s) = 4.09490 4.40169 4.25106
# Velocity P-wave (km/s) = 7.57599 8.22081 7.90498
#
# Compressibility (1/GPa) = 0.01016881
#
# Stress axis : x y z
#
# Youngs Moduli (GPa) = 93.97712 106.10360 97.81806
#
# Poissons Ratio (x) = 0.57399 -0.00413
# Poissons Ratio (y) = 0.50839 0.45900
# Poissons Ratio (z) = -0.00396 0.49788
#
# Static dielectric constant tensor:
#      x y z
#    x 2.693150 0.000000 0.181400 
#    y 0.000000 2.387330 0.000000 
#    z 0.181400 0.000000 2.269320 
# 
# From -- ./inp_files/56422.got.cif
#   From: 2010.05.17/outbox.cif.g08.bks.cpg/sg13_29_cif.got.tgz:56422.got - 2010.06.03 16:44:36.
