data_PCOD9238696
_publ_section_title
;
Structure prediction by ZEFSAII (Michael W. Deem and Ramdas Pophale) SiO2 
 PCOD9238696
Probable space group: P 2/C
;
_chemical_formula_sum "Si O2"
_cell_formula_units_Z 18
_cell_length_a 5.243984
_cell_length_b 12.215773
_cell_length_c 11.251350
_cell_angle_alpha 90.000000
_cell_angle_beta 78.898139
_cell_angle_gamma 90.000000
_cell_volume 707.265918
_symmetry_space_group_name_H-M "P 2/C"
_symmetry_group_IT_number 13
_symmetry_cell_setting 'monoclinic'
loop_
_space_group_symop_operation_xyz
x,y,z
-x,y,1/2-z
-x,-y,-z
x,-y,1/2+z
loop_
_atom_site_type_symbol
_atom_site_label
_atom_site_fract_x
_atom_site_fract_y
_atom_site_fract_z
Si Si1 0.000000 0.332621 0.750000
Si Si2 0.241509 0.190616 0.532508
Si Si3 0.790264 0.756016 0.915045
Si Si4 0.638629 0.527919 0.859077
Si Si5 0.715714 0.987248 0.823611
O O1 0.033706 0.250637 0.637477
O O2 0.229098 0.418317 0.702857
O O3 0.523912 0.246816 0.518527
O O4 0.075770 0.204245 0.428534
O O5 0.286851 0.064429 0.560286
O O6 0.821601 0.630529 0.874737
O O7 0.693928 0.857613 0.843761
O O8 0.500000 0.569795 0.750000
O O9 0.500000 0.500000 0.000000
O O10 0.500000 0.026077 0.750000
O O11 0.000000 0.008748 0.750000
#
# Coordination Sequence:
#
# PCOD9238696 Si02
#       5
#     2   4   4   4   4
#     4  12  28  46  80 104 160 204 274 312 408 468
#     4  12  26  48  76 107 156 205 262 323 398 483
#     4  12  27  47  75 113 153 203 261 327 401 464
#     4  12  28  50  80 115 163 214 270 332 400 476
#     4  12  25  45  75 111 153 201 256 325 402 477
#
# _framework density 25.450115
#
# number of rings (size 3 to 8) (size 9 to 14) (size 15 to 20)
#    0.000    0.000    3.333    6.000    4.667    1.778 
#    0.000    0.000    0.000    0.000    0.000    0.000 
#    0.000    0.000    0.000    0.000    0.000    0.000 
#
# Total GULP energy -100346.761752 kJ/mol
# GULP energy per Si atom -5574.820097 kJ/mol
# Density = 2.539219 g / cm^3
# Si number density = 25.450115 Si / 1000 Ang^3
#
#
#
# Elastic Constant Matrix: (Units=GPa)
#
#
# Indices 1 2 3 4 5 6 
#
# 1 138.1775 37.5082 34.5778 0.0000 -2.9988 0.0000
# 2 37.5082 160.1567 28.3267 0.0000 3.5128 0.0000
# 3 34.5778 28.3267 71.1406 0.0000 -17.2140 0.0000
# 4 0.0000 0.0000 0.0000 32.7246 0.0000 -18.1188
# 5 -2.9988 3.5128 -17.2140 0.0000 47.1725 0.0000
# 6 0.0000 0.0000 0.0000 -18.1188 0.0000 1.0561
#
#
#
# Elastic Compliance Matrix: (Units=1/GPa)
#
#
# Indices 1 2 3 4 5 6 
#
# 1 0.008528 -0.001308 -0.003806 0.000000 -0.000749 0.000000
# 2 -0.001308 0.007032 -0.002535 0.000000 -0.001532 0.000000
# 3 -0.003806 -0.002535 0.018540 0.000000 0.006712 0.000000
# 4 0.000000 0.000000 0.000000 -0.003595 0.000000 -0.061685
# 5 -0.000749 -0.001532 0.006712 0.000000 0.023715 0.000000
# 6 0.000000 0.000000 0.000000 -0.061685 0.000000 -0.111410
#
#
# Mechanical properties :
#
#
# Convention : Reuss Voigt Hill
#
# Bulk Modulus (GPa) = 53.18210 63.36667 58.27438
# Shear Modulus (GPa) = -140.34908 34.12811 -53.11048
#
# Velocity S-wave (km/s) = -7.43414 3.66591 -4.57316
# Velocity P-wave (km/s) = 7.26269 6.54759 2.22212
#
# Compressibility (1/GPa) = 0.01880332
#
# Stress axis : x y z
#
# Youngs Moduli (GPa) = 117.25903 142.20449 53.93728
#
# Poissons Ratio (x) = 0.18596 0.20527
# Poissons Ratio (y) = 0.15334 0.13674
# Poissons Ratio (z) = 0.44625 0.36050
#
# Static dielectric constant tensor:
#      x y z
#    x 2.098910 0.000000 0.069310 
#    y 0.000000 1.993300 0.000000 
#    z 0.069310 0.000000 2.358980 
# 
# From -- ./inp_files/25716.got.cif
#   From: 2010.05.17/outbox.cif.g08.bks.cpg/sg13_13_cif.got.tgz:25716.got - 2010.06.03 16:44:36.
