data_PCOD9238981
_publ_section_title
;
Structure prediction by ZEFSAII (Michael W. Deem and Ramdas Pophale) SiO2 
 PCOD9238981
Probable space group: P 2/C
;
_chemical_formula_sum "Si O2"
_cell_formula_units_Z 28
_cell_length_a 30.000000
_cell_length_b 9.000000
_cell_length_c 30.000000
_cell_angle_alpha 90.000000
_cell_angle_beta 170.000000
_cell_angle_gamma 90.000000
_cell_volume 1406.550239
_symmetry_space_group_name_H-M "P 2/C"
_symmetry_group_IT_number 13
_symmetry_cell_setting 'monoclinic'
loop_
_space_group_symop_operation_xyz
x,y,z
-x,y,1/2-z
-x,-y,-z
x,-y,1/2+z
loop_
_atom_site_type_symbol
_atom_site_label
_atom_site_fract_x
_atom_site_fract_y
_atom_site_fract_z
Si Si1 0.742979 0.843084 0.521564
Si Si2 0.734336 0.506898 0.014644
Si Si3 0.243491 0.893021 0.243619
Si Si4 0.345755 0.794180 0.248185
Si Si5 0.069659 0.714233 0.159751
Si Si6 0.471500 0.453141 0.349149
Si Si7 0.851432 0.035184 0.221927
O O1 0.771019 0.668635 0.561629
O O2 0.747987 0.940462 0.570347
O O3 0.000000 0.886339 0.750000
O O4 0.500000 0.859557 0.250000
O O5 0.000000 0.554442 0.250000
O O6 0.500000 0.518418 0.750000
O O7 0.609363 0.575679 0.936604
O O8 0.262456 0.795917 0.217495
O O9 0.156627 0.784564 0.198095
O O10 0.500000 0.000000 0.500000
O O11 0.000000 0.000000 0.000000
O O12 0.396368 0.627841 0.279571
O O13 0.610624 0.889516 0.510202
O O14 0.116395 0.875990 0.994423
O O15 0.288553 0.591027 0.383648
O O16 0.102262 0.862197 0.222411
O O17 0.785550 0.642952 0.890436
#
# Coordination Sequence:
#
# PCOD9238981 Si02
#       7
#     4   4   4   4   4   4   4
#     4  10  21  37  65 102 127 162 228 291 325 389
#     4  10  21  39  66  96 129 175 223 275 329 410
#     4  12  23  45  70 101 135 183 241 280 343 416
#     4  12  24  42  73  99 135 182 237 283 329 418
#     4  12  26  43  68 100 146 182 221 291 352 410
#     4  12  26  43  66 107 139 177 228 287 353 406
#     4  12  23  43  70 101 131 185 229 279 346 406
#
# _framework density 19.906860999999999
#
# number of rings (size 3 to 8) (size 9 to 14) (size 15 to 20)
#    0.000    0.571    4.286    4.286    4.000    1.143 
#    0.000    2.857    0.000    0.000    0.000    0.000 
#    0.000    0.000    0.000    0.000    0.000    0.000 
#
# Total GULP energy -156104.091003 kJ/mol
# GULP energy per Si atom -5575.146107 kJ/mol
# Density = 1.986155 g / cm^3
# Si number density = 19.906861 Si / 1000 Ang^3
#
#
#
# Elastic Constant Matrix: (Units=GPa)
#
#
# Indices 1 2 3 4 5 6 
#
# 1 118.6278 8.6237 14.5587 0.0000 26.0128 0.0000
# 2 8.6237 47.2012 25.5450 0.0000 8.3467 0.0000
# 3 14.5587 25.5450 149.4094 0.0000 30.5489 0.0000
# 4 0.0000 0.0000 0.0000 38.3936 0.0000 5.9611
# 5 26.0128 8.3467 30.5489 0.0000 37.3597 0.0000
# 6 0.0000 0.0000 0.0000 5.9611 0.0000 31.8566
#
#
#
# Elastic Compliance Matrix: (Units=1/GPa)
#
#
# Indices 1 2 3 4 5 6 
#
# 1 0.010019 -0.000901 0.000676 0.000000 -0.007328 0.000000
# 2 -0.000901 0.023599 -0.003599 0.000000 -0.001703 0.000000
# 3 0.000676 -0.003599 0.008615 0.000000 -0.006711 0.000000
# 4 0.000000 0.000000 0.000000 0.026825 0.000000 -0.005020
# 5 -0.007328 -0.001703 -0.006711 0.000000 0.037736 0.000000
# 6 0.000000 0.000000 0.000000 -0.005020 0.000000 0.032330
#
#
# Mechanical properties :
#
#
# Convention : Reuss Voigt Hill
#
# Bulk Modulus (GPa) = 28.91374 45.85481 37.38428
# Shear Modulus (GPa) = 31.58552 39.28939 35.43746
#
# Velocity S-wave (km/s) = 3.98762 4.44741 4.22377
# Velocity P-wave (km/s) = 5.97976 7.03259 6.52743
#
# Compressibility (1/GPa) = 0.03458563
#
# Stress axis : x y z
#
# Youngs Moduli (GPa) = 99.81010 42.37421 116.08225
#
# Poissons Ratio (x) = 0.03816 -0.07846
# Poissons Ratio (y) = 0.08988 0.41778
# Poissons Ratio (z) = -0.06746 0.15250
#
# Static dielectric constant tensor:
#      x y z
#    x 1.806530 0.000000 0.012710 
#    y 0.000000 1.718180 0.000000 
#    z 0.012710 0.000000 1.673820 
# 
# From -- ./inp_files/98113.got.cif
#   From: 2010.05.17/outbox.ucp.g08.bks.cvg/sg13_50_cif.got.tgz:98113.got - 2010.06.11 12:23:55.
