data_PCOD9238407
_publ_section_title
;
Structure prediction by ZEFSAII (Michael W. Deem and Ramdas Pophale) SiO2 
 PCOD9238407
Probable space group: P 2/C
;
_chemical_formula_sum "Si O2"
_cell_formula_units_Z 22
_cell_length_a 17.506910
_cell_length_b 7.674963
_cell_length_c 8.865894
_cell_angle_alpha 90.000000
_cell_angle_beta 47.714973
_cell_angle_gamma 90.000000
_cell_volume 881.306005
_symmetry_space_group_name_H-M "P 2/C"
_symmetry_group_IT_number 13
_symmetry_cell_setting 'monoclinic'
loop_
_space_group_symop_operation_xyz
x,y,z
-x,y,1/2-z
-x,-y,-z
x,-y,1/2+z
loop_
_atom_site_type_symbol
_atom_site_label
_atom_site_fract_x
_atom_site_fract_y
_atom_site_fract_z
Si Si1 0.303202 0.748496 0.160093
Si Si2 0.500000 0.265414 0.250000
Si Si3 0.139587 0.157159 0.497748
Si Si4 0.887334 0.441562 0.714818
Si Si5 0.660786 0.948472 0.680627
Si Si6 0.903731 0.202172 0.276910
O O1 0.195202 0.647366 0.288907
O O2 0.331685 0.853833 0.272960
O O3 0.401800 0.644238 0.959909
O O4 0.296781 0.905995 0.044312
O O5 0.451123 0.138018 0.187380
O O6 0.105168 0.308159 0.656408
O O7 0.263254 0.170504 0.318356
O O8 0.128363 0.970402 0.592553
O O9 0.838879 0.622246 0.838046
O O10 0.000000 0.500000 0.500000
O O11 0.080461 0.149619 0.418878
O O12 0.000000 0.261813 0.250000
#
# Coordination Sequence:
#
# PCOD9238407 Si02
#       6
#     4   2   4   4   4   4
#     4   9  19  38  66 106 153 192 258 319 390 463
#     4   8  18  34  72 112 144 194 260 330 390 460
#     4  11  26  48  72 110 149 199 261 319 400 470
#     4  11  28  45  68 106 154 205 253 318 387 467
#     4   9  18  36  67 108 143 191 245 321 386 461
#     4  12  30  46  75 104 149 202 263 333 389 467
#
# _framework density 24.962949999999999
#
# number of rings (size 3 to 8) (size 9 to 14) (size 15 to 20)
#    1.091    0.727    0.000    3.273   10.182    0.000 
#    0.000    0.000    0.000    2.182    0.000    0.000 
#    0.000    0.000    0.000    0.182    0.000    0.000 
#
# Total GULP energy -122571.595918 kJ/mol
# GULP energy per Si atom -5571.436178 kJ/mol
# Density = 2.490613 g / cm^3
# Si number density = 24.962950 Si / 1000 Ang^3
#
#
#
# Elastic Constant Matrix: (Units=GPa)
#
#
# Indices 1 2 3 4 5 6 
#
# 1 129.4025 32.1706 47.7290 0.0000 -3.9240 0.0000
# 2 32.1706 124.5269 33.5994 0.0000 9.8494 0.0000
# 3 47.7290 33.5994 113.9625 0.0000 -15.0863 0.0000
# 4 0.0000 0.0000 0.0000 33.1878 0.0000 3.0888
# 5 -3.9240 9.8494 -15.0863 0.0000 50.9371 0.0000
# 6 0.0000 0.0000 0.0000 3.0888 0.0000 35.8686
#
#
#
# Elastic Compliance Matrix: (Units=1/GPa)
#
#
# Indices 1 2 3 4 5 6 
#
# 1 0.009385 -0.001478 -0.003498 0.000000 -0.000027 0.000000
# 2 -0.001478 0.009287 -0.002469 0.000000 -0.002641 0.000000
# 3 -0.003498 -0.002469 0.011444 0.000000 0.003597 0.000000
# 4 0.000000 0.000000 0.000000 0.030375 0.000000 -0.002616
# 5 -0.000027 -0.002641 0.003597 0.000000 0.021206 0.000000
# 6 0.000000 0.000000 0.000000 -0.002616 0.000000 0.028105
#
#
# Mechanical properties :
#
#
# Convention : Reuss Voigt Hill
#
# Bulk Modulus (GPa) = 65.67893 66.09887 65.88890
# Shear Modulus (GPa) = 38.53047 40.95823 39.74435
#
# Velocity S-wave (km/s) = 3.93301 4.05503 3.99448
# Velocity P-wave (km/s) = 6.85510 6.96136 6.90844
#
# Compressibility (1/GPa) = 0.01522558
#
# Stress axis : x y z
#
# Youngs Moduli (GPa) = 106.55481 107.67419 87.38280
#
# Poissons Ratio (x) = 0.15919 0.30568
# Poissons Ratio (y) = 0.15754 0.21571
# Poissons Ratio (z) = 0.37275 0.26580
#
# Static dielectric constant tensor:
#      x y z
#    x 2.052430 0.000000 -0.044700 
#    y 0.000000 1.971020 0.000000 
#    z -0.044700 0.000000 2.236320 
# 
# From -- ./inp_files/40286.got.cif
#   From: 2010.05.17/outbox.cif.g08.bks.cpg/sg13_21_cif.got.tgz:40286.got - 2010.06.03 16:44:36.
