data_PCOD9238921
_publ_section_title
;
Structure prediction by ZEFSAII (Michael W. Deem and Ramdas Pophale) SiO2 
 PCOD9238921
Probable space group: P 2/C
;
_chemical_formula_sum "Si O2"
_cell_formula_units_Z 28
_cell_length_a 18.000000
_cell_length_b 12.000000
_cell_length_c 21.000000
_cell_angle_alpha 90.000000
_cell_angle_beta 20.000000
_cell_angle_gamma 90.000000
_cell_volume 1551.403370
_symmetry_space_group_name_H-M "P 2/C"
_symmetry_group_IT_number 13
_symmetry_cell_setting 'monoclinic'
loop_
_space_group_symop_operation_xyz
x,y,z
-x,y,1/2-z
-x,-y,-z
x,-y,1/2+z
loop_
_atom_site_type_symbol
_atom_site_label
_atom_site_fract_x
_atom_site_fract_y
_atom_site_fract_z
Si Si1 0.433545 0.160918 0.562044
Si Si2 0.130563 0.039380 0.331185
Si Si3 0.661977 0.765244 0.998617
Si Si4 0.690692 0.416333 0.870153
Si Si5 0.603295 0.508405 0.071413
Si Si6 0.848589 0.470928 0.506113
Si Si7 0.106535 0.216490 0.061605
O O1 0.648055 0.119220 0.348898
O O2 0.505186 0.163750 0.579341
O O3 0.361190 0.288211 0.605804
O O4 0.237023 0.072247 0.713993
O O5 0.953786 0.111897 0.433907
O O6 0.000000 0.000000 0.500000
O O7 0.596509 0.636148 0.053131
O O8 0.705094 0.800916 0.036986
O O9 0.889877 0.766620 0.777960
O O10 0.924694 0.467981 0.661224
O O11 0.500000 0.500000 0.000000
O O12 0.686077 0.428591 0.949992
O O13 0.354591 0.483740 0.290056
O O14 0.766670 0.508661 0.999608
O O15 0.860753 0.335035 0.500900
#
# Coordination Sequence:
#
# PCOD9238921 Si02
#       7
#     4   4   4   4   4   4   4
#     4  10  22  38  57  85 116 153 192 241 300 355
#     4  10  22  39  58  81 116 154 197 249 297 341
#     4   9  16  34  57  84 116 143 195 246 287 344
#     4  12  21  35  58  89 124 154 190 239 309 363
#     4  10  20  35  56  88 120 155 193 240 295 354
#     4  10  21  35  58  89 118 155 199 241 294 353
#     4   9  17  33  61  85 111 151 199 246 291 342
#
# _framework density 18.048175000000001
#
# number of rings (size 3 to 8) (size 9 to 14) (size 15 to 20)
#    0.000    2.000    2.857    1.286    2.000    1.714 
#    0.000    0.000   18.857    0.000    0.000    0.000 
#    0.000    0.000    0.000    0.000    0.000    0.000 
#
# Total GULP energy -156017.975051 kJ/mol
# GULP energy per Si atom -5572.070538 kJ/mol
# Density = 1.800710 g / cm^3
# Si number density = 18.048175 Si / 1000 Ang^3
#
#
#
# Elastic Constant Matrix: (Units=GPa)
#
#
# Indices 1 2 3 4 5 6 
#
# 1 58.0330 41.5722 36.3668 0.0000 -4.9603 0.0000
# 2 41.5722 118.7030 36.0208 0.0000 -8.7334 0.0000
# 3 36.3668 36.0208 83.1768 0.0000 -2.8377 0.0000
# 4 0.0000 0.0000 0.0000 22.3990 0.0000 -6.2630
# 5 -4.9603 -8.7334 -2.8377 0.0000 26.8769 0.0000
# 6 0.0000 0.0000 0.0000 -6.2630 0.0000 32.0985
#
#
#
# Elastic Compliance Matrix: (Units=1/GPa)
#
#
# Indices 1 2 3 4 5 6 
#
# 1 0.028141 -0.006904 -0.009246 0.000000 0.001974 0.000000
# 2 -0.006904 0.011595 -0.001924 0.000000 0.002290 0.000000
# 3 -0.009246 -0.001924 0.016880 0.000000 -0.000550 0.000000
# 4 0.000000 0.000000 0.000000 0.047221 0.000000 0.009214
# 5 0.001974 0.002290 -0.000550 0.000000 0.038257 0.000000
# 6 0.000000 0.000000 0.000000 0.009214 0.000000 0.032952
#
#
# Mechanical properties :
#
#
# Convention : Reuss Voigt Hill
#
# Bulk Modulus (GPa) = 48.86360 54.20360 51.53360
# Shear Modulus (GPa) = 22.93395 26.00508 24.46951
#
# Velocity S-wave (km/s) = 3.56857 3.80000 3.68610
# Velocity P-wave (km/s) = 6.64171 7.02504 6.83606
#
# Compressibility (1/GPa) = 0.02046513
#
# Stress axis : x y z
#
# Youngs Moduli (GPa) = 35.53596 86.24472 59.24184
#
# Poissons Ratio (x) = 0.59546 0.54777
# Poissons Ratio (y) = 0.24535 0.11401
# Poissons Ratio (z) = 0.32858 0.16598
#
# Static dielectric constant tensor:
#      x y z
#    x 1.676310 0.000000 0.011110 
#    y 0.000000 1.596240 0.000000 
#    z 0.011110 0.000000 1.649990 
# 
# From -- ./inp_files/81028.got.cif
#   From: 2010.05.17/outbox.ucp.g08.bks.cvg/sg13_41_cif.got.tgz:81028.got - 2010.06.11 12:23:55.
