data_PCOD9238158
_publ_section_title
;
Structure prediction by ZEFSAII (Michael W. Deem and Ramdas Pophale) SiO2 
 PCOD9238158
Probable space group: P 2/C
;
_chemical_formula_sum "Si O2"
_cell_formula_units_Z 20
_cell_length_a 7.558385
_cell_length_b 4.866263
_cell_length_c 21.897615
_cell_angle_alpha 90.000000
_cell_angle_beta 112.736161
_cell_angle_gamma 90.000000
_cell_volume 742.832592
_symmetry_space_group_name_H-M "P 2/C"
_symmetry_group_IT_number 13
_symmetry_cell_setting 'monoclinic'
loop_
_space_group_symop_operation_xyz
x,y,z
-x,y,1/2-z
-x,-y,-z
x,-y,1/2+z
loop_
_atom_site_type_symbol
_atom_site_label
_atom_site_fract_x
_atom_site_fract_y
_atom_site_fract_z
Si Si1 0.443366 0.693629 0.373671
Si Si2 0.329223 0.636782 0.686640
Si Si3 0.601511 0.784303 0.558990
Si Si4 0.990958 0.077109 0.427546
Si Si5 0.980964 0.681328 0.183744
O O1 0.570404 0.623176 0.332805
O O2 0.510341 0.494696 0.438339
O O3 0.231736 0.565969 0.339741
O O4 0.407439 0.011516 0.382717
O O5 0.500000 0.767744 0.750000
O O6 0.152281 0.535664 0.704148
O O7 0.212771 0.792231 0.617663
O O8 0.500000 0.000000 0.500000
O O9 0.817649 0.748447 0.562078
O O10 0.008159 0.837489 0.379207
O O11 0.000000 0.000000 0.500000
O O12 0.000000 0.848533 0.250000
#
# Coordination Sequence:
#
# PCOD9238158 Si02
#       5
#     4   4   4   4   4
#     4  11  25  45  72 107 149 201 264 323 394 474
#     4  12  26  45  78 107 153 205 270 327 402 478
#     4  11  24  46  71 107 157 207 254 324 403 479
#     4  11  27  47  76 116 157 205 263 336 399 478
#     4  11  25  49  72 107 154 206 264 327 401 480
#
# _framework density 26.923967999999999
#
# number of rings (size 3 to 8) (size 9 to 14) (size 15 to 20)
#    0.000    0.800    4.000    1.800    5.600    7.200 
#    0.000    0.000    0.000    0.000    0.000    0.000 
#    0.000    0.000    0.000    0.000    0.000    0.000 
#
# Total GULP energy -111732.391635 kJ/mol
# GULP energy per Si atom -5586.619582 kJ/mol
# Density = 2.686269 g / cm^3
# Si number density = 26.923968 Si / 1000 Ang^3
#
#
#
# Elastic Constant Matrix: (Units=GPa)
#
#
# Indices 1 2 3 4 5 6 
#
# 1 164.6222 23.5434 27.8737 0.0000 31.0931 0.0000
# 2 23.5434 111.0366 29.6211 0.0000 -0.4259 0.0000
# 3 27.8737 29.6211 187.6276 0.0000 4.6422 0.0000
# 4 0.0000 0.0000 0.0000 31.0748 0.0000 -5.0924
# 5 31.0931 -0.4259 4.6422 0.0000 50.5070 0.0000
# 6 0.0000 0.0000 0.0000 -5.0924 0.0000 43.4850
#
#
#
# Elastic Compliance Matrix: (Units=1/GPa)
#
#
# Indices 1 2 3 4 5 6 
#
# 1 0.007224 -0.001348 -0.000752 0.000000 -0.004389 0.000000
# 2 -0.001348 0.009656 -0.001350 0.000000 0.001035 0.000000
# 3 -0.000752 -0.001350 0.005656 0.000000 -0.000068 0.000000
# 4 0.000000 0.000000 0.000000 0.032810 0.000000 0.003842
# 5 -0.004389 0.001035 -0.000068 0.000000 0.022516 0.000000
# 6 0.000000 0.000000 0.000000 0.003842 0.000000 0.023446
#
#
# Mechanical properties :
#
#
# Convention : Reuss Voigt Hill
#
# Bulk Modulus (GPa) = 63.95170 69.48475 66.71822
# Shear Modulus (GPa) = 44.08405 50.49654 47.29029
#
# Velocity S-wave (km/s) = 4.05081 4.33543 4.19554
# Velocity P-wave (km/s) = 6.75892 7.13618 6.95011
#
# Compressibility (1/GPa) = 0.01563680
#
# Stress axis : x y z
#
# Youngs Moduli (GPa) = 138.43514 103.56366 176.79818
#
# Poissons Ratio (x) = 0.13960 0.13290
# Poissons Ratio (y) = 0.18660 0.23863
# Poissons Ratio (z) = 0.10407 0.13979
#
# Static dielectric constant tensor:
#      x y z
#    x 2.054240 0.000000 0.024610 
#    y 0.000000 2.263070 0.000000 
#    z 0.024610 0.000000 2.495400 
# 
# From -- ./inp_files/74254.got.cif
#   From: 2010.05.17/outbox.cif.g08.bks.cpg/sg13_38_cif.got.tgz:74254.got - 2010.06.03 16:44:36.
