data_PCOD9238774
_publ_section_title
;
Structure prediction by ZEFSAII (Michael W. Deem and Ramdas Pophale) SiO2 
 PCOD9238774
Probable space group: P 2/C
;
_chemical_formula_sum "Si O2"
_cell_formula_units_Z 18
_cell_length_a 15.687416
_cell_length_b 5.044649
_cell_length_c 23.303716
_cell_angle_alpha 90.000000
_cell_angle_beta 22.900511
_cell_angle_gamma 90.000000
_cell_volume 717.636761
_symmetry_space_group_name_H-M "P 2/C"
_symmetry_group_IT_number 13
_symmetry_cell_setting 'monoclinic'
loop_
_space_group_symop_operation_xyz
x,y,z
-x,y,1/2-z
-x,-y,-z
x,-y,1/2+z
loop_
_atom_site_type_symbol
_atom_site_label
_atom_site_fract_x
_atom_site_fract_y
_atom_site_fract_z
Si Si1 0.770871 0.913583 0.363481
Si Si2 0.409136 0.974571 0.681502
Si Si3 0.500000 0.057743 0.250000
Si Si4 0.969338 0.327412 0.961996
Si Si5 0.220470 0.420503 0.220540
O O1 0.699822 0.658141 0.369938
O O2 0.000000 0.840157 0.250000
O O3 0.597377 0.019270 0.517499
O O4 0.804594 0.156479 0.299914
O O5 0.169857 0.116761 0.830778
O O6 0.508598 0.061444 0.680921
O O7 0.356240 0.668021 0.693850
O O8 0.271018 0.209945 0.386402
O O9 0.991215 0.493086 0.890137
O O10 0.000000 0.500000 0.000000
#
# Coordination Sequence:
#
# PCOD9238774 Si02
#       5
#     4   4   2   4   4
#     4  12  28  49  82 120 159 209 268 331 409 486
#     4  12  28  50  80 115 164 210 270 335 401 482
#     4  12  28  52  78 116 160 218 270 326 402 484
#     4  12  28  50  79 116 161 213 270 336 399 479
#     4  12  26  51  80 113 160 207 263 340 402 470
#
# _framework density 25.082328
#
# number of rings (size 3 to 8) (size 9 to 14) (size 15 to 20)
#    0.000    0.000    4.444    4.000    3.111    2.667 
#    0.000    0.000    0.000    0.000    0.000    0.000 
#    0.000    0.000    0.000    0.000    0.000    0.000 
#
# Total GULP energy -100533.686840 kJ/mol
# GULP energy per Si atom -5585.204824 kJ/mol
# Density = 2.502524 g / cm^3
# Si number density = 25.082328 Si / 1000 Ang^3
#
#
#
# Elastic Constant Matrix: (Units=GPa)
#
#
# Indices 1 2 3 4 5 6 
#
# 1 134.7576 57.1340 71.8852 0.0000 8.4893 0.0000
# 2 57.1340 126.1589 51.6818 0.0000 14.3948 0.0000
# 3 71.8852 51.6818 182.3426 0.0000 15.0530 0.0000
# 4 0.0000 0.0000 0.0000 28.0136 0.0000 10.7469
# 5 8.4893 14.3948 15.0530 0.0000 63.7402 0.0000
# 6 0.0000 0.0000 0.0000 10.7469 0.0000 16.8054
#
#
#
# Elastic Compliance Matrix: (Units=1/GPa)
#
#
# Indices 1 2 3 4 5 6 
#
# 1 0.010606 -0.003508 -0.003198 0.000000 0.000135 0.000000
# 2 -0.003508 0.010262 -0.001400 0.000000 -0.001520 0.000000
# 3 -0.003198 -0.001400 0.007221 0.000000 -0.000963 0.000000
# 4 0.000000 0.000000 0.000000 0.047302 0.000000 -0.030249
# 5 0.000135 -0.001520 -0.000963 0.000000 0.016241 0.000000
# 6 0.000000 0.000000 0.000000 -0.030249 0.000000 0.078849
#
#
# Mechanical properties :
#
#
# Convention : Reuss Voigt Hill
#
# Bulk Modulus (GPa) = 84.19977 89.40677 86.80327
# Shear Modulus (GPa) = 26.22575 39.21572 32.72073
#
# Velocity S-wave (km/s) = 3.23706 3.95838 3.61575
# Velocity P-wave (km/s) = 6.90026 7.52425 7.21900
#
# Compressibility (1/GPa) = 0.01187652
#
# Stress axis : x y z
#
# Youngs Moduli (GPa) = 94.29058 97.44391 138.48099
#
# Poissons Ratio (x) = 0.34187 0.44283
# Poissons Ratio (y) = 0.33081 0.19389
# Poissons Ratio (z) = 0.30152 0.13643
#
# Static dielectric constant tensor:
#      x y z
#    x 2.075600 0.000000 0.034120 
#    y 0.000000 2.069740 0.000000 
#    z 0.034120 0.000000 2.012640 
# 
# From -- ./inp_files/78939.got.cif
#   From: 2010.05.17/outbox.cif.g08.bks.cpg/sg13_40_cif.got.tgz:78939.got - 2010.06.03 16:44:36.
