data_PCOD9238175
_publ_section_title
;
Structure prediction by ZEFSAII (Michael W. Deem and Ramdas Pophale) SiO2 
 PCOD9238175
Probable space group: P 2/C
;
_chemical_formula_sum "Si O2"
_cell_formula_units_Z 18
_cell_length_a 7.184466
_cell_length_b 6.618205
_cell_length_c 18.169526
_cell_angle_alpha 90.000000
_cell_angle_beta 83.387740
_cell_angle_gamma 90.000000
_cell_volume 858.182776
_symmetry_space_group_name_H-M "P 2/C"
_symmetry_group_IT_number 13
_symmetry_cell_setting 'monoclinic'
loop_
_space_group_symop_operation_xyz
x,y,z
-x,y,1/2-z
-x,-y,-z
x,-y,1/2+z
loop_
_atom_site_type_symbol
_atom_site_label
_atom_site_fract_x
_atom_site_fract_y
_atom_site_fract_z
Si Si1 0.255629 0.476314 0.086237
Si Si2 0.722171 0.405019 0.747156
Si Si3 0.000000 0.040595 0.750000
Si Si4 0.601996 0.804729 0.526413
Si Si5 0.903785 0.736226 0.629479
O O1 0.238077 0.506435 0.174088
O O2 0.437331 0.342091 0.062042
O O3 0.065058 0.364595 0.072581
O O4 0.288271 0.685973 0.042890
O O5 0.500000 0.383009 0.750000
O O6 0.804004 0.559152 0.682406
O O7 0.826208 0.190042 0.742997
O O8 0.996250 0.894873 0.820769
O O9 0.746776 0.839714 0.586097
O O10 0.500000 0.000000 0.500000
#
# Coordination Sequence:
#
# PCOD9238175 Si02
#       5
#     4   4   2   4   4
#     4  11  24  47  68 101 141 183 230 283 351 410
#     4  12  25  45  74 100 141 181 227 292 352 403
#     4  12  26  40  74 110 130 178 240 288 348 408
#     4  11  28  44  70 101 142 189 232 279 348 418
#     4  12  25  47  71 102 142 180 233 294 342 415
#
# _framework density 20.974551999999999
#
# number of rings (size 3 to 8) (size 9 to 14) (size 15 to 20)
#    0.000    0.444    6.667    0.667    6.222    1.778 
#    0.000    0.000    0.000    0.000    0.000    0.000 
#    0.000    0.000    0.000    0.000    0.000    0.000 
#
# Total GULP energy -100675.255601 kJ/mol
# GULP energy per Si atom -5593.069756 kJ/mol
# Density = 2.092681 g / cm^3
# Si number density = 20.974552 Si / 1000 Ang^3
#
#
#
# Elastic Constant Matrix: (Units=GPa)
#
#
# Indices 1 2 3 4 5 6 
#
# 1 107.6207 23.0071 12.8620 0.0000 10.4053 0.0000
# 2 23.0071 87.7128 6.9582 0.0000 20.7210 0.0000
# 3 12.8620 6.9582 50.6485 0.0000 23.5058 0.0000
# 4 0.0000 0.0000 0.0000 14.3088 0.0000 1.6679
# 5 10.4053 20.7210 23.5058 0.0000 34.1359 0.0000
# 6 0.0000 0.0000 0.0000 1.6679 0.0000 30.6779
#
#
#
# Elastic Compliance Matrix: (Units=1/GPa)
#
#
# Indices 1 2 3 4 5 6 
#
# 1 0.010085 -0.002453 -0.002188 0.000000 -0.000079 0.000000
# 2 -0.002453 0.014187 0.003415 0.000000 -0.010215 0.000000
# 3 -0.002188 0.003415 0.030103 0.000000 -0.022135 0.000000
# 4 0.000000 0.000000 0.000000 0.070333 0.000000 -0.003824
# 5 -0.000079 -0.010215 -0.022135 0.000000 0.050761 0.000000
# 6 0.000000 0.000000 0.000000 -0.003824 0.000000 0.032805
#
#
# Mechanical properties :
#
#
# Convention : Reuss Voigt Hill
#
# Bulk Modulus (GPa) = 19.25938 36.84853 28.05395
# Shear Modulus (GPa) = 21.92663 29.36817 25.64740
#
# Velocity S-wave (km/s) = 3.23676 3.74596 3.50063
# Velocity P-wave (km/s) = 4.81363 6.02627 5.45376
#
# Compressibility (1/GPa) = 0.05192276
#
# Stress axis : x y z
#
# Youngs Moduli (GPa) = 99.15316 70.48903 33.21933
#
# Poissons Ratio (x) = 0.17293 0.07267
# Poissons Ratio (y) = 0.24325 -0.11344
# Poissons Ratio (z) = 0.21691 -0.24070
#
# Static dielectric constant tensor:
#      x y z
#    x 1.767530 0.000000 -0.000400 
#    y 0.000000 1.750140 0.000000 
#    z -0.000400 0.000000 1.748700 
# 
# From -- ./inp_files/62084.got.cif
#   From: 2010.05.17/outbox.cif.g08.bks.cpg/sg13_32_cif.got.tgz:62084.got - 2010.06.03 16:44:36.
