data_PCOD9238938
_publ_section_title
;
Structure prediction by ZEFSAII (Michael W. Deem and Ramdas Pophale) SiO2 
 PCOD9238938
Probable space group: P 2/C
;
_chemical_formula_sum "Si O2"
_cell_formula_units_Z 24
_cell_length_a 9.000000
_cell_length_b 9.000000
_cell_length_c 30.000000
_cell_angle_alpha 90.000000
_cell_angle_beta 30.000000
_cell_angle_gamma 90.000000
_cell_volume 1215.000000
_symmetry_space_group_name_H-M "P 2/C"
_symmetry_group_IT_number 13
_symmetry_cell_setting 'monoclinic'
loop_
_space_group_symop_operation_xyz
x,y,z
-x,y,1/2-z
-x,-y,-z
x,-y,1/2+z
loop_
_atom_site_type_symbol
_atom_site_label
_atom_site_fract_x
_atom_site_fract_y
_atom_site_fract_z
Si Si1 0.663319 0.571453 0.753933
Si Si2 0.690892 0.418948 0.579501
Si Si3 0.691048 0.944443 0.410316
Si Si4 0.198090 0.885927 0.743828
Si Si5 0.167761 0.385814 0.657658
Si Si6 0.683055 0.069245 0.579500
O O1 0.500000 0.594324 0.750000
O O2 0.468205 0.460656 0.833652
O O3 0.685786 0.724888 0.774630
O O4 0.986157 0.495030 0.672839
O O5 0.477397 0.457465 0.593317
O O6 0.717707 0.243690 0.571009
O O7 0.000000 0.500000 0.500000
O O8 0.785338 0.772837 0.378201
O O9 0.484957 0.975916 0.421503
O O10 0.500000 0.000000 0.500000
O O11 0.976340 0.048550 0.337292
O O12 0.000000 0.881214 0.750000
O O13 0.464774 0.002304 0.672596
O O14 0.000000 0.361786 0.750000
O O15 0.000000 0.000000 0.500000
#
# Coordination Sequence:
#
# PCOD9238938 Si02
#       6
#     4   4   4   4   4   4
#     4  11  23  37  57  85 113 148 193 241 287 330
#     4  10  20  37  61  86 114 150 189 231 283 349
#     4  10  21  37  59  86 113 146 189 237 287 335
#     4  10  20  38  59  80 113 155 191 227 282 348
#     4   9  19  40  61  79 113 156 190 230 286 349
#     4  10  21  37  60  86 114 151 191 228 280 351
#
# _framework density 19.753086
#
# number of rings (size 3 to 8) (size 9 to 14) (size 15 to 20)
#    0.000    2.000    0.000    6.000    0.000    6.667 
#    0.000    3.333    0.000    0.000    0.000    0.000 
#    0.000    0.000    0.000    0.000    0.000    0.000 
#
# Total GULP energy -133655.455919 kJ/mol
# GULP energy per Si atom -5568.977330 kJ/mol
# Density = 1.970813 g / cm^3
# Si number density = 19.753086 Si / 1000 Ang^3
#
#
#
# Elastic Constant Matrix: (Units=GPa)
#
#
# Indices 1 2 3 4 5 6 
#
# 1 44.0982 39.6564 40.6104 0.0000 -27.8135 0.0000
# 2 39.6564 -12.0001 27.2634 0.0000 -6.2474 0.0000
# 3 40.6104 27.2634 97.6208 0.0000 -15.3433 0.0000
# 4 0.0000 0.0000 0.0000 27.0835 0.0000 -17.2567
# 5 -27.8135 -6.2474 -15.3433 0.0000 27.0734 0.0000
# 6 0.0000 0.0000 0.0000 -17.2567 0.0000 3.5079
#
#
#
# Elastic Compliance Matrix: (Units=1/GPa)
#
#
# Indices 1 2 3 4 5 6 
#
# 1 0.022525 0.030316 -0.014381 0.000000 0.021986 0.000000
# 2 0.030316 -0.009777 -0.005863 0.000000 0.025567 0.000000
# 3 -0.014381 -0.005863 0.016828 0.000000 -0.006591 0.000000
# 4 0.000000 0.000000 0.000000 -0.017298 0.000000 -0.085098
# 5 0.021986 0.025567 -0.006591 0.000000 0.061688 0.000000
# 6 0.000000 0.000000 0.000000 -0.085098 0.000000 -0.133557
#
#
# Mechanical properties :
#
#
# Convention : Reuss Voigt Hill
#
# Bulk Modulus (GPa) = 20.11265 38.30881 29.21073
# Shear Modulus (GPa) = -79.16100 13.01220 -33.07440
#
# Velocity S-wave (km/s) = -6.33737 2.56938 -4.09637
# Velocity P-wave (km/s) = 6.58373 5.31397 2.74839
#
# Compressibility (1/GPa) = 0.04971995
#
# Stress axis : x y z
#
# Youngs Moduli (GPa) = 44.39607 -102.28261 59.42502
#
# Poissons Ratio (x) = 3.10085 0.85462
# Poissons Ratio (y) = -1.34593 0.34840
# Poissons Ratio (z) = 0.63848 -0.59967
#
# Static dielectric constant tensor:
#      x y z
#    x 1.666070 0.000000 -0.129870 
#    y 0.000000 1.716110 0.000000 
#    z -0.129870 0.000000 0.975030 
# 
# From -- ./inp_files/68105.got.cif
#   From: 2010.05.17/outbox.ucp.g08.bks.cvg/sg13_35_cif.got.tgz:68105.got - 2010.06.11 12:23:55.
