data_PCOD9238527
_publ_section_title
;
Structure prediction by ZEFSAII (Michael W. Deem and Ramdas Pophale) SiO2 
 PCOD9238527
Probable space group: P 2/C
;
_chemical_formula_sum "Si O2"
_cell_formula_units_Z 20
_cell_length_a 8.325357
_cell_length_b 11.374252
_cell_length_c 11.714275
_cell_angle_alpha 90.000000
_cell_angle_beta 56.720444
_cell_angle_gamma 90.000000
_cell_volume 927.361518
_symmetry_space_group_name_H-M "P 2/C"
_symmetry_group_IT_number 13
_symmetry_cell_setting 'monoclinic'
loop_
_space_group_symop_operation_xyz
x,y,z
-x,y,1/2-z
-x,-y,-z
x,-y,1/2+z
loop_
_atom_site_type_symbol
_atom_site_label
_atom_site_fract_x
_atom_site_fract_y
_atom_site_fract_z
Si Si1 0.000000 0.176177 0.750000
Si Si2 0.676355 0.316958 0.983253
Si Si3 0.199767 0.032474 0.860691
Si Si4 0.500000 0.168870 0.250000
Si Si5 0.102628 0.456505 0.080920
Si Si6 0.377422 0.257465 0.904951
O O1 0.116668 0.259697 0.620878
O O2 0.144859 0.097853 0.765696
O O3 0.717979 0.454562 0.973226
O O4 0.529172 0.273901 0.945535
O O5 0.592885 0.257056 0.125699
O O6 0.314445 0.125468 0.895473
O O7 0.328860 0.919805 0.782726
O O8 0.000000 0.000000 0.000000
O O9 0.000000 0.455251 0.250000
O O10 0.188867 0.329965 0.014214
O O11 0.000000 0.500000 0.000000
O O12 0.500000 0.306253 0.750000
#
# Coordination Sequence:
#
# PCOD9238527 Si02
#       6
#     2   4   4   2   4   4
#     4  12  22  46  72  96 148 194 232 304 372 428
#     4  12  26  46  73 105 147 188 245 303 369 444
#     4  12  26  45  71 108 147 194 245 303 366 439
#     4  12  28  44  72 108 146 194 248 294 370 444
#     4  12  28  49  77 109 148 194 248 308 380 449
#     4  12  26  47  73 107 146 191 243 307 374 440
#
# _framework density 21.566562999999999
#
# number of rings (size 3 to 8) (size 9 to 14) (size 15 to 20)
#    0.000    0.000    6.000    3.000    7.000    1.600 
#    0.000    0.000    0.000    0.000    0.000    0.000 
#    0.000    0.000    0.000    0.000    0.000    0.000 
#
# Total GULP energy -111659.538914 kJ/mol
# GULP energy per Si atom -5582.976946 kJ/mol
# Density = 2.151748 g / cm^3
# Si number density = 21.566563 Si / 1000 Ang^3
#
#
#
# Elastic Constant Matrix: (Units=GPa)
#
#
# Indices 1 2 3 4 5 6 
#
# 1 62.3159 -1.3966 12.4485 0.0000 -3.7230 0.0000
# 2 -1.3966 75.5325 44.9581 0.0000 -5.4782 0.0000
# 3 12.4485 44.9581 141.9645 0.0000 -14.8211 0.0000
# 4 0.0000 0.0000 0.0000 43.6135 0.0000 -33.9457
# 5 -3.7230 -5.4782 -14.8211 0.0000 28.0451 0.0000
# 6 0.0000 0.0000 0.0000 -33.9457 0.0000 76.7457
#
#
#
# Elastic Compliance Matrix: (Units=1/GPa)
#
#
# Indices 1 2 3 4 5 6 
#
# 1 0.016522 0.001459 -0.001749 0.000000 0.001554 0.000000
# 2 0.001459 0.016450 -0.005273 0.000000 0.000620 0.000000
# 3 -0.001749 -0.005273 0.009245 0.000000 0.003624 0.000000
# 4 0.000000 0.000000 0.000000 0.034966 0.000000 0.015466
# 5 0.001554 0.000620 0.003624 0.000000 0.037900 0.000000
# 6 0.000000 0.000000 0.000000 0.015466 0.000000 0.019871
#
#
# Mechanical properties :
#
#
# Convention : Reuss Voigt Hill
#
# Bulk Modulus (GPa) = 32.16161 43.53700 37.84931
# Shear Modulus (GPa) = 31.96062 44.60106 38.28084
#
# Velocity S-wave (km/s) = 3.85379 4.55253 4.21766
# Velocity P-wave (km/s) = 5.89469 6.91847 6.42699
#
# Compressibility (1/GPa) = 0.03109297
#
# Stress axis : x y z
#
# Youngs Moduli (GPa) = 60.52492 60.79173 108.16180
#
# Poissons Ratio (x) = -0.08870 0.18913
# Poissons Ratio (y) = -0.08831 0.57028
# Poissons Ratio (z) = 0.10583 0.32053
#
# Static dielectric constant tensor:
#      x y z
#    x 1.818060 0.000000 0.042840 
#    y 0.000000 1.789570 0.000000 
#    z 0.042840 0.000000 2.314710 
# 
# From -- ./inp_files/29297.got.cif
#   From: 2010.05.17/outbox.cif.g08.bks.cpg/sg13_15_cif.got.tgz:29297.got - 2010.06.03 16:44:36.
