data_PCOD9238840
_publ_section_title
;
Structure prediction by ZEFSAII (Michael W. Deem and Ramdas Pophale) SiO2 
 PCOD9238840
Probable space group: P 2/C
;
_chemical_formula_sum "Si O2"
_cell_formula_units_Z 32
_cell_length_a 8.243973
_cell_length_b 8.216502
_cell_length_c 20.678052
_cell_angle_alpha 90.000000
_cell_angle_beta 59.340379
_cell_angle_gamma 90.000000
_cell_volume 1204.865519
_symmetry_space_group_name_H-M "P 2/C"
_symmetry_group_IT_number 13
_symmetry_cell_setting 'monoclinic'
loop_
_space_group_symop_operation_xyz
x,y,z
-x,y,1/2-z
-x,-y,-z
x,-y,1/2+z
loop_
_atom_site_type_symbol
_atom_site_label
_atom_site_fract_x
_atom_site_fract_y
_atom_site_fract_z
Si Si1 0.265126 0.442255 0.497607
Si Si2 0.249237 0.084692 0.192142
Si Si3 0.318688 0.113901 0.416284
Si Si4 0.805583 0.745753 0.229296
Si Si5 0.768388 0.644142 0.365308
Si Si6 0.276815 0.009850 0.554626
Si Si7 0.179824 0.382942 0.898287
Si Si8 0.273250 0.713138 0.803769
O O1 0.361432 0.289240 0.442727
O O2 0.306449 0.476628 0.564557
O O3 0.277792 0.595989 0.447703
O O4 0.044030 0.382913 0.542137
O O5 0.474323 0.050709 0.143884
O O6 0.197938 0.105796 0.126933
O O7 0.203688 0.236890 0.247051
O O8 0.174202 0.924906 0.244855
O O9 0.218144 0.153706 0.369475
O O10 0.210410 0.012775 0.493785
O O11 0.691402 0.647721 0.308056
O O12 0.747508 0.753406 0.166178
O O13 0.005020 0.650356 0.185580
O O14 0.741212 0.816523 0.406466
O O15 0.500000 0.000000 0.500000
O O16 0.218042 0.545177 0.848244
O O17 0.500000 0.713397 0.750000
#
# Coordination Sequence:
#
# PCOD9238840 Si02
#       8
#     4   4   4   4   4   4   4   4
#     4   8  14  26  47  68  88 118 159 191 217 268
#     4   9  16  26  43  68  93 119 150 187 230 271
#     4   8  14  26  45  68  88 113 155 192 218 261
#     4   9  16  26  43  67  93 120 151 189 228 268
#     4   8  14  25  43  66  90 118 153 188 223 265
#     4   8  13  23  43  68  86 111 154 188 214 259
#     4   9  16  27  46  69  90 118 155 189 226 271
#     4   9  17  29  44  65  92 122 153 188 230 275
#
# _framework density 26.558980999999999
#
# number of rings (size 3 to 8) (size 9 to 14) (size 15 to 20)
#    0.000    3.500    0.000    0.000    0.000    0.000 
#    0.000    1.875    0.000   40.500    0.000   85.750 
#    0.000    0.000    0.000    0.000    0.000    0.000 
#
# Total GULP energy -178438.485726 kJ/mol
# GULP energy per Si atom -5576.202679 kJ/mol
# Density = 2.649853 g / cm^3
# Si number density = 26.558981 Si / 1000 Ang^3
#
#
#
# Elastic Constant Matrix: (Units=GPa)
#
#
# Indices 1 2 3 4 5 6 
#
# 1 44.6473 8.3541 38.8406 0.0000 -3.9505 0.0000
# 2 8.3541 50.6458 34.2203 0.0000 -1.1123 0.0000
# 3 38.8406 34.2203 171.9124 0.0000 3.6438 0.0000
# 4 0.0000 0.0000 0.0000 7.5532 0.0000 -27.2928
# 5 -3.9505 -1.1123 3.6438 0.0000 24.4381 0.0000
# 6 0.0000 0.0000 0.0000 -27.2928 0.0000 4.2554
#
#
#
# Elastic Compliance Matrix: (Units=1/GPa)
#
#
# Indices 1 2 3 4 5 6 
#
# 1 0.028625 -0.000172 -0.006552 0.000000 0.005596 0.000000
# 2 -0.000172 0.022887 -0.004553 0.000000 0.001693 0.000000
# 3 -0.006552 -0.004553 0.008256 0.000000 -0.002497 0.000000
# 4 0.000000 0.000000 0.000000 -0.005970 0.000000 -0.038292
# 5 0.005596 0.001693 -0.002497 0.000000 0.042274 0.000000
# 6 0.000000 0.000000 0.000000 -0.038292 0.000000 -0.010597
#
#
# Mechanical properties :
#
#
# Convention : Reuss Voigt Hill
#
# Bulk Modulus (GPa) = 26.87090 47.78171 37.32631
# Shear Modulus (GPa) = 41.51728 19.63538 30.57633
#
# Velocity S-wave (km/s) = 3.95804 2.72198 3.39671
# Velocity P-wave (km/s) = 5.57023 5.28287 5.42845
#
# Compressibility (1/GPa) = 0.03721498
#
# Stress axis : x y z
#
# Youngs Moduli (GPa) = 34.93487 43.69341 121.11908
#
# Poissons Ratio (x) = 0.00751 0.79353
# Poissons Ratio (y) = 0.00601 0.55143
# Poissons Ratio (z) = 0.22888 0.19893
#
# Static dielectric constant tensor:
#      x y z
#    x 2.298760 0.000000 -0.033310 
#    y 0.000000 2.186790 0.000000 
#    z -0.033310 0.000000 2.350250 
# 
# From -- ./inp_files/78040.got.cif
#   From: 2010.05.17/outbox.cif.g08.bks.cpg/sg13_40_cif.got.tgz:78040.got - 2010.06.03 16:44:36.
