data_PCOD9238508
_publ_section_title
;
Structure prediction by ZEFSAII (Michael W. Deem and Ramdas Pophale) SiO2 
 PCOD9238508
Probable space group: P 2/C
;
_chemical_formula_sum "Si O2"
_cell_formula_units_Z 18
_cell_length_a 9.594732
_cell_length_b 5.475523
_cell_length_c 13.688352
_cell_angle_alpha 90.000000
_cell_angle_beta 66.158411
_cell_angle_gamma 90.000000
_cell_volume 657.767479
_symmetry_space_group_name_H-M "P 2/C"
_symmetry_group_IT_number 13
_symmetry_cell_setting 'monoclinic'
loop_
_space_group_symop_operation_xyz
x,y,z
-x,y,1/2-z
-x,-y,-z
x,-y,1/2+z
loop_
_atom_site_type_symbol
_atom_site_label
_atom_site_fract_x
_atom_site_fract_y
_atom_site_fract_z
Si Si1 0.127846 0.699620 0.131750
Si Si2 0.480547 0.971311 0.390538
Si Si3 0.767012 0.787096 0.814470
Si Si4 0.500000 0.460624 0.750000
Si Si5 0.795889 0.252471 0.099224
O O1 0.222725 0.450676 0.122336
O O2 0.132588 0.218917 0.313658
O O3 0.000000 0.671733 0.250000
O O4 0.096806 0.705372 0.024357
O O5 0.198303 0.038057 0.640384
O O6 0.546380 0.729574 0.324574
O O7 0.500000 0.000000 0.500000
O O8 0.592748 0.189794 0.322866
O O9 0.689077 0.975876 0.597639
O O10 0.334532 0.544605 0.844526
#
# Coordination Sequence:
#
# PCOD9238508 Si02
#       5
#     4   4   4   2   4
#     4  12  30  50  72 104 143 199 255 291 351 429
#     4  12  23  40  69 108 145 183 230 296 370 437
#     4  12  25  47  74 104 147 188 239 306 360 421
#     4  12  22  42  66 114 150 176 238 284 374 440
#     4  12  26  41  75 109 147 188 232 303 368 438
#
# _framework density 27.365292
#
# number of rings (size 3 to 8) (size 9 to 14) (size 15 to 20)
#    0.000    0.000    6.667    3.333    0.000    3.556 
#    0.000    0.000    0.000    0.000    0.000    0.000 
#    0.000    0.000    0.000    0.000    0.000    0.000 
#
# Total GULP energy -100519.169029 kJ/mol
# GULP energy per Si atom -5584.398279 kJ/mol
# Density = 2.730301 g / cm^3
# Si number density = 27.365292 Si / 1000 Ang^3
#
#
#
# Elastic Constant Matrix: (Units=GPa)
#
#
# Indices 1 2 3 4 5 6 
#
# 1 24.5888 12.7235 -5.9589 0.0000 -0.4454 0.0000
# 2 12.7235 110.9175 18.8315 0.0000 5.9322 0.0000
# 3 -5.9589 18.8315 243.1341 0.0000 24.2450 0.0000
# 4 0.0000 0.0000 0.0000 24.1993 0.0000 10.2811
# 5 -0.4454 5.9322 24.2450 0.0000 49.6326 0.0000
# 6 0.0000 0.0000 0.0000 10.2811 0.0000 38.6653
#
#
#
# Elastic Compliance Matrix: (Units=1/GPa)
#
#
# Indices 1 2 3 4 5 6 
#
# 1 0.043760 -0.005283 0.001450 0.000000 0.000316 0.000000
# 2 -0.005283 0.009803 -0.000806 0.000000 -0.000825 0.000000
# 3 0.001450 -0.000806 0.004415 0.000000 -0.002047 0.000000
# 4 0.000000 0.000000 0.000000 0.046586 0.000000 -0.012387
# 5 0.000316 -0.000825 -0.002047 0.000000 0.021250 0.000000
# 6 0.000000 0.000000 0.000000 -0.012387 0.000000 0.029157
#
#
# Mechanical properties :
#
#
# Convention : Reuss Voigt Hill
#
# Bulk Modulus (GPa) = 20.53416 47.75918 34.14667
# Shear Modulus (GPa) = 27.70368 46.03572 36.86970
#
# Velocity S-wave (km/s) = 3.18522 4.10599 3.67456
# Velocity P-wave (km/s) = 4.58776 6.32213 5.52344
#
# Compressibility (1/GPa) = 0.04869933
#
# Stress axis : x y z
#
# Youngs Moduli (GPa) = 22.85209 102.01209 226.49451
#
# Poissons Ratio (x) = 0.53891 -0.32846
# Poissons Ratio (y) = 0.12072 0.18266
# Poissons Ratio (z) = -0.03314 0.08227
#
# Static dielectric constant tensor:
#      x y z
#    x 2.315180 0.000000 -0.061500 
#    y 0.000000 2.332630 0.000000 
#    z -0.061500 0.000000 2.233200 
# 
# From -- ./inp_files/31722.got.cif
#   From: 2010.05.17/outbox.cif.g08.bks.cpg/sg13_16_cif.got.tgz:31722.got - 2010.06.03 16:44:36.
