data_PCOD9238692
_publ_section_title
;
Structure prediction by ZEFSAII (Michael W. Deem and Ramdas Pophale) SiO2 
 PCOD9238692
Probable space group: P 2/C
;
_chemical_formula_sum "Si O2"
_cell_formula_units_Z 16
_cell_length_a 7.695536
_cell_length_b 18.489837
_cell_length_c 7.665040
_cell_angle_alpha 90.000000
_cell_angle_beta 143.835543
_cell_angle_gamma 90.000000
_cell_volume 643.599427
_symmetry_space_group_name_H-M "P 2/C"
_symmetry_group_IT_number 13
_symmetry_cell_setting 'monoclinic'
loop_
_space_group_symop_operation_xyz
x,y,z
-x,y,1/2-z
-x,-y,-z
x,-y,1/2+z
loop_
_atom_site_type_symbol
_atom_site_label
_atom_site_fract_x
_atom_site_fract_y
_atom_site_fract_z
Si Si1 0.802490 0.060439 0.429017
Si Si2 0.313424 0.192221 0.421485
Si Si3 0.195221 0.687166 0.549436
Si Si4 0.832006 0.569809 0.442689
O O1 0.500000 0.025441 0.250000
O O2 0.696732 0.121547 0.208299
O O3 0.000000 0.000000 0.500000
O O4 0.000000 0.089573 0.750000
O O5 0.335046 0.259726 0.307424
O O6 0.000000 0.201981 0.250000
O O7 0.500000 0.188184 0.750000
O O8 0.500000 0.644688 0.750000
O O9 0.930700 0.633441 0.392658
O O10 0.000000 0.731873 0.250000
O O11 0.500000 0.558680 0.250000
O O12 0.000000 0.500000 0.500000
O O13 0.000000 0.593308 0.750000
#
# Coordination Sequence:
#
# PCOD9238692 Si02
#       4
#     4   4   4   4
#     4  12  26  47  73 107 146 192 242 300 364 436
#     4  12  26  47  73 106 144 190 242 301 363 434
#     4  12  25  45  72 105 142 190 242 299 363 434
#     4  12  25  45  71 106 147 192 240 298 361 432
#
# _framework density 24.860184
#
# number of rings (size 3 to 8) (size 9 to 14) (size 15 to 20)
#    0.000    0.000    0.000   10.500    0.000    4.000 
#    0.000    0.000    0.000    0.000    0.000    0.000 
#    0.000    0.000    0.000    0.000    0.000    0.000 
#
# Total GULP energy -89311.369516 kJ/mol
# GULP energy per Si atom -5581.960595 kJ/mol
# Density = 2.480360 g / cm^3
# Si number density = 24.860184 Si / 1000 Ang^3
#
#
#
# Elastic Constant Matrix: (Units=GPa)
#
#
# Indices 1 2 3 4 5 6 
#
# 1 141.5359 42.3743 86.6883 0.0000 50.9768 0.0000
# 2 42.3743 131.3107 38.2527 0.0000 3.9952 0.0000
# 3 86.6883 38.2527 251.4908 0.0000 3.7626 0.0000
# 4 0.0000 0.0000 0.0000 27.3358 0.0000 -1.4935
# 5 50.9768 3.9952 3.7626 0.0000 78.2030 0.0000
# 6 0.0000 0.0000 0.0000 -1.4935 0.0000 32.0296
#
#
#
# Elastic Compliance Matrix: (Units=1/GPa)
#
#
# Indices 1 2 3 4 5 6 
#
# 1 0.013468 -0.002902 -0.004075 0.000000 -0.008435 0.000000
# 2 -0.002902 0.008604 -0.000330 0.000000 0.001468 0.000000
# 3 -0.004075 -0.000330 0.005395 0.000000 0.002413 0.000000
# 4 0.000000 0.000000 0.000000 0.036676 0.000000 0.001710
# 5 -0.008435 0.001468 0.002413 0.000000 0.018094 0.000000
# 6 0.000000 0.000000 0.000000 0.001710 0.000000 0.031301
#
#
# Mechanical properties :
#
#
# Convention : Reuss Voigt Hill
#
# Bulk Modulus (GPa) = 77.80953 95.44090 86.62521
# Shear Modulus (GPa) = 37.75409 51.31513 44.53461
#
# Velocity S-wave (km/s) = 3.90122 4.54822 4.23709
# Velocity P-wave (km/s) = 7.18746 8.12749 7.67189
#
# Compressibility (1/GPa) = 0.01285190
#
# Stress axis : x y z
#
# Youngs Moduli (GPa) = 74.25033 116.22950 185.35894
#
# Poissons Ratio (x) = 0.33736 0.75528
# Poissons Ratio (y) = 0.21551 0.06119
# Poissons Ratio (z) = 0.30255 0.03837
#
# Static dielectric constant tensor:
#      x y z
#    x 1.949960 0.000000 -0.051020 
#    y 0.000000 1.750230 0.000000 
#    z -0.051020 0.000000 1.950070 
# 
# From -- ./inp_files/13218.got.cif
#   From: 2010.05.17/outbox.cif.g08.bks.cpg/sg13_7_cif.got.tgz:13218.got - 2010.06.03 16:44:36.
