data_PCOD9238972
_publ_section_title
;
Structure prediction by ZEFSAII (Michael W. Deem and Ramdas Pophale) SiO2 
 PCOD9238972
Probable space group: P 2/C
;
_chemical_formula_sum "Si O2"
_cell_formula_units_Z 26
_cell_length_a 21.000000
_cell_length_b 6.000000
_cell_length_c 21.000000
_cell_angle_alpha 90.000000
_cell_angle_beta 30.000000
_cell_angle_gamma 90.000000
_cell_volume 1323.000000
_symmetry_space_group_name_H-M "P 2/C"
_symmetry_group_IT_number 13
_symmetry_cell_setting 'monoclinic'
loop_
_space_group_symop_operation_xyz
x,y,z
-x,y,1/2-z
-x,-y,-z
x,-y,1/2+z
loop_
_atom_site_type_symbol
_atom_site_label
_atom_site_fract_x
_atom_site_fract_y
_atom_site_fract_z
Si Si1 0.500000 0.797071 0.250000
Si Si2 0.055091 0.302599 0.407711
Si Si3 0.794493 0.641900 0.294922
Si Si4 0.585390 0.161600 0.882251
Si Si5 0.654544 0.878240 0.700120
Si Si6 0.935366 0.105203 0.967437
Si Si7 0.441206 0.492324 0.418711
O O1 0.436900 0.650146 0.360488
O O2 0.395224 0.960242 0.311594
O O3 0.164241 0.402208 0.268963
O O4 0.093831 0.144633 0.431943
O O5 0.000000 0.500000 0.500000
O O6 0.960680 0.160795 0.444741
O O7 0.702260 0.751949 0.322934
O O8 0.696464 0.608521 0.439735
O O9 0.933346 0.775900 0.173005
O O10 0.498865 0.359758 0.927111
O O11 0.644162 0.027873 0.772443
O O12 0.500000 0.000000 0.000000
O O13 0.800185 0.813193 0.556842
O O14 0.550768 0.685745 0.804270
#
# Coordination Sequence:
#
# PCOD9238972 Si02
#       7
#     2   4   4   4   4   4   4
#     4  10  26  44  64  86 112 170 228 272 304 366
#     4   9  18  33  52  89 135 165 191 233 308 387
#     4  11  22  35  61  98 132 163 201 256 324 384
#     4  11  22  34  60 103 132 163 203 254 318 390
#     4  11  22  42  65  89 125 166 216 264 318 376
#     4  10  21  34  60  90 129 166 200 252 314 384
#     4  11  24  41  66  89 126 167 217 265 316 376
#
# _framework density 19.652304999999998
#
# number of rings (size 3 to 8) (size 9 to 14) (size 15 to 20)
#    0.000    1.538    1.538    4.615    4.308    3.692 
#    0.000    0.000    0.000   13.846    0.000    0.000 
#    0.000    0.000    0.000    0.000    0.000    0.000 
#
# Total GULP energy -144754.797451 kJ/mol
# GULP energy per Si atom -5567.492210 kJ/mol
# Density = 1.960758 g / cm^3
# Si number density = 19.652305 Si / 1000 Ang^3
#
#
#
# Elastic Constant Matrix: (Units=GPa)
#
#
# Indices 1 2 3 4 5 6 
#
# 1 74.7099 34.4675 54.8991 0.0000 0.3781 0.0000
# 2 34.4675 92.8253 57.3315 0.0000 -6.5900 0.0000
# 3 54.8991 57.3315 170.6134 0.0000 -26.9316 0.0000
# 4 0.0000 0.0000 0.0000 44.0211 0.0000 1.2199
# 5 0.3781 -6.5900 -26.9316 0.0000 22.9896 0.0000
# 6 0.0000 0.0000 0.0000 1.2199 0.0000 28.5144
#
#
#
# Elastic Compliance Matrix: (Units=1/GPa)
#
#
# Indices 1 2 3 4 5 6 
#
# 1 0.020131 -0.004077 -0.006557 0.000000 -0.009181 0.000000
# 2 -0.004077 0.014480 -0.003543 0.000000 0.000067 0.000000
# 3 -0.006557 -0.003543 0.011064 0.000000 0.012054 0.000000
# 4 0.000000 0.000000 0.000000 0.022743 0.000000 -0.000973
# 5 -0.009181 0.000067 0.012054 0.000000 0.057788 0.000000
# 6 0.000000 0.000000 0.000000 -0.000973 0.000000 0.035112
#
#
# Mechanical properties :
#
#
# Convention : Reuss Voigt Hill
#
# Bulk Modulus (GPa) = 57.73370 70.17165 63.95267
# Shear Modulus (GPa) = 25.58253 31.86839 28.72546
#
# Velocity S-wave (km/s) = 3.61190 4.03129 3.82735
# Velocity P-wave (km/s) = 6.84367 7.57974 7.22109
#
# Compressibility (1/GPa) = 0.01732091
#
# Stress axis : x y z
#
# Youngs Moduli (GPa) = 49.67574 69.06092 90.38038
#
# Poissons Ratio (x) = 0.28156 0.59260
# Poissons Ratio (y) = 0.20253 0.32025
# Poissons Ratio (z) = 0.32571 0.24470
#
# Static dielectric constant tensor:
#      x y z
#    x 1.635960 0.000000 -0.015750 
#    y 0.000000 1.834500 0.000000 
#    z -0.015750 0.000000 1.679100 
# 
# From -- ./inp_files/81350.got.cif
#   From: 2010.05.17/outbox.ucp.g08.bks.cvg/sg13_41_cif.got.tgz:81350.got - 2010.06.11 12:23:55.
