data_PCOD9238645
_publ_section_title
;
Structure prediction by ZEFSAII (Michael W. Deem and Ramdas Pophale) SiO2 
 PCOD9238645
Probable space group: P 2/C
;
_chemical_formula_sum "Si O2"
_cell_formula_units_Z 16
_cell_length_a 15.340479
_cell_length_b 6.926254
_cell_length_c 15.131035
_cell_angle_alpha 90.000000
_cell_angle_beta 158.790429
_cell_angle_gamma 90.000000
_cell_volume 581.635481
_symmetry_space_group_name_H-M "P 2/C"
_symmetry_group_IT_number 13
_symmetry_cell_setting 'monoclinic'
loop_
_space_group_symop_operation_xyz
x,y,z
-x,y,1/2-z
-x,-y,-z
x,-y,1/2+z
loop_
_atom_site_type_symbol
_atom_site_label
_atom_site_fract_x
_atom_site_fract_y
_atom_site_fract_z
Si Si1 0.000000 0.131206 0.750000
Si Si2 0.869793 0.126491 0.803950
Si Si3 0.500000 0.923369 0.750000
Si Si4 0.027104 0.553825 0.669103
Si Si5 0.545582 0.242284 0.639855
O O1 0.936830 0.010390 0.777798
O O2 0.731982 0.209941 0.481157
O O3 0.962680 0.335745 0.860385
O O4 0.613054 0.175910 0.604185
O O5 0.000000 0.000000 0.000000
O O6 0.533019 0.064681 0.697551
O O7 0.000000 0.560024 0.750000
O O8 0.783952 0.641022 0.396320
O O9 0.291876 0.644534 0.898593
#
# Coordination Sequence:
#
# PCOD9238645 Si02
#       5
#     2   4   2   4   4
#     4  12  28  48  74 114 160 196 256 318 384 454
#     4  12  28  51  78 116 155 205 254 318 386 463
#     4  12  24  46  78 112 148 208 252 316 380 454
#     4  12  25  50  77 113 152 200 255 319 377 456
#     4  12  26  48  80 110 151 203 259 312 384 457
#
# _framework density 27.508637
#
# number of rings (size 3 to 8) (size 9 to 14) (size 15 to 20)
#    0.000    0.000    6.250    3.000    0.000    5.000 
#    0.000    0.000    0.000    0.000    0.000    0.000 
#    0.000    0.000    0.000    0.000    0.000    0.000 
#
# Total GULP energy -89382.503842 kJ/mol
# GULP energy per Si atom -5586.406490 kJ/mol
# Density = 2.744603 g / cm^3
# Si number density = 27.508637 Si / 1000 Ang^3
#
#
#
# Elastic Constant Matrix: (Units=GPa)
#
#
# Indices 1 2 3 4 5 6 
#
# 1 272.1217 44.7119 49.3027 0.0000 15.9204 0.0000
# 2 44.7119 130.4933 93.0249 0.0000 22.8994 0.0000
# 3 49.3027 93.0249 273.3770 0.0000 47.2140 0.0000
# 4 0.0000 0.0000 0.0000 50.1200 0.0000 -7.4760
# 5 15.9204 22.8994 47.2140 0.0000 56.7864 0.0000
# 6 0.0000 0.0000 0.0000 -7.4760 0.0000 29.2286
#
#
#
# Elastic Compliance Matrix: (Units=1/GPa)
#
#
# Indices 1 2 3 4 5 6 
#
# 1 0.003926 -0.001079 -0.000264 0.000000 -0.000446 0.000000
# 2 -0.001079 0.010513 -0.003156 0.000000 -0.001313 0.000000
# 3 -0.000264 -0.003156 0.005309 0.000000 -0.003068 0.000000
# 4 0.000000 0.000000 0.000000 0.020744 0.000000 0.005306
# 5 -0.000446 -0.001313 -0.003068 0.000000 0.020815 0.000000
# 6 0.000000 0.000000 0.000000 0.005306 0.000000 0.035570
#
#
# Mechanical properties :
#
#
# Convention : Reuss Voigt Hill
#
# Bulk Modulus (GPa) = 93.01525 116.67455 104.84490
# Shear Modulus (GPa) = 45.67955 59.82384 52.75169
#
# Velocity S-wave (km/s) = 4.07941 4.66846 4.38384
# Velocity P-wave (km/s) = 7.48834 8.45962 7.98876
#
# Compressibility (1/GPa) = 0.01075092
#
# Stress axis : x y z
#
# Youngs Moduli (GPa) = 254.71244 95.11886 188.34842
#
# Poissons Ratio (x) = 0.10261 0.04970
# Poissons Ratio (y) = 0.27477 0.59445
# Poissons Ratio (z) = 0.06722 0.30021
#
# Static dielectric constant tensor:
#      x y z
#    x 2.358270 0.000000 -0.144000 
#    y 0.000000 2.218930 0.000000 
#    z -0.144000 0.000000 2.232350 
# 
# From -- ./inp_files/52849.got.cif
#   From: 2010.05.17/outbox.cif.g08.bks.cpg/sg13_27_cif.got.tgz:52849.got - 2010.06.03 16:44:36.
