data_PCOD9238904
_publ_section_title
;
Structure prediction by ZEFSAII (Michael W. Deem and Ramdas Pophale) SiO2 
 PCOD9238904
Probable space group: P 2/C
;
_chemical_formula_sum "Si O2"
_cell_formula_units_Z 28
_cell_length_a 9.000000
_cell_length_b 15.000000
_cell_length_c 21.000000
_cell_angle_alpha 90.000000
_cell_angle_beta 150.000000
_cell_angle_gamma 90.000000
_cell_volume 1417.500000
_symmetry_space_group_name_H-M "P 2/C"
_symmetry_group_IT_number 13
_symmetry_cell_setting 'monoclinic'
loop_
_space_group_symop_operation_xyz
x,y,z
-x,y,1/2-z
-x,-y,-z
x,-y,1/2+z
loop_
_atom_site_type_symbol
_atom_site_label
_atom_site_fract_x
_atom_site_fract_y
_atom_site_fract_z
Si Si1 0.427140 0.413682 0.075156
Si Si2 0.250113 0.005723 0.001170
Si Si3 0.932127 0.438793 0.126406
Si Si4 0.711758 0.116934 0.610285
Si Si5 0.191808 0.865778 0.598750
Si Si6 0.829478 0.337920 0.403298
Si Si7 0.690562 0.263391 0.106779
O O1 0.196033 0.403217 0.046582
O O2 0.484751 0.307061 0.084320
O O3 0.745695 0.453067 0.219074
O O4 0.264936 0.473716 0.961305
O O5 0.019875 0.930642 0.938883
O O6 0.187536 0.056154 0.911891
O O7 0.550672 0.950538 0.099262
O O8 0.252949 0.082550 0.055523
O O9 0.772221 0.358783 0.105192
O O10 0.979653 0.389335 0.077485
O O11 0.480178 0.191119 0.498494
O O12 0.000000 0.158852 0.750000
O O13 0.500000 0.859682 0.750000
O O14 0.071985 0.764424 0.547935
O O15 0.500000 0.332398 0.250000
O O16 0.000000 0.226385 0.250000
#
# Coordination Sequence:
#
# PCOD9238904 Si02
#       7
#     4   4   4   4   4   4   4
#     4  10  20  35  55  80 108 140 180 224 274 332
#     4  10  22  36  56  84 114 150 192 236 280 336
#     4  10  20  35  55  80 108 140 180 224 274 332
#     4  11  23  38  57  85 119 153 191 236 287 338
#     4  10  19  36  59  81 110 150 191 232 280 334
#     4   9  18  32  53  78 104 137 178 221 269 329
#     4  10  22  38  57  80 108 145 188 231 276 333
#
# _framework density 19.753086
#
# number of rings (size 3 to 8) (size 9 to 14) (size 15 to 20)
#    0.000    2.000    0.000    3.429    0.000    6.857 
#    0.000    0.000    0.000    3.429    0.000    0.000 
#    0.000    0.000    0.000    0.000    0.000    0.000 
#
# Total GULP energy -156011.509089 kJ/mol
# GULP energy per Si atom -5571.839610 kJ/mol
# Density = 1.970813 g / cm^3
# Si number density = 19.753086 Si / 1000 Ang^3
#
#
#
# Elastic Constant Matrix: (Units=GPa)
#
#
# Indices 1 2 3 4 5 6 
#
# 1 74.3717 3.8364 3.0180 0.0000 6.2774 0.0000
# 2 3.8364 78.1602 33.4770 0.0000 9.0690 0.0000
# 3 3.0180 33.4770 95.5313 0.0000 7.1813 0.0000
# 4 0.0000 0.0000 0.0000 36.7201 0.0000 -7.0665
# 5 6.2774 9.0690 7.1813 0.0000 2.5037 0.0000
# 6 0.0000 0.0000 0.0000 -7.0665 0.0000 26.7176
#
#
#
# Elastic Compliance Matrix: (Units=1/GPa)
#
#
# Indices 1 2 3 4 5 6 
#
# 1 0.020477 0.007999 0.003299 0.000000 -0.089774 0.000000
# 2 0.007999 0.025562 -0.000947 0.000000 -0.109930 0.000000
# 3 0.003299 -0.000947 0.014099 0.000000 -0.045281 0.000000
# 4 0.000000 0.000000 0.000000 0.028694 0.000000 0.007589
# 5 -0.089774 -0.109930 -0.045281 0.000000 1.152550 0.000000
# 6 0.000000 0.000000 0.000000 0.007589 0.000000 0.039436
#
#
# Mechanical properties :
#
#
# Convention : Reuss Voigt Hill
#
# Bulk Modulus (GPa) = 12.37018 36.52512 24.44765
# Shear Modulus (GPa) = 3.88481 27.03706 15.46094
#
# Velocity S-wave (km/s) = 1.40391 3.70368 2.80073
# Velocity P-wave (km/s) = 2.98395 6.06800 4.78145
#
# Compressibility (1/GPa) = 0.08083954
#
# Stress axis : x y z
#
# Youngs Moduli (GPa) = 48.83539 39.12000 70.92571
#
# Poissons Ratio (x) = -0.31290 -0.23396
# Poissons Ratio (y) = -0.39061 0.06715
# Poissons Ratio (z) = -0.16109 0.03704
#
# Static dielectric constant tensor:
#      x y z
#    x 1.834270 0.000000 -0.003970 
#    y 0.000000 1.650140 0.000000 
#    z -0.003970 0.000000 1.673720 
# 
# From -- ./inp_files/76698.got.cif
#   From: 2010.05.17/outbox.ucp.g08.bks.cvg/sg13_39_cif.got.tgz:76698.got - 2010.06.11 12:23:55.
