data_PCOD9238188
_publ_section_title
;
Structure prediction by ZEFSAII (Michael W. Deem and Ramdas Pophale) SiO2 
 PCOD9238188
Probable space group: P 2/C
;
_chemical_formula_sum "Si O2"
_cell_formula_units_Z 22
_cell_length_a 10.431023
_cell_length_b 5.319241
_cell_length_c 16.016285
_cell_angle_alpha 90.000000
_cell_angle_beta 99.796800
_cell_angle_gamma 90.000000
_cell_volume 875.706527
_symmetry_space_group_name_H-M "P 2/C"
_symmetry_group_IT_number 13
_symmetry_cell_setting 'monoclinic'
loop_
_space_group_symop_operation_xyz
x,y,z
-x,y,1/2-z
-x,-y,-z
x,-y,1/2+z
loop_
_atom_site_type_symbol
_atom_site_label
_atom_site_fract_x
_atom_site_fract_y
_atom_site_fract_z
Si Si1 0.554416 0.871596 0.091175
Si Si2 0.124143 0.938715 0.190367
Si Si3 0.897586 0.709839 0.961234
Si Si4 0.500000 0.205353 0.250000
Si Si5 0.668654 0.568321 0.362748
Si Si6 0.144333 0.880910 0.374752
O O1 0.459576 0.644452 0.102141
O O2 0.705722 0.791335 0.106333
O O3 0.531724 0.048155 0.170265
O O4 0.500000 0.000000 0.000000
O O5 0.085283 0.167566 0.126839
O O6 0.250834 0.798027 0.169220
O O7 0.145633 0.031421 0.287149
O O8 0.997716 0.754474 0.162188
O O9 0.762495 0.564952 0.937811
O O10 0.877838 0.927405 0.028962
O O11 0.000000 0.500000 0.000000
O O12 0.622317 0.381187 0.285606
#
# Coordination Sequence:
#
# PCOD9238188 Si02
#       6
#     4   4   4   2   4   4
#     4  12  27  46  74 109 153 195 246 310 373 438
#     4  11  25  48  72 108 150 194 244 316 373 431
#     4  12  26  47  77 109 148 198 249 306 373 442
#     4  12  26  48  76 108 154 198 248 308 370 452
#     4  12  25  47  76 107 151 199 249 304 374 439
#     4  11  24  47  72 105 151 192 243 309 368 434
#
# _framework density 25.122572000000002
#
# number of rings (size 3 to 8) (size 9 to 14) (size 15 to 20)
#    0.000    0.364    1.818    7.636    2.545    4.364 
#    6.545    0.000    0.000    0.000    0.000    0.000 
#    0.000    0.000    0.000    0.000    0.000    0.000 
#
# Total GULP energy -122644.736610 kJ/mol
# GULP energy per Si atom -5574.760755 kJ/mol
# Density = 2.506539 g / cm^3
# Si number density = 25.122572 Si / 1000 Ang^3
#
#
#
# Elastic Constant Matrix: (Units=GPa)
#
#
# Indices 1 2 3 4 5 6 
#
# 1 190.9256 19.7328 45.0367 0.0000 21.7525 0.0000
# 2 19.7328 65.1195 51.1993 0.0000 4.2912 0.0000
# 3 45.0367 51.1993 234.8253 0.0000 -6.5182 0.0000
# 4 0.0000 0.0000 0.0000 34.8799 0.0000 16.2566
# 5 21.7525 4.2912 -6.5182 0.0000 54.4907 0.0000
# 6 0.0000 0.0000 0.0000 16.2566 0.0000 24.7626
#
#
#
# Elastic Compliance Matrix: (Units=1/GPa)
#
#
# Indices 1 2 3 4 5 6 
#
# 1 0.005831 -0.000819 -0.001006 0.000000 -0.002384 0.000000
# 2 -0.000819 0.018857 -0.004000 0.000000 -0.001637 0.000000
# 3 -0.001006 -0.004000 0.005361 0.000000 0.001358 0.000000
# 4 0.000000 0.000000 0.000000 0.041309 0.000000 -0.027119
# 5 -0.002384 -0.001637 0.001358 0.000000 0.019595 0.000000
# 6 0.000000 0.000000 0.000000 -0.027119 0.000000 0.058187
#
#
# Mechanical properties :
#
#
# Convention : Reuss Voigt Hill
#
# Bulk Modulus (GPa) = 54.34777 80.31201 67.32989
# Shear Modulus (GPa) = 29.95382 47.82010 38.88696
#
# Velocity S-wave (km/s) = 3.45673 4.36761 3.93859
# Velocity P-wave (km/s) = 6.13286 7.58104 6.89508
#
# Compressibility (1/GPa) = 0.01840002
#
# Stress axis : x y z
#
# Youngs Moduli (GPa) = 171.49294 53.03015 186.52585
#
# Poissons Ratio (x) = 0.04343 0.18763
# Poissons Ratio (y) = 0.14045 0.74607
# Poissons Ratio (z) = 0.17251 0.21211
#
# Static dielectric constant tensor:
#      x y z
#    x 2.056950 0.000000 -0.023590 
#    y 0.000000 2.128140 0.000000 
#    z -0.023590 0.000000 1.998510 
# 
# From -- ./inp_files/48993.got.cif
#   From: 2010.05.17/outbox.cif.g08.bks.cpg/sg13_25_cif.got.tgz:48993.got - 2010.06.03 16:44:36.
