data_PCOD9238684
_publ_section_title
;
Structure prediction by ZEFSAII (Michael W. Deem and Ramdas Pophale) SiO2 
 PCOD9238684
Probable space group: P 2/C
;
_chemical_formula_sum "Si O2"
_cell_formula_units_Z 16
_cell_length_a 8.447797
_cell_length_b 9.809853
_cell_length_c 8.366317
_cell_angle_alpha 90.000000
_cell_angle_beta 90.000010
_cell_angle_gamma 90.000000
_cell_volume 693.330467
_symmetry_space_group_name_H-M "P 2/C"
_symmetry_group_IT_number 13
_symmetry_cell_setting 'monoclinic'
loop_
_space_group_symop_operation_xyz
x,y,z
-x,y,1/2-z
-x,-y,-z
x,-y,1/2+z
loop_
_atom_site_type_symbol
_atom_site_label
_atom_site_fract_x
_atom_site_fract_y
_atom_site_fract_z
Si Si1 0.173269 0.166249 0.673397
Si Si2 0.823867 0.558911 0.514248
Si Si3 0.673269 0.333751 0.326603
Si Si4 0.676133 0.058911 0.514248
O O1 0.199235 0.318435 0.610812
O O2 0.000000 0.156765 0.750000
O O3 0.202976 0.062119 0.528234
O O4 0.293069 0.120202 0.811622
O O5 0.702976 0.437882 0.471766
O O6 0.793069 0.620202 0.688378
O O7 0.000000 0.500000 0.500000
O O8 0.500000 0.343234 0.250000
O O9 0.699236 0.181565 0.389188
O O10 0.500000 0.000000 0.500000
#
# Coordination Sequence:
#
# PCOD9238684 Si02
#       4
#     4   4   4   4
#     4  12  25  44  69 101 138 184 232 288 350 416
#     4  12  26  46  71 103 141 184 235 290 349 418
#     4  12  25  44  69 101 138 184 232 288 350 416
#     4  12  26  46  71 103 141 184 235 290 349 418
#
# _framework density 23.077017000000001
#
# number of rings (size 3 to 8) (size 9 to 14) (size 15 to 20)
#    0.000    0.000    0.000   12.000    0.000    4.000 
#    0.000    0.000    0.000    0.000    0.000    0.000 
#    0.000    0.000    0.000    0.000    0.000    0.000 
#
# Total GULP energy -89767.218362 kJ/mol
# GULP energy per Si atom -5610.451148 kJ/mol
# Density = 2.302449 g / cm^3
# Si number density = 23.077017 Si / 1000 Ang^3
#
#
#
# Elastic Constant Matrix: (Units=GPa)
#
#
# Indices 1 2 3 4 5 6 
#
# 1 32.7007 20.5278 -9.4759 0.0000 0.0000 0.0000
# 2 20.5278 158.8939 18.6325 0.0000 0.0001 0.0000
# 3 -9.4759 18.6325 77.2091 0.0000 0.0000 0.0000
# 4 0.0000 0.0000 0.0000 57.8470 0.0000 -0.0002
# 5 0.0000 0.0001 0.0000 0.0000 47.1804 0.0000
# 6 0.0000 0.0000 0.0000 -0.0002 0.0000 27.5096
#
#
#
# Elastic Compliance Matrix: (Units=1/GPa)
#
#
# Indices 1 2 3 4 5 6 
#
# 1 0.035503 -0.005246 0.005623 0.000000 0.000000 0.000000
# 2 -0.005246 0.007252 -0.002394 0.000000 0.000000 0.000000
# 3 0.005623 -0.002394 0.014220 0.000000 0.000000 0.000000
# 4 0.000000 0.000000 0.000000 0.017287 0.000000 0.000000
# 5 0.000000 0.000000 0.000000 0.000000 0.021195 0.000000
# 6 0.000000 0.000000 0.000000 0.000000 0.000000 0.036351
#
#
# Mechanical properties :
#
#
# Convention : Reuss Voigt Hill
#
# Bulk Modulus (GPa) = 18.88881 36.46360 27.67621
# Shear Modulus (GPa) = 32.57571 42.44869 37.51220
#
# Velocity S-wave (km/s) = 3.76121 4.29352 4.03615
# Velocity P-wave (km/s) = 5.20242 6.35722 5.80859
#
# Compressibility (1/GPa) = 0.05294140
#
# Stress axis : x y z
#
# Youngs Moduli (GPa) = 28.16650 137.89319 70.32491
#
# Poissons Ratio (x) = 0.72341 -0.39546
# Poissons Ratio (y) = 0.14777 0.16835
# Poissons Ratio (z) = -0.15839 0.33011
#
# Static dielectric constant tensor:
#      x y z
#    x 1.827050 0.000000 0.000000 
#    y 0.000000 1.813400 0.000000 
#    z 0.000000 0.000000 1.896530 
# 
# From -- ./inp_files/10843.got.cif
#   From: 2010.05.17/outbox.cif.g08.bks.cpg/sg13_6_cif.got.tgz:10843.got - 2010.06.03 16:44:36.
