data_PCOD9238792
_publ_section_title
;
Structure prediction by ZEFSAII (Michael W. Deem and Ramdas Pophale) SiO2 
 PCOD9238792
Probable space group: P 2/C
;
_chemical_formula_sum "Si O2"
_cell_formula_units_Z 12
_cell_length_a 23.172838
_cell_length_b 4.742687
_cell_length_c 8.970674
_cell_angle_alpha 90.000000
_cell_angle_beta 150.468625
_cell_angle_gamma 90.000000
_cell_volume 485.945608
_symmetry_space_group_name_H-M "P 2/C"
_symmetry_group_IT_number 13
_symmetry_cell_setting 'monoclinic'
loop_
_space_group_symop_operation_xyz
x,y,z
-x,y,1/2-z
-x,-y,-z
x,-y,1/2+z
loop_
_atom_site_type_symbol
_atom_site_label
_atom_site_fract_x
_atom_site_fract_y
_atom_site_fract_z
Si Si1 0.055902 0.244381 0.716604
Si Si2 0.296819 0.900668 0.269778
Si Si3 0.626373 0.375884 0.245373
O O1 0.000000 0.279105 0.750000
O O2 0.000000 0.500000 0.500000
O O3 0.000000 0.000000 0.500000
O O4 0.186712 0.116021 0.029005
O O5 0.297638 0.633352 0.156582
O O6 0.319144 0.761961 0.481776
O O7 0.388836 0.120310 0.405960
O O8 0.500000 0.500000 0.000000
#
# Coordination Sequence:
#
# PCOD9238792 Si02
#       3
#     4   4   4
#     4  12  27  50  78 112 153 203 262 327 395 470
#     4  12  27  50  78 115 160 211 265 329 398 475
#     4  12  27  50  79 117 161 212 266 328 398 479
#
# _framework density 24.694119000000001
#
# number of rings (size 3 to 8) (size 9 to 14) (size 15 to 20)
#    0.000    0.000    0.000    9.000    0.000    8.000 
#    0.000    3.333    0.000    0.000    0.000    0.000 
#    0.000    0.000    0.000    0.000    0.000    0.000 
#
# Total GULP energy -67005.030112 kJ/mol
# GULP energy per Si atom -5583.752509 kJ/mol
# Density = 2.463791 g / cm^3
# Si number density = 24.694119 Si / 1000 Ang^3
#
#
#
# Elastic Constant Matrix: (Units=GPa)
#
#
# Indices 1 2 3 4 5 6 
#
# 1 194.7395 118.0734 103.5735 0.0000 -30.7496 0.0000
# 2 118.0734 275.4740 96.4085 0.0000 -16.8839 0.0000
# 3 103.5735 96.4085 164.7061 0.0000 -8.2471 0.0000
# 4 0.0000 0.0000 0.0000 56.8519 0.0000 11.0422
# 5 -30.7496 -16.8839 -8.2471 0.0000 38.4685 0.0000
# 6 0.0000 0.0000 0.0000 11.0422 0.0000 3.3862
#
#
#
# Elastic Compliance Matrix: (Units=1/GPa)
#
#
# Indices 1 2 3 4 5 6 
#
# 1 0.009889 -0.002268 -0.004595 0.000000 0.005925 0.000000
# 2 -0.002268 0.005166 -0.001592 0.000000 0.000114 0.000000
# 3 -0.004595 -0.001592 0.009779 0.000000 -0.002275 0.000000
# 4 0.000000 0.000000 0.000000 0.047974 0.000000 -0.156439
# 5 0.005925 0.000114 -0.002275 0.000000 0.030293 0.000000
# 6 0.000000 0.000000 0.000000 -0.156439 0.000000 0.805442
#
#
# Mechanical properties :
#
#
# Convention : Reuss Voigt Hill
#
# Bulk Modulus (GPa) = 126.18325 141.22558 133.70442
# Shear Modulus (GPa) = 5.38738 40.86562 23.12650
#
# Velocity S-wave (km/s) = 1.47864 4.07243 3.06358
# Velocity P-wave (km/s) = 7.35694 8.91218 8.17165
#
# Compressibility (1/GPa) = 0.00792498
#
# Stress axis : x y z
#
# Youngs Moduli (GPa) = 101.12109 193.56324 102.26034
#
# Poissons Ratio (x) = 0.43891 0.46986
# Poissons Ratio (y) = 0.22929 0.16284
# Poissons Ratio (z) = 0.46463 0.30823
#
# Static dielectric constant tensor:
#      x y z
#    x 2.008360 0.000000 0.115620 
#    y 0.000000 1.891110 0.000000 
#    z 0.115620 0.000000 2.083760 
# 
# From -- ./inp_files/23674.got.cif
#   From: 2010.05.17/outbox.cif.g08.bks.cpg/sg13_12_cif.got.tgz:23674.got - 2010.06.03 16:44:36.
