data_PCOD9238006
_publ_section_title
;
Structure prediction by ZEFSAII (Michael W. Deem and Ramdas Pophale) SiO2 
 PCOD9238006
Probable space group: P 2/C
;
_chemical_formula_sum "Si O2"
_cell_formula_units_Z 26
_cell_length_a 21.190785
_cell_length_b 6.700779
_cell_length_c 10.243584
_cell_angle_alpha 90.000000
_cell_angle_beta 51.158155
_cell_angle_gamma 90.000000
_cell_volume 1132.908659
_symmetry_space_group_name_H-M "P 2/C"
_symmetry_group_IT_number 13
_symmetry_cell_setting 'monoclinic'
loop_
_space_group_symop_operation_xyz
x,y,z
-x,y,1/2-z
-x,-y,-z
x,-y,1/2+z
loop_
_atom_site_type_symbol
_atom_site_label
_atom_site_fract_x
_atom_site_fract_y
_atom_site_fract_z
Si Si1 0.052779 0.832416 0.498540
Si Si2 0.647605 0.198705 0.892935
Si Si3 0.841810 0.340229 0.865115
Si Si4 0.797402 0.058484 0.109761
Si Si5 0.279414 0.610695 0.610902
Si Si6 0.589184 0.097343 0.684235
Si Si7 0.000000 0.513731 0.750000
O O1 0.110539 0.716438 0.325663
O O2 0.996149 0.667505 0.635854
O O3 0.115361 0.953594 0.506661
O O4 0.000000 0.000000 0.500000
O O5 0.671423 0.431474 0.880773
O O6 0.594292 0.126232 0.835646
O O7 0.732424 0.096703 0.743935
O O8 0.611381 0.108617 0.075846
O O9 0.779941 0.516146 0.919646
O O10 0.916479 0.392816 0.864730
O O11 0.790048 0.148769 0.975475
O O12 0.778020 0.254898 0.221868
O O13 0.344805 0.750693 0.458484
O O14 0.500000 0.150503 0.750000
#
# Coordination Sequence:
#
# PCOD9238006 Si02
#       7
#     4   4   4   4   4   4   2
#     4  12  24  41  61  92 133 176 226 291 347 404
#     4  11  24  46  72 105 142 188 233 292 354 427
#     4  12  23  42  65  94 134 179 231 285 349 412
#     4  11  24  40  65  96 127 176 231 279 340 413
#     4  11  24  43  69 102 136 185 232 286 347 425
#     4  11  26  45  74 108 145 184 234 293 357 429
#     4  12  26  40  64  96 134 178 234 292 346 424
#
# _framework density 22.949777000000001
#
# number of rings (size 3 to 8) (size 9 to 14) (size 15 to 20)
#    0.000    0.615    1.538    6.462    4.308    2.462 
#    0.000    0.000    0.000    0.000    0.000    0.000 
#    0.000    0.000    0.000    0.000    0.000    0.000 
#
# Total GULP energy -145218.909140 kJ/mol
# GULP energy per Si atom -5585.342659 kJ/mol
# Density = 2.289754 g / cm^3
# Si number density = 22.949777 Si / 1000 Ang^3
#
#
#
# Elastic Constant Matrix: (Units=GPa)
#
#
# Indices 1 2 3 4 5 6 
#
# 1 105.6399 4.0116 -6.1985 0.0000 -11.9414 0.0000
# 2 4.0116 83.4294 9.7742 0.0000 3.1673 0.0000
# 3 -6.1985 9.7742 47.4225 0.0000 -9.3472 0.0000
# 4 0.0000 0.0000 0.0000 30.7039 0.0000 6.6273
# 5 -11.9414 3.1673 -9.3472 0.0000 34.6195 0.0000
# 6 0.0000 0.0000 0.0000 6.6273 0.0000 38.5449
#
#
#
# Elastic Compliance Matrix: (Units=1/GPa)
#
#
# Indices 1 2 3 4 5 6 
#
# 1 0.010114 -0.000920 0.002340 0.000000 0.004205 0.000000
# 2 -0.000920 0.012487 -0.003149 0.000000 -0.002310 0.000000
# 3 0.002340 -0.003149 0.023509 0.000000 0.007443 0.000000
# 4 0.000000 0.000000 0.000000 0.033824 0.000000 -0.005816
# 5 0.004205 -0.002310 0.007443 0.000000 0.032557 0.000000
# 6 0.000000 0.000000 0.000000 -0.005816 0.000000 0.026944
#
#
# Mechanical properties :
#
#
# Convention : Reuss Voigt Hill
#
# Bulk Modulus (GPa) = 23.44577 27.96292 25.70435
# Shear Modulus (GPa) = 31.82485 36.03396 33.92940
#
# Velocity S-wave (km/s) = 3.72790 3.96678 3.84919
# Velocity P-wave (km/s) = 5.36358 5.76119 5.56593
#
# Compressibility (1/GPa) = 0.04265162
#
# Stress axis : x y z
#
# Youngs Moduli (GPa) = 98.87612 80.08277 42.53684
#
# Poissons Ratio (x) = 0.07368 -0.09955
# Poissons Ratio (y) = 0.09098 0.13396
# Poissons Ratio (z) = -0.23140 0.25220
#
# Static dielectric constant tensor:
#      x y z
#    x 1.944220 0.000000 0.091150 
#    y 0.000000 1.897280 0.000000 
#    z 0.091150 0.000000 1.831330 
# 
# From -- ./inp_files/41255.got.cif
#   From: 2010.05.17/outbox.cif.g08.bks.cpg/sg13_21_cif.got.tgz:41255.got - 2010.06.03 16:44:36.
