data_PCOD9238749
_publ_section_title
;
Structure prediction by ZEFSAII (Michael W. Deem and Ramdas Pophale) SiO2 
 PCOD9238749
Probable space group: P 2/C
;
_chemical_formula_sum "Si O2"
_cell_formula_units_Z 28
_cell_length_a 15.886559
_cell_length_b 5.238940
_cell_length_c 18.108910
_cell_angle_alpha 90.000000
_cell_angle_beta 124.454291
_cell_angle_gamma 90.000000
_cell_volume 1242.788448
_symmetry_space_group_name_H-M "P 2/C"
_symmetry_group_IT_number 13
_symmetry_cell_setting 'monoclinic'
loop_
_space_group_symop_operation_xyz
x,y,z
-x,y,1/2-z
-x,-y,-z
x,-y,1/2+z
loop_
_atom_site_type_symbol
_atom_site_label
_atom_site_fract_x
_atom_site_fract_y
_atom_site_fract_z
Si Si1 0.458060 0.507157 0.896269
Si Si2 0.046798 0.624600 0.449888
Si Si3 0.089529 0.249177 0.344060
Si Si4 0.215280 0.558396 0.771034
Si Si5 0.859621 0.937383 0.349596
Si Si6 0.539212 0.004554 0.853414
Si Si7 0.217692 0.029968 0.029933
O O1 0.336807 0.548594 0.837757
O O2 0.492274 0.247966 0.872315
O O3 0.503275 0.746951 0.874982
O O4 0.500000 0.500000 0.000000
O O5 0.035780 0.445902 0.373620
O O6 0.000000 0.500000 0.500000
O O7 0.981226 0.885728 0.408819
O O8 0.166458 0.690580 0.514571
O O9 0.161804 0.397604 0.322873
O O10 0.163290 0.075242 0.429648
O O11 0.000000 0.122150 0.250000
O O12 0.183107 0.289392 0.721204
O O13 0.178359 0.793054 0.700656
O O14 0.819552 0.899609 0.412761
O O15 0.500000 0.009313 0.750000
O O16 0.662033 0.998379 0.915814
#
# Coordination Sequence:
#
# PCOD9238749 Si02
#       7
#     4   4   4   4   4   4   4
#     4  12  27  50  77 111 156 204 256 329 399 467
#     4  12  26  47  74 110 155 202 255 313 382 471
#     4  12  27  46  72 113 151 200 247 313 372 473
#     4  12  27  48  78 108 155 198 257 311 393 453
#     4  12  26  49  74 112 149 203 250 313 381 465
#     4  12  28  51  81 116 152 200 272 330 386 462
#     4  12  28  45  80 105 156 200 262 313 390 446
#
# _framework density 22.529983000000001
#
# number of rings (size 3 to 8) (size 9 to 14) (size 15 to 20)
#    0.000    0.000    2.857    6.429    6.000    0.571 
#    0.000    0.000    0.000    0.000    0.000    0.000 
#    0.000    0.000    0.000    0.000    0.000    0.000 
#
# Total GULP energy -156908.595555 kJ/mol
# GULP energy per Si atom -5603.878413 kJ/mol
# Density = 2.247870 g / cm^3
# Si number density = 22.529983 Si / 1000 Ang^3
#
#
#
# Elastic Constant Matrix: (Units=GPa)
#
#
# Indices 1 2 3 4 5 6 
#
# 1 314.6978 231.0836 200.4323 0.0000 -9.1166 0.0000
# 2 231.0836 318.0663 169.6341 0.0000 -33.9366 0.0000
# 3 200.4323 169.6341 241.0037 0.0000 -19.5450 0.0000
# 4 0.0000 0.0000 0.0000 31.8893 0.0000 0.1365
# 5 -9.1166 -33.9366 -19.5450 0.0000 65.1690 0.0000
# 6 0.0000 0.0000 0.0000 0.1365 0.0000 30.1398
#
#
#
# Elastic Compliance Matrix: (Units=1/GPa)
#
#
# Indices 1 2 3 4 5 6 
#
# 1 0.009716 -0.004663 -0.005007 0.000000 -0.002571 0.000000
# 2 -0.004663 0.007439 -0.001124 0.000000 0.002884 0.000000
# 3 -0.005007 -0.001124 0.009225 0.000000 0.001481 0.000000
# 4 0.000000 0.000000 0.000000 0.031359 0.000000 -0.000142
# 5 -0.002571 0.002884 0.001481 0.000000 0.016931 0.000000
# 6 0.000000 0.000000 0.000000 -0.000142 0.000000 0.033179
#
#
# Mechanical properties :
#
#
# Convention : Reuss Voigt Hill
#
# Bulk Modulus (GPa) = 208.68851 230.67418 219.68134
# Shear Modulus (GPa) = 38.15779 43.61414 40.88596
#
# Velocity S-wave (km/s) = 4.11986 4.40458 4.26459
# Velocity P-wave (km/s) = 10.74519 11.33467 11.04386
#
# Compressibility (1/GPa) = 0.00479183
#
# Stress axis : x y z
#
# Youngs Moduli (GPa) = 102.92202 134.42450 108.40556
#
# Poissons Ratio (x) = 0.62682 0.54277
# Poissons Ratio (y) = 0.47993 0.12187
# Poissons Ratio (z) = 0.51531 0.15112
#
# Static dielectric constant tensor:
#      x y z
#    x 1.830330 0.000000 0.021180 
#    y 0.000000 1.859750 0.000000 
#    z 0.021180 0.000000 1.842950 
# 
# From -- ./inp_files/67618.got.cif
#   From: 2010.05.17/outbox.cif.g08.bks.cpg/sg13_34_cif.got.tgz:67618.got - 2010.06.03 16:44:36.
