data_PCOD9238624
_publ_section_title
;
Structure prediction by ZEFSAII (Michael W. Deem and Ramdas Pophale) SiO2 
 PCOD9238624
Probable space group: P 2/C
;
_chemical_formula_sum "Si O2"
_cell_formula_units_Z 22
_cell_length_a 11.393484
_cell_length_b 5.552779
_cell_length_c 14.792559
_cell_angle_alpha 90.000000
_cell_angle_beta 97.866771
_cell_angle_gamma 90.000000
_cell_volume 927.051264
_symmetry_space_group_name_H-M "P 2/C"
_symmetry_group_IT_number 13
_symmetry_cell_setting 'monoclinic'
loop_
_space_group_symop_operation_xyz
x,y,z
-x,y,1/2-z
-x,-y,-z
x,-y,1/2+z
loop_
_atom_site_type_symbol
_atom_site_label
_atom_site_fract_x
_atom_site_fract_y
_atom_site_fract_z
Si Si1 0.272143 0.803709 0.390563
Si Si2 0.392864 0.989603 0.572627
Si Si3 0.000000 0.323190 0.250000
Si Si4 0.818541 0.961587 0.313665
Si Si5 0.028081 0.639240 0.411799
Si Si6 0.516575 0.491635 0.642847
O O1 0.352396 0.966506 0.464635
O O2 0.145931 0.798757 0.430072
O O3 0.350597 0.562768 0.380257
O O4 0.245079 0.893526 0.286796
O O5 0.278386 0.969426 0.624450
O O6 0.466401 0.746386 0.603490
O O7 0.446132 0.252132 0.601774
O O8 0.092625 0.172009 0.203376
O O9 0.067142 0.474950 0.331856
O O10 0.907925 0.763044 0.364070
O O11 0.000000 0.500000 0.500000
O O12 0.500000 0.492182 0.750000
#
# Coordination Sequence:
#
# PCOD9238624 Si02
#       6
#     4   4   2   4   4   4
#     4  12  26  51  79 109 163 204 262 334 392 473
#     4  12  30  50  80 117 156 210 266 326 396 474
#     4  12  24  44  76 108 162 196 262 320 400 476
#     4  12  27  50  74 122 154 207 266 325 408 478
#     4  12  28  49  77 117 152 210 263 327 400 485
#     4  12  28  53  79 117 157 207 268 324 396 471
#
# _framework density 23.731155999999999
#
# number of rings (size 3 to 8) (size 9 to 14) (size 15 to 20)
#    0.000    0.000    5.455    2.727   10.182    1.455 
#    0.000    0.000    0.000    0.000    0.000    0.000 
#    0.000    0.000    0.000    0.000    0.000    0.000 
#
# Total GULP energy -123085.071631 kJ/mol
# GULP energy per Si atom -5594.775983 kJ/mol
# Density = 2.367714 g / cm^3
# Si number density = 23.731156 Si / 1000 Ang^3
#
#
#
# Elastic Constant Matrix: (Units=GPa)
#
#
# Indices 1 2 3 4 5 6 
#
# 1 123.4437 42.3726 51.8908 0.0000 -8.2713 0.0000
# 2 42.3726 112.4910 65.2164 0.0000 23.7242 0.0000
# 3 51.8908 65.2164 186.2037 0.0000 17.4412 0.0000
# 4 0.0000 0.0000 0.0000 27.8910 0.0000 -24.7247
# 5 -8.2713 23.7242 17.4412 0.0000 49.0270 0.0000
# 6 0.0000 0.0000 0.0000 -24.7247 0.0000 -13.5158
#
#
#
# Elastic Compliance Matrix: (Units=1/GPa)
#
#
# Indices 1 2 3 4 5 6 
#
# 1 0.010508 -0.003677 -0.002041 0.000000 0.004278 0.000000
# 2 -0.003677 0.013320 -0.003081 0.000000 -0.005970 0.000000
# 3 -0.002041 -0.003081 0.007149 0.000000 -0.001397 0.000000
# 4 0.000000 0.000000 0.000000 0.013676 0.000000 -0.025018
# 5 0.004278 -0.005970 -0.001397 0.000000 0.024504 0.000000
# 6 0.000000 0.000000 0.000000 -0.025018 0.000000 -0.028222
#
#
# Mechanical properties :
#
#
# Convention : Reuss Voigt Hill
#
# Bulk Modulus (GPa) = 74.74886 82.34423 78.54655
# Shear Modulus (GPa) = 79.37284 30.19101 54.78193
#
# Velocity S-wave (km/s) = 5.78958 3.57067 4.80983
# Velocity P-wave (km/s) = 8.73264 7.19540 8.00102
#
# Compressibility (1/GPa) = 0.01337813
#
# Stress axis : x y z
#
# Youngs Moduli (GPa) = 95.16884 75.07501 139.87275
#
# Poissons Ratio (x) = 0.27604 0.28551
# Poissons Ratio (y) = 0.34992 0.43101
# Poissons Ratio (z) = 0.19426 0.23134
#
# Static dielectric constant tensor:
#      x y z
#    x 1.725450 0.000000 0.072160 
#    y 0.000000 1.952810 0.000000 
#    z 0.072160 0.000000 1.856220 
# 
# From -- ./inp_files/49019.got.cif
#   From: 2010.05.17/outbox.cif.g08.bks.cpg/sg13_25_cif.got.tgz:49019.got - 2010.06.03 16:44:36.
