data_PCOD9238259
_publ_section_title
;
Structure prediction by ZEFSAII (Michael W. Deem and Ramdas Pophale) SiO2 
 PCOD9238259
Probable space group: P 2/C
;
_chemical_formula_sum "Si O2"
_cell_formula_units_Z 28
_cell_length_a 6.805553
_cell_length_b 12.518525
_cell_length_c 18.186699
_cell_angle_alpha 90.000000
_cell_angle_beta 111.975220
_cell_angle_gamma 90.000000
_cell_volume 1436.852413
_symmetry_space_group_name_H-M "P 2/C"
_symmetry_group_IT_number 13
_symmetry_cell_setting 'monoclinic'
loop_
_space_group_symop_operation_xyz
x,y,z
-x,y,1/2-z
-x,-y,-z
x,-y,1/2+z
loop_
_atom_site_type_symbol
_atom_site_label
_atom_site_fract_x
_atom_site_fract_y
_atom_site_fract_z
Si Si1 0.258178 0.963553 0.962404
Si Si2 0.765956 0.867727 0.691067
Si Si3 0.666629 0.536446 0.962403
Si Si4 0.000000 0.473154 0.750000
Si Si5 0.081987 0.622917 0.102616
Si Si6 0.616177 0.632273 0.691067
Si Si7 0.876757 0.122917 0.897385
Si Si8 0.500000 0.973153 0.250000
O O1 0.238822 0.873709 0.897306
O O2 0.194305 0.918423 0.032461
O O3 0.097430 0.058811 0.915678
O O4 0.500000 0.000000 0.000000
O O5 0.711047 0.750000 0.711048
O O6 0.599521 0.950871 0.701392
O O7 0.000000 0.897356 0.750000
O O8 0.733921 0.441187 0.915676
O O9 0.555791 0.626291 0.897306
O O10 0.500000 0.500000 0.000000
O O11 0.870618 0.581574 0.032460
O O12 0.066765 0.408125 0.686621
O O13 0.196738 0.549130 0.798608
O O14 0.098213 0.750000 0.098217
O O15 0.500000 0.602644 0.750000
O O16 0.693524 0.091876 0.813379
#
# Coordination Sequence:
#
# PCOD9238259 Si02
#       8
#     4   4   4   2   4   4   4   2
#     4  11  25  45  68  99 139 171 225 282 333 401
#     4  12  25  42  70 100 133 177 221 279 341 391
#     4  11  25  45  68  99 139 171 225 282 333 401
#     4  12  24  46  64 100 140 170 230 278 324 410
#     4  11  27  44  69 101 135 179 226 275 336 402
#     4  12  25  42  70 100 133 177 221 279 341 391
#     4  11  27  44  69 101 135 179 226 275 336 402
#     4  12  24  46  64 100 140 170 230 278 324 410
#
# _framework density 19.48704
#
# number of rings (size 3 to 8) (size 9 to 14) (size 15 to 20)
#    0.000    0.571    7.143    0.000    4.000    3.429 
#    0.000    0.000    0.000    0.000    0.000    0.000 
#    0.000    0.000    0.000    0.000    0.000    0.000 
#
# Total GULP energy -156499.182490 kJ/mol
# GULP energy per Si atom -5589.256518 kJ/mol
# Density = 1.944269 g / cm^3
# Si number density = 19.487040 Si / 1000 Ang^3
#
#
#
# Elastic Constant Matrix: (Units=GPa)
#
#
# Indices 1 2 3 4 5 6 
#
# 1 116.9753 42.2264 30.4061 0.0000 0.4637 0.0000
# 2 42.2264 118.8439 20.2322 0.0000 0.7516 0.0000
# 3 30.4061 20.2322 104.4595 0.0000 -0.0356 0.0000
# 4 0.0000 0.0000 0.0000 26.2061 0.0000 -0.1748
# 5 0.4637 0.7516 -0.0356 0.0000 36.5157 0.0000
# 6 0.0000 0.0000 0.0000 -0.1748 0.0000 21.0866
#
#
#
# Elastic Compliance Matrix: (Units=1/GPa)
#
#
# Indices 1 2 3 4 5 6 
#
# 1 0.010348 -0.003272 -0.002379 0.000000 -0.000066 0.000000
# 2 -0.003272 0.009737 -0.000934 0.000000 -0.000160 0.000000
# 3 -0.002379 -0.000934 0.010446 0.000000 0.000060 0.000000
# 4 0.000000 0.000000 0.000000 0.038161 0.000000 0.000316
# 5 -0.000066 -0.000160 0.000060 0.000000 0.027390 0.000000
# 6 0.000000 0.000000 0.000000 0.000316 0.000000 0.047426
#
#
# Mechanical properties :
#
#
# Convention : Reuss Voigt Hill
#
# Bulk Modulus (GPa) = 57.59067 58.44534 58.01800
# Shear Modulus (GPa) = 30.77610 33.25595 32.01602
#
# Velocity S-wave (km/s) = 3.97837 4.13554 4.05772
# Velocity P-wave (km/s) = 7.12184 7.27053 7.19657
#
# Compressibility (1/GPa) = 0.01736392
#
# Stress axis : x y z
#
# Youngs Moduli (GPa) = 96.63408 102.70368 95.72769
#
# Poissons Ratio (x) = 0.33600 0.22770
# Poissons Ratio (y) = 0.31614 0.08938
# Poissons Ratio (z) = 0.22985 0.09589
#
# Static dielectric constant tensor:
#      x y z
#    x 1.724350 0.000000 0.001280 
#    y 0.000000 1.653270 0.000000 
#    z 0.001280 0.000000 1.687090 
# 
# From -- ./inp_files/73701.got.cif
#   From: 2010.05.17/outbox.cif.g08.bks.cpg/sg13_37_cif.got.tgz:73701.got - 2010.06.03 16:44:36.
