data_PCOD9238385
_publ_section_title
;
Structure prediction by ZEFSAII (Michael W. Deem and Ramdas Pophale) SiO2 
 PCOD9238385
Probable space group: P 2/C
;
_chemical_formula_sum "Si O2"
_cell_formula_units_Z 18
_cell_length_a 14.811092
_cell_length_b 6.927794
_cell_length_c 13.743860
_cell_angle_alpha 90.000000
_cell_angle_beta 37.797786
_cell_angle_gamma 90.000000
_cell_volume 864.298484
_symmetry_space_group_name_H-M "P 2/C"
_symmetry_group_IT_number 13
_symmetry_cell_setting 'monoclinic'
loop_
_space_group_symop_operation_xyz
x,y,z
-x,y,1/2-z
-x,-y,-z
x,-y,1/2+z
loop_
_atom_site_type_symbol
_atom_site_label
_atom_site_fract_x
_atom_site_fract_y
_atom_site_fract_z
Si Si1 0.564112 0.971257 0.801607
Si Si2 0.903151 0.058992 0.987371
Si Si3 0.591484 0.694101 0.413983
Si Si4 0.076167 0.432288 0.834817
Si Si5 0.000000 0.247913 0.250000
O O1 0.500000 0.952885 0.750000
O O2 0.734724 0.907771 0.661294
O O3 0.562401 0.191748 0.839215
O O4 0.464501 0.841084 0.956206
O O5 0.974830 0.254997 0.886027
O O6 0.910085 0.892452 0.899251
O O7 0.000000 0.000000 0.000000
O O8 0.500000 0.500000 0.500000
O O9 0.762629 0.648014 0.280188
O O10 0.084991 0.607591 0.750705
O O11 0.000000 0.500000 0.000000
#
# Coordination Sequence:
#
# PCOD9238385 Si02
#       5
#     4   4   4   4   2
#     4  11  27  45  70 103 144 190 235 291 366 426
#     4  12  25  48  72 101 145 188 240 305 359 430
#     4  11  26  46  71 102 147 183 233 302 357 423
#     4  12  25  48  75 109 139 187 247 298 359 438
#     4  12  28  40  80 100 140 188 248 294 366 424
#
# _framework density 20.826139000000001
#
# number of rings (size 3 to 8) (size 9 to 14) (size 15 to 20)
#    0.000    0.444    4.444    2.000    9.333    0.889 
#    0.000    0.000    0.000    0.000    0.000    0.000 
#    0.000    0.000    0.000    0.000    0.000    0.000 
#
# Total GULP energy -100712.792558 kJ/mol
# GULP energy per Si atom -5595.155142 kJ/mol
# Density = 2.077874 g / cm^3
# Si number density = 20.826139 Si / 1000 Ang^3
#
#
#
# Elastic Constant Matrix: (Units=GPa)
#
#
# Indices 1 2 3 4 5 6 
#
# 1 99.0804 21.1404 53.0434 0.0000 4.7523 0.0000
# 2 21.1404 121.8216 37.8343 0.0000 -4.9779 0.0000
# 3 53.0434 37.8343 131.6176 0.0000 -20.2180 0.0000
# 4 0.0000 0.0000 0.0000 44.4951 0.0000 3.7863
# 5 4.7523 -4.9779 -20.2180 0.0000 42.8310 0.0000
# 6 0.0000 0.0000 0.0000 3.7863 0.0000 33.8343
#
#
#
# Elastic Compliance Matrix: (Units=1/GPa)
#
#
# Indices 1 2 3 4 5 6 
#
# 1 0.013656 -0.000692 -0.005983 0.000000 -0.004420 0.000000
# 2 -0.000692 0.009050 -0.002317 0.000000 0.000035 0.000000
# 3 -0.005983 -0.002317 0.011575 0.000000 0.005859 0.000000
# 4 0.000000 0.000000 0.000000 0.022690 0.000000 -0.002539
# 5 -0.004420 0.000035 0.005859 0.000000 0.026608 0.000000
# 6 0.000000 0.000000 0.000000 -0.002539 0.000000 0.029840
#
#
# Mechanical properties :
#
#
# Convention : Reuss Voigt Hill
#
# Bulk Modulus (GPa) = 61.36700 64.06176 62.71438
# Shear Modulus (GPa) = 36.54009 40.26552 38.40280
#
# Velocity S-wave (km/s) = 4.19326 4.40183 4.29881
# Velocity P-wave (km/s) = 7.27838 7.52741 7.40394
#
# Compressibility (1/GPa) = 0.01629540
#
# Stress axis : x y z
#
# Youngs Moduli (GPa) = 73.22916 110.49847 86.39164
#
# Poissons Ratio (x) = 0.07648 0.51692
# Poissons Ratio (y) = 0.05068 0.20019
# Poissons Ratio (z) = 0.43816 0.25605
#
# Static dielectric constant tensor:
#      x y z
#    x 1.722810 0.000000 0.026890 
#    y 0.000000 1.762600 0.000000 
#    z 0.026890 0.000000 1.737640 
# 
# From -- ./inp_files/52023.got.cif
#   From: 2010.05.17/outbox.cif.g08.bks.cpg/sg13_27_cif.got.tgz:52023.got - 2010.06.03 16:44:36.
