data_PCOD9238917
_publ_section_title
;
Structure prediction by ZEFSAII (Michael W. Deem and Ramdas Pophale) SiO2 
 PCOD9238917
Probable space group: P 2/C
;
_chemical_formula_sum "Si O2"
_cell_formula_units_Z 32
_cell_length_a 12.000000
_cell_length_b 15.000000
_cell_length_c 9.000000
_cell_angle_alpha 90.000000
_cell_angle_beta 90.000000
_cell_angle_gamma 90.000000
_cell_volume 1620.000000
_symmetry_space_group_name_H-M "P 2/C"
_symmetry_group_IT_number 13
_symmetry_cell_setting 'monoclinic'
loop_
_space_group_symop_operation_xyz
x,y,z
-x,y,1/2-z
-x,-y,-z
x,-y,1/2+z
loop_
_atom_site_type_symbol
_atom_site_label
_atom_site_fract_x
_atom_site_fract_y
_atom_site_fract_z
Si Si1 0.487955 0.138236 0.493177
Si Si2 0.323582 0.729029 0.496651
Si Si3 0.350485 0.999167 0.648879
Si Si4 0.805404 0.981028 0.108207
Si Si5 0.308504 0.265508 0.354070
Si Si6 0.076161 0.831590 0.887231
Si Si7 0.483335 0.404226 0.427965
Si Si8 0.902989 0.793568 0.143651
O O1 0.594313 0.191826 0.556582
O O2 0.401672 0.094672 0.607891
O O3 0.410835 0.200233 0.391843
O O4 0.551999 0.065841 0.396740
O O5 0.297255 0.734158 0.674274
O O6 0.414068 0.649396 0.495406
O O7 0.205377 0.735704 0.408584
O O8 0.312312 0.994493 0.816666
O O9 0.236303 0.971667 0.561485
O O10 0.850038 0.890763 0.184779
O O11 0.885545 0.065401 0.123329
O O12 0.189329 0.226840 0.408948
O O13 0.360768 0.355105 0.432039
O O14 0.000000 0.802650 0.750000
O O15 0.985221 0.822469 0.013474
O O16 0.500000 0.407345 0.250000
O O17 0.500000 0.500000 0.500000
O O18 0.000000 0.753104 0.250000
#
# Coordination Sequence:
#
# PCOD9238917 Si02
#       8
#     4   4   4   4   4   4   4   4
#     4  10  20  34  55  84 109 152 202 259 297 350
#     4  10  20  40  62  90 116 159 195 239 294 361
#     4  11  23  33  54  77 118 151 205 259 313 348
#     4  12  23  39  50  79 117 164 217 260 296 340
#     4  10  20  37  67  89 115 151 207 238 288 359
#     4  12  22  39  61  79 113 167 222 250 284 340
#     4   9  20  41  71 102 126 145 178 234 301 374
#     4  12  25  40  54  82 125 162 207 261 296 330
#
# _framework density 19.753086
#
# number of rings (size 3 to 8) (size 9 to 14) (size 15 to 20)
#    0.000    1.250    3.750    4.125    1.750    1.500 
#    2.250    0.000    0.000    1.500    0.000    0.000 
#    0.000    0.000    0.000    0.000    0.000    0.000 
#
# Total GULP energy -178264.782139 kJ/mol
# GULP energy per Si atom -5570.774442 kJ/mol
# Density = 1.970813 g / cm^3
# Si number density = 19.753086 Si / 1000 Ang^3
#
#
#
# Elastic Constant Matrix: (Units=GPa)
#
#
# Indices 1 2 3 4 5 6 
#
# 1 147.1833 30.0582 17.0805 0.0000 38.7143 0.0000
# 2 30.0582 77.0773 11.4589 0.0000 20.4344 0.0000
# 3 17.0805 11.4589 29.4502 0.0000 14.5307 0.0000
# 4 0.0000 0.0000 0.0000 20.3597 0.0000 6.0595
# 5 38.7143 20.4344 14.5307 0.0000 37.3384 0.0000
# 6 0.0000 0.0000 0.0000 6.0595 0.0000 20.2608
#
#
#
# Elastic Compliance Matrix: (Units=1/GPa)
#
#
# Indices 1 2 3 4 5 6 
#
# 1 0.009456 -0.001240 -0.000618 0.000000 -0.008886 0.000000
# 2 -0.001240 0.015458 -0.002173 0.000000 -0.006329 0.000000
# 3 -0.000618 -0.002173 0.042397 0.000000 -0.014670 0.000000
# 4 0.000000 0.000000 0.000000 0.053916 0.000000 -0.016125
# 5 -0.008886 -0.006329 -0.014670 0.000000 0.045168 0.000000
# 6 0.000000 0.000000 0.000000 -0.016125 0.000000 0.054179
#
#
# Mechanical properties :
#
#
# Convention : Reuss Voigt Hill
#
# Bulk Modulus (GPa) = 16.87752 41.21179 29.04466
# Shear Modulus (GPa) = 20.12987 28.59932 24.36460
#
# Velocity S-wave (km/s) = 3.19576 3.80918 3.51587
# Velocity P-wave (km/s) = 4.70956 6.34470 5.58727
#
# Compressibility (1/GPa) = 0.05925042
#
# Stress axis : x y z
#
# Youngs Moduli (GPa) = 105.74743 64.68943 23.58633
#
# Poissons Ratio (x) = 0.08023 0.01457
# Poissons Ratio (y) = 0.13115 0.05125
# Poissons Ratio (z) = 0.06533 0.14057
#
# Static dielectric constant tensor:
#      x y z
#    x 1.704140 0.000000 0.009310 
#    y 0.000000 1.771670 0.000000 
#    z 0.009310 0.000000 1.532450 
# 
# From -- ./inp_files/16800.got.cif
#   From: 2010.05.17/outbox.ucp.g08.bks.cvg/sg13_9_cif.got.tgz:16800.got - 2010.06.11 12:23:55.
