data_PCOD9238615
_publ_section_title
;
Structure prediction by ZEFSAII (Michael W. Deem and Ramdas Pophale) SiO2 
 PCOD9238615
Probable space group: P 2/C
;
_chemical_formula_sum "Si O2"
_cell_formula_units_Z 22
_cell_length_a 11.842507
_cell_length_b 10.555850
_cell_length_c 11.794348
_cell_angle_alpha 90.000000
_cell_angle_beta 42.079654
_cell_angle_gamma 90.000000
_cell_volume 988.078178
_symmetry_space_group_name_H-M "P 2/C"
_symmetry_group_IT_number 13
_symmetry_cell_setting 'monoclinic'
loop_
_space_group_symop_operation_xyz
x,y,z
-x,y,1/2-z
-x,-y,-z
x,-y,1/2+z
loop_
_atom_site_type_symbol
_atom_site_label
_atom_site_fract_x
_atom_site_fract_y
_atom_site_fract_z
Si Si1 0.715194 0.150902 0.444653
Si Si2 0.263663 0.655362 0.371023
Si Si3 0.500000 0.436674 0.250000
Si Si4 0.304443 0.882802 0.933745
Si Si5 0.428832 0.733194 0.021241
Si Si6 0.041362 0.150174 0.442037
O O1 0.690544 0.262301 0.552721
O O2 0.560023 0.163220 0.472630
O O3 0.875190 0.155652 0.244091
O O4 0.724826 0.028279 0.515686
O O5 0.325077 0.517371 0.370578
O O6 0.094324 0.734591 0.459746
O O7 0.367570 0.661192 0.177075
O O8 0.507347 0.357119 0.127237
O O9 0.500000 0.874829 0.750000
O O10 0.282051 0.811291 0.069191
O O11 0.183355 0.825161 0.930677
O O12 0.000000 0.000000 0.500000
#
# Coordination Sequence:
#
# PCOD9238615 Si02
#       6
#     4   4   2   4   4   4
#     4  12  24  44  74 110 147 191 244 307 383 448
#     4  12  26  43  75 104 147 197 244 304 379 430
#     4  12  26  50  76 106 146 210 260 308 356 456
#     4  12  24  43  75 108 147 191 244 306 384 447
#     4  12  24  48  74 105 141 195 259 301 363 453
#     4  12  26  45  69 112 152 186 241 310 377 453
#
# _framework density 22.265443999999999
#
# number of rings (size 3 to 8) (size 9 to 14) (size 15 to 20)
#    0.000    0.000    6.364    3.818    0.000    2.182 
#    0.000    3.636    8.000    0.000    0.000    0.000 
#    0.000    0.000    0.000    0.000    0.000    0.000 
#
# Total GULP energy -122527.482590 kJ/mol
# GULP energy per Si atom -5569.431027 kJ/mol
# Density = 2.221477 g / cm^3
# Si number density = 22.265444 Si / 1000 Ang^3
#
#
#
# Elastic Constant Matrix: (Units=GPa)
#
#
# Indices 1 2 3 4 5 6 
#
# 1 156.4220 2.9506 48.9835 0.0000 -0.6852 0.0000
# 2 2.9506 71.5859 38.4021 0.0000 -2.9686 0.0000
# 3 48.9835 38.4021 91.3831 0.0000 24.3955 0.0000
# 4 0.0000 0.0000 0.0000 0.2025 0.0000 22.7231
# 5 -0.6852 -2.9686 24.3955 0.0000 41.4823 0.0000
# 6 0.0000 0.0000 0.0000 22.7231 0.0000 26.9260
#
#
#
# Elastic Compliance Matrix: (Units=1/GPa)
#
#
# Indices 1 2 3 4 5 6 
#
# 1 0.008740 0.003956 -0.007665 0.000000 0.004935 0.000000
# 2 0.003956 0.021612 -0.013800 0.000000 0.009728 0.000000
# 3 -0.007665 -0.013800 0.025087 0.000000 -0.015868 0.000000
# 4 0.000000 0.000000 0.000000 -0.052704 0.000000 0.044478
# 5 0.004935 0.009728 -0.015868 0.000000 0.034216 0.000000
# 6 0.000000 0.000000 0.000000 0.044478 0.000000 -0.000396
#
#
# Mechanical properties :
#
#
# Convention : Reuss Voigt Hill
#
# Bulk Modulus (GPa) = 48.96605 55.56258 52.26431
# Shear Modulus (GPa) = 63.79254 28.99248 46.39251
#
# Velocity S-wave (km/s) = 5.35846 3.61242 4.56961
# Velocity P-wave (km/s) = 7.76684 6.51216 7.16701
#
# Compressibility (1/GPa) = 0.02042231
#
# Stress axis : x y z
#
# Youngs Moduli (GPa) = 114.41291 46.26960 39.86172
#
# Poissons Ratio (x) = -0.18306 0.30554
# Poissons Ratio (y) = -0.45266 0.55008
# Poissons Ratio (z) = 0.87699 0.63851
#
# Static dielectric constant tensor:
#      x y z
#    x 1.917090 0.000000 -0.043370 
#    y 0.000000 1.904180 0.000000 
#    z -0.043370 0.000000 1.860760 
# 
# From -- ./inp_files/33615.got.cif
#   From: 2010.05.17/outbox.cif.g08.bks.cpg/sg13_17_cif.got.tgz:33615.got - 2010.06.03 16:44:36.
