data_PCOD9238797
_publ_section_title
;
Structure prediction by ZEFSAII (Michael W. Deem and Ramdas Pophale) SiO2 
 PCOD9238797
Probable space group: P 2/C
;
_chemical_formula_sum "Si O2"
_cell_formula_units_Z 18
_cell_length_a 10.058682
_cell_length_b 5.071598
_cell_length_c 16.754418
_cell_angle_alpha 90.000000
_cell_angle_beta 46.448412
_cell_angle_gamma 90.000000
_cell_volume 619.449697
_symmetry_space_group_name_H-M "P 2/C"
_symmetry_group_IT_number 13
_symmetry_cell_setting 'monoclinic'
loop_
_space_group_symop_operation_xyz
x,y,z
-x,y,1/2-z
-x,-y,-z
x,-y,1/2+z
loop_
_atom_site_type_symbol
_atom_site_label
_atom_site_fract_x
_atom_site_fract_y
_atom_site_fract_z
Si Si1 0.006109 0.646019 0.581039
Si Si2 0.368799 0.328783 0.461595
Si Si3 0.293521 0.654092 0.215830
Si Si4 0.500000 0.954522 0.750000
Si Si5 0.092198 0.942914 0.154423
O O1 0.179077 0.493028 0.549906
O O2 0.000000 0.500000 0.500000
O O3 0.809153 0.580623 0.697784
O O4 0.044666 0.950035 0.582945
O O5 0.542649 0.517651 0.399956
O O6 0.311421 0.095899 0.545681
O O7 0.397025 0.215649 0.360454
O O8 0.375113 0.852243 0.247430
O O9 0.123712 0.792615 0.239026
O O10 0.000000 0.176826 0.250000
#
# Coordination Sequence:
#
# PCOD9238797 Si02
#       5
#     4   4   4   2   4
#     4  12  28  51  82 119 171 227 285 345 420 507
#     4  12  27  50  81 120 166 226 281 351 421 501
#     4  12  28  53  82 122 173 216 289 351 421 506
#     4  12  28  52  84 124 162 236 284 344 426 500
#     4  12  29  50  81 124 165 221 280 349 424 499
#
# _framework density 29.058052
#
# number of rings (size 3 to 8) (size 9 to 14) (size 15 to 20)
#    0.000    0.000    2.222    6.667    9.333    5.333 
#    0.000    0.000    0.000    0.000    0.000    0.000 
#    0.000    0.000    0.000    0.000    0.000    0.000 
#
# Total GULP energy -100409.197413 kJ/mol
# GULP energy per Si atom -5578.288745 kJ/mol
# Density = 2.899191 g / cm^3
# Si number density = 29.058052 Si / 1000 Ang^3
#
#
#
# Elastic Constant Matrix: (Units=GPa)
#
#
# Indices 1 2 3 4 5 6 
#
# 1 202.4872 63.9796 65.7545 0.0000 -20.1562 0.0000
# 2 63.9796 111.6416 72.3416 0.0000 -9.9495 0.0000
# 3 65.7545 72.3416 254.3476 0.0000 -17.4820 0.0000
# 4 0.0000 0.0000 0.0000 53.4388 0.0000 -8.5550
# 5 -20.1562 -9.9495 -17.4820 0.0000 55.4119 0.0000
# 6 0.0000 0.0000 0.0000 -8.5550 0.0000 70.6115
#
#
#
# Elastic Compliance Matrix: (Units=1/GPa)
#
#
# Indices 1 2 3 4 5 6 
#
# 1 0.006259 -0.003029 -0.000652 0.000000 0.001527 0.000000
# 2 -0.003029 0.012502 -0.002754 0.000000 0.000274 0.000000
# 3 -0.000652 -0.002754 0.004940 0.000000 0.000827 0.000000
# 4 0.000000 0.000000 0.000000 0.019083 0.000000 0.002312
# 5 0.001527 0.000274 0.000827 0.000000 0.018912 0.000000
# 6 0.000000 0.000000 0.000000 0.002312 0.000000 0.014442
#
#
# Mechanical properties :
#
#
# Convention : Reuss Voigt Hill
#
# Bulk Modulus (GPa) = 92.31355 108.06975 100.19165
# Shear Modulus (GPa) = 53.98495 60.31917 57.15206
#
# Velocity S-wave (km/s) = 4.31493 4.56106 4.43970
# Velocity P-wave (km/s) = 7.52745 8.06284 7.79974
#
# Compressibility (1/GPa) = 0.01083265
#
# Stress axis : x y z
#
# Youngs Moduli (GPa) = 159.76451 79.98848 202.41881
#
# Poissons Ratio (x) = 0.24225 0.13193
# Poissons Ratio (y) = 0.48386 0.55745
# Poissons Ratio (z) = 0.10413 0.22029
#
# Static dielectric constant tensor:
#      x y z
#    x 2.524880 0.000000 0.142040 
#    y 0.000000 2.834600 0.000000 
#    z 0.142040 0.000000 2.154910 
# 
# From -- ./inp_files/77102.got.cif
#   From: 2010.05.17/outbox.cif.g08.bks.cpg/sg13_39_cif.got.tgz:77102.got - 2010.06.03 16:44:36.
