data_PCOD9238205
_publ_section_title
;
Structure prediction by ZEFSAII (Michael W. Deem and Ramdas Pophale) SiO2 
 PCOD9238205
Probable space group: P 2/C
;
_chemical_formula_sum "Si O2"
_cell_formula_units_Z 20
_cell_length_a 8.464855
_cell_length_b 11.910423
_cell_length_c 9.367659
_cell_angle_alpha 90.000000
_cell_angle_beta 85.518378
_cell_angle_gamma 90.000000
_cell_volume 941.559718
_symmetry_space_group_name_H-M "P 2/C"
_symmetry_group_IT_number 13
_symmetry_cell_setting 'monoclinic'
loop_
_space_group_symop_operation_xyz
x,y,z
-x,y,1/2-z
-x,-y,-z
x,-y,1/2+z
loop_
_atom_site_type_symbol
_atom_site_label
_atom_site_fract_x
_atom_site_fract_y
_atom_site_fract_z
Si Si1 0.605646 0.932639 0.379975
Si Si2 0.642040 0.291859 0.038982
Si Si3 0.278683 0.702678 0.639036
Si Si4 0.884882 0.534169 0.382140
Si Si5 0.098896 0.918945 0.604083
O O1 0.500000 0.913499 0.250000
O O2 0.661488 0.817964 0.443928
O O3 0.500000 0.000000 0.500000
O O4 0.758244 0.007202 0.344436
O O5 0.694112 0.263369 0.197375
O O6 0.453352 0.316122 0.059825
O O7 0.748766 0.386408 0.956625
O O8 0.192532 0.583506 0.658721
O O9 0.181231 0.798491 0.557854
O O10 0.000000 0.582122 0.250000
O O11 0.000000 0.500000 0.500000
O O12 0.000000 0.888314 0.750000
O O13 0.000000 0.000000 0.500000
#
# Coordination Sequence:
#
# PCOD9238205 Si02
#       5
#     4   4   4   4   4
#     4  12  25  47  72 107 148 192 245 304 362 449
#     4  11  25  46  77 104 145 198 246 298 370 443
#     4  11  24  48  73 103 146 196 245 298 370 449
#     4  12  26  47  74 107 149 187 244 309 374 433
#     4  12  26  43  73 106 146 192 243 301 376 432
#
# _framework density 21.241350000000001
#
# number of rings (size 3 to 8) (size 9 to 14) (size 15 to 20)
#    0.000    0.400    4.000    4.800    2.800    2.400 
#    3.600    0.000    0.000    0.000    0.000    0.000 
#    0.000    0.000    0.000    0.000    0.000    0.000 
#
# Total GULP energy -111738.380397 kJ/mol
# GULP energy per Si atom -5586.919020 kJ/mol
# Density = 2.119300 g / cm^3
# Si number density = 21.241350 Si / 1000 Ang^3
#
#
#
# Elastic Constant Matrix: (Units=GPa)
#
#
# Indices 1 2 3 4 5 6 
#
# 1 124.1357 60.5864 36.3218 0.0000 -23.8215 0.0000
# 2 60.5864 126.5735 31.3186 0.0000 -1.1185 0.0000
# 3 36.3218 31.3186 83.0093 0.0000 -10.0404 0.0000
# 4 0.0000 0.0000 0.0000 26.7780 0.0000 -3.6637
# 5 -23.8215 -1.1185 -10.0404 0.0000 35.8609 0.0000
# 6 0.0000 0.0000 0.0000 -3.6637 0.0000 52.2711
#
#
#
# Elastic Compliance Matrix: (Units=1/GPa)
#
#
# Indices 1 2 3 4 5 6 
#
# 1 0.013001 -0.005491 -0.002684 0.000000 0.007714 0.000000
# 2 -0.005491 0.011049 -0.002241 0.000000 -0.003930 0.000000
# 3 -0.002684 -0.002241 0.014328 0.000000 0.002159 0.000000
# 4 0.000000 0.000000 0.000000 0.037706 0.000000 0.002643
# 5 0.007714 -0.003930 0.002159 0.000000 0.033491 0.000000
# 6 0.000000 0.000000 0.000000 0.002643 0.000000 0.019316
#
#
# Mechanical properties :
#
#
# Convention : Reuss Voigt Hill
#
# Bulk Modulus (GPa) = 56.99591 65.57467 61.28529
# Shear Modulus (GPa) = 32.13933 36.68146 34.41039
#
# Velocity S-wave (km/s) = 3.89402 4.16009 4.02925
# Velocity P-wave (km/s) = 6.86357 7.34938 7.11063
#
# Compressibility (1/GPa) = 0.01754512
#
# Stress axis : x y z
#
# Youngs Moduli (GPa) = 76.91562 90.50818 69.79303
#
# Poissons Ratio (x) = 0.49697 0.18734
# Poissons Ratio (y) = 0.42234 0.15643
# Poissons Ratio (z) = 0.20646 0.20286
#
# Static dielectric constant tensor:
#      x y z
#    x 1.815920 0.000000 -0.055330 
#    y 0.000000 1.749160 0.000000 
#    z -0.055330 0.000000 1.737300 
# 
# From -- ./inp_files/11685.got.cif
#   From: 2010.05.17/outbox.cif.g08.bks.cpg/sg13_6_cif.got.tgz:11685.got - 2010.06.03 16:44:36.
