data_PCOD9238726
_publ_section_title
;
Structure prediction by ZEFSAII (Michael W. Deem and Ramdas Pophale) SiO2 
 PCOD9238726
Probable space group: P 2/C
;
_chemical_formula_sum "Si O2"
_cell_formula_units_Z 14
_cell_length_a 14.860537
_cell_length_b 7.913190
_cell_length_c 14.276457
_cell_angle_alpha 90.000000
_cell_angle_beta 19.508455
_cell_angle_gamma 90.000000
_cell_volume 560.638258
_symmetry_space_group_name_H-M "P 2/C"
_symmetry_group_IT_number 13
_symmetry_cell_setting 'monoclinic'
loop_
_space_group_symop_operation_xyz
x,y,z
-x,y,1/2-z
-x,-y,-z
x,-y,1/2+z
loop_
_atom_site_type_symbol
_atom_site_label
_atom_site_fract_x
_atom_site_fract_y
_atom_site_fract_z
Si Si1 0.500000 0.000000 0.000000
Si Si2 0.084183 0.530890 0.810163
Si Si3 0.406305 0.752510 0.241171
Si Si4 0.247373 0.170655 0.566012
O O1 0.687647 0.115887 0.744556
O O2 0.666879 0.062802 0.928816
O O3 0.340580 0.654651 0.553701
O O4 0.154945 0.352981 0.694889
O O5 0.000000 0.500000 0.000000
O O6 0.830369 0.618677 0.010059
O O7 0.500000 0.819749 0.250000
O O8 0.000000 0.094759 0.750000
O O9 0.500000 0.197880 0.250000
#
# Coordination Sequence:
#
# PCOD9238726 Si02
#       4
#     2   4   4   4
#     4  12  30  50  78 114 166 198 256 314 398 468
#     4  12  25  50  79 110 149 199 260 321 371 449
#     4  12  27  49  76 111 153 200 253 315 383 453
#     4  12  28  50  80 116 156 206 262 319 391 459
#
# _framework density 24.971537999999999
#
# number of rings (size 3 to 8) (size 9 to 14) (size 15 to 20)
#    0.000    0.000    2.857    6.857    4.000    6.857 
#    0.000    0.000    0.000    0.000    0.000    0.000 
#    0.000    0.000    0.000    0.000    0.000    0.000 
#
# Total GULP energy -78108.138357 kJ/mol
# GULP energy per Si atom -5579.152740 kJ/mol
# Density = 2.491470 g / cm^3
# Si number density = 24.971538 Si / 1000 Ang^3
#
#
#
# Elastic Constant Matrix: (Units=GPa)
#
#
# Indices 1 2 3 4 5 6 
#
# 1 259.3053 45.7586 68.8233 0.0000 22.6229 0.0000
# 2 45.7586 71.6001 32.9498 0.0000 4.4136 0.0000
# 3 68.8233 32.9498 164.2662 0.0000 11.3825 0.0000
# 4 0.0000 0.0000 0.0000 34.0423 0.0000 -5.1201
# 5 22.6229 4.4136 11.3825 0.0000 28.3737 0.0000
# 6 0.0000 0.0000 0.0000 -5.1201 0.0000 2.9150
#
#
#
# Elastic Compliance Matrix: (Units=1/GPa)
#
#
# Indices 1 2 3 4 5 6 
#
# 1 0.004890 -0.002306 -0.001379 0.000000 -0.002987 0.000000
# 2 -0.002306 0.016514 -0.002361 0.000000 0.000217 0.000000
# 3 -0.001379 -0.002361 0.007239 0.000000 -0.001437 0.000000
# 4 0.000000 0.000000 0.000000 0.039922 0.000000 0.070122
# 5 -0.002987 0.000217 -0.001437 0.000000 0.038168 0.000000
# 6 0.000000 0.000000 0.000000 0.070122 0.000000 0.466224
#
#
# Mechanical properties :
#
#
# Convention : Reuss Voigt Hill
#
# Bulk Modulus (GPa) = 60.42695 87.80388 74.11542
# Shear Modulus (GPa) = 8.46645 36.24220 22.35432
#
# Velocity S-wave (km/s) = 1.84331 3.81378 2.99522
# Velocity P-wave (km/s) = 5.36482 7.39129 6.45803
#
# Compressibility (1/GPa) = 0.01654891
#
# Stress axis : x y z
#
# Youngs Moduli (GPa) = 204.49430 60.55603 138.14560
#
# Poissons Ratio (x) = 0.13966 0.19053
# Poissons Ratio (y) = 0.47164 0.32619
# Poissons Ratio (z) = 0.28204 0.14298
#
# Static dielectric constant tensor:
#      x y z
#    x 1.930640 0.000000 -0.028150 
#    y 0.000000 2.003450 0.000000 
#    z -0.028150 0.000000 1.964130 
# 
# From -- ./inp_files/52713.got.cif
#   From: 2010.05.17/outbox.cif.g08.bks.cpg/sg13_27_cif.got.tgz:52713.got - 2010.06.03 16:44:36.
