data_PCOD9238975
_publ_section_title
;
Structure prediction by ZEFSAII (Michael W. Deem and Ramdas Pophale) SiO2 
 PCOD9238975
Probable space group: P 2/C
;
_chemical_formula_sum "Si O2"
_cell_formula_units_Z 26
_cell_length_a 12.000000
_cell_length_b 12.000000
_cell_length_c 18.000000
_cell_angle_alpha 90.000000
_cell_angle_beta 30.000000
_cell_angle_gamma 90.000000
_cell_volume 1296.000000
_symmetry_space_group_name_H-M "P 2/C"
_symmetry_group_IT_number 13
_symmetry_cell_setting 'monoclinic'
loop_
_space_group_symop_operation_xyz
x,y,z
-x,y,1/2-z
-x,-y,-z
x,-y,1/2+z
loop_
_atom_site_type_symbol
_atom_site_label
_atom_site_fract_x
_atom_site_fract_y
_atom_site_fract_z
Si Si1 0.809651 0.952885 0.729712
Si Si2 0.000000 0.906710 0.250000
Si Si3 0.543627 0.539267 0.891763
Si Si4 0.945981 0.554912 0.870653
Si Si5 0.455832 0.781858 0.995740
Si Si6 0.856973 0.777068 0.016190
Si Si7 0.595307 0.180633 0.804636
O O1 0.949380 0.869203 0.597857
O O2 0.686461 0.055343 0.761428
O O3 0.633336 0.878524 0.876915
O O4 0.965788 0.014235 0.699233
O O5 0.786107 0.829071 0.385183
O O6 0.815634 0.509188 0.728673
O O7 0.500000 0.500000 0.000000
O O8 0.313557 0.498182 0.979478
O O9 0.523082 0.673542 0.910072
O O10 0.000000 0.566153 0.750000
O O11 0.920706 0.670049 0.930389
O O12 0.439860 0.763898 0.094163
O O13 0.641210 0.824886 0.098676
O O14 0.768639 0.755137 0.150723
#
# Coordination Sequence:
#
# PCOD9238975 Si02
#       7
#     4   2   4   4   4   4   4
#     4  11  20  37  58  90 121 161 213 247 305 370
#     4  10  22  30  56  90 120 152 198 266 302 372
#     4  10  21  36  62  94 117 156 211 272 312 361
#     4  10  21  38  64  95 119 160 217 270 311 371
#     4  11  21  38  59  91 124 157 207 263 312 362
#     4  11  21  37  60  87 123 166 201 251 319 377
#     4  10  22  35  57  90 125 163 199 249 314 386
#
# _framework density 20.061727999999999
#
# number of rings (size 3 to 8) (size 9 to 14) (size 15 to 20)
#    0.000    1.538    1.538    6.000    4.308    0.000 
#    0.000    0.000    0.000   16.615    0.000    0.000 
#    0.000    0.000    0.000    0.000    0.000    0.000 
#
# Total GULP energy -144801.223420 kJ/mol
# GULP energy per Si atom -5569.277824 kJ/mol
# Density = 2.001607 g / cm^3
# Si number density = 20.061728 Si / 1000 Ang^3
#
#
#
# Elastic Constant Matrix: (Units=GPa)
#
#
# Indices 1 2 3 4 5 6 
#
# 1 56.1755 20.0120 36.5676 0.0000 -18.4234 0.0000
# 2 20.0120 63.3526 6.7586 0.0000 -2.9482 0.0000
# 3 36.5676 6.7586 97.4022 0.0000 -17.2822 0.0000
# 4 0.0000 0.0000 0.0000 13.5153 0.0000 -4.1280
# 5 -18.4234 -2.9482 -17.2822 0.0000 34.0117 0.0000
# 6 0.0000 0.0000 0.0000 -4.1280 0.0000 5.1306
#
#
#
# Elastic Compliance Matrix: (Units=1/GPa)
#
#
# Indices 1 2 3 4 5 6 
#
# 1 0.029986 -0.008024 -0.008729 0.000000 0.011112 0.000000
# 2 -0.008024 0.018074 0.001390 0.000000 -0.002073 0.000000
# 3 -0.008729 0.001390 0.013881 0.000000 0.002445 0.000000
# 4 0.000000 0.000000 0.000000 0.098097 0.000000 0.078928
# 5 0.011112 -0.002073 0.002445 0.000000 0.036484 0.000000
# 6 0.000000 0.000000 0.000000 0.078928 0.000000 0.258413
#
#
# Mechanical properties :
#
#
# Convention : Reuss Voigt Hill
#
# Bulk Modulus (GPa) = 32.03427 38.17853 35.10640
# Shear Modulus (GPa) = 10.07928 20.77101 15.42515
#
# Velocity S-wave (km/s) = 2.24389 3.22118 2.77588
# Velocity P-wave (km/s) = 4.76612 5.73642 5.27363
#
# Compressibility (1/GPa) = 0.03121657
#
# Stress axis : x y z
#
# Youngs Moduli (GPa) = 33.34835 55.32666 72.03874
#
# Poissons Ratio (x) = 0.44393 0.62886
# Poissons Ratio (y) = 0.26758 -0.10016
# Poissons Ratio (z) = 0.29111 -0.07693
#
# Static dielectric constant tensor:
#      x y z
#    x 2.577700 0.000000 -0.040440 
#    y 0.000000 1.751990 0.000000 
#    z -0.040440 0.000000 1.759510 
# 
# From -- ./inp_files/66612.got.cif
#   From: 2010.05.17/outbox.ucp.g08.bks.cvg/sg13_34_cif.got.tgz:66612.got - 2010.06.11 12:23:55.
