data_PCOD9238440
_publ_section_title
;
Structure prediction by ZEFSAII (Michael W. Deem and Ramdas Pophale) SiO2 
 PCOD9238440
Probable space group: P 2/C
;
_chemical_formula_sum "Si O2"
_cell_formula_units_Z 18
_cell_length_a 10.842810
_cell_length_b 5.071995
_cell_length_c 18.661621
_cell_angle_alpha 90.000000
_cell_angle_beta 137.526116
_cell_angle_gamma 90.000000
_cell_volume 693.006401
_symmetry_space_group_name_H-M "P 2/C"
_symmetry_group_IT_number 13
_symmetry_cell_setting 'monoclinic'
loop_
_space_group_symop_operation_xyz
x,y,z
-x,y,1/2-z
-x,-y,-z
x,-y,1/2+z
loop_
_atom_site_type_symbol
_atom_site_label
_atom_site_fract_x
_atom_site_fract_y
_atom_site_fract_z
Si Si1 0.000000 0.577826 0.750000
Si Si2 0.820532 0.147022 0.454630
Si Si3 0.737918 0.877271 0.558061
Si Si4 0.307692 0.339723 0.670452
Si Si5 0.660345 0.764847 0.151893
O O1 0.065023 0.741125 0.847432
O O2 0.185275 0.419249 0.816225
O O3 0.812865 0.438943 0.419960
O O4 0.783864 0.119014 0.523762
O O5 0.675580 0.933340 0.364359
O O6 0.000000 0.000000 0.500000
O O7 0.558524 0.717204 0.453030
O O8 0.686493 0.969724 0.616638
O O9 0.500000 0.484877 0.750000
O O10 0.279752 0.253637 0.740092
#
# Coordination Sequence:
#
# PCOD9238440 Si02
#       5
#     2   4   4   4   4
#     4  12  26  46  78 112 154 204 274 318 398 466
#     4  12  28  49  80 116 158 206 264 330 396 478
#     4  11  27  49  77 115 158 209 264 326 400 474
#     4  12  27  50  78 112 156 206 260 324 407 467
#     4  11  27  48  77 112 157 208 260 332 393 484
#
# _framework density 25.973784999999999
#
# number of rings (size 3 to 8) (size 9 to 14) (size 15 to 20)
#    0.000    0.444    2.222    4.000   12.444    1.778 
#    0.000    0.000    0.000    0.000    0.000    0.000 
#    0.000    0.000    0.000    0.000    0.000    0.000 
#
# Total GULP energy -100384.537403 kJ/mol
# GULP energy per Si atom -5576.918745 kJ/mol
# Density = 2.591467 g / cm^3
# Si number density = 25.973785 Si / 1000 Ang^3
#
#
#
# Elastic Constant Matrix: (Units=GPa)
#
#
# Indices 1 2 3 4 5 6 
#
# 1 107.3564 20.2993 49.1867 0.0000 -21.4009 0.0000
# 2 20.2993 112.9282 63.3624 0.0000 -12.7495 0.0000
# 3 49.1867 63.3624 134.5362 0.0000 14.3049 0.0000
# 4 0.0000 0.0000 0.0000 47.3850 0.0000 2.5689
# 5 -21.4009 -12.7495 14.3049 0.0000 70.0813 0.0000
# 6 0.0000 0.0000 0.0000 2.5689 0.0000 22.1325
#
#
#
# Elastic Compliance Matrix: (Units=1/GPa)
#
#
# Indices 1 2 3 4 5 6 
#
# 1 0.012882 0.001734 -0.006111 0.000000 0.005497 0.000000
# 2 0.001734 0.013129 -0.007285 0.000000 0.004405 0.000000
# 3 -0.006111 -0.007285 0.013736 0.000000 -0.005995 0.000000
# 4 0.000000 0.000000 0.000000 0.021237 0.000000 -0.002465
# 5 0.005497 0.004405 -0.005995 0.000000 0.017973 0.000000
# 6 0.000000 0.000000 0.000000 -0.002465 0.000000 0.045469
#
#
# Mechanical properties :
#
#
# Convention : Reuss Voigt Hill
#
# Bulk Modulus (GPa) = 60.89523 68.94641 64.92082
# Shear Modulus (GPa) = 32.63193 42.71790 37.67492
#
# Velocity S-wave (km/s) = 3.54834 4.05983 3.81267
# Velocity P-wave (km/s) = 6.34692 6.96983 6.66566
#
# Compressibility (1/GPa) = 0.01642165
#
# Stress axis : x y z
#
# Youngs Moduli (GPa) = 77.62513 76.16994 72.80330
#
# Poissons Ratio (x) = -0.13204 0.44488
# Poissons Ratio (y) = -0.13457 0.53039
# Poissons Ratio (z) = 0.47435 0.55492
#
# Static dielectric constant tensor:
#      x y z
#    x 2.006590 0.000000 -0.030120 
#    y 0.000000 2.105880 0.000000 
#    z -0.030120 0.000000 2.216370 
# 
# From -- ./inp_files/77053.got.cif
#   From: 2010.05.17/outbox.cif.g08.bks.cpg/sg13_39_cif.got.tgz:77053.got - 2010.06.03 16:44:36.
