data_PCOD9238284
_publ_section_title
;
Structure prediction by ZEFSAII (Michael W. Deem and Ramdas Pophale) SiO2 
 PCOD9238284
Probable space group: P 2/C
;
_chemical_formula_sum "Si O2"
_cell_formula_units_Z 20
_cell_length_a 9.440039
_cell_length_b 12.824073
_cell_length_c 7.688898
_cell_angle_alpha 90.000000
_cell_angle_beta 60.855633
_cell_angle_gamma 90.000000
_cell_volume 812.970438
_symmetry_space_group_name_H-M "P 2/C"
_symmetry_group_IT_number 13
_symmetry_cell_setting 'monoclinic'
loop_
_space_group_symop_operation_xyz
x,y,z
-x,y,1/2-z
-x,-y,-z
x,-y,1/2+z
loop_
_atom_site_type_symbol
_atom_site_label
_atom_site_fract_x
_atom_site_fract_y
_atom_site_fract_z
Si Si1 0.309477 0.645108 0.169859
Si Si2 0.382040 0.270000 0.154891
Si Si3 0.184080 0.863080 0.195172
Si Si4 0.805227 0.086313 0.409272
Si Si5 0.811967 0.564330 0.889481
O O1 0.505237 0.683413 0.435872
O O2 0.228385 0.745127 0.127503
O O3 0.222148 0.617855 0.403990
O O4 0.293547 0.539742 0.069005
O O5 0.500000 0.263797 0.250000
O O6 0.299176 0.161623 0.151420
O O7 0.239368 0.354835 0.230959
O O8 0.210776 0.875669 0.384417
O O9 0.000000 0.873463 0.250000
O O10 0.258436 0.967411 0.066679
O O11 0.000000 0.092015 0.250000
O O12 0.000000 0.537776 0.750000
#
# Coordination Sequence:
#
# PCOD9238284 Si02
#       5
#     4   4   4   4   4
#     4  12  27  48  76 114 155 196 255 313 390 448
#     4  12  28  47  76 110 158 204 250 316 386 449
#     4  11  25  45  79 111 153 196 258 313 378 449
#     4  11  25  49  77 111 156 200 258 313 378 455
#     4  12  26  51  80 109 153 200 259 321 376 458
#
# _framework density 24.601141999999999
#
# number of rings (size 3 to 8) (size 9 to 14) (size 15 to 20)
#    0.000    0.400    2.000    6.600    5.600    0.800 
#    0.000    0.000    0.000    0.000    0.000    0.000 
#    0.000    0.000    0.000    0.000    0.000    0.000 
#
# Total GULP energy -111895.367031 kJ/mol
# GULP energy per Si atom -5594.768352 kJ/mol
# Density = 2.454515 g / cm^3
# Si number density = 24.601142 Si / 1000 Ang^3
#
#
#
# Elastic Constant Matrix: (Units=GPa)
#
#
# Indices 1 2 3 4 5 6 
#
# 1 100.9984 49.3517 12.9237 0.0000 13.2747 0.0000
# 2 49.3517 221.6105 9.1854 0.0000 17.4602 0.0000
# 3 12.9237 9.1854 84.5493 0.0000 12.5617 0.0000
# 4 0.0000 0.0000 0.0000 66.9851 0.0000 34.5781
# 5 13.2747 17.4602 12.5617 0.0000 45.2249 0.0000
# 6 0.0000 0.0000 0.0000 34.5781 0.0000 66.9607
#
#
#
# Elastic Compliance Matrix: (Units=1/GPa)
#
#
# Indices 1 2 3 4 5 6 
#
# 1 0.011476 -0.002338 -0.001183 0.000000 -0.002137 0.000000
# 2 -0.002338 0.005135 -0.000008 0.000000 -0.001294 0.000000
# 3 -0.001183 -0.000008 0.012472 0.000000 -0.003114 0.000000
# 4 0.000000 0.000000 0.000000 0.020355 0.000000 -0.010511
# 5 -0.002137 -0.001294 -0.003114 0.000000 0.024104 0.000000
# 6 0.000000 0.000000 0.000000 -0.010511 0.000000 0.020362
#
#
# Mechanical properties :
#
#
# Convention : Reuss Voigt Hill
#
# Bulk Modulus (GPa) = 45.40302 61.11997 53.26150
# Shear Modulus (GPa) = 46.16684 58.21396 52.19040
#
# Velocity S-wave (km/s) = 4.33669 4.86975 4.61093
# Velocity P-wave (km/s) = 6.60088 7.51782 7.07422
#
# Compressibility (1/GPa) = 0.02202496
#
# Stress axis : x y z
#
# Youngs Moduli (GPa) = 87.13893 194.72560 80.18143
#
# Poissons Ratio (x) = 0.45531 0.09482
# Poissons Ratio (y) = 0.20375 0.00066
# Poissons Ratio (z) = 0.10305 0.00161
#
# Static dielectric constant tensor:
#      x y z
#    x 1.980950 0.000000 -0.059570 
#    y 0.000000 1.959120 0.000000 
#    z -0.059570 0.000000 2.043070 
# 
# From -- ./inp_files/12232.got.cif
#   From: 2010.05.17/outbox.cif.g08.bks.cpg/sg13_7_cif.got.tgz:12232.got - 2010.06.03 16:44:36.
