data_PCOD9238305
_publ_section_title
;
Structure prediction by ZEFSAII (Michael W. Deem and Ramdas Pophale) SiO2 
 PCOD9238305
Probable space group: P 2/C
;
_chemical_formula_sum "Si O2"
_cell_formula_units_Z 24
_cell_length_a 5.218361
_cell_length_b 13.770273
_cell_length_c 15.262035
_cell_angle_alpha 90.000000
_cell_angle_beta 58.745119
_cell_angle_gamma 90.000000
_cell_volume 937.536123
_symmetry_space_group_name_H-M "P 2/C"
_symmetry_group_IT_number 13
_symmetry_cell_setting 'monoclinic'
loop_
_space_group_symop_operation_xyz
x,y,z
-x,y,1/2-z
-x,-y,-z
x,-y,1/2+z
loop_
_atom_site_type_symbol
_atom_site_label
_atom_site_fract_x
_atom_site_fract_y
_atom_site_fract_z
Si Si1 0.008220 0.574045 0.419861
Si Si2 0.169774 0.072185 0.557283
Si Si3 0.079447 0.760464 0.960456
Si Si4 0.000000 0.545765 0.750000
Si Si5 0.000000 0.815716 0.250000
Si Si6 0.500000 0.315242 0.250000
Si Si7 0.500000 0.317067 0.750000
Si Si8 0.180142 0.878264 0.626426
O O1 0.902655 0.523624 0.348753
O O2 0.345059 0.611469 0.345842
O O3 0.000000 0.500000 0.500000
O O4 0.862760 0.670501 0.485524
O O5 0.979180 0.153743 0.542115
O O6 0.480703 0.081308 0.447220
O O7 0.188571 0.116229 0.651281
O O8 0.025527 0.967062 0.597998
O O9 0.373576 0.755224 0.847563
O O10 0.841926 0.776885 0.923152
O O11 0.747473 0.614556 0.750544
O O12 0.240185 0.746945 0.254305
O O13 0.000000 0.872303 0.750000
#
# Coordination Sequence:
#
# PCOD9238305 Si02
#       8
#     4   4   4   2   2   2   2   4
#     4  12  27  49  79 111 159 208 266 334 405 479
#     4  11  25  46  75 116 154 210 268 325 410 476
#     4  12  26  47  75 113 148 213 256 331 397 482
#     4  12  29  54  73 122 156 210 271 332 401 490
#     4  12  25  50  81 116 160 210 263 334 395 490
#     4  12  29  50  83 112 164 208 269 332 405 488
#     4  12  27  50  75 118 158 208 271 324 405 478
#     4  11  25  48  76 113 162 206 274 332 410 485
#
# _framework density 25.599012999999999
#
# number of rings (size 3 to 8) (size 9 to 14) (size 15 to 20)
#    0.000    0.333    4.167    3.500    3.500    2.000 
#    3.000    0.000    0.000    0.000    0.000    0.000 
#    0.000    0.000    0.000    0.000    0.000    0.000 
#
# Total GULP energy -133911.760322 kJ/mol
# GULP energy per Si atom -5579.656680 kJ/mol
# Density = 2.554075 g / cm^3
# Si number density = 25.599013 Si / 1000 Ang^3
#
#
#
# Elastic Constant Matrix: (Units=GPa)
#
#
# Indices 1 2 3 4 5 6 
#
# 1 110.3821 29.7355 29.3555 0.0000 7.2843 0.0000
# 2 29.7355 99.4416 44.7069 0.0000 26.4488 0.0000
# 3 29.3555 44.7069 196.7533 0.0000 8.6536 0.0000
# 4 0.0000 0.0000 0.0000 53.1153 0.0000 -2.2532
# 5 7.2843 26.4488 8.6536 0.0000 41.3982 0.0000
# 6 0.0000 0.0000 0.0000 -2.2532 0.0000 50.2351
#
#
#
# Elastic Compliance Matrix: (Units=1/GPa)
#
#
# Indices 1 2 3 4 5 6 
#
# 1 0.009996 -0.002609 -0.000903 0.000000 0.000097 0.000000
# 2 -0.002609 0.014073 -0.002456 0.000000 -0.008019 0.000000
# 3 -0.000903 -0.002456 0.005752 0.000000 0.000525 0.000000
# 4 0.000000 0.000000 0.000000 0.018863 0.000000 0.000846
# 5 0.000097 -0.008019 0.000525 0.000000 0.029152 0.000000
# 6 0.000000 0.000000 0.000000 0.000846 0.000000 0.019944
#
#
# Mechanical properties :
#
#
# Convention : Reuss Voigt Hill
#
# Bulk Modulus (GPa) = 55.90909 68.24143 62.07526
# Shear Modulus (GPa) = 43.22364 49.13497 46.17930
#
# Velocity S-wave (km/s) = 4.11358 4.38586 4.25190
# Velocity P-wave (km/s) = 6.66707 7.23625 6.95748
#
# Compressibility (1/GPa) = 0.01788618
#
# Stress axis : x y z
#
# Youngs Moduli (GPa) = 100.04040 71.05741 173.84889
#
# Poissons Ratio (x) = 0.18538 0.15696
# Poissons Ratio (y) = 0.26099 0.42694
# Poissons Ratio (z) = 0.09032 0.17450
#
# Static dielectric constant tensor:
#      x y z
#    x 2.345430 0.000000 -0.191760 
#    y 0.000000 2.208910 0.000000 
#    z -0.191760 0.000000 2.141290 
# 
# From -- ./inp_files/43953.got.cif
#   From: 2010.05.17/outbox.cif.g08.bks.cpg/sg13_22_cif.got.tgz:43953.got - 2010.06.03 16:44:36.
