data_PCOD9238381
_publ_section_title
;
Structure prediction by ZEFSAII (Michael W. Deem and Ramdas Pophale) SiO2 
 PCOD9238381
Probable space group: P 2/C
;
_chemical_formula_sum "Si O2"
_cell_formula_units_Z 26
_cell_length_a 10.236225
_cell_length_b 15.886747
_cell_length_c 11.273969
_cell_angle_alpha 90.000000
_cell_angle_beta 140.340798
_cell_angle_gamma 90.000000
_cell_volume 1170.097121
_symmetry_space_group_name_H-M "P 2/C"
_symmetry_group_IT_number 13
_symmetry_cell_setting 'monoclinic'
loop_
_space_group_symop_operation_xyz
x,y,z
-x,y,1/2-z
-x,-y,-z
x,-y,1/2+z
loop_
_atom_site_type_symbol
_atom_site_label
_atom_site_fract_x
_atom_site_fract_y
_atom_site_fract_z
Si Si1 0.500000 0.881615 0.750000
Si Si2 0.080075 0.302512 0.187838
Si Si3 0.492245 0.765102 0.970995
Si Si4 0.917389 0.575166 0.019493
Si Si5 0.289134 0.189544 0.652672
Si Si6 0.351726 0.424933 0.950290
Si Si7 0.872850 0.989528 0.535372
O O1 0.470445 0.820563 0.839875
O O2 0.301320 0.938987 0.587375
O O3 0.000000 0.350661 0.250000
O O4 0.261445 0.242457 0.359066
O O5 0.148946 0.357203 0.124406
O O6 0.898931 0.248290 0.007124
O O7 0.550436 0.667680 0.990187
O O8 0.657872 0.810136 0.170846
O O9 0.130417 0.594180 0.234815
O O10 0.000000 0.500000 0.000000
O O11 0.728822 0.553774 0.973743
O O12 0.500000 0.226731 0.750000
O O13 0.241980 0.099568 0.562503
O O14 0.500000 0.500000 0.000000
O O15 0.000000 0.000000 0.500000
O O16 0.000000 0.990875 0.750000
#
# Coordination Sequence:
#
# PCOD9238381 Si02
#       7
#     2   4   4   4   4   4   4
#     4  12  28  48  76 110 154 196 256 314 384 458
#     4  12  25  44  72 108 150 196 254 313 378 457
#     4  12  26  47  76 109 149 203 254 313 387 456
#     4  11  26  45  73 109 148 196 258 314 383 457
#     4  12  25  45  73 109 152 197 253 313 379 463
#     4  11  26  49  75 107 153 201 254 319 384 459
#     4  12  28  49  77 113 154 201 254 315 388 464
#
# _framework density 22.220378
#
# number of rings (size 3 to 8) (size 9 to 14) (size 15 to 20)
#    0.000    0.308    3.846    4.154    6.462    3.077 
#    2.769    0.000    0.000    0.000    0.000    0.000 
#    0.000    0.000    0.000    0.000    0.000    0.000 
#
# Total GULP energy -145110.121063 kJ/mol
# GULP energy per Si atom -5581.158502 kJ/mol
# Density = 2.216980 g / cm^3
# Si number density = 22.220378 Si / 1000 Ang^3
#
#
#
# Elastic Constant Matrix: (Units=GPa)
#
#
# Indices 1 2 3 4 5 6 
#
# 1 136.5854 34.3029 60.5771 0.0000 -11.6279 0.0000
# 2 34.3029 102.2476 58.4327 0.0000 -6.5555 0.0000
# 3 60.5771 58.4327 192.2428 0.0000 -2.0405 0.0000
# 4 0.0000 0.0000 0.0000 27.1603 0.0000 -9.9798
# 5 -11.6279 -6.5555 -2.0405 0.0000 40.8315 0.0000
# 6 0.0000 0.0000 0.0000 -9.9798 0.0000 28.4295
#
#
#
# Elastic Compliance Matrix: (Units=1/GPa)
#
#
# Indices 1 2 3 4 5 6 
#
# 1 0.008921 -0.001525 -0.002324 0.000000 0.002179 0.000000
# 2 -0.001525 0.012219 -0.003219 0.000000 0.001367 0.000000
# 3 -0.002324 -0.003219 0.006904 0.000000 -0.000834 0.000000
# 4 0.000000 0.000000 0.000000 0.042271 0.000000 0.014839
# 5 0.002179 0.001367 -0.000834 0.000000 0.025289 0.000000
# 6 0.000000 0.000000 0.000000 0.014839 0.000000 0.040384
#
#
# Mechanical properties :
#
#
# Convention : Reuss Voigt Hill
#
# Bulk Modulus (GPa) = 71.90531 81.96680 76.93606
# Shear Modulus (GPa) = 32.30824 37.80180 35.05502
#
# Velocity S-wave (km/s) = 3.81726 4.12906 3.97622
# Velocity P-wave (km/s) = 7.20132 7.72660 7.46858
#
# Compressibility (1/GPa) = 0.01390718
#
# Stress axis : x y z
#
# Youngs Moduli (GPa) = 112.09735 81.84013 144.84810
#
# Poissons Ratio (x) = 0.12478 0.33669
# Poissons Ratio (y) = 0.17092 0.46627
# Poissons Ratio (z) = 0.26056 0.26345
#
# Static dielectric constant tensor:
#      x y z
#    x 1.733540 0.000000 0.147700 
#    y 0.000000 1.726690 0.000000 
#    z 0.147700 0.000000 1.612260 
# 
# From -- ./inp_files/34799.got.cif
#   From: 2010.05.17/outbox.cif.g08.bks.cpg/sg13_18_cif.got.tgz:34799.got - 2010.06.03 16:44:36.
