data_PCOD9238829
_publ_section_title
;
Structure prediction by ZEFSAII (Michael W. Deem and Ramdas Pophale) SiO2 
 PCOD9238829
Probable space group: P 2/C
;
_chemical_formula_sum "Si O2"
_cell_formula_units_Z 14
_cell_length_a 24.866679
_cell_length_b 5.076732
_cell_length_c 9.938755
_cell_angle_alpha 90.000000
_cell_angle_beta 24.779465
_cell_angle_gamma 90.000000
_cell_volume 525.871148
_symmetry_space_group_name_H-M "P 2/C"
_symmetry_group_IT_number 13
_symmetry_cell_setting 'monoclinic'
loop_
_space_group_symop_operation_xyz
x,y,z
-x,y,1/2-z
-x,-y,-z
x,-y,1/2+z
loop_
_atom_site_type_symbol
_atom_site_label
_atom_site_fract_x
_atom_site_fract_y
_atom_site_fract_z
Si Si1 0.077981 0.167371 0.711932
Si Si2 0.299371 0.024073 0.536864
Si Si3 0.500000 0.266292 0.250000
Si Si4 0.259051 0.522407 0.440805
O O1 0.132964 0.444593 0.642443
O O2 0.000000 0.201272 0.750000
O O3 0.205601 0.007352 0.377671
O O4 0.000000 0.000000 0.000000
O O5 0.269974 0.774486 0.511489
O O6 0.441223 0.075976 0.270428
O O7 0.267654 0.277525 0.521745
O O8 0.383486 0.448269 0.563830
#
# Coordination Sequence:
#
# PCOD9238829 Si02
#       4
#     4   4   2   4
#     4  12  28  59  90 131 180 236 301 365 444 535
#     4  12  28  54  86 129 179 233 293 371 442 529
#     4  12  28  54  90 132 180 230 304 368 452 524
#     4  12  28  54  86 131 177 235 294 370 442 532
#
# _framework density 26.622492000000001
#
# number of rings (size 3 to 8) (size 9 to 14) (size 15 to 20)
#    0.000    0.000    2.857    5.143    0.000    9.143 
#    5.143    0.000    0.000    0.000    0.000    0.000 
#    0.000    0.000    0.000    0.000    0.000    0.000 
#
# Total GULP energy -78630.642848 kJ/mol
# GULP energy per Si atom -5616.474489 kJ/mol
# Density = 2.656190 g / cm^3
# Si number density = 26.622492 Si / 1000 Ang^3
#
#
#
# Elastic Constant Matrix: (Units=GPa)
#
#
# Indices 1 2 3 4 5 6 
#
# 1 192.7875 68.4953 45.6846 0.0000 -13.5091 0.0000
# 2 68.4953 205.9357 55.9409 0.0000 8.0163 0.0000
# 3 45.6846 55.9409 186.3381 0.0000 14.1271 0.0000
# 4 0.0000 0.0000 0.0000 47.8411 0.0000 -12.2100
# 5 -13.5091 8.0163 14.1271 0.0000 56.6779 0.0000
# 6 0.0000 0.0000 0.0000 -12.2100 0.0000 53.3959
#
#
#
# Elastic Compliance Matrix: (Units=1/GPa)
#
#
# Indices 1 2 3 4 5 6 
#
# 1 0.006256 -0.001853 -0.001132 0.000000 0.002035 0.000000
# 2 -0.001853 0.005843 -0.001227 0.000000 -0.000962 0.000000
# 3 -0.001132 -0.001227 0.006136 0.000000 -0.001626 0.000000
# 4 0.000000 0.000000 0.000000 0.022198 0.000000 0.005076
# 5 0.002035 -0.000962 -0.001626 0.000000 0.018670 0.000000
# 6 0.000000 0.000000 0.000000 0.005076 0.000000 0.019889
#
#
# Mechanical properties :
#
#
# Convention : Reuss Voigt Hill
#
# Bulk Modulus (GPa) = 101.91921 102.81143 102.36532
# Shear Modulus (GPa) = 55.13605 59.24569 57.19087
#
# Velocity S-wave (km/s) = 4.55580 4.72253 4.63991
# Velocity P-wave (km/s) = 8.12650 8.27276 8.19995
#
# Compressibility (1/GPa) = 0.00981169
#
# Stress axis : x y z
#
# Youngs Moduli (GPa) = 159.84390 171.15097 162.98070
#
# Poissons Ratio (x) = 0.31707 0.18449
# Poissons Ratio (y) = 0.29612 0.19997
# Poissons Ratio (z) = 0.18094 0.20999
#
# Static dielectric constant tensor:
#      x y z
#    x 2.099830 0.000000 -0.000010 
#    y 0.000000 2.083180 0.000000 
#    z -0.000010 0.000000 2.143220 
# 
# From -- ./inp_files/22088.got.cif
#   From: 2010.05.17/outbox.cif.g08.bks.cpg/sg13_12_cif.got.tgz:22088.got - 2010.06.03 16:44:36.
