data_PCOD9238657
_publ_section_title
;
Structure prediction by ZEFSAII (Michael W. Deem and Ramdas Pophale) SiO2 
 PCOD9238657
Probable space group: P 2/C
;
_chemical_formula_sum "Si O2"
_cell_formula_units_Z 18
_cell_length_a 25.596273
_cell_length_b 5.596512
_cell_length_c 24.035306
_cell_angle_alpha 90.000000
_cell_angle_beta 168.845365
_cell_angle_gamma 90.000000
_cell_volume 666.084958
_symmetry_space_group_name_H-M "P 2/C"
_symmetry_group_IT_number 13
_symmetry_cell_setting 'monoclinic'
loop_
_space_group_symop_operation_xyz
x,y,z
-x,y,1/2-z
-x,-y,-z
x,-y,1/2+z
loop_
_atom_site_type_symbol
_atom_site_label
_atom_site_fract_x
_atom_site_fract_y
_atom_site_fract_z
Si Si1 0.500000 0.568448 0.750000
Si Si2 0.620472 0.678770 0.482565
Si Si3 0.340115 0.045149 0.256996
Si Si4 0.882150 0.313523 0.833169
Si Si5 0.049726 0.059046 0.743465
O O1 0.552152 0.414290 0.749444
O O2 0.245731 0.730274 0.467830
O O3 0.816514 0.474701 0.710461
O O4 0.444700 0.781473 0.350297
O O5 0.794698 0.892349 0.637889
O O6 0.594723 0.193478 0.544861
O O7 0.097622 0.106864 0.044839
O O8 0.223442 0.128945 0.074544
O O9 0.000000 0.500000 0.000000
O O10 0.000000 0.927831 0.750000
#
# Coordination Sequence:
#
# PCOD9238657 Si02
#       5
#     2   4   4   4   4
#     4  12  24  48  74 116 158 214 254 326 404 488
#     4  12  26  48  80 113 158 213 251 339 404 468
#     4  12  26  53  74 117 153 195 270 320 391 493
#     4  12  29  53  81 112 155 209 267 333 400 472
#     4  12  25  46  74 115 157 200 265 315 392 502
#
# _framework density 27.023579999999999
#
# number of rings (size 3 to 8) (size 9 to 14) (size 15 to 20)
#    0.000    0.000    4.444    5.333    3.111    4.444 
#    4.000    0.000    0.000    0.000    0.000    0.000 
#    0.000    0.000    0.000    0.000    0.000    0.000 
#
# Total GULP energy -100970.436446 kJ/mol
# GULP energy per Si atom -5609.468691 kJ/mol
# Density = 2.696207 g / cm^3
# Si number density = 27.023580 Si / 1000 Ang^3
#
#
#
# Elastic Constant Matrix: (Units=GPa)
#
#
# Indices 1 2 3 4 5 6 
#
# 1 103.5510 24.1415 44.1885 0.0000 -9.1287 0.0000
# 2 24.1415 87.5328 46.4472 0.0000 -2.3772 0.0000
# 3 44.1885 46.4472 183.5859 0.0000 -14.1255 0.0000
# 4 0.0000 0.0000 0.0000 47.3490 0.0000 -26.8065
# 5 -9.1287 -2.3772 -14.1255 0.0000 64.7633 0.0000
# 6 0.0000 0.0000 0.0000 -26.8065 0.0000 49.3568
#
#
#
# Elastic Compliance Matrix: (Units=1/GPa)
#
#
# Indices 1 2 3 4 5 6 
#
# 1 0.011093 -0.001914 -0.002106 0.000000 0.001034 0.000000
# 2 -0.001914 0.013530 -0.002995 0.000000 -0.000426 0.000000
# 3 -0.002106 -0.002995 0.006795 0.000000 0.001075 0.000000
# 4 0.000000 0.000000 0.000000 0.030497 0.000000 0.016564
# 5 0.001034 -0.000426 0.001075 0.000000 0.015805 0.000000
# 6 0.000000 0.000000 0.000000 0.016564 0.000000 0.029257
#
#
# Mechanical properties :
#
#
# Convention : Reuss Voigt Hill
#
# Bulk Modulus (GPa) = 57.51433 67.13604 62.32518
# Shear Modulus (GPa) = 39.43115 49.61997 44.52556
#
# Velocity S-wave (km/s) = 3.82401 4.28971 4.06354
# Velocity P-wave (km/s) = 6.38957 7.03085 6.71787
#
# Compressibility (1/GPa) = 0.01738697
#
# Stress axis : x y z
#
# Youngs Moduli (GPa) = 90.14495 73.91051 147.17664
#
# Poissons Ratio (x) = 0.14145 0.31001
# Poissons Ratio (y) = 0.17251 0.44083
# Poissons Ratio (z) = 0.18988 0.22138
#
# Static dielectric constant tensor:
#      x y z
#    x 2.174780 0.000000 0.030400 
#    y 0.000000 2.101470 0.000000 
#    z 0.030400 0.000000 2.066070 
# 
# From -- ./inp_files/83043.got.cif
#   From: 2010.05.17/outbox.cif.g08.bks.cpg/sg13_42_cif.got.tgz:83043.got - 2010.06.03 16:44:36.
