data_PCOD9238954
_publ_section_title
;
Structure prediction by ZEFSAII (Michael W. Deem and Ramdas Pophale) SiO2 
 PCOD9238954
Probable space group: P 2/C
;
_chemical_formula_sum "Si O2"
_cell_formula_units_Z 30
_cell_length_a 9.000000
_cell_length_b 12.000000
_cell_length_c 15.000000
_cell_angle_alpha 90.000000
_cell_angle_beta 90.000000
_cell_angle_gamma 90.000000
_cell_volume 1620.000000
_symmetry_space_group_name_H-M "P 2/C"
_symmetry_group_IT_number 13
_symmetry_cell_setting 'monoclinic'
loop_
_space_group_symop_operation_xyz
x,y,z
-x,y,1/2-z
-x,-y,-z
x,-y,1/2+z
loop_
_atom_site_type_symbol
_atom_site_label
_atom_site_fract_x
_atom_site_fract_y
_atom_site_fract_z
Si Si1 0.000000 0.254349 0.250000
Si Si2 0.225516 0.000780 0.378357
Si Si3 0.894498 0.400369 0.085919
Si Si4 0.329906 0.864291 0.715706
Si Si5 0.387368 0.172876 0.008832
Si Si6 0.737890 0.798670 0.490760
Si Si7 0.835967 0.637141 0.038846
Si Si8 0.982346 0.176140 0.853232
O O1 0.069562 0.333914 0.325041
O O2 0.157121 0.190030 0.221399
O O3 0.322704 0.915920 0.437998
O O4 0.067706 0.940723 0.365520
O O5 0.302685 0.033062 0.284451
O O6 0.204825 0.113042 0.435379
O O7 0.820827 0.522449 0.094293
O O8 0.789759 0.322568 0.024527
O O9 0.057891 0.403607 0.041002
O O10 0.500000 0.819608 0.750000
O O11 0.357014 0.872078 0.609355
O O12 0.561550 0.188550 0.991181
O O13 0.304749 0.292253 0.995371
O O14 0.819798 0.825649 0.397578
O O15 0.929060 0.728895 0.093181
O O16 0.000000 0.203671 0.750000
#
# Coordination Sequence:
#
# PCOD9238954 Si02
#       8
#     2   4   4   4   4   4   4   4
#     4  12  22  38  68  96 128 172 208 280 322 376
#     4  11  24  38  60  91 128 167 211 261 319 386
#     4  10  20  38  64  94 119 161 217 260 316 389
#     4  12  25  41  64 101 131 169 224 265 325 392
#     4  11  23  43  63  87 137 172 204 274 326 383
#     4  11  22  40  62  90 126 165 211 265 325 377
#     4   9  21  41  62  88 122 165 209 259 326 381
#     4  10  24  39  60  89 122 165 215 261 312 399
#
# _framework density 18.518519000000001
#
# number of rings (size 3 to 8) (size 9 to 14) (size 15 to 20)
#    0.000    1.333    4.000    0.800    3.733    0.533 
#    0.000    2.000    0.000    0.000    0.000    0.000 
#    0.000    0.000    0.000    0.000    0.000    0.000 
#
# Total GULP energy -167046.349899 kJ/mol
# GULP energy per Si atom -5568.211663 kJ/mol
# Density = 1.847637 g / cm^3
# Si number density = 18.518519 Si / 1000 Ang^3
#
#
#
# Elastic Constant Matrix: (Units=GPa)
#
#
# Indices 1 2 3 4 5 6 
#
# 1 100.6175 31.9519 59.2381 0.0000 -27.0742 0.0000
# 2 31.9519 91.5908 21.3758 0.0000 -5.8882 0.0000
# 3 59.2381 21.3758 117.4229 0.0000 -14.4378 0.0000
# 4 0.0000 0.0000 0.0000 21.3294 0.0000 -0.8963
# 5 -27.0742 -5.8882 -14.4378 0.0000 26.9531 0.0000
# 6 0.0000 0.0000 0.0000 -0.8963 0.0000 16.4733
#
#
#
# Elastic Compliance Matrix: (Units=1/GPa)
#
#
# Indices 1 2 3 4 5 6 
#
# 1 0.019527 -0.004163 -0.007272 0.000000 0.014810 0.000000
# 2 -0.004163 0.012345 -0.000353 0.000000 -0.001674 0.000000
# 3 -0.007272 -0.000353 0.012141 0.000000 -0.000879 0.000000
# 4 0.000000 0.000000 0.000000 0.046991 0.000000 0.002557
# 5 0.014810 -0.001674 -0.000879 0.000000 0.051142 0.000000
# 6 0.000000 0.000000 0.000000 0.002557 0.000000 0.060843
#
#
# Mechanical properties :
#
#
# Convention : Reuss Voigt Hill
#
# Bulk Modulus (GPa) = 48.93051 59.41809 54.17430
# Shear Modulus (GPa) = 21.42438 26.08885 23.75661
#
# Velocity S-wave (km/s) = 3.40504 3.75747 3.58559
# Velocity P-wave (km/s) = 6.47602 7.14004 6.81612
#
# Compressibility (1/GPa) = 0.02043714
#
# Stress axis : x y z
#
# Youngs Moduli (GPa) = 51.21046 81.00360 82.36348
#
# Poissons Ratio (x) = 0.33720 0.59898
# Poissons Ratio (y) = 0.21318 0.02908
# Poissons Ratio (z) = 0.37242 0.02860
#
# Static dielectric constant tensor:
#      x y z
#    x 1.663910 0.000000 0.003850 
#    y 0.000000 1.673090 0.000000 
#    z 0.003850 0.000000 1.672570 
# 
# From -- ./inp_files/46921.got.cif
#   From: 2010.05.17/outbox.ucp.g08.bks.cvg/sg13_24_cif.got.tgz:46921.got - 2010.06.11 12:23:55.
