data_PCOD9238719
_publ_section_title
;
Structure prediction by ZEFSAII (Michael W. Deem and Ramdas Pophale) SiO2 
 PCOD9238719
Probable space group: P 2/C
;
_chemical_formula_sum "Si O2"
_cell_formula_units_Z 20
_cell_length_a 10.832232
_cell_length_b 5.006586
_cell_length_c 26.869225
_cell_angle_alpha 90.000000
_cell_angle_beta 32.182248
_cell_angle_gamma 90.000000
_cell_volume 776.117385
_symmetry_space_group_name_H-M "P 2/C"
_symmetry_group_IT_number 13
_symmetry_cell_setting 'monoclinic'
loop_
_space_group_symop_operation_xyz
x,y,z
-x,y,1/2-z
-x,-y,-z
x,-y,1/2+z
loop_
_atom_site_type_symbol
_atom_site_label
_atom_site_fract_x
_atom_site_fract_y
_atom_site_fract_z
Si Si1 0.290964 0.844792 0.596968
Si Si2 0.559060 0.112051 0.103572
Si Si3 0.320347 0.598689 0.771623
Si Si4 0.115888 0.598376 0.511724
Si Si5 0.982778 0.661099 0.314674
O O1 0.077383 0.033621 0.656197
O O2 0.500000 0.000000 0.500000
O O3 0.351027 0.875233 0.634742
O O4 0.224230 0.549263 0.602214
O O5 0.464800 0.187158 0.190317
O O6 0.735339 0.340383 0.023507
O O7 0.703866 0.839842 0.055096
O O8 0.500000 0.475892 0.750000
O O9 0.212118 0.409236 0.766421
O O10 0.094392 0.680586 0.880467
O O11 0.000000 0.500000 0.500000
O O12 0.000000 0.617723 0.250000
#
# Coordination Sequence:
#
# PCOD9238719 Si02
#       5
#     4   4   4   4   4
#     4  12  25  48  78 106 152 199 257 329 392 461
#     4  12  27  51  79 117 156 208 268 329 402 469
#     4  12  28  51  81 117 161 217 256 335 407 465
#     4  12  27  51  75 119 160 205 271 323 390 494
#     4  12  26  48  73 113 150 198 262 317 384 480
#
# _framework density 25.769296000000001
#
# number of rings (size 3 to 8) (size 9 to 14) (size 15 to 20)
#    0.000    0.000    4.000    5.400    0.000    1.600 
#    0.000    0.000    0.000    0.000    0.000    0.000 
#    0.000    0.000    0.000    0.000    0.000    0.000 
#
# Total GULP energy -112157.328976 kJ/mol
# GULP energy per Si atom -5607.866449 kJ/mol
# Density = 2.571064 g / cm^3
# Si number density = 25.769296 Si / 1000 Ang^3
#
#
#
# Elastic Constant Matrix: (Units=GPa)
#
#
# Indices 1 2 3 4 5 6 
#
# 1 179.8479 47.6850 29.7385 0.0000 -5.0329 0.0000
# 2 47.6850 122.9950 14.8139 0.0000 -18.1811 0.0000
# 3 29.7385 14.8139 121.5038 0.0000 1.4115 0.0000
# 4 0.0000 0.0000 0.0000 22.1009 0.0000 -9.4512
# 5 -5.0329 -18.1811 1.4115 0.0000 46.8999 0.0000
# 6 0.0000 0.0000 0.0000 -9.4512 0.0000 33.8644
#
#
#
# Elastic Compliance Matrix: (Units=1/GPa)
#
#
# Indices 1 2 3 4 5 6 
#
# 1 0.006389 -0.002351 -0.001275 0.000000 -0.000187 0.000000
# 2 -0.002351 0.009637 -0.000640 0.000000 0.003503 0.000000
# 3 -0.001275 -0.000640 0.008628 0.000000 -0.000645 0.000000
# 4 0.000000 0.000000 0.000000 0.051379 0.000000 0.014339
# 5 -0.000187 0.003503 -0.000645 0.000000 0.022679 0.000000
# 6 0.000000 0.000000 0.000000 0.014339 0.000000 0.033531
#
#
# Mechanical properties :
#
#
# Convention : Reuss Voigt Hill
#
# Bulk Modulus (GPa) = 62.03015 67.64682 64.83849
# Shear Modulus (GPa) = 34.21140 42.71365 38.46252
#
# Velocity S-wave (km/s) = 3.64758 4.07571 3.86757
# Velocity P-wave (km/s) = 6.47019 6.96107 6.72011
#
# Compressibility (1/GPa) = 0.01612119
#
# Stress axis : x y z
#
# Youngs Moduli (GPa) = 156.51324 103.76814 115.90468
#
# Poissons Ratio (x) = 0.24398 0.14777
# Poissons Ratio (y) = 0.36800 0.07420
# Poissons Ratio (z) = 0.19955 0.06643
#
# Static dielectric constant tensor:
#      x y z
#    x 2.030140 0.000000 0.028260 
#    y 0.000000 1.995580 0.000000 
#    z 0.028260 0.000000 2.081350 
# 
# From -- ./inp_files/96293.got.cif
#   From: 2010.05.17/outbox.cif.g08.bks.cpg/sg13_49_cif.got.tgz:96293.got - 2010.06.03 16:44:36.
