data_PCOD9238309
_publ_section_title
;
Structure prediction by ZEFSAII (Michael W. Deem and Ramdas Pophale) SiO2 
 PCOD9238309
Probable space group: P 2/C
;
_chemical_formula_sum "Si O2"
_cell_formula_units_Z 12
_cell_length_a 7.577170
_cell_length_b 6.193875
_cell_length_c 15.963285
_cell_angle_alpha 90.000000
_cell_angle_beta 38.934282
_cell_angle_gamma 90.000000
_cell_volume 470.812162
_symmetry_space_group_name_H-M "P 2/C"
_symmetry_group_IT_number 13
_symmetry_cell_setting 'monoclinic'
loop_
_space_group_symop_operation_xyz
x,y,z
-x,y,1/2-z
-x,-y,-z
x,-y,1/2+z
loop_
_atom_site_type_symbol
_atom_site_label
_atom_site_fract_x
_atom_site_fract_y
_atom_site_fract_z
Si Si1 0.718907 0.909896 0.806097
Si Si2 0.816983 0.444704 0.148288
Si Si3 0.721507 0.689551 0.426388
O O1 0.786528 0.806200 0.690169
O O2 0.000000 0.827664 0.750000
O O3 0.702002 0.146808 0.855175
O O4 0.415866 0.818077 0.944550
O O5 0.500000 0.523792 0.250000
O O6 0.986553 0.579632 0.155969
O O7 0.000000 0.500000 0.000000
O O8 0.500000 0.500000 0.500000
#
# Coordination Sequence:
#
# PCOD9238309 Si02
#       3
#     4   4   4
#     4  11  25  46  81 118 154 226 289 331 415 527
#     4  12  26  50  84 126 174 215 275 370 434 484
#     4  11  25  49  82 112 163 227 284 336 414 524
#
# _framework density 25.487873
#
# number of rings (size 3 to 8) (size 9 to 14) (size 15 to 20)
#    0.000    0.667    6.667    0.000    4.667    0.000 
#    0.000    8.333    0.000    0.000    0.000    0.000 
#    0.000    0.000    0.000    0.000    0.000    0.000 
#
# Total GULP energy -66824.161814 kJ/mol
# GULP energy per Si atom -5568.680151 kJ/mol
# Density = 2.542986 g / cm^3
# Si number density = 25.487873 Si / 1000 Ang^3
#
#
#
# Elastic Constant Matrix: (Units=GPa)
#
#
# Indices 1 2 3 4 5 6 
#
# 1 154.2975 82.5339 58.2710 0.0000 -36.6009 0.0000
# 2 82.5339 152.6158 115.9632 0.0000 18.5362 0.0000
# 3 58.2710 115.9632 179.8987 0.0000 0.8591 0.0000
# 4 0.0000 0.0000 0.0000 77.1246 0.0000 9.3398
# 5 -36.6009 18.5362 0.8591 0.0000 70.7619 0.0000
# 6 0.0000 0.0000 0.0000 9.3398 0.0000 29.8345
#
#
#
# Elastic Compliance Matrix: (Units=1/GPa)
#
#
# Indices 1 2 3 4 5 6 
#
# 1 0.013174 -0.009768 0.001985 0.000000 0.009349 0.000000
# 2 -0.009768 0.020886 -0.010249 0.000000 -0.010399 0.000000
# 3 0.001985 -0.010249 0.011506 0.000000 0.003572 0.000000
# 4 0.000000 0.000000 0.000000 0.013477 0.000000 -0.004219
# 5 0.009349 -0.010399 0.003572 0.000000 0.021648 0.000000
# 6 0.000000 0.000000 0.000000 -0.004219 0.000000 0.034839
#
#
# Mechanical properties :
#
#
# Convention : Reuss Voigt Hill
#
# Bulk Modulus (GPa) = 105.26453 111.14980 108.20717
# Shear Modulus (GPa) = 32.30786 50.88048 41.59417
#
# Velocity S-wave (km/s) = 3.56417 4.47280 4.04409
# Velocity P-wave (km/s) = 7.63723 8.38917 8.02201
#
# Compressibility (1/GPa) = 0.00949988
#
# Stress axis : x y z
#
# Youngs Moduli (GPa) = 75.90771 47.87974 86.91400
#
# Poissons Ratio (x) = 0.46768 -0.17248
# Poissons Ratio (y) = 0.74145 0.89082
# Poissons Ratio (z) = -0.15064 0.49074
#
# Static dielectric constant tensor:
#      x y z
#    x 2.038040 0.000000 0.122110 
#    y 0.000000 2.141380 0.000000 
#    z 0.122110 0.000000 2.216130 
# 
# From -- ./inp_files/30908.got.cif
#   From: 2010.05.17/outbox.cif.g08.bks.cpg/sg13_16_cif.got.tgz:30908.got - 2010.06.03 16:44:36.
