data_PCOD9238604
_publ_section_title
;
Structure prediction by ZEFSAII (Michael W. Deem and Ramdas Pophale) SiO2 
 PCOD9238604
Probable space group: P 2/C
;
_chemical_formula_sum "Si O2"
_cell_formula_units_Z 20
_cell_length_a 7.898496
_cell_length_b 9.847028
_cell_length_c 9.263623
_cell_angle_alpha 90.000000
_cell_angle_beta 101.992865
_cell_angle_gamma 90.000000
_cell_volume 704.768255
_symmetry_space_group_name_H-M "P 2/C"
_symmetry_group_IT_number 13
_symmetry_cell_setting 'monoclinic'
loop_
_space_group_symop_operation_xyz
x,y,z
-x,y,1/2-z
-x,-y,-z
x,-y,1/2+z
loop_
_atom_site_type_symbol
_atom_site_label
_atom_site_fract_x
_atom_site_fract_y
_atom_site_fract_z
Si Si1 0.731850 0.285044 0.401781
Si Si2 0.804927 0.093344 0.171453
Si Si3 0.202460 0.504857 0.302389
Si Si4 0.854682 0.316148 0.955084
Si Si5 0.422010 0.870450 0.394995
O O1 0.710472 0.152763 0.295420
O O2 0.695383 0.402402 0.281280
O O3 0.601056 0.262054 0.510088
O O4 0.933827 0.303442 0.493569
O O5 0.000000 0.118816 0.250000
O O6 0.770177 0.935597 0.151551
O O7 0.780145 0.183454 0.022383
O O8 0.221772 0.445106 0.466486
O O9 0.202799 0.648107 0.217283
O O10 0.000000 0.466696 0.250000
O O11 0.500000 0.854785 0.250000
O O12 0.500000 0.000000 0.500000
#
# Coordination Sequence:
#
# PCOD9238604 Si02
#       5
#     4   4   4   4   4
#     4   9  18  35  57  82 119 154 196 242 304 353
#     4   9  20  39  62  88 122 159 201 253 308 359
#     4   9  16  32  56  88 121 149 186 250 310 353
#     4   9  18  34  60  92 123 151 192 253 306 358
#     4  12  24  43  62  83 120 171 210 249 304 365
#
# _framework density 28.378122999999999
#
# number of rings (size 3 to 8) (size 9 to 14) (size 15 to 20)
#    0.000    2.400    2.000    4.800    0.000    3.200 
#    7.200    0.000    0.000    2.400    0.000    0.000 
#    0.000    0.000    0.000    0.000    0.000    0.000 
#
# Total GULP energy -111672.908004 kJ/mol
# GULP energy per Si atom -5583.645400 kJ/mol
# Density = 2.831353 g / cm^3
# Si number density = 28.378123 Si / 1000 Ang^3
#
#
#
# Elastic Constant Matrix: (Units=GPa)
#
#
# Indices 1 2 3 4 5 6 
#
# 1 101.2861 35.4093 60.0982 0.0000 -36.1267 0.0000
# 2 35.4093 113.2382 42.7138 0.0000 -24.6260 0.0000
# 3 60.0982 42.7138 173.7634 0.0000 -38.2113 0.0000
# 4 0.0000 0.0000 0.0000 48.9518 0.0000 -23.8656
# 5 -36.1267 -24.6260 -38.2113 0.0000 43.0512 0.0000
# 6 0.0000 0.0000 0.0000 -23.8656 0.0000 38.9269
#
#
#
# Elastic Compliance Matrix: (Units=1/GPa)
#
#
# Indices 1 2 3 4 5 6 
#
# 1 0.015579 -0.001714 -0.002867 0.000000 0.009548 0.000000
# 2 -0.001714 0.010601 -0.001237 0.000000 0.003528 0.000000
# 3 -0.002867 -0.001237 0.007910 0.000000 0.003907 0.000000
# 4 0.000000 0.000000 0.000000 0.029137 0.000000 0.017864
# 5 0.009548 0.003528 0.003907 0.000000 0.036726 0.000000
# 6 0.000000 0.000000 0.000000 0.017864 0.000000 0.036641
#
#
# Mechanical properties :
#
#
# Convention : Reuss Voigt Hill
#
# Bulk Modulus (GPa) = 44.53741 73.85891 59.19816
# Shear Modulus (GPa) = 32.10995 42.85707 37.48351
#
# Velocity S-wave (km/s) = 3.36743 3.89036 3.63831
# Velocity P-wave (km/s) = 5.55408 6.80170 6.20931
#
# Compressibility (1/GPa) = 0.02245304
#
# Stress axis : x y z
#
# Youngs Moduli (GPa) = 64.18896 94.33379 126.42332
#
# Poissons Ratio (x) = 0.16164 0.36249
# Poissons Ratio (y) = 0.10999 0.15644
# Poissons Ratio (z) = 0.18405 0.11673
#
# Static dielectric constant tensor:
#      x y z
#    x 2.346050 0.000000 0.076020 
#    y 0.000000 2.274180 0.000000 
#    z 0.076020 0.000000 2.347840 
# 
# From -- ./inp_files/11860.got.cif
#   From: 2010.05.17/outbox.cif.g08.bks.cpg/sg13_6_cif.got.tgz:11860.got - 2010.06.03 16:44:36.
