data_PCOD9238539
_publ_section_title
;
Structure prediction by ZEFSAII (Michael W. Deem and Ramdas Pophale) SiO2 
 PCOD9238539
Probable space group: P 2/C
;
_chemical_formula_sum "Si O2"
_cell_formula_units_Z 16
_cell_length_a 9.388054
_cell_length_b 7.541454
_cell_length_c 20.128831
_cell_angle_alpha 90.000000
_cell_angle_beta 31.884134
_cell_angle_gamma 90.000000
_cell_volume 752.749135
_symmetry_space_group_name_H-M "P 2/C"
_symmetry_group_IT_number 13
_symmetry_cell_setting 'monoclinic'
loop_
_space_group_symop_operation_xyz
x,y,z
-x,y,1/2-z
-x,-y,-z
x,-y,1/2+z
loop_
_atom_site_type_symbol
_atom_site_label
_atom_site_fract_x
_atom_site_fract_y
_atom_site_fract_z
Si Si1 0.643830 0.147127 0.132648
Si Si2 0.188330 0.556334 0.113347
Si Si3 0.761936 0.039636 0.939921
Si Si4 0.091863 0.278768 0.355137
O O1 0.500000 0.036791 0.250000
O O2 0.898983 0.225947 0.070481
O O3 0.410458 0.293779 0.212500
O O4 0.691099 0.052351 0.045831
O O5 0.148686 0.765414 0.117699
O O6 0.076911 0.449973 0.094452
O O7 0.000000 0.502176 0.250000
O O8 0.500000 0.500000 0.000000
O O9 0.022726 0.119261 0.145538
O O10 0.500000 0.000000 0.000000
#
# Coordination Sequence:
#
# PCOD9238539 Si02
#       4
#     4   4   4   4
#     4   8  22  42  65  90 136 182 218 294 341 406
#     4  12  26  41  67 104 137 178 231 284 353 409
#     4  12  23  38  68  97 131 178 229 285 346 405
#     4   9  22  42  64  88 137 168 230 278 342 402
#
# _framework density 21.255420999999998
#
# number of rings (size 3 to 8) (size 9 to 14) (size 15 to 20)
#    1.500    0.000    2.500    2.250    3.500    1.000 
#    0.000    5.000    0.000    0.000    0.000    0.000 
#    0.000    0.000    0.000    0.000    0.000    0.000 
#
# Total GULP energy -89100.798364 kJ/mol
# GULP energy per Si atom -5568.799898 kJ/mol
# Density = 2.120704 g / cm^3
# Si number density = 21.255421 Si / 1000 Ang^3
#
#
#
# Elastic Constant Matrix: (Units=GPa)
#
#
# Indices 1 2 3 4 5 6 
#
# 1 171.9781 51.9518 43.5144 0.0000 -22.9482 0.0000
# 2 51.9518 103.1364 7.2570 0.0000 -25.1543 0.0000
# 3 43.5144 7.2570 71.9562 0.0000 -1.9368 0.0000
# 4 0.0000 0.0000 0.0000 185.4087 0.0000 -73.8230
# 5 -22.9482 -25.1543 -1.9368 0.0000 50.7763 0.0000
# 6 0.0000 0.0000 0.0000 -73.8230 0.0000 57.2629
#
#
#
# Elastic Compliance Matrix: (Units=1/GPa)
#
#
# Indices 1 2 3 4 5 6 
#
# 1 0.008248 -0.003372 -0.004597 0.000000 0.001882 0.000000
# 2 -0.003372 0.012475 0.000907 0.000000 0.004690 0.000000
# 3 -0.004597 0.000907 0.016559 0.000000 -0.000996 0.000000
# 4 0.000000 0.000000 0.000000 0.011082 0.000000 0.014287
# 5 0.001882 0.004690 -0.000996 0.000000 0.022830 0.000000
# 6 0.000000 0.000000 0.000000 0.014287 0.000000 0.035882
#
#
# Mechanical properties :
#
#
# Convention : Reuss Voigt Hill
#
# Bulk Modulus (GPa) = 43.18180 61.39077 52.28629
# Shear Modulus (GPa) = 38.78449 74.97940 56.88195
#
# Velocity S-wave (km/s) = 4.27627 5.94576 5.17873
# Velocity P-wave (km/s) = 6.68893 8.72245 7.77248
#
# Compressibility (1/GPa) = 0.02315790
#
# Stress axis : x y z
#
# Youngs Moduli (GPa) = 121.24863 80.16279 60.39061
#
# Poissons Ratio (x) = 0.27032 0.27760
# Poissons Ratio (y) = 0.40886 -0.05480
# Poissons Ratio (z) = 0.55736 -0.07274
#
# Static dielectric constant tensor:
#      x y z
#    x 1.810300 0.000000 0.106780 
#    y 0.000000 1.790650 0.000000 
#    z 0.106780 0.000000 2.404120 
# 
# From -- ./inp_files/75487.got.cif
#   From: 2010.05.17/outbox.cif.g08.bks.cpg/sg13_38_cif.got.tgz:75487.got - 2010.06.03 16:44:36.
