data_PCOD9238019
_publ_section_title
;
Structure prediction by ZEFSAII (Michael W. Deem and Ramdas Pophale) SiO2 
 PCOD9238019
Probable space group: P 2/C
;
_chemical_formula_sum "Si O2"
_cell_formula_units_Z 30
_cell_length_a 28.834961
_cell_length_b 4.918284
_cell_length_c 8.707554
_cell_angle_alpha 90.000000
_cell_angle_beta 118.454881
_cell_angle_gamma 90.000000
_cell_volume 1085.708323
_symmetry_space_group_name_H-M "P 2/C"
_symmetry_group_IT_number 13
_symmetry_cell_setting 'monoclinic'
loop_
_space_group_symop_operation_xyz
x,y,z
-x,y,1/2-z
-x,-y,-z
x,-y,1/2+z
loop_
_atom_site_type_symbol
_atom_site_label
_atom_site_fract_x
_atom_site_fract_y
_atom_site_fract_z
Si Si1 0.870148 0.504817 0.841015
Si Si2 0.639539 0.266687 0.005946
Si Si3 0.288668 0.229871 0.858139
Si Si4 0.221231 0.167238 0.468273
Si Si5 0.571664 0.650143 0.120028
Si Si6 0.500000 0.321831 0.250000
Si Si7 0.033084 0.190811 0.167872
Si Si8 0.125380 0.142395 0.889566
O O1 0.924910 0.628869 0.859764
O O2 0.871889 0.198150 0.788210
O O3 0.815325 0.634815 0.692132
O O4 0.871805 0.573277 0.020516
O O5 0.684251 0.495028 0.040333
O O6 0.603132 0.418643 0.074295
O O7 0.666278 0.993012 0.106947
O O8 0.609525 0.199865 0.799953
O O9 0.252431 0.061816 0.920694
O O10 0.258560 0.301683 0.653805
O O11 0.177995 0.015427 0.504679
O O12 0.533001 0.503871 0.182167
O O13 0.540365 0.816241 0.936133
O O14 0.000000 0.340770 0.250000
O O15 0.070574 0.997495 0.328469
O O16 0.000000 0.000000 0.000000
#
# Coordination Sequence:
#
# PCOD9238019 Si02
#       8
#     4   4   4   4   4   2   4   4
#     4  11  26  43  66  96 129 173 217 285 342 404
#     4  11  24  41  66  98 138 180 227 291 346 410
#     4  12  26  43  68  98 134 191 232 283 357 412
#     4  11  26  42  64  91 133 171 233 280 334 426
#     4   9  18  38  66 100 140 176 234 286 346 415
#     4   8  16  34  72 100 132 188 228 284 350 414
#     4  11  24  45  66  93 133 166 216 272 345 424
#     4  11  26  43  66  97 128 173 219 283 343 405
#
# _framework density 27.631727000000001
#
# number of rings (size 3 to 8) (size 9 to 14) (size 15 to 20)
#    0.000    1.333    2.667    1.600    7.467    1.067 
#    0.000    0.000    0.000   56.000    0.000    0.000 
#    0.000    0.000    0.000    0.000    0.000    0.000 
#
# Total GULP energy -168028.648593 kJ/mol
# GULP energy per Si atom -5600.954953 kJ/mol
# Density = 2.756884 g / cm^3
# Si number density = 27.631727 Si / 1000 Ang^3
#
#
#
# Elastic Constant Matrix: (Units=GPa)
#
#
# Indices 1 2 3 4 5 6 
#
# 1 133.3616 16.9565 65.4433 0.0000 -14.4732 0.0000
# 2 16.9565 63.7033 10.3037 0.0000 2.5208 0.0000
# 3 65.4433 10.3037 164.3663 0.0000 3.6151 0.0000
# 4 0.0000 0.0000 0.0000 26.0900 0.0000 -16.5199
# 5 -14.4732 2.5208 3.6151 0.0000 46.2114 0.0000
# 6 0.0000 0.0000 0.0000 -16.5199 0.0000 24.7805
#
#
#
# Elastic Compliance Matrix: (Units=1/GPa)
#
#
# Indices 1 2 3 4 5 6 
#
# 1 0.010116 -0.002193 -0.003969 0.000000 0.003598 0.000000
# 2 -0.002193 0.016363 -0.000118 0.000000 -0.001570 0.000000
# 3 -0.003969 -0.000118 0.007712 0.000000 -0.001840 0.000000
# 4 0.000000 0.000000 0.000000 0.066326 0.000000 0.044216
# 5 0.003598 -0.001570 -0.001840 0.000000 0.022996 0.000000
# 6 0.000000 0.000000 0.000000 0.044216 0.000000 0.069831
#
#
# Mechanical properties :
#
#
# Convention : Reuss Voigt Hill
#
# Bulk Modulus (GPa) = 46.23209 60.75979 53.49594
# Shear Modulus (GPa) = 23.46165 37.33155 30.39660
#
# Velocity S-wave (km/s) = 2.91707 3.67964 3.32032
# Velocity P-wave (km/s) = 5.30222 6.33165 5.83967
#
# Compressibility (1/GPa) = 0.02163000
#
# Stress axis : x y z
#
# Youngs Moduli (GPa) = 98.85803 61.11454 129.66451
#
# Poissons Ratio (x) = 0.13402 0.51467
# Poissons Ratio (y) = 0.21679 0.01531
# Poissons Ratio (z) = 0.39239 0.00722
#
# Static dielectric constant tensor:
#      x y z
#    x 2.195870 0.000000 0.063960 
#    y 0.000000 2.065030 0.000000 
#    z 0.063960 0.000000 2.083800 
# 
# From -- ./inp_files/24803.got.cif
#   From: 2010.05.17/outbox.cif.g08.bks.cpg/sg13_13_cif.got.tgz:24803.got - 2010.06.03 16:44:36.
