data_PCOD9238141
_publ_section_title
;
Structure prediction by ZEFSAII (Michael W. Deem and Ramdas Pophale) SiO2 
 PCOD9238141
Probable space group: P 2/C
;
_chemical_formula_sum "Si O2"
_cell_formula_units_Z 22
_cell_length_a 11.534136
_cell_length_b 11.073735
_cell_length_c 10.401310
_cell_angle_alpha 90.000000
_cell_angle_beta 45.893314
_cell_angle_gamma 90.000000
_cell_volume 953.935362
_symmetry_space_group_name_H-M "P 2/C"
_symmetry_group_IT_number 13
_symmetry_cell_setting 'monoclinic'
loop_
_space_group_symop_operation_xyz
x,y,z
-x,y,1/2-z
-x,-y,-z
x,-y,1/2+z
loop_
_atom_site_type_symbol
_atom_site_label
_atom_site_fract_x
_atom_site_fract_y
_atom_site_fract_z
Si Si1 0.131487 0.275733 0.759684
Si Si2 0.581117 0.118000 0.067542
Si Si3 0.072578 0.295147 0.326768
Si Si4 0.680621 0.502165 0.303650
Si Si5 0.333065 0.134539 0.036539
Si Si6 0.500000 0.346840 0.750000
O O1 0.276279 0.184155 0.617655
O O2 0.212992 0.406770 0.694609
O O3 0.000000 0.261815 0.750000
O O4 0.052744 0.267713 0.962421
O O5 0.500000 0.186356 0.250000
O O6 0.431689 0.105132 0.087855
O O7 0.649994 0.987435 0.058573
O O8 0.214209 0.380531 0.277575
O O9 0.155734 0.172736 0.213546
O O10 0.000000 0.349887 0.250000
O O11 0.500000 0.500000 0.500000
O O12 0.640257 0.568662 0.200199
O O13 0.415495 0.253115 0.912240
#
# Coordination Sequence:
#
# PCOD9238141 Si02
#       6
#     4   4   4   4   4   2
#     4  12  27  44  67 106 155 186 234 298 374 429
#     4  11  24  45  74 105 141 187 252 298 347 426
#     4  12  27  47  71 108 152 191 236 297 375 440
#     4  12  26  44  74 102 137 194 245 300 347 436
#     4  11  24  45  75 101 138 190 246 296 352 433
#     4  12  22  46  74 104 134 182 250 298 358 414
#
# _framework density 23.062359000000001
#
# number of rings (size 3 to 8) (size 9 to 14) (size 15 to 20)
#    0.000    0.364    4.545    3.273    2.545    1.455 
#    1.636    0.000    0.000    0.000    0.000    0.000 
#    0.000    0.000    0.000    0.000    0.000    0.000 
#
# Total GULP energy -122918.818820 kJ/mol
# GULP energy per Si atom -5587.219037 kJ/mol
# Density = 2.300987 g / cm^3
# Si number density = 23.062359 Si / 1000 Ang^3
#
#
#
# Elastic Constant Matrix: (Units=GPa)
#
#
# Indices 1 2 3 4 5 6 
#
# 1 88.6995 5.9920 24.8992 0.0000 -1.1579 0.0000
# 2 5.9920 74.5671 42.9146 0.0000 -3.3356 0.0000
# 3 24.8992 42.9146 184.6032 0.0000 1.9976 0.0000
# 4 0.0000 0.0000 0.0000 5.3687 0.0000 4.6035
# 5 -1.1579 -3.3356 1.9976 0.0000 37.2618 0.0000
# 6 0.0000 0.0000 0.0000 4.6035 0.0000 29.8947
#
#
#
# Elastic Compliance Matrix: (Units=1/GPa)
#
#
# Indices 1 2 3 4 5 6 
#
# 1 0.011725 -0.000011 -0.001584 0.000000 0.000448 0.000000
# 2 -0.000011 0.015576 -0.003637 0.000000 0.001589 0.000000
# 3 -0.001584 -0.003637 0.006484 0.000000 -0.000722 0.000000
# 4 0.000000 0.000000 0.000000 0.214602 0.000000 -0.033047
# 5 0.000448 0.001589 -0.000722 0.000000 0.027032 0.000000
# 6 0.000000 0.000000 0.000000 -0.033047 0.000000 0.038540
#
#
# Mechanical properties :
#
#
# Convention : Reuss Voigt Hill
#
# Bulk Modulus (GPa) = 42.87708 55.05349 48.96529
# Shear Modulus (GPa) = 15.05144 32.77598 23.91371
#
# Velocity S-wave (km/s) = 2.55745 3.77396 3.22361
# Velocity P-wave (km/s) = 5.23000 6.55086 5.92734
#
# Compressibility (1/GPa) = 0.02332248
#
# Stress axis : x y z
#
# Youngs Moduli (GPa) = 85.28638 64.20302 154.22884
#
# Poissons Ratio (x) = 0.00068 0.24428
# Poissons Ratio (y) = 0.00090 0.56087
# Poissons Ratio (z) = 0.13508 0.23348
#
# Static dielectric constant tensor:
#      x y z
#    x 1.861950 0.000000 0.056380 
#    y 0.000000 1.962200 0.000000 
#    z 0.056380 0.000000 1.968860 
# 
# From -- ./inp_files/33624.got.cif
#   From: 2010.05.17/outbox.cif.g08.bks.cpg/sg13_17_cif.got.tgz:33624.got - 2010.06.03 16:44:36.
