data_PCOD9238255
_publ_section_title
;
Structure prediction by ZEFSAII (Michael W. Deem and Ramdas Pophale) SiO2 
 PCOD9238255
Probable space group: P 2/C
;
_chemical_formula_sum "Si O2"
_cell_formula_units_Z 20
_cell_length_a 8.556913
_cell_length_b 7.726335
_cell_length_c 13.452391
_cell_angle_alpha 90.000000
_cell_angle_beta 125.537498
_cell_angle_gamma 90.000000
_cell_volume 723.724519
_symmetry_space_group_name_H-M "P 2/C"
_symmetry_group_IT_number 13
_symmetry_cell_setting 'monoclinic'
loop_
_space_group_symop_operation_xyz
x,y,z
-x,y,1/2-z
-x,-y,-z
x,-y,1/2+z
loop_
_atom_site_type_symbol
_atom_site_label
_atom_site_fract_x
_atom_site_fract_y
_atom_site_fract_z
Si Si1 0.841953 0.096443 0.769412
Si Si2 0.342323 0.858366 0.109705
Si Si3 0.772810 0.520635 0.922099
Si Si4 0.608317 0.802505 0.004397
Si Si5 0.198838 0.696364 0.773120
O O1 0.844481 0.146671 0.884383
O O2 0.658126 0.168736 0.638668
O O3 0.000000 0.158941 0.750000
O O4 0.857624 0.889723 0.780640
O O5 0.500000 0.917683 0.250000
O O6 0.339242 0.653191 0.090211
O O7 0.611097 0.259797 0.092698
O O8 0.726038 0.659583 0.989224
O O9 0.727435 0.587662 0.793782
O O10 0.000000 0.500000 0.000000
O O11 0.665499 0.985930 0.972774
O O12 0.000000 0.626371 0.750000
#
# Coordination Sequence:
#
# PCOD9238255 Si02
#       5
#     4   4   4   4   4
#     4  11  25  44  77 112 147 199 257 314 386 470
#     4  12  25  46  76 108 149 199 259 314 393 468
#     4  12  28  46  75 111 156 206 256 324 394 473
#     4  12  25  52  78 109 157 208 256 329 398 457
#     4  11  25  48  76 109 152 202 258 327 386 462
#
# _framework density 27.634822
#
# number of rings (size 3 to 8) (size 9 to 14) (size 15 to 20)
#    0.000    0.400    4.000    3.600    5.600    4.000 
#    0.000    3.000    0.000    0.000    0.000    0.000 
#    0.000    0.000    0.000    0.000    0.000    0.000 
#
# Total GULP energy -111927.010014 kJ/mol
# GULP energy per Si atom -5596.350501 kJ/mol
# Density = 2.757192 g / cm^3
# Si number density = 27.634822 Si / 1000 Ang^3
#
#
#
# Elastic Constant Matrix: (Units=GPa)
#
#
# Indices 1 2 3 4 5 6 
#
# 1 115.0919 64.6121 37.4359 0.0000 -18.7206 0.0000
# 2 64.6121 155.7131 49.4440 0.0000 -23.5333 0.0000
# 3 37.4359 49.4440 113.0070 0.0000 -34.6082 0.0000
# 4 0.0000 0.0000 0.0000 77.3231 0.0000 -85.8750
# 5 -18.7206 -23.5333 -34.6082 0.0000 61.2509 0.0000
# 6 0.0000 0.0000 0.0000 -85.8750 0.0000 218.8078
#
#
#
# Elastic Compliance Matrix: (Units=1/GPa)
#
#
# Indices 1 2 3 4 5 6 
#
# 1 0.011767 -0.004171 -0.001769 0.000000 0.000995 0.000000
# 2 -0.004171 0.009015 -0.002288 0.000000 0.000896 0.000000
# 3 -0.001769 -0.002288 0.012094 0.000000 0.005414 0.000000
# 4 0.000000 0.000000 0.000000 0.022925 0.000000 0.008997
# 5 0.000995 0.000896 0.005414 0.000000 0.020033 0.000000
# 6 0.000000 0.000000 0.000000 0.008997 0.000000 0.008101
#
#
# Mechanical properties :
#
#
# Convention : Reuss Voigt Hill
#
# Bulk Modulus (GPa) = 60.89882 76.31066 68.60474
# Shear Modulus (GPa) = 47.23002 86.96435 67.09719
#
# Velocity S-wave (km/s) = 4.13858 5.61582 4.93281
# Velocity P-wave (km/s) = 6.70239 8.35008 7.57119
#
# Compressibility (1/GPa) = 0.01642068
#
# Stress axis : x y z
#
# Youngs Moduli (GPa) = 84.98144 110.93009 82.68576
#
# Poissons Ratio (x) = 0.46267 0.14624
# Poissons Ratio (y) = 0.35444 0.18920
# Poissons Ratio (z) = 0.15030 0.25383
#
# Static dielectric constant tensor:
#      x y z
#    x 3.168230 0.000000 0.043230 
#    y 0.000000 2.073770 0.000000 
#    z 0.043230 0.000000 2.330740 
# 
# From -- ./inp_files/49417.got.cif
#   From: 2010.05.17/outbox.cif.g08.bks.cpg/sg13_25_cif.got.tgz:49417.got - 2010.06.03 16:44:36.
