data_PCOD9238394
_publ_section_title
;
Structure prediction by ZEFSAII (Michael W. Deem and Ramdas Pophale) SiO2 
 PCOD9238394
Probable space group: P 2/C
;
_chemical_formula_sum "Si O2"
_cell_formula_units_Z 12
_cell_length_a 15.443305
_cell_length_b 4.940830
_cell_length_c 10.672579
_cell_angle_alpha 90.000000
_cell_angle_beta 146.832712
_cell_angle_gamma 90.000000
_cell_volume 445.517392
_symmetry_space_group_name_H-M "P 2/C"
_symmetry_group_IT_number 13
_symmetry_cell_setting 'monoclinic'
loop_
_space_group_symop_operation_xyz
x,y,z
-x,y,1/2-z
-x,-y,-z
x,-y,1/2+z
loop_
_atom_site_type_symbol
_atom_site_label
_atom_site_fract_x
_atom_site_fract_y
_atom_site_fract_z
Si Si1 0.772886 0.478311 0.323530
Si Si2 0.499816 0.195042 0.118060
Si Si3 0.000000 0.000000 0.500000
Si Si4 0.000000 0.118301 0.250000
O O1 0.656453 0.373962 0.289956
O O2 0.891396 0.707649 0.521909
O O3 0.870403 0.237215 0.380565
O O4 0.653840 0.618174 0.082804
O O5 0.500000 0.047823 0.250000
O O6 0.500000 0.000000 0.000000
O O7 0.085314 0.048420 0.745489
#
# Coordination Sequence:
#
# PCOD9238394 Si02
#       4
#     4   4   2   2
#     4  11  26  46  75 109 152 202 264 331 397 475
#     4  11  26  48  74 108 151 205 262 322 397 485
#     4  12  26  46  74 108 150 200 256 326 396 468
#     4  12  26  46  72 110 152 198 258 328 406 476
#
# _framework density 26.934972999999999
#
# number of rings (size 3 to 8) (size 9 to 14) (size 15 to 20)
#    0.000    0.667    0.000    6.000    0.000   18.667 
#    0.000    0.000    0.000    0.000    0.000    0.000 
#    0.000    0.000    0.000    0.000    0.000    0.000 
#
# Total GULP energy -66820.145249 kJ/mol
# GULP energy per Si atom -5568.345437 kJ/mol
# Density = 2.687367 g / cm^3
# Si number density = 26.934973 Si / 1000 Ang^3
#
#
#
# Elastic Constant Matrix: (Units=GPa)
#
#
# Indices 1 2 3 4 5 6 
#
# 1 144.4106 48.6552 94.9692 0.0000 -19.3857 0.0000
# 2 48.6552 100.6208 39.1538 0.0000 27.6377 0.0000
# 3 94.9692 39.1538 124.1592 0.0000 -4.4458 0.0000
# 4 0.0000 0.0000 0.0000 57.6342 0.0000 24.1279
# 5 -19.3857 27.6377 -4.4458 0.0000 81.3411 0.0000
# 6 0.0000 0.0000 0.0000 24.1279 0.0000 62.8091
#
#
#
# Elastic Compliance Matrix: (Units=1/GPa)
#
#
# Indices 1 2 3 4 5 6 
#
# 1 0.016404 -0.005144 -0.010743 0.000000 0.005070 0.000000
# 2 -0.005144 0.014452 -0.000844 0.000000 -0.006183 0.000000
# 3 -0.010743 -0.000844 0.016489 0.000000 -0.001372 0.000000
# 4 0.000000 0.000000 0.000000 0.020676 0.000000 -0.007943
# 5 0.005070 -0.006183 -0.001372 0.000000 0.015528 0.000000
# 6 0.000000 0.000000 0.000000 -0.007943 0.000000 0.018972
#
#
# Mechanical properties :
#
#
# Convention : Reuss Voigt Hill
#
# Bulk Modulus (GPa) = 72.03847 81.63858 76.83852
# Shear Modulus (GPa) = 35.55881 52.78438 44.17160
#
# Velocity S-wave (km/s) = 3.63736 4.43165 4.05400
# Velocity P-wave (km/s) = 6.66663 7.52073 7.10652
#
# Compressibility (1/GPa) = 0.01388147
#
# Stress axis : x y z
#
# Youngs Moduli (GPa) = 60.96181 69.19223 60.64683
#
# Poissons Ratio (x) = 0.35593 0.65155
# Poissons Ratio (y) = 0.31359 0.05120
# Poissons Ratio (z) = 0.65494 0.05842
#
# Static dielectric constant tensor:
#      x y z
#    x 1.727850 0.000000 -0.013510 
#    y 0.000000 1.472490 0.000000 
#    z -0.013510 0.000000 2.236870 
# 
# From -- ./inp_files/17684.got.cif
#   From: 2010.05.17/outbox.cif.g08.bks.cpg/sg13_9_cif.got.tgz:17684.got - 2010.06.03 16:44:36.
