data_PCOD9238363
_publ_section_title
;
Structure prediction by ZEFSAII (Michael W. Deem and Ramdas Pophale) SiO2 
 PCOD9238363
Probable space group: P 2/C
;
_chemical_formula_sum "Si O2"
_cell_formula_units_Z 18
_cell_length_a 6.479854
_cell_length_b 7.705136
_cell_length_c 15.467293
_cell_angle_alpha 90.000000
_cell_angle_beta 60.412792
_cell_angle_gamma 90.000000
_cell_volume 671.555582
_symmetry_space_group_name_H-M "P 2/C"
_symmetry_group_IT_number 13
_symmetry_cell_setting 'monoclinic'
loop_
_space_group_symop_operation_xyz
x,y,z
-x,y,1/2-z
-x,-y,-z
x,-y,1/2+z
loop_
_atom_site_type_symbol
_atom_site_label
_atom_site_fract_x
_atom_site_fract_y
_atom_site_fract_z
Si Si1 0.425660 0.635253 0.142680
Si Si2 0.009635 0.846373 0.890318
Si Si3 0.500000 0.953443 0.250000
Si Si4 0.711819 0.309762 0.025024
Si Si5 0.000000 0.433190 0.250000
Si Si6 0.500000 0.000000 0.000000
O O1 0.495654 0.818687 0.168638
O O2 0.620692 0.488424 0.086483
O O3 0.215995 0.549088 0.239734
O O4 0.302052 0.666170 0.075273
O O5 0.059440 0.753545 0.971555
O O6 0.940155 0.692274 0.840639
O O7 0.253966 0.938155 0.807154
O O8 0.789120 0.973687 0.943356
O O9 0.522729 0.153337 0.070620
#
# Coordination Sequence:
#
# PCOD9238363 Si02
#       6
#     4   4   2   4   2   2
#     4  11  26  48  80 118 159 204 268 334 407 463
#     4  12  28  51  83 112 162 212 272 321 401 480
#     4  12  28  50  86 124 156 208 264 344 398 464
#     4  11  25  51  78 113 156 216 263 321 395 493
#     4  12  26  50  76 116 164 204 262 336 398 462
#     4  12  26  52  74 118 152 218 262 322 386 512
#
# _framework density 26.803439999999998
#
# number of rings (size 3 to 8) (size 9 to 14) (size 15 to 20)
#    0.000    0.444    2.222    4.667    6.222    0.889 
#    0.000    0.000    0.000    0.000    0.000    0.000 
#    0.000    0.000    0.000    0.000    0.000    0.000 
#
# Total GULP energy -100397.359369 kJ/mol
# GULP energy per Si atom -5577.631076 kJ/mol
# Density = 2.674243 g / cm^3
# Si number density = 26.803440 Si / 1000 Ang^3
#
#
#
# Elastic Constant Matrix: (Units=GPa)
#
#
# Indices 1 2 3 4 5 6 
#
# 1 114.3756 53.2586 47.2083 0.0000 -33.5184 0.0000
# 2 53.2586 158.5301 30.1182 0.0000 -25.5093 0.0000
# 3 47.2083 30.1182 74.7564 0.0000 -21.6074 0.0000
# 4 0.0000 0.0000 0.0000 63.3065 0.0000 -9.3955
# 5 -33.5184 -25.5093 -21.6074 0.0000 57.9248 0.0000
# 6 0.0000 0.0000 0.0000 -9.3955 0.0000 46.7518
#
#
#
# Elastic Compliance Matrix: (Units=1/GPa)
#
#
# Indices 1 2 3 4 5 6 
#
# 1 0.013996 -0.002759 -0.006431 0.000000 0.004485 0.000000
# 2 -0.002759 0.007639 -0.000924 0.000000 0.001423 0.000000
# 3 -0.006431 -0.000924 0.018625 0.000000 0.002819 0.000000
# 4 0.000000 0.000000 0.000000 0.016282 0.000000 0.003272
# 5 0.004485 0.001423 0.002819 0.000000 0.021538 0.000000
# 6 0.000000 0.000000 0.000000 0.003272 0.000000 0.022047
#
#
# Mechanical properties :
#
#
# Convention : Reuss Voigt Hill
#
# Bulk Modulus (GPa) = 49.91705 67.64803 58.78254
# Shear Modulus (GPa) = 39.35987 48.06842 43.71415
#
# Velocity S-wave (km/s) = 3.83621 4.23941 4.04284
# Velocity P-wave (km/s) = 6.18755 7.01832 6.61599
#
# Compressibility (1/GPa) = 0.02003324
#
# Stress axis : x y z
#
# Youngs Moduli (GPa) = 71.44669 130.90139 53.69085
#
# Poissons Ratio (x) = 0.36111 0.34528
# Poissons Ratio (y) = 0.19710 0.04963
# Poissons Ratio (z) = 0.45946 0.12100
#
# Static dielectric constant tensor:
#      x y z
#    x 1.865560 0.000000 0.296900 
#    y 0.000000 3.703840 0.000000 
#    z 0.296900 0.000000 1.399400 
# 
# From -- ./inp_files/60557.got.cif
#   From: 2010.05.17/outbox.cif.g08.bks.cpg/sg13_31_cif.got.tgz:60557.got - 2010.06.03 16:44:36.
