data_PCOD9238861
_publ_section_title
;
Structure prediction by ZEFSAII (Michael W. Deem and Ramdas Pophale) SiO2 
 PCOD9238861
Probable space group: P 2/C
;
_chemical_formula_sum "Si O2"
_cell_formula_units_Z 24
_cell_length_a 15.320590
_cell_length_b 6.417224
_cell_length_c 17.587493
_cell_angle_alpha 90.000000
_cell_angle_beta 147.113323
_cell_angle_gamma 90.000000
_cell_volume 938.879419
_symmetry_space_group_name_H-M "P 2/C"
_symmetry_group_IT_number 13
_symmetry_cell_setting 'monoclinic'
loop_
_space_group_symop_operation_xyz
x,y,z
-x,y,1/2-z
-x,-y,-z
x,-y,1/2+z
loop_
_atom_site_type_symbol
_atom_site_label
_atom_site_fract_x
_atom_site_fract_y
_atom_site_fract_z
Si Si1 0.379221 0.157431 0.092968
Si Si2 0.933843 0.307091 0.105050
Si Si3 0.897633 0.368618 0.864749
Si Si4 0.259708 0.206795 0.400561
Si Si5 0.151144 0.937080 0.551685
Si Si6 0.628112 0.656497 0.676687
O O1 0.500000 0.090785 0.250000
O O2 0.467475 0.335359 0.108679
O O3 0.220128 0.185185 0.026596
O O4 0.345603 0.983013 0.005414
O O5 0.803985 0.345905 0.075269
O O6 0.038418 0.510869 0.162849
O O7 0.082007 0.153882 0.236805
O O8 0.842829 0.177336 0.972008
O O9 0.714907 0.432210 0.742895
O O10 0.966187 0.139673 0.922222
O O11 0.000000 0.500000 0.000000
O O12 0.367606 0.284580 0.409218
O O13 0.257981 0.829037 0.696405
#
# Coordination Sequence:
#
# PCOD9238861 Si02
#       6
#     4   4   4   4   4   4
#     4   9  17  31  52  76 106 145 181 217 267 320
#     4   9  18  33  51  76 106 135 176 223 261 311
#     4   9  18  31  52  78 100 134 176 214 260 306
#     4   9  17  30  50  77 106 139 175 216 269 313
#     4   9  18  33  55  77 103 140 179 216 261 316
#     4   9  17  30  52  78 107 139 173 219 267 313
#
# _framework density 25.562387999999999
#
# number of rings (size 3 to 8) (size 9 to 14) (size 15 to 20)
#    0.000    3.000    0.000    0.500    0.000    6.000 
#    0.000   13.333    0.000   52.000    0.000    0.000 
#    0.000    0.000    0.000    0.000    0.000    0.000 
#
# Total GULP energy -133660.475479 kJ/mol
# GULP energy per Si atom -5569.186478 kJ/mol
# Density = 2.550421 g / cm^3
# Si number density = 25.562388 Si / 1000 Ang^3
#
#
#
# Elastic Constant Matrix: (Units=GPa)
#
#
# Indices 1 2 3 4 5 6 
#
# 1 96.9490 1.6171 32.7430 0.0000 -17.7358 0.0000
# 2 1.6171 64.8282 34.8254 0.0000 -2.8628 0.0000
# 3 32.7430 34.8254 80.6405 0.0000 -10.6212 0.0000
# 4 0.0000 0.0000 0.0000 30.7028 0.0000 7.8079
# 5 -17.7358 -2.8628 -10.6212 0.0000 46.2685 0.0000
# 6 0.0000 0.0000 0.0000 7.8079 0.0000 21.4972
#
#
#
# Elastic Compliance Matrix: (Units=1/GPa)
#
#
# Indices 1 2 3 4 5 6 
#
# 1 0.013031 0.003147 -0.006153 0.000000 0.003778 0.000000
# 2 0.003147 0.020872 -0.010273 0.000000 0.000139 0.000000
# 3 -0.006153 -0.010273 0.019532 0.000000 0.001490 0.000000
# 4 0.000000 0.000000 0.000000 0.035885 0.000000 -0.013034
# 5 0.003778 0.000139 0.001490 0.000000 0.023412 0.000000
# 6 0.000000 0.000000 0.000000 -0.013034 0.000000 0.051251
#
#
# Mechanical properties :
#
#
# Convention : Reuss Voigt Hill
#
# Bulk Modulus (GPa) = 37.20653 42.30985 39.75819
# Shear Modulus (GPa) = 25.06278 31.24250 28.15264
#
# Velocity S-wave (km/s) = 3.13462 3.49980 3.32223
# Velocity P-wave (km/s) = 5.26193 5.73751 5.50486
#
# Compressibility (1/GPa) = 0.02687701
#
# Stress axis : x y z
#
# Youngs Moduli (GPa) = 76.73869 47.91179 51.19901
#
# Poissons Ratio (x) = -0.15078 0.31501
# Poissons Ratio (y) = -0.24149 0.52597
# Poissons Ratio (z) = 0.47215 0.49220
#
# Static dielectric constant tensor:
#      x y z
#    x 2.217630 0.000000 -0.079700 
#    y 0.000000 2.090000 0.000000 
#    z -0.079700 0.000000 2.115240 
# 
# From -- ./inp_files/53195.got.cif
#   From: 2010.05.17/outbox.cif.g08.bks.cpg/sg13_27_cif.got.tgz:53195.got - 2010.06.03 16:44:36.
