data_PCOD9238487
_publ_section_title
;
Structure prediction by ZEFSAII (Michael W. Deem and Ramdas Pophale) SiO2 
 PCOD9238487
Probable space group: P 2/C
;
_chemical_formula_sum "Si O2"
_cell_formula_units_Z 28
_cell_length_a 28.018374
_cell_length_b 9.358102
_cell_length_c 26.962328
_cell_angle_alpha 90.000000
_cell_angle_beta 169.474784
_cell_angle_gamma 90.000000
_cell_volume 1291.371317
_symmetry_space_group_name_H-M "P 2/C"
_symmetry_group_IT_number 13
_symmetry_cell_setting 'monoclinic'
loop_
_space_group_symop_operation_xyz
x,y,z
-x,y,1/2-z
-x,-y,-z
x,-y,1/2+z
loop_
_atom_site_type_symbol
_atom_site_label
_atom_site_fract_x
_atom_site_fract_y
_atom_site_fract_z
Si Si1 0.101951 0.939436 0.909861
Si Si2 0.092277 0.215971 0.537143
Si Si3 0.915623 0.616715 0.567902
Si Si4 0.735520 0.576382 0.211442
Si Si5 0.567152 0.963755 0.512531
Si Si6 0.625130 0.896772 0.972350
Si Si7 0.607805 0.567037 0.963320
O O1 0.098487 0.770353 0.919740
O O2 0.000000 0.953838 0.750000
O O3 0.894272 0.028881 0.730646
O O4 0.386464 0.011182 0.206183
O O5 0.059515 0.343671 0.465026
O O6 0.219669 0.268683 0.718388
O O7 0.820420 0.137617 0.268942
O O8 0.306006 0.117691 0.728900
O O9 0.662513 0.518989 0.317149
O O10 0.172523 0.524136 0.840786
O O11 0.000000 0.500000 0.500000
O O12 0.500000 0.500000 0.000000
O O13 0.680092 0.575251 0.096275
O O14 0.500000 0.000000 0.500000
O O15 0.609012 0.086586 0.515450
O O16 0.601112 0.729090 0.936601
#
# Coordination Sequence:
#
# PCOD9238487 Si02
#       7
#     4   4   4   4   4   4   4
#     4  12  27  50  78 102 129 181 237 292 360 428
#     4  12  22  39  63  93 134 190 236 278 323 397
#     4  12  23  45  72  96 136 179 233 286 340 411
#     4  12  22  35  58  93 140 187 228 264 326 407
#     4  12  24  40  64  98 142 185 232 279 336 406
#     4  12  25  47  72 106 144 178 230 292 353 417
#     4  12  25  42  67 104 141 184 224 285 349 403
#
# _framework density 21.682373999999999
#
# number of rings (size 3 to 8) (size 9 to 14) (size 15 to 20)
#    0.000    0.000    5.714    5.143    0.000    2.286 
#    0.000    4.286    0.000    0.000    0.000    0.000 
#    0.000    0.000    0.000    0.000    0.000    0.000 
#
# Total GULP energy -156591.511159 kJ/mol
# GULP energy per Si atom -5592.553970 kJ/mol
# Density = 2.163302 g / cm^3
# Si number density = 21.682374 Si / 1000 Ang^3
#
#
#
# Elastic Constant Matrix: (Units=GPa)
#
#
# Indices 1 2 3 4 5 6 
#
# 1 44.0319 6.7993 -0.5759 0.0000 -3.6152 0.0000
# 2 6.7993 158.6920 66.4335 0.0000 16.2902 0.0000
# 3 -0.5759 66.4335 167.0898 0.0000 27.1114 0.0000
# 4 0.0000 0.0000 0.0000 40.2069 0.0000 -0.6533
# 5 -3.6152 16.2902 27.1114 0.0000 28.0154 0.0000
# 6 0.0000 0.0000 0.0000 -0.6533 0.0000 21.9153
#
#
#
# Elastic Compliance Matrix: (Units=1/GPa)
#
#
# Indices 1 2 3 4 5 6 
#
# 1 0.023237 -0.001393 0.000019 0.000000 0.003790 0.000000
# 2 -0.001393 0.007717 -0.002747 0.000000 -0.002009 0.000000
# 3 0.000019 -0.002747 0.008087 0.000000 -0.006227 0.000000
# 4 0.000000 0.000000 0.000000 0.024883 0.000000 0.000742
# 5 0.003790 -0.002009 -0.006227 0.000000 0.043377 0.000000
# 6 0.000000 0.000000 0.000000 0.000742 0.000000 0.045652
#
#
# Mechanical properties :
#
#
# Convention : Reuss Voigt Hill
#
# Bulk Modulus (GPa) = 32.46743 57.23640 44.85191
# Shear Modulus (GPa) = 29.16062 37.83799 33.49930
#
# Velocity S-wave (km/s) = 3.67127 4.18198 3.93492
# Velocity P-wave (km/s) = 5.74261 7.05504 6.43238
#
# Compressibility (1/GPa) = 0.03080010
#
# Stress axis : x y z
#
# Youngs Moduli (GPa) = 43.03427 129.57611 123.64784
#
# Poissons Ratio (x) = 0.18044 -0.00232
# Poissons Ratio (y) = 0.05993 0.33970
# Poissons Ratio (z) = -0.00081 0.35598
#
# Static dielectric constant tensor:
#      x y z
#    x 1.789210 0.000000 -0.013060 
#    y 0.000000 1.805860 0.000000 
#    z -0.013060 0.000000 1.738290 
# 
# From -- ./inp_files/98094.got.cif
#   From: 2010.05.17/outbox.cif.g08.bks.cpg/sg13_50_cif.got.tgz:98094.got - 2010.06.03 16:44:36.
