data_PCOD9238430
_publ_section_title
;
Structure prediction by ZEFSAII (Michael W. Deem and Ramdas Pophale) SiO2 
 PCOD9238430
Probable space group: P 2/C
;
_chemical_formula_sum "Si O2"
_cell_formula_units_Z 20
_cell_length_a 4.957571
_cell_length_b 8.426770
_cell_length_c 21.072697
_cell_angle_alpha 90.000000
_cell_angle_beta 115.933682
_cell_angle_gamma 90.000000
_cell_volume 791.690087
_symmetry_space_group_name_H-M "P 2/C"
_symmetry_group_IT_number 13
_symmetry_cell_setting 'monoclinic'
loop_
_space_group_symop_operation_xyz
x,y,z
-x,y,1/2-z
-x,-y,-z
x,-y,1/2+z
loop_
_atom_site_type_symbol
_atom_site_label
_atom_site_fract_x
_atom_site_fract_y
_atom_site_fract_z
Si Si1 0.107402 0.855198 0.864699
Si Si2 0.500000 0.438361 0.750000
Si Si3 0.544893 0.062208 0.830788
Si Si4 0.790703 0.364037 0.896731
Si Si5 0.000000 0.385729 0.250000
Si Si6 0.370242 0.359082 0.029182
O O1 0.950748 0.717664 0.807839
O O2 0.371600 0.769420 0.931497
O O3 0.275474 0.959276 0.829373
O O4 0.851297 0.960820 0.870656
O O5 0.785799 0.373867 0.819661
O O6 0.310677 0.521391 0.786046
O O7 0.500000 0.091411 0.750000
O O8 0.550609 0.220831 0.874547
O O9 0.747422 0.538457 0.922647
O O10 0.084585 0.296829 0.961458
O O11 0.500000 0.500000 0.000000
#
# Coordination Sequence:
#
# PCOD9238430 Si02
#       6
#     4   2   4   4   2   4
#     4  12  26  45  74 102 149 188 242 299 366 441
#     4  12  24  42  76 110 134 196 244 312 358 420
#     4  12  26  47  71 113 148 190 240 305 372 439
#     4  11  27  46  74 107 149 188 250 306 364 438
#     4  12  22  40  70 108 140 184 242 300 364 426
#     4  11  27  50  73 107 144 199 248 302 362 438
#
# _framework density 25.262408000000001
#
# number of rings (size 3 to 8) (size 9 to 14) (size 15 to 20)
#    0.000    0.400    5.000    2.400    8.400    1.600 
#    0.000    0.000    0.000    0.000    0.000    0.000 
#    0.000    0.000    0.000    0.000    0.000    0.000 
#
# Total GULP energy -111599.731908 kJ/mol
# GULP energy per Si atom -5579.986595 kJ/mol
# Density = 2.520491 g / cm^3
# Si number density = 25.262408 Si / 1000 Ang^3
#
#
#
# Elastic Constant Matrix: (Units=GPa)
#
#
# Indices 1 2 3 4 5 6 
#
# 1 94.5364 20.2739 9.4355 0.0000 12.3825 0.0000
# 2 20.2739 70.0734 38.7465 0.0000 20.4270 0.0000
# 3 9.4355 38.7465 130.5677 0.0000 39.3899 0.0000
# 4 0.0000 0.0000 0.0000 24.3606 0.0000 -14.4111
# 5 12.3825 20.4270 39.3899 0.0000 38.2341 0.0000
# 6 0.0000 0.0000 0.0000 -14.4111 0.0000 -1.7137
#
#
#
# Elastic Compliance Matrix: (Units=1/GPa)
#
#
# Indices 1 2 3 4 5 6 
#
# 1 0.011531 -0.002964 0.001009 0.000000 -0.003190 0.000000
# 2 -0.002964 0.018722 -0.003792 0.000000 -0.005136 0.000000
# 3 0.001009 -0.003792 0.011896 0.000000 -0.010556 0.000000
# 4 0.000000 0.000000 0.000000 0.006870 0.000000 -0.057777
# 5 -0.003190 -0.005136 -0.010556 0.000000 0.040807 0.000000
# 6 0.000000 0.000000 0.000000 -0.057777 0.000000 -0.097667
#
#
# Mechanical properties :
#
#
# Convention : Reuss Voigt Hill
#
# Bulk Modulus (GPa) = 32.62256 48.00994 40.31625
# Shear Modulus (GPa) = 360.42033 27.29098 193.85566
#
# Velocity S-wave (km/s) = 11.95744 3.29036 8.76946
# Velocity P-wave (km/s) = 14.26822 5.78628 10.88722
#
# Compressibility (1/GPa) = 0.03065363
#
# Stress axis : x y z
#
# Youngs Moduli (GPa) = 86.72484 53.41202 84.06206
#
# Poissons Ratio (x) = 0.15831 -0.08479
# Poissons Ratio (y) = 0.25705 0.31880
# Poissons Ratio (z) = -0.08747 0.20256
#
# Static dielectric constant tensor:
#      x y z
#    x 1.620220 0.000000 -0.314080 
#    y 0.000000 2.268080 0.000000 
#    z -0.314080 0.000000 1.931790 
# 
# From -- ./inp_files/72782.got.cif
#   From: 2010.05.17/outbox.cif.g08.bks.cpg/sg13_37_cif.got.tgz:72782.got - 2010.06.03 16:44:36.
