data_PCOD9238083
_publ_section_title
;
Structure prediction by ZEFSAII (Michael W. Deem and Ramdas Pophale) SiO2 
 PCOD9238083
Probable space group: P 2/C
;
_chemical_formula_sum "Si O2"
_cell_formula_units_Z 26
_cell_length_a 17.304714
_cell_length_b 5.518662
_cell_length_c 12.636403
_cell_angle_alpha 90.000000
_cell_angle_beta 76.953595
_cell_angle_gamma 90.000000
_cell_volume 1175.612692
_symmetry_space_group_name_H-M "P 2/C"
_symmetry_group_IT_number 13
_symmetry_cell_setting 'monoclinic'
loop_
_space_group_symop_operation_xyz
x,y,z
-x,y,1/2-z
-x,-y,-z
x,-y,1/2+z
loop_
_atom_site_type_symbol
_atom_site_label
_atom_site_fract_x
_atom_site_fract_y
_atom_site_fract_z
Si Si1 0.285033 0.697091 0.669723
Si Si2 0.929579 0.094579 0.946467
Si Si3 0.195142 0.063670 0.850777
Si Si4 0.409462 0.336034 0.312022
Si Si5 0.000000 0.765171 0.750000
Si Si6 0.126707 0.418686 0.711864
Si Si7 0.654356 0.819454 0.076188
O O1 0.356775 0.615883 0.723002
O O2 0.216582 0.503691 0.661096
O O3 0.320530 0.818188 0.554009
O O4 0.237034 0.881463 0.758197
O O5 0.916415 0.343171 0.884639
O O6 0.945174 0.916317 0.844406
O O7 0.850504 0.058211 0.038374
O O8 0.000000 0.000000 0.000000
O O9 0.135238 0.213058 0.797202
O O10 0.265111 0.220427 0.881114
O O11 0.500000 0.304223 0.250000
O O12 0.398662 0.580570 0.385130
O O13 0.380283 0.082640 0.376542
O O14 0.932449 0.607507 0.714674
#
# Coordination Sequence:
#
# PCOD9238083 Si02
#       7
#     4   4   4   4   2   4   4
#     4  11  26  43  71 106 141 190 249 294 370 445
#     4  12  26  43  65  96 138 183 240 307 368 431
#     4  11  24  44  67 102 137 186 242 308 352 441
#     4  11  26  48  74 111 151 191 244 303 368 443
#     4  12  26  42  62  98 128 182 234 300 362 444
#     4  12  24  43  69  94 139 184 241 298 368 439
#     4  11  25  44  76 107 148 196 239 303 366 435
#
# _framework density 22.116128
#
# number of rings (size 3 to 8) (size 9 to 14) (size 15 to 20)
#    0.000    0.615    1.538    6.462    6.462    6.154 
#    0.000    0.000    0.000    0.000    0.000    0.000 
#    0.000    0.000    0.000    0.000    0.000    0.000 
#
# Total GULP energy -145143.265210 kJ/mol
# GULP energy per Si atom -5582.433277 kJ/mol
# Density = 2.206579 g / cm^3
# Si number density = 22.116128 Si / 1000 Ang^3
#
#
#
# Elastic Constant Matrix: (Units=GPa)
#
#
# Indices 1 2 3 4 5 6 
#
# 1 92.4983 30.4848 46.7382 0.0000 -11.0178 0.0000
# 2 30.4848 82.6440 51.0861 0.0000 -7.4249 0.0000
# 3 46.7382 51.0861 154.8103 0.0000 -13.8973 0.0000
# 4 0.0000 0.0000 0.0000 38.3386 0.0000 -5.1257
# 5 -11.0178 -7.4249 -13.8973 0.0000 19.8051 0.0000
# 6 0.0000 0.0000 0.0000 -5.1257 0.0000 31.2980
#
#
#
# Elastic Compliance Matrix: (Units=1/GPa)
#
#
# Indices 1 2 3 4 5 6 
#
# 1 0.013723 -0.002943 -0.002759 0.000000 0.004594 0.000000
# 2 -0.002943 0.015933 -0.004247 0.000000 0.001355 0.000000
# 3 -0.002759 -0.004247 0.008979 0.000000 0.003173 0.000000
# 4 0.000000 0.000000 0.000000 0.026667 0.000000 0.004367
# 5 0.004594 0.001355 0.003173 0.000000 0.055783 0.000000
# 6 0.000000 0.000000 0.000000 0.004367 0.000000 0.032666
#
#
# Mechanical properties :
#
#
# Convention : Reuss Voigt Hill
#
# Bulk Modulus (GPa) = 53.37754 65.17452 59.27603
# Shear Modulus (GPa) = 27.79384 31.33124 29.56254
#
# Velocity S-wave (km/s) = 3.54887 3.76795 3.66005
# Velocity P-wave (km/s) = 6.40158 6.96155 6.68743
#
# Compressibility (1/GPa) = 0.01873447
#
# Stress axis : x y z
#
# Youngs Moduli (GPa) = 72.87293 62.76205 111.37067
#
# Poissons Ratio (x) = 0.18474 0.30729
# Poissons Ratio (y) = 0.21450 0.47305
# Poissons Ratio (z) = 0.20107 0.26658
#
# Static dielectric constant tensor:
#      x y z
#    x 1.847470 0.000000 0.048610 
#    y 0.000000 1.902890 0.000000 
#    z 0.048610 0.000000 1.650290 
# 
# From -- ./inp_files/54382.got.cif
#   From: 2010.05.17/outbox.cif.g08.bks.cpg/sg13_28_cif.got.tgz:54382.got - 2010.06.03 16:44:36.
