data_PCOD9238150
_publ_section_title
;
Structure prediction by ZEFSAII (Michael W. Deem and Ramdas Pophale) SiO2 
 PCOD9238150
Probable space group: P 2/C
;
_chemical_formula_sum "Si O2"
_cell_formula_units_Z 20
_cell_length_a 23.341279
_cell_length_b 7.685537
_cell_length_c 14.761827
_cell_angle_alpha 90.000000
_cell_angle_beta 161.565459
_cell_angle_gamma 90.000000
_cell_volume 837.393730
_symmetry_space_group_name_H-M "P 2/C"
_symmetry_group_IT_number 13
_symmetry_cell_setting 'monoclinic'
loop_
_space_group_symop_operation_xyz
x,y,z
-x,y,1/2-z
-x,-y,-z
x,-y,1/2+z
loop_
_atom_site_type_symbol
_atom_site_label
_atom_site_fract_x
_atom_site_fract_y
_atom_site_fract_z
Si Si1 0.873510 0.426715 0.388257
Si Si2 0.000000 0.413150 0.250000
Si Si3 0.343990 0.573337 0.702725
Si Si4 0.500000 0.500004 0.250000
Si Si5 0.008621 0.959373 0.407317
Si Si6 0.711195 0.040592 0.321090
O O1 0.869167 0.561791 0.464199
O O2 0.000000 0.500000 0.500000
O O3 0.966174 0.248573 0.560017
O O4 0.670411 0.394601 0.046419
O O5 0.179098 0.438257 0.453241
O O6 0.418409 0.605390 0.712821
O O7 0.278488 0.751444 0.650817
O O8 0.500000 0.500000 0.000000
O O9 0.179525 0.023514 0.603618
O O10 0.831396 0.023542 0.086838
O O11 0.000000 0.000000 0.500000
O O12 0.500000 0.000000 0.000000
#
# Coordination Sequence:
#
# PCOD9238150 Si02
#       6
#     4   2   4   2   4   4
#     4  12  23  42  68  98 131 170 215 268 322 381
#     4  12  20  44  68  86 140 172 204 266 332 364
#     4  12  23  42  68  98 131 170 215 268 322 381
#     4  12  24  36  72 106 128 168 220 262 324 392
#     4  11  24  46  66  92 131 173 214 268 323 381
#     4  11  24  46  66  92 131 173 214 268 323 381
#
# _framework density 23.883627000000001
#
# number of rings (size 3 to 8) (size 9 to 14) (size 15 to 20)
#    0.000    0.400    8.000    0.000    0.000    7.200 
#    0.000    0.000    0.000    0.000    0.000    0.000 
#    0.000    0.000    0.000    0.000    0.000    0.000 
#
# Total GULP energy -111352.184099 kJ/mol
# GULP energy per Si atom -5567.609205 kJ/mol
# Density = 2.382927 g / cm^3
# Si number density = 23.883627 Si / 1000 Ang^3
#
#
#
# Elastic Constant Matrix: (Units=GPa)
#
#
# Indices 1 2 3 4 5 6 
#
# 1 237.7127 12.6660 66.4902 0.0000 -11.5110 0.0000
# 2 12.6660 69.3550 12.6436 0.0000 -0.0014 0.0000
# 3 66.4902 12.6436 237.5793 0.0000 11.5823 0.0000
# 4 0.0000 0.0000 0.0000 22.8842 0.0000 -0.0142
# 5 -11.5110 -0.0014 11.5823 0.0000 36.7512 0.0000
# 6 0.0000 0.0000 0.0000 -0.0142 0.0000 22.8763
#
#
#
# Elastic Compliance Matrix: (Units=1/GPa)
#
#
# Indices 1 2 3 4 5 6 
#
# 1 0.004718 -0.000610 -0.001381 0.000000 0.001913 0.000000
# 2 -0.000610 0.014641 -0.000609 0.000000 0.000001 0.000000
# 3 -0.001381 -0.000609 0.004722 0.000000 -0.001921 0.000000
# 4 0.000000 0.000000 0.000000 0.043698 0.000000 0.000027
# 5 0.001913 0.000001 -0.001921 0.000000 0.028415 0.000000
# 6 0.000000 0.000000 0.000000 0.000027 0.000000 0.043713
#
#
# Mechanical properties :
#
#
# Convention : Reuss Voigt Hill
#
# Bulk Modulus (GPa) = 52.96183 80.91627 66.93905
# Shear Modulus (GPa) = 33.02503 46.69215 39.85859
#
# Velocity S-wave (km/s) = 3.72257 4.42632 4.08961
# Velocity P-wave (km/s) = 6.37964 7.75087 7.09844
#
# Compressibility (1/GPa) = 0.01888152
#
# Stress axis : x y z
#
# Youngs Moduli (GPa) = 211.94301 68.30185 211.78724
#
# Poissons Ratio (x) = 0.04165 0.29254
# Poissons Ratio (y) = 0.12925 0.12889
# Poissons Ratio (z) = 0.29275 0.04157
#
# Static dielectric constant tensor:
#      x y z
#    x 1.939220 0.000000 -0.000180 
#    y 0.000000 2.069460 0.000000 
#    z -0.000180 0.000000 1.939070 
# 
# From -- ./inp_files/58589.got.cif
#   From: 2010.05.17/outbox.cif.g08.bks.cpg/sg13_30_cif.got.tgz:58589.got - 2010.06.03 16:44:36.
