data_PCOD9238952
_publ_section_title
;
Structure prediction by ZEFSAII (Michael W. Deem and Ramdas Pophale) SiO2 
 PCOD9238952
Probable space group: P 2/C
;
_chemical_formula_sum "Si O2"
_cell_formula_units_Z 28
_cell_length_a 9.000000
_cell_length_b 15.000000
_cell_length_c 21.000000
_cell_angle_alpha 90.000000
_cell_angle_beta 150.000000
_cell_angle_gamma 90.000000
_cell_volume 1417.500000
_symmetry_space_group_name_H-M "P 2/C"
_symmetry_group_IT_number 13
_symmetry_cell_setting 'monoclinic'
loop_
_space_group_symop_operation_xyz
x,y,z
-x,y,1/2-z
-x,-y,-z
x,-y,1/2+z
loop_
_atom_site_type_symbol
_atom_site_label
_atom_site_fract_x
_atom_site_fract_y
_atom_site_fract_z
Si Si1 0.335245 0.997444 0.257371
Si Si2 0.147394 0.862826 0.371725
Si Si3 0.687831 0.697474 0.493858
Si Si4 0.289697 0.683778 0.472159
Si Si5 0.282653 0.908719 0.992271
Si Si6 0.652994 0.410857 0.738528
Si Si7 0.196002 0.396205 0.258667
O O1 0.500000 0.999052 0.250000
O O2 0.594439 0.978178 0.407584
O O3 0.113779 0.916795 0.191985
O O4 0.063035 0.071799 0.156327
O O5 0.229676 0.787847 0.451952
O O6 0.454567 0.910151 0.464137
O O7 0.000000 0.829541 0.250000
O O8 0.456837 0.676142 0.465913
O O9 0.705945 0.803091 0.485748
O O10 0.562446 0.643894 0.387907
O O11 0.998712 0.659825 0.635904
O O12 0.511785 0.653858 0.609090
O O13 0.978758 0.633499 0.359270
O O14 0.500000 0.411862 0.750000
O O15 0.705656 0.510190 0.733127
O O16 0.000000 0.410687 0.250000
#
# Coordination Sequence:
#
# PCOD9238952 Si02
#       7
#     4   4   4   4   4   4   4
#     4  11  22  38  59  87 119 155 197 241 299 358
#     4   9  19  37  62  88 116 152 200 249 294 348
#     4  10  22  42  63  87 118 154 203 252 295 346
#     4  10  20  38  63  87 113 155 201 247 295 348
#     4  10  22  40  61  86 118 156 198 248 296 349
#     4  12  24  38  59  88 122 160 197 239 297 362
#     4  10  22  39  62  90 118 153 199 248 297 349
#
# _framework density 19.753086
#
# number of rings (size 3 to 8) (size 9 to 14) (size 15 to 20)
#    0.000    1.714    0.000    5.571    0.000    8.000 
#    0.000    8.571    0.000    0.000    0.000    0.000 
#    0.000    0.000    0.000    0.000    0.000    0.000 
#
# Total GULP energy -156026.225483 kJ/mol
# GULP energy per Si atom -5572.365196 kJ/mol
# Density = 1.970813 g / cm^3
# Si number density = 19.753086 Si / 1000 Ang^3
#
#
#
# Elastic Constant Matrix: (Units=GPa)
#
#
# Indices 1 2 3 4 5 6 
#
# 1 -9.9915 22.1439 67.8644 0.0000 47.0210 0.0000
# 2 22.1439 96.2439 82.9059 0.0000 -3.4116 0.0000
# 3 67.8644 82.9059 116.3098 0.0000 -19.3504 0.0000
# 4 0.0000 0.0000 0.0000 19.4249 0.0000 -19.6880
# 5 47.0210 -3.4116 -19.3504 0.0000 -6.8307 0.0000
# 6 0.0000 0.0000 0.0000 -19.6880 0.0000 -33.0414
#
#
#
# Elastic Compliance Matrix: (Units=1/GPa)
#
#
# Indices 1 2 3 4 5 6 
#
# 1 0.003779 -0.002685 0.002895 0.000000 0.019156 0.000000
# 2 -0.002685 0.022796 -0.013356 0.000000 0.007971 0.000000
# 3 0.002895 -0.013356 0.014174 0.000000 -0.013552 0.000000
# 4 0.000000 0.000000 0.000000 0.032096 0.000000 -0.019125
# 5 0.019156 0.007971 -0.013552 0.000000 0.019876 0.000000
# 6 0.000000 0.000000 0.000000 -0.019125 0.000000 -0.018869
#
#
# Mechanical properties :
#
#
# Convention : Reuss Voigt Hill
#
# Bulk Modulus (GPa) = 69.16530 60.93230 65.04880
# Shear Modulus (GPa) = 47.63570 -2.11291 22.76139
#
# Velocity S-wave (km/s) = 4.91609 -1.03537 3.39823
# Velocity P-wave (km/s) = 8.20456 5.42998 6.95699
#
# Compressibility (1/GPa) = 0.01445812
#
# Stress axis : x y z
#
# Youngs Moduli (GPa) = 264.58851 43.86755 70.55081
#
# Poissons Ratio (x) = 0.11777 -0.20427
# Poissons Ratio (y) = 0.71033 0.94230
# Poissons Ratio (z) = -0.76607 0.58591
#
# Static dielectric constant tensor:
#      x y z
#    x 1.674620 0.000000 -0.012720 
#    y 0.000000 1.688570 0.000000 
#    z -0.012720 0.000000 1.691300 
# 
# From -- ./inp_files/76748.got.cif
#   From: 2010.05.17/outbox.ucp.g08.bks.cvg/sg13_39_cif.got.tgz:76748.got - 2010.06.11 12:23:55.
