data_PCOD9238085
_publ_section_title
;
Structure prediction by ZEFSAII (Michael W. Deem and Ramdas Pophale) SiO2 
 PCOD9238085
Probable space group: P 2/C
;
_chemical_formula_sum "Si O2"
_cell_formula_units_Z 16
_cell_length_a 8.595487
_cell_length_b 7.867358
_cell_length_c 17.889146
_cell_angle_alpha 90.000000
_cell_angle_beta 31.991501
_cell_angle_gamma 90.000000
_cell_volume 640.907870
_symmetry_space_group_name_H-M "P 2/C"
_symmetry_group_IT_number 13
_symmetry_cell_setting 'monoclinic'
loop_
_space_group_symop_operation_xyz
x,y,z
-x,y,1/2-z
-x,-y,-z
x,-y,1/2+z
loop_
_atom_site_type_symbol
_atom_site_label
_atom_site_fract_x
_atom_site_fract_y
_atom_site_fract_z
Si Si1 0.181761 0.593176 0.857873
Si Si2 0.305093 0.437386 0.648256
Si Si3 0.939567 0.953334 0.939814
Si Si4 0.295540 0.041586 0.665832
O O1 0.500000 0.671295 0.750000
O O2 0.296148 0.478371 0.741091
O O3 0.972156 0.749106 0.919122
O O4 0.000000 0.500000 0.000000
O O5 0.500000 0.500000 0.500000
O O6 0.307232 0.235747 0.637409
O O7 0.000000 0.518502 0.750000
O O8 0.632211 0.021070 0.029108
O O9 0.206157 0.038093 0.788047
O O10 0.000000 0.000000 0.000000
O O11 0.000000 0.958179 0.750000
#
# Coordination Sequence:
#
# PCOD9238085 Si02
#       4
#     4   4   4   4
#     4  12  25  44  71 102 137 182 231 282 342 410
#     4  11  24  44  68  98 135 177 224 278 337 403
#     4  12  25  44  67  99 137 178 226 283 342 407
#     4  11  25  44  68  97 135 179 227 281 343 408
#
# _framework density 24.964587000000002
#
# number of rings (size 3 to 8) (size 9 to 14) (size 15 to 20)
#    0.000    0.500    0.000    9.000    0.000    9.000 
#    0.000    0.000    0.000    0.000    0.000    0.000 
#    0.000    0.000    0.000    0.000    0.000    0.000 
#
# Total GULP energy -89123.167372 kJ/mol
# GULP energy per Si atom -5570.197961 kJ/mol
# Density = 2.490777 g / cm^3
# Si number density = 24.964587 Si / 1000 Ang^3
#
#
#
# Elastic Constant Matrix: (Units=GPa)
#
#
# Indices 1 2 3 4 5 6 
#
# 1 76.1972 26.7994 38.6799 0.0000 -5.7659 0.0000
# 2 26.7994 91.9743 43.4940 0.0000 24.8350 0.0000
# 3 38.6799 43.4940 233.0581 0.0000 18.2088 0.0000
# 4 0.0000 0.0000 0.0000 34.4747 0.0000 14.6134
# 5 -5.7659 24.8350 18.2088 0.0000 68.5430 0.0000
# 6 0.0000 0.0000 0.0000 14.6134 0.0000 38.0964
#
#
#
# Elastic Compliance Matrix: (Units=1/GPa)
#
#
# Indices 1 2 3 4 5 6 
#
# 1 0.016098 -0.004680 -0.002080 0.000000 0.003602 0.000000
# 2 -0.004680 0.014346 -0.001495 0.000000 -0.005194 0.000000
# 3 -0.002080 -0.001495 0.004990 0.000000 -0.000959 0.000000
# 4 0.000000 0.000000 0.000000 0.034639 0.000000 -0.013287
# 5 0.003602 -0.005194 -0.000959 0.000000 0.017029 0.000000
# 6 0.000000 0.000000 0.000000 -0.013287 0.000000 0.031346
#
#
# Mechanical properties :
#
#
# Convention : Reuss Voigt Hill
#
# Bulk Modulus (GPa) = 52.84045 68.79735 60.81890
# Shear Modulus (GPa) = 35.39446 47.70657 41.55051
#
# Velocity S-wave (km/s) = 3.76944 4.37621 4.08410
# Velocity P-wave (km/s) = 6.33695 7.29059 6.83043
#
# Compressibility (1/GPa) = 0.01892490
#
# Stress axis : x y z
#
# Youngs Moduli (GPa) = 62.11889 69.70759 200.40763
#
# Poissons Ratio (x) = 0.32622 0.41682
# Poissons Ratio (y) = 0.29071 0.29955
# Poissons Ratio (z) = 0.12920 0.10419
#
# Static dielectric constant tensor:
#      x y z
#    x 2.038250 0.000000 -0.039590 
#    y 0.000000 1.943880 0.000000 
#    z -0.039590 0.000000 1.992140 
# 
# From -- ./inp_files/63615.got.cif
#   From: 2010.05.17/outbox.cif.g08.bks.cpg/sg13_32_cif.got.tgz:63615.got - 2010.06.03 16:44:36.
