data_PCOD9238281
_publ_section_title
;
Structure prediction by ZEFSAII (Michael W. Deem and Ramdas Pophale) SiO2 
 PCOD9238281
Probable space group: P 2/C
;
_chemical_formula_sum "Si O2"
_cell_formula_units_Z 20
_cell_length_a 9.383663
_cell_length_b 5.682488
_cell_length_c 17.950905
_cell_angle_alpha 90.000000
_cell_angle_beta 131.535153
_cell_angle_gamma 90.000000
_cell_volume 716.502212
_symmetry_space_group_name_H-M "P 2/C"
_symmetry_group_IT_number 13
_symmetry_cell_setting 'monoclinic'
loop_
_space_group_symop_operation_xyz
x,y,z
-x,y,1/2-z
-x,-y,-z
x,-y,1/2+z
loop_
_atom_site_type_symbol
_atom_site_label
_atom_site_fract_x
_atom_site_fract_y
_atom_site_fract_z
Si Si1 0.499937 0.825677 0.568953
Si Si2 0.735882 0.029234 0.272598
Si Si3 0.000000 0.220016 0.750000
Si Si4 0.206628 0.449105 0.421127
Si Si5 0.500000 0.573705 0.750000
Si Si6 0.183356 0.681262 0.063593
O O1 0.529452 0.964467 0.656180
O O2 0.316816 0.663378 0.499418
O O3 0.669730 0.645748 0.604945
O O4 0.500000 0.000000 0.500000
O O5 0.688970 0.285959 0.288953
O O6 0.858664 0.957489 0.243388
O O7 0.813069 0.873729 0.368457
O O8 0.035345 0.409532 0.827268
O O9 0.174105 0.250905 0.472294
O O10 0.602205 0.422046 0.848232
O O11 0.000000 0.500000 0.000000
#
# Coordination Sequence:
#
# PCOD9238281 Si02
#       6
#     4   4   2   4   2   4
#     4  11  25  45  78 109 152 212 270 335 405 505
#     4  12  28  48  80 115 161 213 286 332 420 497
#     4  12  26  50  78 122 158 214 276 350 408 498
#     4  11  26  49  76 113 161 207 269 338 425 480
#     4  12  30  48  80 116 168 226 270 346 422 502
#     4  12  28  51  79 119 167 215 273 350 417 501
#
# _framework density 27.913378999999999
#
# number of rings (size 3 to 8) (size 9 to 14) (size 15 to 20)
#    0.000    0.400    6.000    0.600    8.400    3.200 
#    0.000    0.000    0.000    0.000    0.000    0.000 
#    0.000    0.000    0.000    0.000    0.000    0.000 
#
# Total GULP energy -111354.816896 kJ/mol
# GULP energy per Si atom -5567.740845 kJ/mol
# Density = 2.784985 g / cm^3
# Si number density = 27.913379 Si / 1000 Ang^3
#
#
#
# Elastic Constant Matrix: (Units=GPa)
#
#
# Indices 1 2 3 4 5 6 
#
# 1 89.6183 31.8377 37.1576 0.0000 -11.8817 0.0000
# 2 31.8377 106.2679 56.0946 0.0000 2.5595 0.0000
# 3 37.1576 56.0946 148.5451 0.0000 -21.1536 0.0000
# 4 0.0000 0.0000 0.0000 57.8958 0.0000 4.6190
# 5 -11.8817 2.5595 -21.1536 0.0000 41.2758 0.0000
# 6 0.0000 0.0000 0.0000 4.6190 0.0000 52.7589
#
#
#
# Elastic Compliance Matrix: (Units=1/GPa)
#
#
# Indices 1 2 3 4 5 6 
#
# 1 0.013422 -0.003205 -0.001692 0.000000 0.003195 0.000000
# 2 -0.003205 0.012934 -0.004669 0.000000 -0.004117 0.000000
# 3 -0.001692 -0.004669 0.009590 0.000000 0.004717 0.000000
# 4 0.000000 0.000000 0.000000 0.017394 0.000000 -0.001523
# 5 0.003195 -0.004117 0.004717 0.000000 0.027820 0.000000
# 6 0.000000 0.000000 0.000000 -0.001523 0.000000 0.019087
#
#
# Mechanical properties :
#
#
# Convention : Reuss Voigt Hill
#
# Bulk Modulus (GPa) = 59.47311 66.06791 62.77051
# Shear Modulus (GPa) = 40.00487 45.00886 42.50686
#
# Velocity S-wave (km/s) = 3.78984 4.01989 3.90656
# Velocity P-wave (km/s) = 6.36420 6.72802 6.54864
#
# Compressibility (1/GPa) = 0.01681432
#
# Stress axis : x y z
#
# Youngs Moduli (GPa) = 74.50296 77.31514 104.27414
#
# Poissons Ratio (x) = 0.24780 0.17645
# Poissons Ratio (y) = 0.23878 0.48684
# Poissons Ratio (z) = 0.12607 0.36097
#
# Static dielectric constant tensor:
#      x y z
#    x 2.488800 0.000000 -0.124560 
#    y 0.000000 2.402250 0.000000 
#    z -0.124560 0.000000 2.326200 
# 
# From -- ./inp_files/65271.got.cif
#   From: 2010.05.17/outbox.cif.g08.bks.cpg/sg13_33_cif.got.tgz:65271.got - 2010.06.03 16:44:36.
