data_PCOD9238530
_publ_section_title
;
Structure prediction by ZEFSAII (Michael W. Deem and Ramdas Pophale) SiO2 
 PCOD9238530
Probable space group: P 2/C
;
_chemical_formula_sum "Si O2"
_cell_formula_units_Z 20
_cell_length_a 16.394001
_cell_length_b 6.930404
_cell_length_c 23.789665
_cell_angle_alpha 90.000000
_cell_angle_beta 160.509858
_cell_angle_gamma 90.000000
_cell_volume 901.812032
_symmetry_space_group_name_H-M "P 2/C"
_symmetry_group_IT_number 13
_symmetry_cell_setting 'monoclinic'
loop_
_space_group_symop_operation_xyz
x,y,z
-x,y,1/2-z
-x,-y,-z
x,-y,1/2+z
loop_
_atom_site_type_symbol
_atom_site_label
_atom_site_fract_x
_atom_site_fract_y
_atom_site_fract_z
Si Si1 0.720132 0.121359 0.169975
Si Si2 0.606971 0.636458 0.957535
Si Si3 0.836800 0.873587 0.020234
Si Si4 0.235522 0.532600 0.617480
Si Si5 0.500000 0.170595 0.750000
Si Si6 0.000000 0.326259 0.250000
O O1 0.582268 0.277119 0.119961
O O2 0.895377 0.210094 0.235515
O O3 0.904735 0.977381 0.322131
O O4 0.500000 0.000000 0.000000
O O5 0.449198 0.582631 0.800128
O O6 0.805749 0.788109 0.062412
O O7 0.767438 0.457598 0.082105
O O8 0.804338 0.702607 0.953406
O O9 0.616762 0.026995 0.870943
O O10 0.290065 0.322566 0.627781
O O11 0.000000 0.500000 0.500000
#
# Coordination Sequence:
#
# PCOD9238530 Si02
#       6
#     4   4   4   4   2   2
#     4  12  28  47  75 105 146 200 246 311 367 438
#     4  12  25  48  72 108 148 188 249 303 369 438
#     4  12  26  48  74 114 150 189 249 304 371 448
#     4  12  27  43  75 110 146 194 235 308 373 438
#     4  12  22  48  68 108 154 188 234 296 372 432
#     4  12  28  50  76 106 146 204 256 304 364 448
#
# _framework density 22.177572000000001
#
# number of rings (size 3 to 8) (size 9 to 14) (size 15 to 20)
#    0.000    0.000    4.000    5.400    8.400    1.600 
#    0.000    0.000    0.000    0.000    0.000    0.000 
#    0.000    0.000    0.000    0.000    0.000    0.000 
#
# Total GULP energy -111792.277849 kJ/mol
# GULP energy per Si atom -5589.613892 kJ/mol
# Density = 2.212709 g / cm^3
# Si number density = 22.177572 Si / 1000 Ang^3
#
#
#
# Elastic Constant Matrix: (Units=GPa)
#
#
# Indices 1 2 3 4 5 6 
#
# 1 119.4735 53.6332 25.3750 0.0000 17.9326 0.0000
# 2 53.6332 117.7834 34.2824 0.0000 -4.5009 0.0000
# 3 25.3750 34.2824 105.8223 0.0000 0.0604 0.0000
# 4 0.0000 0.0000 0.0000 62.5424 0.0000 3.0633
# 5 17.9326 -4.5009 0.0604 0.0000 43.1467 0.0000
# 6 0.0000 0.0000 0.0000 3.0633 0.0000 36.9136
#
#
#
# Elastic Compliance Matrix: (Units=1/GPa)
#
#
# Indices 1 2 3 4 5 6 
#
# 1 0.011780 -0.005245 -0.001122 0.000000 -0.005442 0.000000
# 2 -0.005245 0.011751 -0.002551 0.000000 0.003409 0.000000
# 3 -0.001122 -0.002551 0.010545 0.000000 0.000186 0.000000
# 4 0.000000 0.000000 0.000000 0.016054 0.000000 -0.001332
# 5 -0.005442 0.003409 0.000186 0.000000 0.025794 0.000000
# 6 0.000000 0.000000 0.000000 -0.001332 0.000000 0.027201
#
#
# Mechanical properties :
#
#
# Convention : Reuss Voigt Hill
#
# Bulk Modulus (GPa) = 61.58002 63.29561 62.43781
# Shear Modulus (GPa) = 39.56439 43.83977 41.70208
#
# Velocity S-wave (km/s) = 4.22830 4.45090 4.34103
# Velocity P-wave (km/s) = 7.18785 7.41730 7.30348
#
# Compressibility (1/GPa) = 0.01623903
#
# Stress axis : x y z
#
# Youngs Moduli (GPa) = 84.89076 85.09568 94.82891
#
# Poissons Ratio (x) = 0.44635 0.10643
# Poissons Ratio (y) = 0.44528 0.24193
# Poissons Ratio (z) = 0.09527 0.21710
#
# Static dielectric constant tensor:
#      x y z
#    x 1.808230 0.000000 -0.004810 
#    y 0.000000 1.902920 0.000000 
#    z -0.004810 0.000000 1.839060 
# 
# From -- ./inp_files/91918.got.cif
#   From: 2010.05.17/outbox.cif.g08.bks.cpg/sg13_46_cif.got.tgz:91918.got - 2010.06.03 16:44:36.
