data_PCOD9238951
_publ_section_title
;
Structure prediction by ZEFSAII (Michael W. Deem and Ramdas Pophale) SiO2 
 PCOD9238951
Probable space group: P 2/C
;
_chemical_formula_sum "Si O2"
_cell_formula_units_Z 28
_cell_length_a 30.000000
_cell_length_b 9.000000
_cell_length_c 30.000000
_cell_angle_alpha 90.000000
_cell_angle_beta 10.000000
_cell_angle_gamma 90.000000
_cell_volume 1406.550239
_symmetry_space_group_name_H-M "P 2/C"
_symmetry_group_IT_number 13
_symmetry_cell_setting 'monoclinic'
loop_
_space_group_symop_operation_xyz
x,y,z
-x,y,1/2-z
-x,-y,-z
x,-y,1/2+z
loop_
_atom_site_type_symbol
_atom_site_label
_atom_site_fract_x
_atom_site_fract_y
_atom_site_fract_z
Si Si1 0.245158 0.918304 0.737067
Si Si2 0.500000 0.345779 0.250000
Si Si3 0.240220 0.419666 0.242026
Si Si4 0.730934 0.419298 0.392509
Si Si5 0.656074 0.919927 0.966090
Si Si6 0.000000 0.845054 0.250000
Si Si7 0.836035 0.075796 0.005512
Si Si8 0.747934 0.425176 0.094580
O O1 0.242054 0.749520 0.756370
O O2 0.286189 0.913794 0.643508
O O3 0.500000 0.000000 0.500000
O O4 0.000000 0.000000 0.000000
O O5 0.629165 0.437559 0.162208
O O6 0.253875 0.253724 0.513149
O O7 0.218190 0.420679 0.210405
O O8 0.000000 0.500000 0.500000
O O9 0.500000 0.500000 0.000000
O O10 0.697190 0.249309 0.441550
O O11 0.465274 0.504718 0.663318
O O12 0.977520 0.496522 0.171684
O O13 0.383006 0.979974 0.253635
O O14 0.880387 0.029231 0.760005
O O15 0.131966 0.935174 0.079714
O O16 0.781433 0.248765 0.069228
#
# Coordination Sequence:
#
# PCOD9238951 Si02
#       8
#     4   2   4   4   4   2   4   4
#     4  11  24  41  62  88 123 162 202 250 303 358
#     4  10  20  38  62  92 124 154 198 258 308 348
#     4  11  24  41  62  88 123 162 202 250 303 358
#     4  11  24  41  60  90 128 160 194 251 314 359
#     4  11  24  41  60  90 128 160 194 251 314 359
#     4  10  20  38  62  92 124 154 198 258 308 348
#     4  11  22  39  65  91 117 159 208 249 294 363
#     4  11  22  39  65  91 117 159 208 249 294 363
#
# _framework density 19.906860999999999
#
# number of rings (size 3 to 8) (size 9 to 14) (size 15 to 20)
#    0.000    1.143    0.000    7.714    0.000   11.429 
#    0.000    2.857    0.000    1.714    0.000    0.000 
#    0.000    0.000    0.000    0.000    0.000    0.000 
#
# Total GULP energy -156226.753730 kJ/mol
# GULP energy per Si atom -5579.526919 kJ/mol
# Density = 1.986155 g / cm^3
# Si number density = 19.906861 Si / 1000 Ang^3
#
#
#
# Elastic Constant Matrix: (Units=GPa)
#
#
# Indices 1 2 3 4 5 6 
#
# 1 37.0483 18.0769 1.1567 0.0000 3.2660 0.0000
# 2 18.0769 104.5661 27.5074 0.0000 6.6486 0.0000
# 3 1.1567 27.5074 128.3814 0.0000 18.5133 0.0000
# 4 0.0000 0.0000 0.0000 31.4966 0.0000 0.9849
# 5 3.2660 6.6486 18.5133 0.0000 44.5487 0.0000
# 6 0.0000 0.0000 0.0000 0.9849 0.0000 14.6290
#
#
#
# Elastic Compliance Matrix: (Units=1/GPa)
#
#
# Indices 1 2 3 4 5 6 
#
# 1 0.029715 -0.005319 0.001140 0.000000 -0.001858 0.000000
# 2 -0.005319 0.011104 -0.002286 0.000000 -0.000317 0.000000
# 3 0.001140 -0.002286 0.008756 0.000000 -0.003381 0.000000
# 4 0.000000 0.000000 0.000000 0.031816 0.000000 -0.002142
# 5 -0.001858 -0.000317 -0.003381 0.000000 0.024036 0.000000
# 6 0.000000 0.000000 0.000000 -0.002142 0.000000 0.068501
#
#
# Mechanical properties :
#
#
# Convention : Reuss Voigt Hill
#
# Bulk Modulus (GPa) = 27.28736 40.38642 33.83689
# Shear Modulus (GPa) = 25.11627 33.01852 29.06740
#
# Velocity S-wave (km/s) = 3.55588 4.07707 3.82536
# Velocity P-wave (km/s) = 5.53139 6.51883 6.04530
#
# Compressibility (1/GPa) = 0.03664701
#
# Stress axis : x y z
#
# Youngs Moduli (GPa) = 33.65287 90.05590 114.20301
#
# Poissons Ratio (x) = 0.47898 -0.13018
# Poissons Ratio (y) = 0.17899 0.26101
# Poissons Ratio (z) = -0.03836 0.20582
#
# Static dielectric constant tensor:
#      x y z
#    x 2.710770 0.000000 -0.194900 
#    y 0.000000 1.731950 0.000000 
#    z -0.194900 0.000000 1.676360 
# 
# From -- ./inp_files/97987.got.cif
#   From: 2010.05.17/outbox.ucp.g08.bks.cvg/sg13_49_cif.got.tgz:97987.got - 2010.06.11 12:23:55.
