data_PCOD9238620
_publ_section_title
;
Structure prediction by ZEFSAII (Michael W. Deem and Ramdas Pophale) SiO2 
 PCOD9238620
Probable space group: P 2/C
;
_chemical_formula_sum "Si O2"
_cell_formula_units_Z 18
_cell_length_a 11.128899
_cell_length_b 9.538904
_cell_length_c 8.167907
_cell_angle_alpha 90.000000
_cell_angle_beta 57.447651
_cell_angle_gamma 90.000000
_cell_volume 730.865752
_symmetry_space_group_name_H-M "P 2/C"
_symmetry_group_IT_number 13
_symmetry_cell_setting 'monoclinic'
loop_
_space_group_symop_operation_xyz
x,y,z
-x,y,1/2-z
-x,-y,-z
x,-y,1/2+z
loop_
_atom_site_type_symbol
_atom_site_label
_atom_site_fract_x
_atom_site_fract_y
_atom_site_fract_z
Si Si1 0.221928 0.695840 0.859718
Si Si2 0.665066 0.459500 0.912579
Si Si3 0.000000 0.830100 0.250000
Si Si4 0.353364 0.803283 0.268674
Si Si5 0.259478 0.026825 0.141095
O O1 0.235237 0.593497 0.693842
O O2 0.271861 0.847987 0.762376
O O3 0.315626 0.614798 0.926833
O O4 0.074899 0.732250 0.059386
O O5 0.710369 0.339439 0.750657
O O6 0.500000 0.500000 0.000000
O O7 0.884160 0.934007 0.254196
O O8 0.500000 0.768392 0.250000
O O9 0.268573 0.894947 0.461791
O O10 0.373957 0.906347 0.098824
#
# Coordination Sequence:
#
# PCOD9238620 Si02
#       5
#     4   4   2   4   4
#     4  12  26  47  76 109 147 199 245 305 375 448
#     4  12  26  49  74 111 152 193 245 313 380 447
#     4  12  26  50  74 108 154 192 262 300 374 442
#     4  12  24  44  73 112 145 192 248 313 381 440
#     4  12  25  47  76 107 148 195 250 310 370 441
#
# _framework density 24.628326999999999
#
# number of rings (size 3 to 8) (size 9 to 14) (size 15 to 20)
#    0.000    0.000    4.444    6.000    0.000    2.667 
#    0.000    2.222    0.000    0.000    0.000    0.000 
#    0.000    0.000    0.000    0.000    0.000    0.000 
#
# Total GULP energy -100695.574946 kJ/mol
# GULP energy per Si atom -5594.198608 kJ/mol
# Density = 2.457227 g / cm^3
# Si number density = 24.628327 Si / 1000 Ang^3
#
#
#
# Elastic Constant Matrix: (Units=GPa)
#
#
# Indices 1 2 3 4 5 6 
#
# 1 52.2687 16.1966 9.4770 0.0000 16.7203 0.0000
# 2 16.1966 177.5013 50.1927 0.0000 2.7196 0.0000
# 3 9.4770 50.1927 100.6665 0.0000 1.2072 0.0000
# 4 0.0000 0.0000 0.0000 73.0043 0.0000 -3.6734
# 5 16.7203 2.7196 1.2072 0.0000 35.7538 0.0000
# 6 0.0000 0.0000 0.0000 -3.6734 0.0000 74.8820
#
#
#
# Elastic Compliance Matrix: (Units=1/GPa)
#
#
# Indices 1 2 3 4 5 6 
#
# 1 0.023289 -0.001603 -0.001265 0.000000 -0.010727 0.000000
# 2 -0.001603 0.006674 -0.003181 0.000000 0.000349 0.000000
# 3 -0.001265 -0.003181 0.011634 0.000000 0.000441 0.000000
# 4 0.000000 0.000000 0.000000 0.013732 0.000000 0.000674
# 5 -0.010727 0.000349 0.000441 0.000000 0.032944 0.000000
# 6 0.000000 0.000000 0.000000 0.000674 0.000000 0.013387
#
#
# Mechanical properties :
#
#
# Convention : Reuss Voigt Hill
#
# Bulk Modulus (GPa) = 33.89873 53.57435 43.73654
# Shear Modulus (GPa) = 40.45606 53.69937 47.07771
#
# Velocity S-wave (km/s) = 4.05738 4.67453 4.37684
# Velocity P-wave (km/s) = 5.97861 7.13690 6.58328
#
# Compressibility (1/GPa) = 0.02949963
#
# Stress axis : x y z
#
# Youngs Moduli (GPa) = 42.93818 149.83049 85.95762
#
# Poissons Ratio (x) = 0.24020 0.10870
# Poissons Ratio (y) = 0.06884 0.27344
# Poissons Ratio (z) = 0.05430 0.47662
#
# Static dielectric constant tensor:
#      x y z
#    x 2.024750 0.000000 0.050980 
#    y 0.000000 1.889800 0.000000 
#    z 0.050980 0.000000 2.073160 
# 
# From -- ./inp_files/14607.got.cif
#   From: 2010.05.17/outbox.cif.g08.bks.cpg/sg13_8_cif.got.tgz:14607.got - 2010.06.03 16:44:36.
