data_PCOD9238059
_publ_section_title
;
Structure prediction by ZEFSAII (Michael W. Deem and Ramdas Pophale) SiO2 
 PCOD9238059
Probable space group: P 2/C
;
_chemical_formula_sum "Si O2"
_cell_formula_units_Z 24
_cell_length_a 11.347841
_cell_length_b 10.795323
_cell_length_c 11.419315
_cell_angle_alpha 90.000000
_cell_angle_beta 130.059524
_cell_angle_gamma 90.000000
_cell_volume 1070.690415
_symmetry_space_group_name_H-M "P 2/C"
_symmetry_group_IT_number 13
_symmetry_cell_setting 'monoclinic'
loop_
_space_group_symop_operation_xyz
x,y,z
-x,y,1/2-z
-x,-y,-z
x,-y,1/2+z
loop_
_atom_site_type_symbol
_atom_site_label
_atom_site_fract_x
_atom_site_fract_y
_atom_site_fract_z
Si Si1 0.185346 0.760211 0.543091
Si Si2 0.908462 0.129382 0.950913
Si Si3 0.265149 0.915758 0.384856
Si Si4 0.334422 0.277883 0.579778
Si Si5 0.908842 0.506018 0.567582
Si Si6 0.386333 0.173881 0.373785
O O1 0.180912 0.874791 0.449357
O O2 0.164366 0.631266 0.465044
O O3 0.335851 0.775404 0.717094
O O4 0.047112 0.773839 0.548534
O O5 0.823233 0.154531 0.774227
O O6 0.772270 0.158158 0.954714
O O7 0.000000 0.000000 0.000000
O O8 0.438694 0.870346 0.513468
O O9 0.283466 0.054489 0.345932
O O10 0.500000 0.272290 0.750000
O O11 0.228462 0.395410 0.538307
O O12 0.365257 0.273009 0.461859
O O13 0.000000 0.532640 0.750000
O O14 0.000000 0.500000 0.500000
#
# Coordination Sequence:
#
# PCOD9238059 Si02
#       6
#     4   4   4   4   4   4
#     4  12  25  45  72 106 144 191 250 307 367 448
#     4  12  23  43  71 105 140 185 237 299 370 438
#     4  11  24  43  69 105 148 190 235 303 372 449
#     4  12  27  47  73 104 149 195 250 308 375 449
#     4  12  27  50  77 107 148 200 261 318 374 445
#     4  11  25  44  71 105 150 192 239 302 380 450
#
# _framework density 22.415443
#
# number of rings (size 3 to 8) (size 9 to 14) (size 15 to 20)
#    0.000    0.333    5.000    4.000    0.000    1.333 
#    0.000    2.500    0.000    0.000    0.000    0.000 
#    0.000    0.000    0.000    0.000    0.000    0.000 
#
# Total GULP energy -133951.008717 kJ/mol
# GULP energy per Si atom -5581.292030 kJ/mol
# Density = 2.236442 g / cm^3
# Si number density = 22.415443 Si / 1000 Ang^3
#
#
#
# Elastic Constant Matrix: (Units=GPa)
#
#
# Indices 1 2 3 4 5 6 
#
# 1 83.9287 11.4103 17.0444 0.0000 -3.0651 0.0000
# 2 11.4103 88.1635 -3.2199 0.0000 17.9886 0.0000
# 3 17.0444 -3.2199 119.3700 0.0000 3.3261 0.0000
# 4 0.0000 0.0000 0.0000 29.8008 0.0000 0.4622
# 5 -3.0651 17.9886 3.3261 0.0000 41.4626 0.0000
# 6 0.0000 0.0000 0.0000 0.4622 0.0000 26.8173
#
#
#
# Elastic Compliance Matrix: (Units=1/GPa)
#
#
# Indices 1 2 3 4 5 6 
#
# 1 0.012667 -0.002120 -0.001922 0.000000 0.002010 0.000000
# 2 -0.002120 0.012827 0.000810 0.000000 -0.005787 0.000000
# 3 -0.001922 0.000810 0.008707 0.000000 -0.001192 0.000000
# 4 0.000000 0.000000 0.000000 0.033565 0.000000 -0.000579
# 5 0.002010 -0.005787 -0.001192 0.000000 0.026873 0.000000
# 6 0.000000 0.000000 0.000000 -0.000579 0.000000 0.037299
#
#
# Mechanical properties :
#
#
# Convention : Reuss Voigt Hill
#
# Bulk Modulus (GPa) = 36.05228 37.99243 37.02235
# Shear Modulus (GPa) = 33.86452 37.36463 35.61457
#
# Velocity S-wave (km/s) = 3.89108 4.08722 3.99035
# Velocity P-wave (km/s) = 6.02544 6.26576 6.14677
#
# Compressibility (1/GPa) = 0.02773750
#
# Stress axis : x y z
#
# Youngs Moduli (GPa) = 78.94686 77.95935 114.85304
#
# Poissons Ratio (x) = 0.16525 0.22073
# Poissons Ratio (y) = 0.16734 -0.09302
# Poissons Ratio (z) = 0.15172 -0.06314
#
# Static dielectric constant tensor:
#      x y z
#    x 1.893680 0.000000 0.011190 
#    y 0.000000 1.881110 0.000000 
#    z 0.011190 0.000000 1.785590 
# 
# From -- ./inp_files/33923.got.cif
#   From: 2010.05.17/outbox.cif.g08.bks.cpg/sg13_17_cif.got.tgz:33923.got - 2010.06.03 16:44:36.
