data_PCOD9238602
_publ_section_title
;
Structure prediction by ZEFSAII (Michael W. Deem and Ramdas Pophale) SiO2 
 PCOD9238602
Probable space group: P 2/C
;
_chemical_formula_sum "Si O2"
_cell_formula_units_Z 26
_cell_length_a 19.771689
_cell_length_b 9.427477
_cell_length_c 8.497699
_cell_angle_alpha 90.000000
_cell_angle_beta 46.006754
_cell_angle_gamma 90.000000
_cell_volume 1139.525683
_symmetry_space_group_name_H-M "P 2/C"
_symmetry_group_IT_number 13
_symmetry_cell_setting 'monoclinic'
loop_
_space_group_symop_operation_xyz
x,y,z
-x,y,1/2-z
-x,-y,-z
x,-y,1/2+z
loop_
_atom_site_type_symbol
_atom_site_label
_atom_site_fract_x
_atom_site_fract_y
_atom_site_fract_z
Si Si1 0.500000 0.534997 0.750000
Si Si2 0.828903 0.337580 0.725637
Si Si3 0.572837 0.947614 0.253510
Si Si4 0.633978 0.251629 0.175332
Si Si5 0.015080 0.843209 0.412391
Si Si6 0.335847 0.699729 0.517945
Si Si7 0.136704 0.627525 0.700595
O O1 0.459316 0.648924 0.687674
O O2 0.588657 0.428278 0.592491
O O3 0.882897 0.463893 0.729212
O O4 0.842616 0.354546 0.517438
O O5 0.879855 0.198530 0.707350
O O6 0.719985 0.328172 0.949594
O O7 0.500000 0.880671 0.250000
O O8 0.618738 0.095602 0.125922
O O9 0.500000 0.000000 0.500000
O O10 0.642961 0.816876 0.152725
O O11 0.661506 0.231418 0.312828
O O12 0.943011 0.735461 0.614520
O O13 0.000000 0.834820 0.250000
O O14 0.000000 0.000000 0.500000
O O15 0.231437 0.650151 0.648620
#
# Coordination Sequence:
#
# PCOD9238602 Si02
#       7
#     2   4   4   4   4   4   4
#     4  12  24  42  74 102 148 186 250 298 364 416
#     4  12  27  48  76 110 147 191 242 296 367 431
#     4  12  25  45  66  94 138 193 243 299 365 421
#     4  12  26  43  70 103 144 192 246 301 360 434
#     4  12  27  52  81 112 148 188 238 299 366 437
#     4  12  26  45  69 104 144 191 247 301 359 431
#     4  12  27  48  76 109 147 191 241 299 363 435
#
# _framework density 22.816509
#
# number of rings (size 3 to 8) (size 9 to 14) (size 15 to 20)
#    0.000    0.000    4.615    5.077    4.308    1.231 
#    0.000    0.000    0.000    0.000    0.000    0.000 
#    0.000    0.000    0.000    0.000    0.000    0.000 
#
# Total GULP energy -145267.471936 kJ/mol
# GULP energy per Si atom -5587.210459 kJ/mol
# Density = 2.276458 g / cm^3
# Si number density = 22.816509 Si / 1000 Ang^3
#
#
#
# Elastic Constant Matrix: (Units=GPa)
#
#
# Indices 1 2 3 4 5 6 
#
# 1 75.8329 6.7671 16.0224 0.0000 5.5647 0.0000
# 2 6.7671 129.2026 25.0531 0.0000 -16.0441 0.0000
# 3 16.0224 25.0531 114.1499 0.0000 9.2321 0.0000
# 4 0.0000 0.0000 0.0000 30.8527 0.0000 -10.7435
# 5 5.5647 -16.0441 9.2321 0.0000 45.2787 0.0000
# 6 0.0000 0.0000 0.0000 -10.7435 0.0000 34.8604
#
#
#
# Elastic Compliance Matrix: (Units=1/GPa)
#
#
# Indices 1 2 3 4 5 6 
#
# 1 0.013706 -0.000587 -0.001669 0.000000 -0.001552 0.000000
# 2 -0.000587 0.008618 -0.002097 0.000000 0.003553 0.000000
# 3 -0.001669 -0.002097 0.009658 0.000000 -0.002507 0.000000
# 4 0.000000 0.000000 0.000000 0.036309 0.000000 0.011190
# 5 -0.001552 0.003553 -0.002507 0.000000 0.024046 0.000000
# 6 0.000000 0.000000 0.000000 0.011190 0.000000 0.032134
#
#
# Mechanical properties :
#
#
# Convention : Reuss Voigt Hill
#
# Bulk Modulus (GPa) = 42.96254 46.09674 44.52964
# Shear Modulus (GPa) = 35.47722 40.28789 37.88256
#
# Velocity S-wave (km/s) = 3.94749 4.20662 4.07911
# Velocity P-wave (km/s) = 6.29662 6.62128 6.46099
#
# Compressibility (1/GPa) = 0.02327609
#
# Stress axis : x y z
#
# Youngs Moduli (GPa) = 72.96139 116.03219 103.54521
#
# Poissons Ratio (x) = 0.06809 0.17287
# Poissons Ratio (y) = 0.04282 0.21708
# Poissons Ratio (z) = 0.12181 0.24326
#
# Static dielectric constant tensor:
#      x y z
#    x 1.843570 0.000000 -0.009050 
#    y 0.000000 1.925300 0.000000 
#    z -0.009050 0.000000 1.930300 
# 
# From -- ./inp_files/22954.got.cif
#   From: 2010.05.17/outbox.cif.g08.bks.cpg/sg13_12_cif.got.tgz:22954.got - 2010.06.03 16:44:36.
