data_PCOD9238215
_publ_section_title
;
Structure prediction by ZEFSAII (Michael W. Deem and Ramdas Pophale) SiO2 
 PCOD9238215
Probable space group: P 2/C
;
_chemical_formula_sum "Si O2"
_cell_formula_units_Z 22
_cell_length_a 17.244360
_cell_length_b 6.900215
_cell_length_c 9.075478
_cell_angle_alpha 90.000000
_cell_angle_beta 116.548346
_cell_angle_gamma 90.000000
_cell_volume 966.023061
_symmetry_space_group_name_H-M "P 2/C"
_symmetry_group_IT_number 13
_symmetry_cell_setting 'monoclinic'
loop_
_space_group_symop_operation_xyz
x,y,z
-x,y,1/2-z
-x,-y,-z
x,-y,1/2+z
loop_
_atom_site_type_symbol
_atom_site_label
_atom_site_fract_x
_atom_site_fract_y
_atom_site_fract_z
Si Si1 0.500000 0.084310 0.250000
Si Si2 0.536410 0.728800 0.473413
Si Si3 0.640768 0.433864 0.819293
Si Si4 0.773983 0.238853 0.361442
Si Si5 0.932918 0.514542 0.572587
Si Si6 0.795236 0.828384 0.530095
O O1 0.466314 0.216465 0.356458
O O2 0.554053 0.929137 0.395970
O O3 0.557807 0.356061 0.655648
O O4 0.604982 0.583279 0.456693
O O5 0.688706 0.636660 0.829172
O O6 0.719763 0.283281 0.877078
O O7 0.853615 0.375157 0.471769
O O8 0.777754 0.192039 0.190317
O O9 0.786515 0.046517 0.467602
O O10 0.886523 0.719949 0.572008
O O11 0.000000 0.444162 0.750000
O O12 0.000000 0.500000 0.500000
#
# Coordination Sequence:
#
# PCOD9238215 Si02
#       6
#     2   4   4   4   4   4
#     4   8  16  32  66 112 142 182 260 304 360 426
#     4   9  18  40  70 104 144 197 246 307 358 422
#     4   9  22  45  70 101 145 187 243 295 353 419
#     4  11  26  46  71 107 147 187 234 291 359 426
#     4  11  24  48  78 108 146 180 233 289 352 439
#     4  11  26  44  70 108 143 189 230 292 358 418
#
# _framework density 22.773785
#
# number of rings (size 3 to 8) (size 9 to 14) (size 15 to 20)
#    0.000    2.182    1.818    0.000    2.545    8.727 
#    0.000   12.727    0.000    4.364    0.000    2.545 
#    0.000    0.000    0.000    0.000    0.000    0.000 
#
# Total GULP energy -122714.080504 kJ/mol
# GULP energy per Si atom -5577.912750 kJ/mol
# Density = 2.272195 g / cm^3
# Si number density = 22.773785 Si / 1000 Ang^3
#
#
#
# Elastic Constant Matrix: (Units=GPa)
#
#
# Indices 1 2 3 4 5 6 
#
# 1 143.9905 81.6440 66.4040 0.0000 -1.7780 0.0000
# 2 81.6440 174.6109 65.4336 0.0000 -13.3368 0.0000
# 3 66.4040 65.4336 142.9959 0.0000 -26.2023 0.0000
# 4 0.0000 0.0000 0.0000 22.7862 0.0000 -0.8795
# 5 -1.7780 -13.3368 -26.2023 0.0000 58.0787 0.0000
# 6 0.0000 0.0000 0.0000 -0.8795 0.0000 11.8319
#
#
#
# Elastic Compliance Matrix: (Units=1/GPa)
#
#
# Indices 1 2 3 4 5 6 
#
# 1 0.010779 -0.003840 -0.003651 0.000000 -0.002199 0.000000
# 2 -0.003840 0.008282 -0.001831 0.000000 0.000958 0.000000
# 3 -0.003651 -0.001831 0.010279 0.000000 0.004105 0.000000
# 4 0.000000 0.000000 0.000000 0.044013 0.000000 0.003272
# 5 -0.002199 0.000958 0.004105 0.000000 0.019223 0.000000
# 6 0.000000 0.000000 0.000000 0.003272 0.000000 0.084760
#
#
# Mechanical properties :
#
#
# Convention : Reuss Voigt Hill
#
# Bulk Modulus (GPa) = 93.49886 98.72894 96.11390
# Shear Modulus (GPa) = 25.05713 35.08040 30.06876
#
# Velocity S-wave (km/s) = 3.32062 3.92903 3.63757
# Velocity P-wave (km/s) = 7.47306 8.00182 7.74196
#
# Compressibility (1/GPa) = 0.01069532
#
# Stress axis : x y z
#
# Youngs Moduli (GPa) = 92.77557 120.74912 97.28654
#
# Poissons Ratio (x) = 0.46362 0.35523
# Poissons Ratio (y) = 0.35621 0.17814
# Poissons Ratio (z) = 0.33876 0.22110
#
# Static dielectric constant tensor:
#      x y z
#    x 1.817570 0.000000 0.017070 
#    y 0.000000 1.941930 0.000000 
#    z 0.017070 0.000000 1.885680 
# 
# From -- ./inp_files/22298.got.cif
#   From: 2010.05.17/outbox.cif.g08.bks.cpg/sg13_12_cif.got.tgz:22298.got - 2010.06.03 16:44:36.
