data_PCOD9238091
_publ_section_title
;
Structure prediction by ZEFSAII (Michael W. Deem and Ramdas Pophale) SiO2 
 PCOD9238091
Probable space group: P 2/C
;
_chemical_formula_sum "Si O2"
_cell_formula_units_Z 18
_cell_length_a 10.585143
_cell_length_b 13.260434
_cell_length_c 11.303838
_cell_angle_alpha 90.000000
_cell_angle_beta 32.769085
_cell_angle_gamma 90.000000
_cell_volume 858.780122
_symmetry_space_group_name_H-M "P 2/C"
_symmetry_group_IT_number 13
_symmetry_cell_setting 'monoclinic'
loop_
_space_group_symop_operation_xyz
x,y,z
-x,y,1/2-z
-x,-y,-z
x,-y,1/2+z
loop_
_atom_site_type_symbol
_atom_site_label
_atom_site_fract_x
_atom_site_fract_y
_atom_site_fract_z
Si Si1 0.000000 0.444925 0.250000
Si Si2 0.242265 0.714843 0.680452
Si Si3 0.000000 0.216259 0.750000
Si Si4 0.500000 0.803534 0.250000
Si Si5 0.939316 0.882804 0.046212
Si Si6 0.367917 0.385882 0.466125
O O1 0.972571 0.363935 0.165075
O O2 0.799037 0.522679 0.368988
O O3 0.359558 0.742710 0.462101
O O4 0.446281 0.658314 0.589889
O O5 0.136698 0.813940 0.826091
O O6 0.072689 0.154467 0.808434
O O7 0.210462 0.291145 0.550903
O O8 0.697449 0.865103 0.166486
O O9 0.000000 0.000000 0.000000
O O10 0.500000 0.428293 0.250000
#
# Coordination Sequence:
#
# PCOD9238091 Si02
#       6
#     2   4   2   2   4   4
#     4  11  26  41  72 108 140 191 246 295 368 436
#     4  12  25  48  70 105 148 190 239 303 359 433
#     4  11  24  47  70 106 146 187 238 299 360 440
#     4  12  26  48  74 100 152 184 232 304 364 410
#     4  12  28  47  78 108 141 193 248 294 369 430
#     4  11  24  44  70 103 144 195 237 295 367 435
#
# _framework density 20.959962999999998
#
# number of rings (size 3 to 8) (size 9 to 14) (size 15 to 20)
#    0.000    0.444    6.667    0.667    4.667    3.556 
#    0.000    0.000    0.000    0.000    0.000    0.000 
#    0.000    0.000    0.000    0.000    0.000    0.000 
#
# Total GULP energy -100368.319763 kJ/mol
# GULP energy per Si atom -5576.017765 kJ/mol
# Density = 2.091226 g / cm^3
# Si number density = 20.959963 Si / 1000 Ang^3
#
#
#
# Elastic Constant Matrix: (Units=GPa)
#
#
# Indices 1 2 3 4 5 6 
#
# 1 166.5543 66.2148 34.4046 0.0000 -25.0005 0.0000
# 2 66.2148 159.6606 40.8642 0.0000 -9.1489 0.0000
# 3 34.4046 40.8642 70.0754 0.0000 0.9030 0.0000
# 4 0.0000 0.0000 0.0000 14.2769 0.0000 -6.6134
# 5 -25.0005 -9.1489 0.9030 0.0000 44.0731 0.0000
# 6 0.0000 0.0000 0.0000 -6.6134 0.0000 31.6764
#
#
#
# Elastic Compliance Matrix: (Units=1/GPa)
#
#
# Indices 1 2 3 4 5 6 
#
# 1 0.008152 -0.002473 -0.002614 0.000000 0.004165 0.000000
# 2 -0.002473 0.008229 -0.003590 0.000000 0.000379 0.000000
# 3 -0.002614 -0.003590 0.017680 0.000000 -0.002590 0.000000
# 4 0.000000 0.000000 0.000000 0.077542 0.000000 0.016189
# 5 0.004165 0.000379 -0.002590 0.000000 0.025184 0.000000
# 6 0.000000 0.000000 0.000000 0.016189 0.000000 0.034949
#
#
# Mechanical properties :
#
#
# Convention : Reuss Voigt Hill
#
# Bulk Modulus (GPa) = 59.84939 75.47305 67.66122
# Shear Modulus (GPa) = 25.68575 34.99240 30.33908
#
# Velocity S-wave (km/s) = 3.50447 4.09037 3.80870
# Velocity P-wave (km/s) = 6.70755 7.64163 7.18977
#
# Compressibility (1/GPa) = 0.01670861
#
# Stress axis : x y z
#
# Youngs Moduli (GPa) = 122.66323 121.51466 56.56015
#
# Poissons Ratio (x) = 0.30055 0.14784
# Poissons Ratio (y) = 0.30339 0.20302
# Poissons Ratio (z) = 0.32063 0.43618
#
# Static dielectric constant tensor:
#      x y z
#    x 1.793890 0.000000 -0.011730 
#    y 0.000000 1.704260 0.000000 
#    z -0.011730 0.000000 1.771150 
# 
# From -- ./inp_files/33568.got.cif
#   From: 2010.05.17/outbox.cif.g08.bks.cpg/sg13_17_cif.got.tgz:33568.got - 2010.06.03 16:44:36.
