data_PCOD9238232
_publ_section_title
;
Structure prediction by ZEFSAII (Michael W. Deem and Ramdas Pophale) SiO2 
 PCOD9238232
Probable space group: P 2/C
;
_chemical_formula_sum "Si O2"
_cell_formula_units_Z 20
_cell_length_a 30.563352
_cell_length_b 7.575433
_cell_length_c 9.815023
_cell_angle_alpha 90.000000
_cell_angle_beta 26.654345
_cell_angle_gamma 90.000000
_cell_volume 1019.449703
_symmetry_space_group_name_H-M "P 2/C"
_symmetry_group_IT_number 13
_symmetry_cell_setting 'monoclinic'
loop_
_space_group_symop_operation_xyz
x,y,z
-x,y,1/2-z
-x,-y,-z
x,-y,1/2+z
loop_
_atom_site_type_symbol
_atom_site_label
_atom_site_fract_x
_atom_site_fract_y
_atom_site_fract_z
Si Si1 0.821218 0.683549 0.207445
Si Si2 0.067189 0.961804 0.183599
Si Si3 0.803576 0.356775 0.076124
Si Si4 0.386316 0.847368 0.710778
Si Si5 0.601645 0.805607 0.140862
O O1 0.845625 0.521282 0.041799
O O2 0.825549 0.631432 0.354261
O O3 0.709892 0.739763 0.486223
O O4 0.886089 0.855507 0.998563
O O5 0.000000 0.887647 0.250000
O O6 0.000000 0.000000 0.500000
O O7 0.149211 0.822997 0.998761
O O8 0.686762 0.336870 0.422912
O O9 0.488163 0.751567 0.464605
O O10 0.384851 0.875145 0.551740
O O11 0.384973 0.033712 0.791780
#
# Coordination Sequence:
#
# PCOD9238232 Si02
#       5
#     4   4   4   4   4
#     4  11  25  42  65  97 128 165 209 256 313 375
#     4  12  26  46  67  91 124 164 210 267 323 369
#     4  11  25  42  65  96 129 165 208 258 312 375
#     4   9  18  35  61  92 127 163 205 247 304 370
#     4   9  18  35  61  92 126 165 203 249 303 368
#
# _framework density 19.618425999999999
#
# number of rings (size 3 to 8) (size 9 to 14) (size 15 to 20)
#    0.000    1.600    4.000    0.000    2.800    4.000 
#    0.000    0.000    0.000    0.000    0.000    0.000 
#    0.000    0.000    0.000    0.000    0.000    0.000 
#
# Total GULP energy -111689.263910 kJ/mol
# GULP energy per Si atom -5584.463196 kJ/mol
# Density = 1.957377 g / cm^3
# Si number density = 19.618426 Si / 1000 Ang^3
#
#
#
# Elastic Constant Matrix: (Units=GPa)
#
#
# Indices 1 2 3 4 5 6 
#
# 1 88.7634 26.7015 17.1510 0.0000 -7.1006 0.0000
# 2 26.7015 62.0985 11.4578 0.0000 1.2815 0.0000
# 3 17.1510 11.4578 76.5694 0.0000 -2.0341 0.0000
# 4 0.0000 0.0000 0.0000 6.2119 0.0000 11.2663
# 5 -7.1006 1.2815 -2.0341 0.0000 19.0578 0.0000
# 6 0.0000 0.0000 0.0000 11.2663 0.0000 25.3103
#
#
#
# Elastic Compliance Matrix: (Units=1/GPa)
#
#
# Indices 1 2 3 4 5 6 
#
# 1 0.013797 -0.005654 -0.002104 0.000000 0.005296 0.000000
# 2 -0.005654 0.018914 -0.001658 0.000000 -0.003555 0.000000
# 3 -0.002104 -0.001658 0.013801 0.000000 0.000801 0.000000
# 4 0.000000 0.000000 0.000000 0.835440 0.000000 -0.371877
# 5 0.005296 -0.003555 0.000801 0.000000 0.054770 0.000000
# 6 0.000000 0.000000 0.000000 -0.371877 0.000000 0.205042
#
#
# Mechanical properties :
#
#
# Convention : Reuss Voigt Hill
#
# Bulk Modulus (GPa) = 36.12715 37.56134 36.84425
# Shear Modulus (GPa) = 4.27416 21.59075 12.93245
#
# Velocity S-wave (km/s) = 1.47762 3.32103 2.57027
# Velocity P-wave (km/s) = 4.62234 5.82178 5.25639
#
# Compressibility (1/GPa) = 0.02768001
#
# Stress axis : x y z
#
# Youngs Moduli (GPa) = 72.48103 52.87165 72.46015
#
# Poissons Ratio (x) = 0.29891 0.15243
# Poissons Ratio (y) = 0.40977 0.12016
# Poissons Ratio (z) = 0.15248 0.08768
#
# Static dielectric constant tensor:
#      x y z
#    x 1.680850 0.000000 -0.023970 
#    y 0.000000 1.648120 0.000000 
#    z -0.023970 0.000000 1.705340 
# 
# From -- ./inp_files/20724.got.cif
#   From: 2010.05.17/outbox.cif.g08.bks.cpg/sg13_11_cif.got.tgz:20724.got - 2010.06.03 16:44:36.
