data_PCOD9238853
_publ_section_title
;
Structure prediction by ZEFSAII (Michael W. Deem and Ramdas Pophale) SiO2 
 PCOD9238853
Probable space group: P 2/C
;
_chemical_formula_sum "Si O2"
_cell_formula_units_Z 20
_cell_length_a 10.100250
_cell_length_b 6.351446
_cell_length_c 13.414389
_cell_angle_alpha 90.000000
_cell_angle_beta 89.729440
_cell_angle_gamma 90.000000
_cell_volume 860.539456
_symmetry_space_group_name_H-M "P 2/C"
_symmetry_group_IT_number 13
_symmetry_cell_setting 'monoclinic'
loop_
_space_group_symop_operation_xyz
x,y,z
-x,y,1/2-z
-x,-y,-z
x,-y,1/2+z
loop_
_atom_site_type_symbol
_atom_site_label
_atom_site_fract_x
_atom_site_fract_y
_atom_site_fract_z
Si Si1 0.003326 0.197631 0.574689
Si Si2 0.203139 0.967442 0.819229
Si Si3 0.201225 0.422507 0.460274
Si Si4 0.405234 0.021974 0.157970
Si Si5 0.588386 0.752126 0.052074
O O1 0.900115 0.382420 0.546215
O O2 0.148615 0.297214 0.557895
O O3 0.930543 0.096806 0.668422
O O4 0.000000 0.000000 0.500000
O O5 0.186951 0.737152 0.867559
O O6 0.261622 0.965460 0.708222
O O7 0.308919 0.092602 0.889357
O O8 0.346457 0.523203 0.453422
O O9 0.500000 0.086610 0.250000
O O10 0.456274 0.795375 0.116763
O O11 0.420740 0.165308 0.060703
#
# Coordination Sequence:
#
# PCOD9238853 Si02
#       5
#     4   4   4   4   4
#     4   8  15  29  54  80 104 138 180 224 275 329
#     4   9  17  32  54  79 108 141 180 229 279 327
#     4   9  16  30  55  79 103 142 181 220 276 333
#     4   9  18  35  53  75 111 148 184 232 277 319
#     4   9  18  34  53  76 109 144 182 227 276 329
#
# _framework density 23.241236000000001
#
# number of rings (size 3 to 8) (size 9 to 14) (size 15 to 20)
#    0.000    3.200    0.000    0.000    0.000    0.000 
#    0.000   30.000    0.000   55.200    0.000    0.000 
#    0.000    0.000    0.000    0.000    0.000    0.000 
#
# Total GULP energy -111460.715730 kJ/mol
# GULP energy per Si atom -5573.035786 kJ/mol
# Density = 2.318834 g / cm^3
# Si number density = 23.241236 Si / 1000 Ang^3
#
#
#
# Elastic Constant Matrix: (Units=GPa)
#
#
# Indices 1 2 3 4 5 6 
#
# 1 86.8021 46.1199 56.1492 0.0000 -40.0240 0.0000
# 2 46.1199 123.3105 34.7419 0.0000 -15.2103 0.0000
# 3 56.1492 34.7419 135.2119 0.0000 -23.4609 0.0000
# 4 0.0000 0.0000 0.0000 -0.1055 0.0000 -18.9632
# 5 -40.0240 -15.2103 -23.4609 0.0000 58.5804 0.0000
# 6 0.0000 0.0000 0.0000 -18.9632 0.0000 48.1386
#
#
#
# Elastic Compliance Matrix: (Units=1/GPa)
#
#
# Indices 1 2 3 4 5 6 
#
# 1 0.024755 -0.005834 -0.006565 0.000000 0.012769 0.000000
# 2 -0.005834 0.010237 -0.000471 0.000000 -0.001516 0.000000
# 3 -0.006565 -0.000471 0.010149 0.000000 -0.000543 0.000000
# 4 0.000000 0.000000 0.000000 -0.132001 0.000000 -0.051999
# 5 0.012769 -0.001516 -0.000543 0.000000 0.025184 0.000000
# 6 0.000000 0.000000 0.000000 -0.051999 0.000000 0.000289
#
#
# Mechanical properties :
#
#
# Convention : Reuss Voigt Hill
#
# Bulk Modulus (GPa) = 51.54429 68.81626 60.18028
# Shear Modulus (GPa) = -171.34759 35.21025 -68.06867
#
# Velocity S-wave (km/s) = -8.59568 3.89651 -5.41770
# Velocity P-wave (km/s) = 8.73431 7.06524 3.63116
#
# Compressibility (1/GPa) = 0.01940079
#
# Stress axis : x y z
#
# Youngs Moduli (GPa) = 40.39627 97.68320 98.53318
#
# Poissons Ratio (x) = 0.56987 0.64690
# Poissons Ratio (y) = 0.23567 0.04640
# Poissons Ratio (z) = 0.26521 0.04600
#
# Static dielectric constant tensor:
#      x y z
#    x 2.079320 0.000000 -0.035450 
#    y 0.000000 1.875490 0.000000 
#    z -0.035450 0.000000 1.842280 
# 
# From -- ./inp_files/48577.got.cif
#   From: 2010.05.17/outbox.cif.g08.bks.cpg/sg13_25_cif.got.tgz:48577.got - 2010.06.03 16:44:36.
