data_PCOD9238748
_publ_section_title
;
Structure prediction by ZEFSAII (Michael W. Deem and Ramdas Pophale) SiO2 
 PCOD9238748
Probable space group: P 2/C
;
_chemical_formula_sum "Si O2"
_cell_formula_units_Z 16
_cell_length_a 9.044215
_cell_length_b 9.177928
_cell_length_c 16.746847
_cell_angle_alpha 90.000000
_cell_angle_beta 153.400323
_cell_angle_gamma 90.000000
_cell_volume 622.426532
_symmetry_space_group_name_H-M "P 2/C"
_symmetry_group_IT_number 13
_symmetry_cell_setting 'monoclinic'
loop_
_space_group_symop_operation_xyz
x,y,z
-x,y,1/2-z
-x,-y,-z
x,-y,1/2+z
loop_
_atom_site_type_symbol
_atom_site_label
_atom_site_fract_x
_atom_site_fract_y
_atom_site_fract_z
Si Si1 0.706021 0.957049 0.416155
Si Si2 0.605841 0.276594 0.425215
Si Si3 0.295416 0.553357 0.231715
Si Si4 0.330643 0.731959 0.959046
O O1 0.500000 0.870478 0.250000
O O2 0.566471 0.115444 0.371754
O O3 0.730554 0.866301 0.509586
O O4 0.000000 0.000000 0.500000
O O5 0.304006 0.378113 0.248420
O O6 0.592816 0.250137 0.513994
O O7 0.948783 0.359418 0.567216
O O8 0.500000 0.572989 0.250000
O O9 0.517296 0.607470 0.412609
O O10 0.000000 0.699259 0.750000
#
# Coordination Sequence:
#
# PCOD9238748 Si02
#       4
#     4   4   4   4
#     4  12  26  48  76 109 146 193 247 305 369 444
#     4  12  26  47  75 110 148 194 246 309 373 443
#     4  12  26  48  76 109 147 196 249 307 371 446
#     4  12  26  47  74 110 149 193 243 305 374 443
#
# _framework density 25.705845
#
# number of rings (size 3 to 8) (size 9 to 14) (size 15 to 20)
#    0.000    0.000    0.000   10.500    0.000    2.000 
#    0.000    0.000    0.000    0.000    0.000    0.000 
#    0.000    0.000    0.000    0.000    0.000    0.000 
#
# Total GULP energy -89486.092592 kJ/mol
# GULP energy per Si atom -5592.880787 kJ/mol
# Density = 2.564734 g / cm^3
# Si number density = 25.705845 Si / 1000 Ang^3
#
#
#
# Elastic Constant Matrix: (Units=GPa)
#
#
# Indices 1 2 3 4 5 6 
#
# 1 241.0179 33.6119 27.9980 0.0000 -11.6290 0.0000
# 2 33.6119 134.8253 -2.2367 0.0000 -3.5541 0.0000
# 3 27.9980 -2.2367 104.1500 0.0000 -15.6126 0.0000
# 4 0.0000 0.0000 0.0000 50.9030 0.0000 -7.3617
# 5 -11.6290 -3.5541 -15.6126 0.0000 48.9982 0.0000
# 6 0.0000 0.0000 0.0000 -7.3617 0.0000 56.3058
#
#
#
# Elastic Compliance Matrix: (Units=1/GPa)
#
#
# Indices 1 2 3 4 5 6 
#
# 1 0.004466 -0.001116 -0.001132 0.000000 0.000618 0.000000
# 2 -0.001116 0.007716 0.000535 0.000000 0.000465 0.000000
# 3 -0.001132 0.000535 0.010379 0.000000 0.003077 0.000000
# 4 0.000000 0.000000 0.000000 0.020024 0.000000 0.002618
# 5 0.000618 0.000465 0.003077 0.000000 0.021570 0.000000
# 6 0.000000 0.000000 0.000000 0.002618 0.000000 0.018102
#
#
# Mechanical properties :
#
#
# Convention : Reuss Voigt Hill
#
# Bulk Modulus (GPa) = 52.25619 66.52661 59.39140
# Shear Modulus (GPa) = 54.31216 59.28274 56.79745
#
# Velocity S-wave (km/s) = 4.60154 4.80750 4.70565
# Velocity P-wave (km/s) = 6.97172 7.53340 7.25800
#
# Compressibility (1/GPa) = 0.01913649
#
# Stress axis : x y z
#
# Youngs Moduli (GPa) = 223.91414 129.59515 96.35217
#
# Poissons Ratio (x) = 0.14461 0.10905
# Poissons Ratio (y) = 0.24985 -0.05159
# Poissons Ratio (z) = 0.25343 -0.06939
#
# Static dielectric constant tensor:
#      x y z
#    x 2.087220 0.000000 0.191050 
#    y 0.000000 2.042830 0.000000 
#    z 0.191050 0.000000 2.353040 
# 
# From -- ./inp_files/63993.got.cif
#   From: 2010.05.17/outbox.cif.g08.bks.cpg/sg13_32_cif.got.tgz:63993.got - 2010.06.03 16:44:36.
