data_PCOD9238900
_publ_section_title
;
Structure prediction by ZEFSAII (Michael W. Deem and Ramdas Pophale) SiO2 
 PCOD9238900
Probable space group: P 2/C
;
_chemical_formula_sum "Si O2"
_cell_formula_units_Z 28
_cell_length_a 30.000000
_cell_length_b 9.000000
_cell_length_c 30.000000
_cell_angle_alpha 90.000000
_cell_angle_beta 170.000000
_cell_angle_gamma 90.000000
_cell_volume 1406.550239
_symmetry_space_group_name_H-M "P 2/C"
_symmetry_group_IT_number 13
_symmetry_cell_setting 'monoclinic'
loop_
_space_group_symop_operation_xyz
x,y,z
-x,y,1/2-z
-x,-y,-z
x,-y,1/2+z
loop_
_atom_site_type_symbol
_atom_site_label
_atom_site_fract_x
_atom_site_fract_y
_atom_site_fract_z
Si Si1 0.023348 0.109505 0.654447
Si Si2 0.487590 0.702635 0.831978
Si Si3 0.808683 0.225656 0.179546
Si Si4 0.585373 0.592892 0.641959
Si Si5 0.277267 0.566077 0.995157
Si Si6 0.725253 0.738311 0.292251
Si Si7 0.910492 0.770536 0.379112
O O1 0.037209 0.124346 0.613293
O O2 0.761006 0.184989 0.416066
O O3 0.077295 0.937788 0.719643
O O4 0.263388 0.201348 0.909975
O O5 0.409158 0.610924 0.798944
O O6 0.589305 0.585803 0.894318
O O7 0.773428 0.328265 0.099511
O O8 0.028178 0.282124 0.431471
O O9 0.528789 0.208864 0.929437
O O10 0.633144 0.420015 0.682128
O O11 0.314809 0.660556 0.360129
O O12 0.819720 0.683741 0.850748
O O13 0.000000 0.548759 0.750000
O O14 0.500000 0.620653 0.250000
O O15 0.817298 0.824090 0.337018
#
# Coordination Sequence:
#
# PCOD9238900 Si02
#       7
#     4   4   4   4   4   4   4
#     4  10  23  42  65  95 139 180 214 260 326 399
#     4  10  21  42  69  91 125 169 216 268 331 389
#     4  12  26  42  65  99 136 177 211 272 345 393
#     4  10  19  35  59  91 131 170 224 278 319 368
#     4  12  26  46  73 102 125 160 222 287 347 413
#     4  12  22  36  62  94 140 178 227 267 320 386
#     4  10  21  35  59  94 134 184 227 268 306 374
#
# _framework density 19.906860999999999
#
# number of rings (size 3 to 8) (size 9 to 14) (size 15 to 20)
#    0.000    1.143    1.429    5.143    4.000    1.143 
#    0.000    2.857    0.000    0.000    0.000    0.000 
#    0.000    0.000    0.000    0.000    0.000    0.000 
#
# Total GULP energy -156145.969550 kJ/mol
# GULP energy per Si atom -5576.641770 kJ/mol
# Density = 1.986155 g / cm^3
# Si number density = 19.906861 Si / 1000 Ang^3
#
#
#
# Elastic Constant Matrix: (Units=GPa)
#
#
# Indices 1 2 3 4 5 6 
#
# 1 132.8331 33.4117 43.4347 0.0000 14.9683 0.0000
# 2 33.4117 86.9043 19.1307 0.0000 1.6443 0.0000
# 3 43.4347 19.1307 151.9666 0.0000 17.9002 0.0000
# 4 0.0000 0.0000 0.0000 31.5310 0.0000 -3.4907
# 5 14.9683 1.6443 17.9002 0.0000 50.4675 0.0000
# 6 0.0000 0.0000 0.0000 -3.4907 0.0000 25.9182
#
#
#
# Elastic Compliance Matrix: (Units=1/GPa)
#
#
# Indices 1 2 3 4 5 6 
#
# 1 0.009167 -0.003045 -0.002012 0.000000 -0.001906 0.000000
# 2 -0.003045 0.012848 -0.000839 0.000000 0.000782 0.000000
# 3 -0.002012 -0.000839 0.007501 0.000000 -0.002036 0.000000
# 4 0.000000 0.000000 0.000000 0.032195 0.000000 0.004336
# 5 -0.001906 0.000782 -0.002036 0.000000 0.021077 0.000000
# 6 0.000000 0.000000 0.000000 0.004336 0.000000 0.039167
#
#
# Mechanical properties :
#
#
# Convention : Reuss Voigt Hill
#
# Bulk Modulus (GPa) = 56.42595 62.62869 59.52732
# Shear Modulus (GPa) = 35.80249 39.96512 37.88381
#
# Velocity S-wave (km/s) = 4.24547 4.48549 4.36713
# Velocity P-wave (km/s) = 7.24145 7.63907 7.44291
#
# Compressibility (1/GPa) = 0.01772234
#
# Stress axis : x y z
#
# Youngs Moduli (GPa) = 109.08708 77.83515 133.31529
#
# Poissons Ratio (x) = 0.23704 0.26826
# Poissons Ratio (y) = 0.33221 0.11186
# Poissons Ratio (z) = 0.21951 0.06531
#
# Static dielectric constant tensor:
#      x y z
#    x 1.744050 0.000000 -0.014950 
#    y 0.000000 1.737020 0.000000 
#    z -0.014950 0.000000 1.706350 
# 
# From -- ./inp_files/98099.got.cif
#   From: 2010.05.17/outbox.ucp.g08.bks.cvg/sg13_50_cif.got.tgz:98099.got - 2010.06.11 12:23:55.
