data_PCOD9238046
_publ_section_title
;
Structure prediction by ZEFSAII (Michael W. Deem and Ramdas Pophale) SiO2 
 PCOD9238046
Probable space group: P 2/C
;
_chemical_formula_sum "Si O2"
_cell_formula_units_Z 32
_cell_length_a 13.187858
_cell_length_b 20.482277
_cell_length_c 13.015275
_cell_angle_alpha 90.000000
_cell_angle_beta 157.174841
_cell_angle_gamma 90.000000
_cell_volume 1363.792836
_symmetry_space_group_name_H-M "P 2/C"
_symmetry_group_IT_number 13
_symmetry_cell_setting 'monoclinic'
loop_
_space_group_symop_operation_xyz
x,y,z
-x,y,1/2-z
-x,-y,-z
x,-y,1/2+z
loop_
_atom_site_type_symbol
_atom_site_label
_atom_site_fract_x
_atom_site_fract_y
_atom_site_fract_z
Si Si1 0.253279 0.072470 0.189090
Si Si2 0.409784 0.794336 0.856345
Si Si3 0.873660 0.562517 0.829039
Si Si4 0.701748 0.659321 0.351243
Si Si5 0.849798 0.798894 0.442301
Si Si6 0.502946 0.653615 0.932705
Si Si7 0.277808 0.534010 0.460055
Si Si8 0.694368 0.931349 0.273843
O O1 0.352108 0.141060 0.235495
O O2 0.427888 0.071370 0.457978
O O3 0.301661 0.004269 0.176735
O O4 0.946756 0.072331 0.932363
O O5 0.442838 0.724620 0.832511
O O6 0.150834 0.793253 0.687541
O O7 0.666655 0.799334 0.168321
O O8 0.752018 0.608615 0.801379
O O9 0.663893 0.525865 0.562147
O O10 0.064176 0.608124 0.941275
O O11 0.000000 0.500000 0.000000
O O12 0.500000 0.640745 0.250000
O O13 0.792729 0.734133 0.453709
O O14 0.570828 0.662091 0.116340
O O15 0.758651 0.868485 0.404421
O O16 0.716090 0.606356 0.082880
O O17 0.000000 0.520888 0.250000
O O18 0.500000 0.533834 0.750000
#
# Coordination Sequence:
#
# PCOD9238046 Si02
#       8
#     4   4   4   4   4   4   4   4
#     4   8  13  22  40  75 101 143 185 232 281 340
#     4   9  17  31  55  76 114 149 191 238 297 353
#     4  12  25  44  67  89 124 163 208 265 329 388
#     4  11  25  40  63  91 124 165 211 257 319 386
#     4   9  17  33  48  77 112 156 191 238 290 355
#     4  11  24  43  63  90 123 162 205 259 320 382
#     4  12  29  45  69  95 122 158 212 270 332 392
#     4   8  13  22  42  66 109 142 185 233 280 333
#
# _framework density 23.463974
#
# number of rings (size 3 to 8) (size 9 to 14) (size 15 to 20)
#    0.000    2.000    2.500    1.125    3.500    0.000 
#    0.000    0.000    0.000    0.000    0.000    0.875 
#    0.000    0.000    0.000    2.500    0.000    0.875 
#
# Total GULP energy -178610.926405 kJ/mol
# GULP energy per Si atom -5581.591450 kJ/mol
# Density = 2.341057 g / cm^3
# Si number density = 23.463974 Si / 1000 Ang^3
#
#
#
# Elastic Constant Matrix: (Units=GPa)
#
#
# Indices 1 2 3 4 5 6 
#
# 1 41.5034 19.2537 17.1753 0.0000 10.5736 0.0000
# 2 19.2537 236.3886 10.5389 0.0000 3.9043 0.0000
# 3 17.1753 10.5389 106.9075 0.0000 11.4982 0.0000
# 4 0.0000 0.0000 0.0000 35.9983 0.0000 11.3859
# 5 10.5736 3.9043 11.4982 0.0000 27.0699 0.0000
# 6 0.0000 0.0000 0.0000 11.3859 0.0000 11.6352
#
#
#
# Elastic Compliance Matrix: (Units=1/GPa)
#
#
# Indices 1 2 3 4 5 6 
#
# 1 0.028885 -0.002043 -0.003413 0.000000 -0.009538 0.000000
# 2 -0.002043 0.004399 -0.000129 0.000000 0.000218 0.000000
# 3 -0.003413 -0.000129 0.010237 0.000000 -0.002997 0.000000
# 4 0.000000 0.000000 0.000000 0.040231 0.000000 -0.039369
# 5 -0.009538 0.000218 -0.002997 0.000000 0.041908 0.000000
# 6 0.000000 0.000000 0.000000 -0.039369 0.000000 0.124472
#
#
# Mechanical properties :
#
#
# Convention : Reuss Voigt Hill
#
# Bulk Modulus (GPa) = 30.91139 53.19281 42.05210
# Shear Modulus (GPa) = 18.37654 37.46278 27.91966
#
# Velocity S-wave (km/s) = 2.80157 4.00009 3.45323
# Velocity P-wave (km/s) = 4.86494 6.63728 5.81899
#
# Compressibility (1/GPa) = 0.03235054
#
# Stress axis : x y z
#
# Youngs Moduli (GPa) = 34.62052 227.33170 97.68271
#
# Poissons Ratio (x) = 0.46442 0.33341
# Poissons Ratio (y) = 0.07073 0.01259
# Poissons Ratio (z) = 0.11817 0.02931
#
# Static dielectric constant tensor:
#      x y z
#    x 1.879720 0.000000 -0.022440 
#    y 0.000000 2.038880 0.000000 
#    z -0.022440 0.000000 1.919210 
# 
# From -- ./inp_files/54012.got.cif
#   From: 2010.05.17/outbox.cif.g08.bks.cpg/sg13_28_cif.got.tgz:54012.got - 2010.06.03 16:44:36.
