data_PCOD9238916
_publ_section_title
;
Structure prediction by ZEFSAII (Michael W. Deem and Ramdas Pophale) SiO2 
 PCOD9238916
Probable space group: P 2/C
;
_chemical_formula_sum "Si O2"
_cell_formula_units_Z 30
_cell_length_a 27.000000
_cell_length_b 12.000000
_cell_length_c 27.000000
_cell_angle_alpha 90.000000
_cell_angle_beta 170.000000
_cell_angle_gamma 90.000000
_cell_volume 1519.074258
_symmetry_space_group_name_H-M "P 2/C"
_symmetry_group_IT_number 13
_symmetry_cell_setting 'monoclinic'
loop_
_space_group_symop_operation_xyz
x,y,z
-x,y,1/2-z
-x,-y,-z
x,-y,1/2+z
loop_
_atom_site_type_symbol
_atom_site_label
_atom_site_fract_x
_atom_site_fract_y
_atom_site_fract_z
Si Si1 0.560694 0.182134 0.620272
Si Si2 0.853076 0.079517 0.678682
Si Si3 0.215831 0.512533 0.501460
Si Si4 0.712694 0.697037 0.364707
Si Si5 0.659776 0.062573 0.265825
Si Si6 0.000000 0.265731 0.750000
Si Si7 0.064419 0.131386 0.059290
Si Si8 0.816270 0.177858 0.117948
O O1 0.603808 0.280083 0.702061
O O2 0.259249 0.165839 0.297482
O O3 0.633563 0.065739 0.720958
O O4 0.772166 0.193661 0.781965
O O5 0.822122 0.176632 0.607567
O O6 0.653292 0.102072 0.528646
O O7 0.775714 0.955415 0.583204
O O8 0.165198 0.070126 0.010488
O O9 0.241794 0.431065 0.573852
O O10 0.000000 0.456223 0.250000
O O11 0.123318 0.643658 0.411465
O O12 0.500000 0.515822 0.750000
O O13 0.996940 0.769445 0.653732
O O14 0.477533 0.755501 0.168417
O O15 0.790893 0.137683 0.351573
O O16 0.000000 0.000000 0.000000
O O17 0.000000 0.195464 0.250000
#
# Coordination Sequence:
#
# PCOD9238916 Si02
#       8
#     4   4   4   4   4   2   4   4
#     4  11  19  33  54  85 120 151 188 240 289 363
#     4  12  22  37  56  83 119 157 193 242 274 361
#     4  10  23  43  61  79 116 154 205 248 286 345
#     4  12  22  36  59  87 116 151 199 239 296 352
#     4  11  21  35  53  83 117 159 193 226 294 353
#     4  10  28  42  62  82 120 158 216 238 296 326
#     4  10  20  33  53  78 122 160 185 226 291 365
#     4  12  22  35  53  84 122 154 188 233 304 349
#
# _framework density 19.74887
#
# number of rings (size 3 to 8) (size 9 to 14) (size 15 to 20)
#    0.400    0.533    3.333    7.200    1.867    0.000 
#    0.000    0.000    0.000    0.000    0.000    5.600 
#    0.000    0.000    0.000    0.000    0.000    0.000 
#
# Total GULP energy -167216.480742 kJ/mol
# GULP energy per Si atom -5573.882691 kJ/mol
# Density = 1.970392 g / cm^3
# Si number density = 19.748870 Si / 1000 Ang^3
#
#
#
# Elastic Constant Matrix: (Units=GPa)
#
#
# Indices 1 2 3 4 5 6 
#
# 1 54.0592 19.2643 -0.7194 0.0000 14.7954 0.0000
# 2 19.2643 103.9251 9.4003 0.0000 7.1841 0.0000
# 3 -0.7194 9.4003 73.1764 0.0000 2.5134 0.0000
# 4 0.0000 0.0000 0.0000 16.5811 0.0000 -9.7393
# 5 14.7954 7.1841 2.5134 0.0000 34.1379 0.0000
# 6 0.0000 0.0000 0.0000 -9.7393 0.0000 14.9048
#
#
#
# Elastic Compliance Matrix: (Units=1/GPa)
#
#
# Indices 1 2 3 4 5 6 
#
# 1 0.022243 -0.003593 0.000988 0.000000 -0.008957 0.000000
# 2 -0.003593 0.010449 -0.001359 0.000000 -0.000541 0.000000
# 3 0.000988 -0.001359 0.013890 0.000000 -0.001165 0.000000
# 4 0.000000 0.000000 0.000000 0.097876 0.000000 0.063955
# 5 -0.008957 -0.000541 -0.001165 0.000000 0.033375 0.000000
# 6 0.000000 0.000000 0.000000 0.063955 0.000000 0.108883
#
#
# Mechanical properties :
#
#
# Convention : Reuss Voigt Hill
#
# Bulk Modulus (GPa) = 25.87113 31.89454 28.88284
# Shear Modulus (GPa) = 16.25868 26.67248 21.46558
#
# Velocity S-wave (km/s) = 2.87238 3.67901 3.30043
# Velocity P-wave (km/s) = 4.91216 5.85081 5.40191
#
# Compressibility (1/GPa) = 0.03865312
#
# Stress axis : x y z
#
# Youngs Moduli (GPa) = 44.95740 95.70520 71.99474
#
# Poissons Ratio (x) = 0.34390 -0.07113
# Poissons Ratio (y) = 0.16155 0.09784
# Poissons Ratio (z) = -0.04441 0.13006
#
# Static dielectric constant tensor:
#      x y z
#    x 1.708730 0.000000 0.012950 
#    y 0.000000 1.815340 0.000000 
#    z 0.012950 0.000000 1.763190 
# 
# From -- ./inp_files/94224.got.cif
#   From: 2010.05.17/outbox.ucp.g08.bks.cvg/sg13_48_cif.got.tgz:94224.got - 2010.06.11 12:23:55.
