data_PCOD9238378
_publ_section_title
;
Structure prediction by ZEFSAII (Michael W. Deem and Ramdas Pophale) SiO2 
 PCOD9238378
Probable space group: P 2/C
;
_chemical_formula_sum "Si O2"
_cell_formula_units_Z 16
_cell_length_a 8.189260
_cell_length_b 9.398934
_cell_length_c 10.327794
_cell_angle_alpha 90.000000
_cell_angle_beta 59.603766
_cell_angle_gamma 90.000000
_cell_volume 685.667492
_symmetry_space_group_name_H-M "P 2/C"
_symmetry_group_IT_number 13
_symmetry_cell_setting 'monoclinic'
loop_
_space_group_symop_operation_xyz
x,y,z
-x,y,1/2-z
-x,-y,-z
x,-y,1/2+z
loop_
_atom_site_type_symbol
_atom_site_label
_atom_site_fract_x
_atom_site_fract_y
_atom_site_fract_z
Si Si1 0.305442 0.096042 0.880778
Si Si2 0.285093 0.582838 0.802317
Si Si3 0.023435 0.686883 0.380925
Si Si4 0.779036 0.128649 0.305164
O O1 0.500000 0.161706 0.750000
O O2 0.135019 0.205566 0.927665
O O3 0.267834 0.960988 0.804351
O O4 0.317425 0.066281 0.027529
O O5 0.500000 0.544817 0.750000
O O6 0.157284 0.450721 0.808606
O O7 0.282515 0.709491 0.698489
O O8 0.171603 0.641816 0.973546
O O9 0.000000 0.755914 0.250000
O O10 0.000000 0.124830 0.250000
#
# Coordination Sequence:
#
# PCOD9238378 Si02
#       4
#     4   4   4   4
#     4  12  27  45  72 105 140 184 233 283 345 411
#     4  11  26  46  71 101 139 184 229 286 346 411
#     4  11  26  45  71 101 141 182 230 285 347 410
#     4  12  25  47  71 101 143 184 229 288 342 409
#
# _framework density 23.334927
#
# number of rings (size 3 to 8) (size 9 to 14) (size 15 to 20)
#    0.000    0.500    2.500    4.500   10.500    1.000 
#    0.000    0.000    0.000    0.000    0.000    0.000 
#    0.000    0.000    0.000    0.000    0.000    0.000 
#
# Total GULP energy -89655.692397 kJ/mol
# GULP energy per Si atom -5603.480775 kJ/mol
# Density = 2.328182 g / cm^3
# Si number density = 23.334927 Si / 1000 Ang^3
#
#
#
# Elastic Constant Matrix: (Units=GPa)
#
#
# Indices 1 2 3 4 5 6 
#
# 1 104.0244 21.5195 65.3209 0.0000 -9.2331 0.0000
# 2 21.5195 87.3903 17.1406 0.0000 18.2908 0.0000
# 3 65.3209 17.1406 118.1705 0.0000 2.9556 0.0000
# 4 0.0000 0.0000 0.0000 33.4550 0.0000 1.5124
# 5 -9.2331 18.2908 2.9556 0.0000 55.6066 0.0000
# 6 0.0000 0.0000 0.0000 1.5124 0.0000 27.5564
#
#
#
# Elastic Compliance Matrix: (Units=1/GPa)
#
#
# Indices 1 2 3 4 5 6 
#
# 1 0.015939 -0.003129 -0.008460 0.000000 0.004125 0.000000
# 2 -0.003129 0.013247 -0.000070 0.000000 -0.004873 0.000000
# 3 -0.008460 -0.000070 0.013201 0.000000 -0.002083 0.000000
# 4 0.000000 0.000000 0.000000 0.029965 0.000000 -0.001645
# 5 0.004125 -0.004873 -0.002083 0.000000 0.020382 0.000000
# 6 0.000000 0.000000 0.000000 -0.001645 0.000000 0.036380
#
#
# Mechanical properties :
#
#
# Convention : Reuss Voigt Hill
#
# Bulk Modulus (GPa) = 52.44042 57.50524 54.97283
# Shear Modulus (GPa) = 31.48854 37.03053 34.25953
#
# Velocity S-wave (km/s) = 3.67743 3.98793 3.83582
# Velocity P-wave (km/s) = 6.36812 6.77508 6.57475
#
# Compressibility (1/GPa) = 0.01906926
#
# Stress axis : x y z
#
# Youngs Moduli (GPa) = 62.73979 75.48803 75.75230
#
# Poissons Ratio (x) = 0.23621 0.64085
# Poissons Ratio (y) = 0.19632 0.00530
# Poissons Ratio (z) = 0.53077 0.00528
#
# Static dielectric constant tensor:
#      x y z
#    x 2.146670 0.000000 -0.086840 
#    y 0.000000 1.858850 0.000000 
#    z -0.086840 0.000000 1.904400 
# 
# From -- ./inp_files/11482.got.cif
#   From: 2010.05.17/outbox.cif.g08.bks.cpg/sg13_6_cif.got.tgz:11482.got - 2010.06.03 16:44:36.
