data_PCOD9238132
_publ_section_title
;
Structure prediction by ZEFSAII (Michael W. Deem and Ramdas Pophale) SiO2 
 PCOD9238132
Probable space group: P 2/C
;
_chemical_formula_sum "Si O2"
_cell_formula_units_Z 22
_cell_length_a 11.651330
_cell_length_b 8.597583
_cell_length_c 11.864769
_cell_angle_alpha 90.000000
_cell_angle_beta 123.045997
_cell_angle_gamma 90.000000
_cell_volume 996.267479
_symmetry_space_group_name_H-M "P 2/C"
_symmetry_group_IT_number 13
_symmetry_cell_setting 'monoclinic'
loop_
_space_group_symop_operation_xyz
x,y,z
-x,y,1/2-z
-x,-y,-z
x,-y,1/2+z
loop_
_atom_site_type_symbol
_atom_site_label
_atom_site_fract_x
_atom_site_fract_y
_atom_site_fract_z
Si Si1 0.648053 0.933538 0.563236
Si Si2 0.181490 0.946467 0.029255
Si Si3 0.000000 0.772437 0.750000
Si Si4 0.131351 0.526752 0.651942
Si Si5 0.340191 0.755496 0.702615
Si Si6 0.865686 0.190802 0.755980
O O1 0.749324 0.080009 0.641645
O O2 0.500000 0.000000 0.500000
O O3 0.680625 0.874709 0.454694
O O4 0.661742 0.807757 0.668072
O O5 0.077631 0.885981 0.877807
O O6 0.881126 0.119563 0.889511
O O7 0.238707 0.118745 0.088290
O O8 0.913508 0.657032 0.782021
O O9 0.260706 0.592657 0.651904
O O10 0.169611 0.369791 0.738291
O O11 0.000000 0.500000 0.500000
O O12 0.500000 0.758529 0.750000
O O13 0.000000 0.192876 0.750000
#
# Coordination Sequence:
#
# PCOD9238132 Si02
#       6
#     4   4   2   4   4   4
#     4  11  24  45  72 103 143 190 244 300 358 431
#     4  11  25  45  74 107 143 185 249 302 361 434
#     4  12  24  42  74 106 146 190 242 308 366 436
#     4  12  26  45  68 105 151 191 238 296 369 444
#     4  11  25  46  72 102 145 193 241 303 365 435
#     4  11  27  45  72 107 146 191 237 302 370 432
#
# _framework density 22.082422999999999
#
# number of rings (size 3 to 8) (size 9 to 14) (size 15 to 20)
#    0.000    0.727    6.364    0.000    3.818    1.455 
#    3.273    0.909    0.000    0.000    0.000    0.000 
#    0.000    0.000    0.000    0.000    0.000    0.000 
#
# Total GULP energy -122729.772979 kJ/mol
# GULP energy per Si atom -5578.626044 kJ/mol
# Density = 2.203216 g / cm^3
# Si number density = 22.082423 Si / 1000 Ang^3
#
#
#
# Elastic Constant Matrix: (Units=GPa)
#
#
# Indices 1 2 3 4 5 6 
#
# 1 186.8332 75.1962 57.9986 0.0000 2.5437 0.0000
# 2 75.1962 127.7335 33.4005 0.0000 20.1541 0.0000
# 3 57.9986 33.4005 84.8713 0.0000 4.0470 0.0000
# 4 0.0000 0.0000 0.0000 10.5825 0.0000 11.3570
# 5 2.5437 20.1541 4.0470 0.0000 43.6123 0.0000
# 6 0.0000 0.0000 0.0000 11.3570 0.0000 25.1358
#
#
#
# Elastic Compliance Matrix: (Units=1/GPa)
#
#
# Indices 1 2 3 4 5 6 
#
# 1 0.008238 -0.004053 -0.004119 0.000000 0.001775 0.000000
# 2 -0.004053 0.011370 -0.001472 0.000000 -0.004881 0.000000
# 3 -0.004119 -0.001472 0.015200 0.000000 -0.000490 0.000000
# 4 0.000000 0.000000 0.000000 0.183450 0.000000 -0.082888
# 5 0.001775 -0.004881 -0.000490 0.000000 0.025127 0.000000
# 6 0.000000 0.000000 0.000000 -0.082888 0.000000 0.077235
#
#
# Mechanical properties :
#
#
# Convention : Reuss Voigt Hill
#
# Bulk Modulus (GPa) = 64.43464 81.40318 72.91891
# Shear Modulus (GPa) = 14.48932 31.38897 22.93915
#
# Velocity S-wave (km/s) = 2.56432 3.77430 3.22653
# Velocity P-wave (km/s) = 6.16524 7.47911 6.85373
#
# Compressibility (1/GPa) = 0.01551960
#
# Stress axis : x y z
#
# Youngs Moduli (GPa) = 121.38786 87.95334 65.78766
#
# Poissons Ratio (x) = 0.35643 0.27101
# Poissons Ratio (y) = 0.49193 0.09686
# Poissons Ratio (z) = 0.50005 0.12950
#
# Static dielectric constant tensor:
#      x y z
#    x 1.917060 0.000000 0.021180 
#    y 0.000000 1.789780 0.000000 
#    z 0.021180 0.000000 2.018880 
# 
# From -- ./inp_files/49827.got.cif
#   From: 2010.05.17/outbox.cif.g08.bks.cpg/sg13_25_cif.got.tgz:49827.got - 2010.06.03 16:44:36.
