data_PCOD9238911
_publ_section_title
;
Structure prediction by ZEFSAII (Michael W. Deem and Ramdas Pophale) SiO2 
 PCOD9238911
Probable space group: P 2/C
;
_chemical_formula_sum "Si O2"
_cell_formula_units_Z 30
_cell_length_a 21.000000
_cell_length_b 9.000000
_cell_length_c 15.000000
_cell_angle_alpha 90.000000
_cell_angle_beta 30.000000
_cell_angle_gamma 90.000000
_cell_volume 1417.500000
_symmetry_space_group_name_H-M "P 2/C"
_symmetry_group_IT_number 13
_symmetry_cell_setting 'monoclinic'
loop_
_space_group_symop_operation_xyz
x,y,z
-x,y,1/2-z
-x,-y,-z
x,-y,1/2+z
loop_
_atom_site_type_symbol
_atom_site_label
_atom_site_fract_x
_atom_site_fract_y
_atom_site_fract_z
Si Si1 0.500000 0.033304 0.250000
Si Si2 0.701880 0.494685 0.099571
Si Si3 0.635939 0.808137 0.734106
Si Si4 0.173944 0.579183 0.728224
Si Si5 0.517985 0.715205 0.415359
Si Si6 0.884532 0.386380 0.529760
Si Si7 0.753811 0.913810 0.191068
Si Si8 0.698285 0.886663 0.918711
O O1 0.480764 0.129982 0.183555
O O2 0.359616 0.954181 0.420929
O O3 0.705422 0.317107 0.093586
O O4 0.575831 0.574493 0.293757
O O5 0.815697 0.552015 0.025254
O O6 0.724215 0.543893 0.971582
O O7 0.725906 0.938456 0.664631
O O8 0.579781 0.708624 0.883855
O O9 0.180915 0.469755 0.805227
O O10 0.203256 0.752596 0.710697
O O11 0.031935 0.569879 0.860480
O O12 0.635244 0.808612 0.311105
O O13 0.436810 0.818348 0.449024
O O14 0.867703 0.206531 0.547465
O O15 0.746679 0.981151 0.298199
#
# Coordination Sequence:
#
# PCOD9238911 Si02
#       8
#     2   4   4   4   4   4   4   4
#     4  12  22  34  60  98 142 154 202 264 306 400
#     4  11  24  40  67  92 128 166 216 254 314 384
#     4  11  22  36  62  96 129 171 198 255 324 377
#     4  11  25  43  67  91 121 171 216 266 317 368
#     4  10  19  40  58  92 128 167 200 247 317 382
#     4  10  24  46  65  88 125 163 218 275 312 363
#     4  10  20  40  64  86 125 170 204 255 324 370
#     4  11  21  37  61  90 129 161 204 257 312 378
#
# _framework density 21.164021000000002
#
# number of rings (size 3 to 8) (size 9 to 14) (size 15 to 20)
#    0.000    1.333    2.667    4.000    3.733    2.667 
#    0.000    0.000    2.933    0.000    0.000    0.000 
#    0.000    0.000    0.000    0.000    0.000    0.000 
#
# Total GULP energy -167093.178202 kJ/mol
# GULP energy per Si atom -5569.772607 kJ/mol
# Density = 2.111585 g / cm^3
# Si number density = 21.164021 Si / 1000 Ang^3
#
#
#
# Elastic Constant Matrix: (Units=GPa)
#
#
# Indices 1 2 3 4 5 6 
#
# 1 22.0717 -12.4669 15.8919 0.0000 14.6765 0.0000
# 2 -12.4669 99.7879 18.4780 0.0000 10.0046 0.0000
# 3 15.8919 18.4780 16.2273 0.0000 7.4800 0.0000
# 4 0.0000 0.0000 0.0000 10.8653 0.0000 -5.7426
# 5 14.6765 10.0046 7.4800 0.0000 23.7577 0.0000
# 6 0.0000 0.0000 0.0000 -5.7426 0.0000 18.4410
#
#
#
# Elastic Compliance Matrix: (Units=1/GPa)
#
#
# Indices 1 2 3 4 5 6 
#
# 1 -0.118301 -0.046788 0.147817 0.000000 0.046245 0.000000
# 2 -0.046788 -0.005788 0.044410 0.000000 0.017359 0.000000
# 3 0.147817 0.044410 -0.097085 0.000000 -0.079450 0.000000
# 4 0.000000 0.000000 0.000000 0.110168 0.000000 0.034307
# 5 0.046245 0.017359 -0.079450 0.000000 0.031228 0.000000
# 6 0.000000 0.000000 0.000000 0.034307 0.000000 0.064910
#
#
# Mechanical properties :
#
#
# Convention : Reuss Voigt Hill
#
# Bulk Modulus (GPa) = 14.34625 20.21034 17.27829
# Shear Modulus (GPa) = -17.69828 18.35839 0.33006
#
# Velocity S-wave (km/s) = -2.89493 2.94842 0.39534
# Velocity P-wave (km/s) = 2.09304 4.60011 2.89657
#
# Compressibility (1/GPa) = 0.06970463
#
# Stress axis : x y z
#
# Youngs Moduli (GPa) = -8.45299 -172.76754 -10.30023
#
# Poissons Ratio (x) = -8.08345 1.52255
# Poissons Ratio (y) = -0.39550 0.45744
# Poissons Ratio (z) = 1.24950 7.67268
#
# Static dielectric constant tensor:
#      x y z
#    x 1.812750 0.000000 0.069700 
#    y 0.000000 1.911060 0.000000 
#    z 0.069700 0.000000 1.877750 
# 
# From -- ./inp_files/57495.got.cif
#   From: 2010.05.17/outbox.ucp.g08.bks.cvg/sg13_29_cif.got.tgz:57495.got - 2010.06.11 12:23:55.
