data_PCOD9238953
_publ_section_title
;
Structure prediction by ZEFSAII (Michael W. Deem and Ramdas Pophale) SiO2 
 PCOD9238953
Probable space group: P 2/C
;
_chemical_formula_sum "Si O2"
_cell_formula_units_Z 26
_cell_length_a 15.000000
_cell_length_b 15.000000
_cell_length_c 9.000000
_cell_angle_alpha 90.000000
_cell_angle_beta 40.000000
_cell_angle_gamma 90.000000
_cell_volume 1301.644910
_symmetry_space_group_name_H-M "P 2/C"
_symmetry_group_IT_number 13
_symmetry_cell_setting 'monoclinic'
loop_
_space_group_symop_operation_xyz
x,y,z
-x,y,1/2-z
-x,-y,-z
x,-y,1/2+z
loop_
_atom_site_type_symbol
_atom_site_label
_atom_site_fract_x
_atom_site_fract_y
_atom_site_fract_z
Si Si1 0.729462 0.402043 0.214548
Si Si2 0.542616 0.689091 0.521065
Si Si3 0.958326 0.726546 0.476464
Si Si4 0.042499 0.907213 0.525552
Si Si5 0.192885 0.585994 0.231455
Si Si6 0.634145 0.885045 0.333033
Si Si7 0.500000 0.986571 0.250000
O O1 0.567427 0.376303 0.418279
O O2 0.789017 0.486529 0.227943
O O3 0.804938 0.312980 0.174567
O O4 0.772766 0.417409 0.987754
O O5 0.500000 0.697418 0.750000
O O6 0.690482 0.642073 0.332776
O O7 0.562072 0.788266 0.433518
O O8 0.000000 0.738627 0.250000
O O9 0.973776 0.820515 0.537610
O O10 0.054694 0.646339 0.418231
O O11 0.206097 0.884942 0.321917
O O12 0.000000 0.915571 0.750000
O O13 0.000000 0.000000 0.500000
O O14 0.609389 0.926139 0.201063
O O15 0.565301 0.950013 0.542288
#
# Coordination Sequence:
#
# PCOD9238953 Si02
#       7
#     4   4   4   4   4   4   2
#     4  10  22  36  63  90 124 163 213 258 319 387
#     4  10  20  38  64  88 124 164 204 260 324 376
#     4  10  22  40  64  90 127 171 213 262 323 381
#     4  12  26  43  66  95 131 169 216 266 318 382
#     4  10  20  40  59  89 123 166 207 263 322 375
#     4  11  22  44  63  94 128 165 214 265 320 383
#     4  10  24  38  70  92 122 170 210 262 320 378
#
# _framework density 19.974726
#
# number of rings (size 3 to 8) (size 9 to 14) (size 15 to 20)
#    0.000    1.538    2.308    2.308    0.000    4.923 
#    2.769    0.000    0.000    0.000    0.000    0.000 
#    0.000    0.000    0.000    0.000    0.000    0.000 
#
# Total GULP energy -145117.693407 kJ/mol
# GULP energy per Si atom -5581.449746 kJ/mol
# Density = 1.992926 g / cm^3
# Si number density = 19.974726 Si / 1000 Ang^3
#
#
#
# Elastic Constant Matrix: (Units=GPa)
#
#
# Indices 1 2 3 4 5 6 
#
# 1 111.4986 60.1463 17.0305 0.0000 1.3098 0.0000
# 2 60.1463 149.7289 12.0911 0.0000 18.6077 0.0000
# 3 17.0305 12.0911 24.2950 0.0000 0.5412 0.0000
# 4 0.0000 0.0000 0.0000 22.1024 0.0000 -8.6675
# 5 1.3098 18.6077 0.5412 0.0000 22.4474 0.0000
# 6 0.0000 0.0000 0.0000 -8.6675 0.0000 56.0664
#
#
#
# Elastic Compliance Matrix: (Units=1/GPa)
#
#
# Indices 1 2 3 4 5 6 
#
# 1 0.012597 -0.004982 -0.006430 0.000000 0.003550 0.000000
# 2 -0.004982 0.009739 -0.001182 0.000000 -0.007754 0.000000
# 3 -0.006430 -0.001182 0.046251 0.000000 0.000240 0.000000
# 4 0.000000 0.000000 0.000000 0.048164 0.000000 0.007446
# 5 0.003550 -0.007754 0.000240 0.000000 0.050763 0.000000
# 6 0.000000 0.000000 0.000000 0.007446 0.000000 0.018987
#
#
# Mechanical properties :
#
#
# Convention : Reuss Voigt Hill
#
# Bulk Modulus (GPa) = 23.04184 51.56202 37.30193
# Shear Modulus (GPa) = 22.10880 33.20688 27.65784
#
# Velocity S-wave (km/s) = 3.33053 4.08173 3.72511
# Velocity P-wave (km/s) = 5.13327 6.93424 6.10058
#
# Compressibility (1/GPa) = 0.04339932
#
# Stress axis : x y z
#
# Youngs Moduli (GPa) = 79.38666 102.67902 21.62125
#
# Poissons Ratio (x) = 0.51155 0.13902
# Poissons Ratio (y) = 0.39550 0.02555
# Poissons Ratio (z) = 0.51043 0.12136
#
# Static dielectric constant tensor:
#      x y z
#    x 1.716680 0.000000 -0.036960 
#    y 0.000000 1.675030 0.000000 
#    z -0.036960 0.000000 1.735800 
# 
# From -- ./inp_files/19841.got.cif
#   From: 2010.05.17/outbox.ucp.g08.bks.cvg/sg13_10_cif.got.tgz:19841.got - 2010.06.11 12:23:55.
