data_PCOD9238988
_publ_section_title
;
Structure prediction by ZEFSAII (Michael W. Deem and Ramdas Pophale) SiO2 
 PCOD9238988
Probable space group: P 2/C
;
_chemical_formula_sum "Si O2"
_cell_formula_units_Z 28
_cell_length_a 9.000000
_cell_length_b 12.000000
_cell_length_c 21.000000
_cell_angle_alpha 90.000000
_cell_angle_beta 40.000000
_cell_angle_gamma 90.000000
_cell_volume 1457.842299
_symmetry_space_group_name_H-M "P 2/C"
_symmetry_group_IT_number 13
_symmetry_cell_setting 'monoclinic'
loop_
_space_group_symop_operation_xyz
x,y,z
-x,y,1/2-z
-x,-y,-z
x,-y,1/2+z
loop_
_atom_site_type_symbol
_atom_site_label
_atom_site_fract_x
_atom_site_fract_y
_atom_site_fract_z
Si Si1 0.244528 0.719955 0.355338
Si Si2 0.379552 0.531034 0.394533
Si Si3 0.250676 0.434079 0.072054
Si Si4 0.534445 0.285733 0.166830
Si Si5 0.013116 0.793604 0.817048
Si Si6 0.971119 0.874721 0.540964
Si Si7 0.099713 0.371766 0.780128
O O1 0.500000 0.757891 0.250000
O O2 0.268592 0.591216 0.370282
O O3 0.090494 0.710931 0.342943
O O4 0.147306 0.796544 0.443162
O O5 0.237905 0.575710 0.500583
O O6 0.381935 0.397380 0.396174
O O7 0.639126 0.581914 0.312950
O O8 0.171547 0.310956 0.122423
O O9 0.060903 0.520946 0.157801
O O10 0.500000 0.500000 0.000000
O O11 0.500000 0.327496 0.250000
O O12 0.277937 0.250285 0.231064
O O13 0.720474 0.184567 0.108350
O O14 0.000000 0.848906 0.750000
O O15 0.989949 0.859886 0.893931
O O16 0.000000 0.000000 0.500000
O O17 0.000000 0.314505 0.750000
#
# Coordination Sequence:
#
# PCOD9238988 Si02
#       7
#     4   4   4   4   4   4   4
#     4  10  23  38  61  90 126 166 212 267 326 395
#     4  11  20  35  58  93 130 175 204 256 325 410
#     4  12  21  32  59  92 138 171 205 254 322 399
#     4  10  21  38  63  94 135 175 219 270 329 402
#     4  11  23  42  66 100 132 174 220 275 338 401
#     4  11  25  46  68  92 122 175 238 283 331 386
#     4  11  21  35  53  91 137 168 205 246 322 405
#
# _framework density 19.206467
#
# number of rings (size 3 to 8) (size 9 to 14) (size 15 to 20)
#    0.000    1.143    4.286    3.429    2.000    2.857 
#    0.000    1.429    0.000    0.000    0.000    0.000 
#    0.000    0.000    0.000    0.000    0.000    0.000 
#
# Total GULP energy -156013.998247 kJ/mol
# GULP energy per Si atom -5571.928509 kJ/mol
# Density = 1.916275 g / cm^3
# Si number density = 19.206467 Si / 1000 Ang^3
#
#
#
# Elastic Constant Matrix: (Units=GPa)
#
#
# Indices 1 2 3 4 5 6 
#
# 1 116.3399 22.4320 30.1321 0.0000 24.9751 0.0000
# 2 22.4320 92.2998 28.1803 0.0000 8.4698 0.0000
# 3 30.1321 28.1803 101.2858 0.0000 19.1699 0.0000
# 4 0.0000 0.0000 0.0000 28.0805 0.0000 4.1774
# 5 24.9751 8.4698 19.1699 0.0000 42.1426 0.0000
# 6 0.0000 0.0000 0.0000 4.1774 0.0000 18.8988
#
#
#
# Elastic Compliance Matrix: (Units=1/GPa)
#
#
# Indices 1 2 3 4 5 6 
#
# 1 0.010429 -0.001546 -0.001709 0.000000 -0.005093 0.000000
# 2 -0.001546 0.012105 -0.002868 0.000000 -0.000212 0.000000
# 3 -0.001709 -0.002868 0.011903 0.000000 -0.003826 0.000000
# 4 0.000000 0.000000 0.000000 0.036823 0.000000 -0.008139
# 5 -0.005093 -0.000212 -0.003826 0.000000 0.028530 0.000000
# 6 0.000000 0.000000 0.000000 -0.008139 0.000000 0.054713
#
#
# Mechanical properties :
#
#
# Convention : Reuss Voigt Hill
#
# Bulk Modulus (GPa) = 45.05900 52.37937 48.71919
# Shear Modulus (GPa) = 28.71162 33.10312 30.90737
#
# Velocity S-wave (km/s) = 3.87058 4.15606 4.01586
# Velocity P-wave (km/s) = 6.59442 7.09657 6.85010
#
# Compressibility (1/GPa) = 0.02219312
#
# Stress axis : x y z
#
# Youngs Moduli (GPa) = 95.88278 82.61045 84.00978
#
# Poissons Ratio (x) = 0.12769 0.14355
# Poissons Ratio (y) = 0.14820 0.24093
# Poissons Ratio (z) = 0.16384 0.23692
#
# Static dielectric constant tensor:
#      x y z
#    x 1.775340 0.000000 0.038960 
#    y 0.000000 1.640470 0.000000 
#    z 0.038960 0.000000 1.714070 
# 
# From -- ./inp_files/76373.got.cif
#   From: 2010.05.17/outbox.ucp.g08.bks.cvg/sg13_39_cif.got.tgz:76373.got - 2010.06.11 12:23:55.
