data_PCOD9238064
_publ_section_title
;
Structure prediction by ZEFSAII (Michael W. Deem and Ramdas Pophale) SiO2 
 PCOD9238064
Probable space group: P 2/C
;
_chemical_formula_sum "Si O2"
_cell_formula_units_Z 24
_cell_length_a 7.695625
_cell_length_b 8.047279
_cell_length_c 30.119289
_cell_angle_alpha 90.000000
_cell_angle_beta 146.213619
_cell_angle_gamma 90.000000
_cell_volume 1037.263426
_symmetry_space_group_name_H-M "P 2/C"
_symmetry_group_IT_number 13
_symmetry_cell_setting 'monoclinic'
loop_
_space_group_symop_operation_xyz
x,y,z
-x,y,1/2-z
-x,-y,-z
x,-y,1/2+z
loop_
_atom_site_type_symbol
_atom_site_label
_atom_site_fract_x
_atom_site_fract_y
_atom_site_fract_z
Si Si1 0.165362 0.624890 0.658221
Si Si2 0.668181 0.076391 0.413677
Si Si3 0.085919 0.561029 0.311817
Si Si4 0.207632 0.079622 0.752915
Si Si5 0.238140 0.069443 0.410812
Si Si6 0.293726 0.531659 0.592080
O O1 0.500000 0.678463 0.750000
O O2 0.236718 0.503923 0.632072
O O3 0.986079 0.526893 0.658497
O O4 0.924760 0.774981 0.599066
O O5 0.446230 0.082942 0.410136
O O6 0.660028 0.269263 0.397938
O O7 0.542388 0.970949 0.344172
O O8 0.000000 0.000000 0.500000
O O9 0.448072 0.579685 0.378195
O O10 0.000000 0.451962 0.250000
O O11 0.877271 0.725498 0.266113
O O12 0.000000 0.009793 0.750000
O O13 0.070554 0.018536 0.676794
O O14 0.500000 0.000000 0.500000
O O15 0.000000 0.500000 0.500000
#
# Coordination Sequence:
#
# PCOD9238064 Si02
#       6
#     4   4   4   4   4   4
#     4  12  25  45  74 106 144 198 250 304 379 452
#     4  11  24  46  73 106 150 200 250 307 379 448
#     4  11  24  47  75 105 147 190 250 311 380 445
#     4   9  23  43  74  97 143 195 242 303 373 443
#     4  11  24  43  70 105 144 189 246 311 371 444
#     4  12  28  44  76 110 151 195 248 315 382 453
#
# _framework density 23.137805
#
# number of rings (size 3 to 8) (size 9 to 14) (size 15 to 20)
#    0.000    1.000    3.333    2.000    9.333    2.000 
#    0.000    2.500    0.000    0.000    0.000    0.000 
#    0.000    0.000    0.000    0.000    0.000    0.000 
#
# Total GULP energy -133675.515451 kJ/mol
# GULP energy per Si atom -5569.813144 kJ/mol
# Density = 2.308514 g / cm^3
# Si number density = 23.137805 Si / 1000 Ang^3
#
#
#
# Elastic Constant Matrix: (Units=GPa)
#
#
# Indices 1 2 3 4 5 6 
#
# 1 126.6625 26.0011 38.7190 0.0000 -12.4749 0.0000
# 2 26.0011 75.3965 40.8603 0.0000 -1.1017 0.0000
# 3 38.7190 40.8603 175.7826 0.0000 2.4048 0.0000
# 4 0.0000 0.0000 0.0000 28.2264 0.0000 -3.0097
# 5 -12.4749 -1.1017 2.4048 0.0000 42.2261 0.0000
# 6 0.0000 0.0000 0.0000 -3.0097 0.0000 11.3952
#
#
#
# Elastic Compliance Matrix: (Units=1/GPa)
#
#
# Indices 1 2 3 4 5 6 
#
# 1 0.009091 -0.002277 -0.001510 0.000000 0.002712 0.000000
# 2 -0.002277 0.015760 -0.003161 0.000000 -0.000082 0.000000
# 3 -0.001510 -0.003161 0.006769 0.000000 -0.000914 0.000000
# 4 0.000000 0.000000 0.000000 0.036454 0.000000 0.009629
# 5 0.002712 -0.000082 -0.000914 0.000000 0.024533 0.000000
# 6 0.000000 0.000000 0.000000 0.009629 0.000000 0.090300
#
#
# Mechanical properties :
#
#
# Convention : Reuss Voigt Hill
#
# Bulk Modulus (GPa) = 56.42080 65.44471 60.93276
# Shear Modulus (GPa) = 24.66555 34.52027 29.59291
#
# Velocity S-wave (km/s) = 3.26855 3.86676 3.58017
# Velocity P-wave (km/s) = 6.21950 6.94852 6.59409
#
# Compressibility (1/GPa) = 0.01772396
#
# Stress axis : x y z
#
# Youngs Moduli (GPa) = 109.99581 63.45087 147.73817
#
# Poissons Ratio (x) = 0.14448 0.22313
# Poissons Ratio (y) = 0.25047 0.46696
# Poissons Ratio (z) = 0.16613 0.20055
#
# Static dielectric constant tensor:
#      x y z
#    x 1.999210 0.000000 0.086670 
#    y 0.000000 1.911390 0.000000 
#    z 0.086670 0.000000 2.052110 
# 
# From -- ./inp_files/96026.got.cif
#   From: 2010.05.17/outbox.cif.g08.bks.cpg/sg13_49_cif.got.tgz:96026.got - 2010.06.03 16:44:36.
