data_PCOD9238640
_publ_section_title
;
Structure prediction by ZEFSAII (Michael W. Deem and Ramdas Pophale) SiO2 
 PCOD9238640
Probable space group: P 2/C
;
_chemical_formula_sum "Si O2"
_cell_formula_units_Z 18
_cell_length_a 7.557149
_cell_length_b 6.027127
_cell_length_c 20.122023
_cell_angle_alpha 90.000000
_cell_angle_beta 120.175884
_cell_angle_gamma 90.000000
_cell_volume 792.315512
_symmetry_space_group_name_H-M "P 2/C"
_symmetry_group_IT_number 13
_symmetry_cell_setting 'monoclinic'
loop_
_space_group_symop_operation_xyz
x,y,z
-x,y,1/2-z
-x,-y,-z
x,-y,1/2+z
loop_
_atom_site_type_symbol
_atom_site_label
_atom_site_fract_x
_atom_site_fract_y
_atom_site_fract_z
Si Si1 0.500000 0.080036 0.250000
Si Si2 0.127674 0.875416 0.966973
Si Si3 0.190750 0.439237 0.150110
Si Si4 0.487437 0.260848 0.624624
Si Si5 0.074439 0.194476 0.832609
O O1 0.301835 0.239023 0.209253
O O2 0.500407 0.927025 0.315592
O O3 0.002203 0.654236 0.926376
O O4 0.121898 0.024186 0.900140
O O5 0.350288 0.827811 0.038103
O O6 0.000000 0.000000 0.000000
O O7 0.362559 0.538624 0.133970
O O8 0.102597 0.636740 0.178180
O O9 0.713407 0.319062 0.643155
O O10 0.000000 0.085387 0.750000
#
# Coordination Sequence:
#
# PCOD9238640 Si02
#       5
#     2   4   4   4   4
#     4  12  24  46  76 100 150 194 234 298 372 424
#     4  12  25  49  76 105 151 191 236 303 362 426
#     4  12  25  46  75 103 145 193 240 299 360 430
#     4  12  26  47  73 109 143 193 243 295 364 432
#     4  12  27  47  71 110 147 188 246 299 357 433
#
# _framework density 22.718222999999998
#
# number of rings (size 3 to 8) (size 9 to 14) (size 15 to 20)
#    0.000    0.000    4.444    6.000    0.000    5.333 
#    0.000    2.222    0.000    0.000    0.000    0.000 
#    0.000    0.000    0.000    0.000    0.000    0.000 
#
# Total GULP energy -100881.905590 kJ/mol
# GULP energy per Si atom -5604.550311 kJ/mol
# Density = 2.266652 g / cm^3
# Si number density = 22.718223 Si / 1000 Ang^3
#
#
#
# Elastic Constant Matrix: (Units=GPa)
#
#
# Indices 1 2 3 4 5 6 
#
# 1 112.4845 -2.2687 15.1295 0.0000 1.1657 0.0000
# 2 -2.2687 56.0886 29.0724 0.0000 -11.7281 0.0000
# 3 15.1295 29.0724 159.0262 0.0000 0.5263 0.0000
# 4 0.0000 0.0000 0.0000 42.1397 0.0000 18.1426
# 5 1.1657 -11.7281 0.5263 0.0000 38.6872 0.0000
# 6 0.0000 0.0000 0.0000 18.1426 0.0000 15.4034
#
#
#
# Elastic Compliance Matrix: (Units=1/GPa)
#
#
# Indices 1 2 3 4 5 6 
#
# 1 0.009046 0.000900 -0.001025 0.000000 0.000014 0.000000
# 2 0.000900 0.021294 -0.004000 0.000000 0.006483 0.000000
# 3 -0.001025 -0.004000 0.007121 0.000000 -0.001279 0.000000
# 4 0.000000 0.000000 0.000000 0.048145 0.000000 -0.056707
# 5 0.000014 0.006483 -0.001279 0.000000 0.027831 0.000000
# 6 0.000000 0.000000 0.000000 -0.056707 0.000000 0.131712
#
#
# Mechanical properties :
#
#
# Convention : Reuss Voigt Hill
#
# Bulk Modulus (GPa) = 34.23296 45.71840 39.97568
# Shear Modulus (GPa) = 19.00157 38.29045 28.64601
#
# Velocity S-wave (km/s) = 2.89520 4.10988 3.55480
# Velocity P-wave (km/s) = 5.12615 6.53370 5.87225
#
# Compressibility (1/GPa) = 0.02921161
#
# Stress axis : x y z
#
# Youngs Moduli (GPa) = 110.54576 46.96117 140.42357
#
# Poissons Ratio (x) = -0.04228 0.14397
# Poissons Ratio (y) = -0.09953 0.56170
# Poissons Ratio (z) = 0.11334 0.18785
#
# Static dielectric constant tensor:
#      x y z
#    x 1.836490 0.000000 0.009800 
#    y 0.000000 1.843900 0.000000 
#    z 0.009800 0.000000 1.848660 
# 
# From -- ./inp_files/62542.got.cif
#   From: 2010.05.17/outbox.cif.g08.bks.cpg/sg13_32_cif.got.tgz:62542.got - 2010.06.03 16:44:36.
