data_PCOD9238577
_publ_section_title
;
Structure prediction by ZEFSAII (Michael W. Deem and Ramdas Pophale) SiO2 
 PCOD9238577
Probable space group: P 2/C
;
_chemical_formula_sum "Si O2"
_cell_formula_units_Z 30
_cell_length_a 8.139821
_cell_length_b 14.411285
_cell_length_c 11.132219
_cell_angle_alpha 90.000000
_cell_angle_beta 72.258438
_cell_angle_gamma 90.000000
_cell_volume 1243.761882
_symmetry_space_group_name_H-M "P 2/C"
_symmetry_group_IT_number 13
_symmetry_cell_setting 'monoclinic'
loop_
_space_group_symop_operation_xyz
x,y,z
-x,y,1/2-z
-x,-y,-z
x,-y,1/2+z
loop_
_atom_site_type_symbol
_atom_site_label
_atom_site_fract_x
_atom_site_fract_y
_atom_site_fract_z
Si Si1 0.665522 0.145838 0.930184
Si Si2 0.771035 0.732826 0.614205
Si Si3 0.294632 0.802051 0.613635
Si Si4 0.319045 0.519852 0.104837
Si Si5 0.866701 0.365418 0.473340
Si Si6 0.901282 0.977445 0.897755
Si Si7 0.803974 0.295220 0.754150
Si Si8 0.500000 0.403883 0.250000
O O1 0.731077 0.041326 0.922031
O O2 0.698015 0.200109 0.797761
O O3 0.786950 0.202436 0.995828
O O4 0.475561 0.161669 0.023936
O O5 0.729236 0.797906 0.737881
O O6 0.607163 0.664558 0.640207
O O7 0.940948 0.671122 0.592733
O O8 0.257584 0.697862 0.580648
O O9 0.150893 0.869809 0.590989
O O10 0.277034 0.625264 0.143378
O O11 0.355152 0.467476 0.221968
O O12 0.500000 0.500000 0.000000
O O13 0.169777 0.469938 0.061150
O O14 0.811441 0.338920 0.620114
O O15 0.000000 0.995891 0.750000
O O16 0.000000 0.000000 0.000000
O O17 0.000000 0.278936 0.750000
#
# Coordination Sequence:
#
# PCOD9238577 Si02
#       8
#     4   4   4   4   4   4   4   2
#     4  12  25  49  74 108 149 192 238 306 371 442
#     4  12  23  45  76 106 146 193 246 301 370 435
#     4  12  25  46  76 112 143 192 246 301 368 442
#     4  12  27  46  68 105 144 196 246 303 363 437
#     4  12  26  46  76 104 147 191 252 304 369 443
#     4  12  28  49  78 113 150 194 248 307 377 452
#     4  12  28  46  72 106 147 195 243 304 373 435
#     4  12  24  44  70 102 146 190 244 306 358 426
#
# _framework density 24.120372
#
# number of rings (size 3 to 8) (size 9 to 14) (size 15 to 20)
#    0.000    0.000    4.000    6.000    3.733    2.133 
#    0.000    1.333    0.000    0.000    0.000    0.000 
#    0.000    0.000    0.000    0.000    0.000    0.000 
#
# Total GULP energy -168085.787344 kJ/mol
# GULP energy per Si atom -5602.859578 kJ/mol
# Density = 2.406547 g / cm^3
# Si number density = 24.120372 Si / 1000 Ang^3
#
#
#
# Elastic Constant Matrix: (Units=GPa)
#
#
# Indices 1 2 3 4 5 6 
#
# 1 91.9332 3.1722 19.6687 0.0000 -16.3649 0.0000
# 2 3.1722 75.4229 2.3170 0.0000 -4.4378 0.0000
# 3 19.6687 2.3170 106.1238 0.0000 -5.9082 0.0000
# 4 0.0000 0.0000 0.0000 20.7672 0.0000 2.2578
# 5 -16.3649 -4.4378 -5.9082 0.0000 45.3206 0.0000
# 6 0.0000 0.0000 0.0000 2.2578 0.0000 35.8328
#
#
#
# Elastic Compliance Matrix: (Units=1/GPa)
#
#
# Indices 1 2 3 4 5 6 
#
# 1 0.012036 -0.000206 -0.002000 0.000000 0.004065 0.000000
# 2 -0.000206 0.013344 -0.000186 0.000000 0.001208 0.000000
# 3 -0.002000 -0.000186 0.009828 0.000000 0.000541 0.000000
# 4 0.000000 0.000000 0.000000 0.048485 0.000000 -0.003055
# 5 0.004065 0.001208 0.000541 0.000000 0.023722 0.000000
# 6 0.000000 0.000000 0.000000 -0.003055 0.000000 0.028100
#
#
# Mechanical properties :
#
#
# Convention : Reuss Voigt Hill
#
# Bulk Modulus (GPa) = 32.86778 35.97729 34.42254
# Shear Modulus (GPa) = 33.23600 36.93890 35.08745
#
# Velocity S-wave (km/s) = 3.71606 3.91761 3.81817
# Velocity P-wave (km/s) = 5.66289 5.95077 5.80861
#
# Compressibility (1/GPa) = 0.03042493
#
# Stress axis : x y z
#
# Youngs Moduli (GPa) = 83.08348 74.93995 101.75230
#
# Poissons Ratio (x) = 0.01541 0.20350
# Poissons Ratio (y) = 0.01708 0.01892
# Poissons Ratio (z) = 0.16616 0.01394
#
# Static dielectric constant tensor:
#      x y z
#    x 1.923060 0.000000 0.044990 
#    y 0.000000 1.963980 0.000000 
#    z 0.044990 0.000000 2.052850 
# 
# From -- ./inp_files/30379.got.cif
#   From: 2010.05.17/outbox.cif.g08.bks.cpg/sg13_16_cif.got.tgz:30379.got - 2010.06.03 16:44:36.
