data_PCOD9238374
_publ_section_title
;
Structure prediction by ZEFSAII (Michael W. Deem and Ramdas Pophale) SiO2 
 PCOD9238374
Probable space group: P 2/C
;
_chemical_formula_sum "Si O2"
_cell_formula_units_Z 24
_cell_length_a 8.898084
_cell_length_b 4.952331
_cell_length_c 23.885090
_cell_angle_alpha 90.000000
_cell_angle_beta 66.861013
_cell_angle_gamma 90.000000
_cell_volume 967.855306
_symmetry_space_group_name_H-M "P 2/C"
_symmetry_group_IT_number 13
_symmetry_cell_setting 'monoclinic'
loop_
_space_group_symop_operation_xyz
x,y,z
-x,y,1/2-z
-x,-y,-z
x,-y,1/2+z
loop_
_atom_site_type_symbol
_atom_site_label
_atom_site_fract_x
_atom_site_fract_y
_atom_site_fract_z
Si Si1 0.405995 0.562560 0.069951
Si Si2 0.668269 0.290038 0.254100
Si Si3 0.111042 0.183121 0.788181
Si Si4 0.148185 0.814655 0.959227
Si Si5 0.072779 0.547377 0.083863
Si Si6 0.502262 0.077902 0.115830
O O1 0.226755 0.426725 0.094951
O O2 0.504059 0.396738 0.101779
O O3 0.415078 0.875212 0.085333
O O4 0.500000 0.500000 0.000000
O O5 0.500000 0.378849 0.250000
O O6 0.778441 0.556893 0.246053
O O7 0.602599 0.092337 0.313132
O O8 0.784660 0.074262 0.207230
O O9 0.000000 0.113306 0.750000
O O10 0.005762 0.261409 0.858122
O O11 0.304775 0.981440 0.915697
O O12 0.071818 0.622647 0.923062
O O13 0.172105 0.664851 0.015455
O O14 0.000000 0.000000 0.000000
#
# Coordination Sequence:
#
# PCOD9238374 Si02
#       6
#     4   4   4   4   4   4
#     4  12  25  46  69 107 137 183 229 288 354 418
#     4  12  27  48  72 106 140 193 239 292 352 420
#     4  12  27  49  73 106 143 192 242 295 352 424
#     4  11  26  44  71 106 140 187 226 296 360 417
#     4  11  26  44  72 103 144 181 238 289 357 422
#     4  12  26  46  74 100 145 180 238 287 351 422
#
# _framework density 24.797094999999999
#
# number of rings (size 3 to 8) (size 9 to 14) (size 15 to 20)
#    0.000    0.333    1.667    6.500    9.333    0.000 
#    0.000    0.000    0.000    0.000    0.000    0.000 
#    0.000    0.000    0.000    0.000    0.000    0.000 
#
# Total GULP energy -134006.824081 kJ/mol
# GULP energy per Si atom -5583.617670 kJ/mol
# Density = 2.474066 g / cm^3
# Si number density = 24.797095 Si / 1000 Ang^3
#
#
#
# Elastic Constant Matrix: (Units=GPa)
#
#
# Indices 1 2 3 4 5 6 
#
# 1 104.0638 16.4913 17.2361 0.0000 -13.0048 0.0000
# 2 16.4913 75.4658 3.9292 0.0000 -7.8051 0.0000
# 3 17.2361 3.9292 94.0538 0.0000 -10.9059 0.0000
# 4 0.0000 0.0000 0.0000 25.8896 0.0000 -0.4249
# 5 -13.0048 -7.8051 -10.9059 0.0000 26.2415 0.0000
# 6 0.0000 0.0000 0.0000 -0.4249 0.0000 14.0101
#
#
#
# Elastic Compliance Matrix: (Units=1/GPa)
#
#
# Indices 1 2 3 4 5 6 
#
# 1 0.010649 -0.001825 -0.001393 0.000000 0.004156 0.000000
# 2 -0.001825 0.013985 0.000134 0.000000 0.003311 0.000000
# 3 -0.001393 0.000134 0.011354 0.000000 0.004068 0.000000
# 4 0.000000 0.000000 0.000000 0.038645 0.000000 0.001172
# 5 0.004156 0.003311 0.004068 0.000000 0.042842 0.000000
# 6 0.000000 0.000000 0.000000 0.001172 0.000000 0.071413
#
#
# Mechanical properties :
#
#
# Convention : Reuss Voigt Hill
#
# Bulk Modulus (GPa) = 33.53498 38.76629 36.15064
# Shear Modulus (GPa) = 24.39077 28.95667 26.67372
#
# Velocity S-wave (km/s) = 3.13966 3.42094 3.28331
# Velocity P-wave (km/s) = 5.16686 5.59205 5.38366
#
# Compressibility (1/GPa) = 0.02981961
#
# Stress axis : x y z
#
# Youngs Moduli (GPa) = 93.90770 71.50385 88.07739
#
# Poissons Ratio (x) = 0.13047 0.12273
# Poissons Ratio (y) = 0.17135 -0.01181
# Poissons Ratio (z) = 0.13085 -0.00959
#
# Static dielectric constant tensor:
#      x y z
#    x 2.195110 0.000000 -0.019410 
#    y 0.000000 -1.314180 0.000000 
#    z -0.019410 0.000000 2.272440 
# 
# From -- ./inp_files/84292.got.cif
#   From: 2010.05.17/outbox.cif.g08.bks.cpg/sg13_43_cif.got.tgz:84292.got - 2010.06.03 16:44:36.
