data_PCOD9238442
_publ_section_title
;
Structure prediction by ZEFSAII (Michael W. Deem and Ramdas Pophale) SiO2 
 PCOD9238442
Probable space group: P 2/C
;
_chemical_formula_sum "Si O2"
_cell_formula_units_Z 14
_cell_length_a 6.919989
_cell_length_b 10.365446
_cell_length_c 10.315532
_cell_angle_alpha 90.000000
_cell_angle_beta 133.471614
_cell_angle_gamma 90.000000
_cell_volume 536.971598
_symmetry_space_group_name_H-M "P 2/C"
_symmetry_group_IT_number 13
_symmetry_cell_setting 'monoclinic'
loop_
_space_group_symop_operation_xyz
x,y,z
-x,y,1/2-z
-x,-y,-z
x,-y,1/2+z
loop_
_atom_site_type_symbol
_atom_site_label
_atom_site_fract_x
_atom_site_fract_y
_atom_site_fract_z
Si Si1 0.685107 0.528076 0.963515
Si Si2 0.500000 0.839434 0.750000
Si Si3 0.237114 0.963734 0.959565
Si Si4 0.027375 0.713322 0.566538
O O1 0.500000 0.510836 0.750000
O O2 0.852381 0.662106 0.017304
O O3 0.500000 0.500000 0.000000
O O4 0.903520 0.415651 0.064477
O O5 0.311680 0.757689 0.759814
O O6 0.271498 0.930456 0.587203
O O7 0.000000 0.984887 0.750000
O O8 0.187981 0.825239 0.005209
O O9 0.500000 0.000000 0.000000
#
# Coordination Sequence:
#
# PCOD9238442 Si02
#       4
#     4   2   4   4
#     4  11  28  51  83 116 159 229 290 364 430 504
#     4  12  26  52  76 120 168 214 278 356 428 526
#     4  12  28  48  83 122 169 225 274 347 441 524
#     4  11  27  49  78 116 167 211 292 346 423 518
#
# _framework density 26.072141999999999
#
# number of rings (size 3 to 8) (size 9 to 14) (size 15 to 20)
#    0.000    0.571    4.286    0.857   10.000    3.429 
#    0.000    0.000    0.000    0.000    0.000    0.000 
#    0.000    0.000    0.000    0.000    0.000    0.000 
#
# Total GULP energy -78121.186699 kJ/mol
# GULP energy per Si atom -5580.084764 kJ/mol
# Density = 2.601280 g / cm^3
# Si number density = 26.072142 Si / 1000 Ang^3
#
#
#
# Elastic Constant Matrix: (Units=GPa)
#
#
# Indices 1 2 3 4 5 6 
#
# 1 233.9297 94.4913 38.0846 0.0000 8.2594 0.0000
# 2 94.4913 208.0653 54.4663 0.0000 20.0410 0.0000
# 3 38.0846 54.4663 119.6434 0.0000 1.8361 0.0000
# 4 0.0000 0.0000 0.0000 27.7015 0.0000 20.4115
# 5 8.2594 20.0410 1.8361 0.0000 53.9532 0.0000
# 6 0.0000 0.0000 0.0000 20.4115 0.0000 69.8045
#
#
#
# Elastic Compliance Matrix: (Units=1/GPa)
#
#
# Indices 1 2 3 4 5 6 
#
# 1 0.005282 -0.002228 -0.000668 0.000000 0.000042 0.000000
# 2 -0.002228 0.006608 -0.002268 0.000000 -0.002036 0.000000
# 3 -0.000668 -0.002268 0.009594 0.000000 0.000618 0.000000
# 4 0.000000 0.000000 0.000000 0.046013 0.000000 -0.013455
# 5 0.000042 -0.002036 0.000618 0.000000 0.019264 0.000000
# 6 0.000000 0.000000 0.000000 -0.013455 0.000000 0.018260
#
#
# Mechanical properties :
#
#
# Convention : Reuss Voigt Hill
#
# Bulk Modulus (GPa) = 89.63331 103.96920 96.80126
# Shear Modulus (GPa) = 41.99375 55.26492 48.62933
#
# Velocity S-wave (km/s) = 4.01768 4.60901 4.32346
# Velocity P-wave (km/s) = 7.48170 8.26366 7.88238
#
# Compressibility (1/GPa) = 0.01115657
#
# Stress axis : x y z
#
# Youngs Moduli (GPa) = 189.32299 151.33728 104.23666
#
# Poissons Ratio (x) = 0.33718 0.06960
# Poissons Ratio (y) = 0.42181 0.23637
# Poissons Ratio (z) = 0.12641 0.34318
#
# Static dielectric constant tensor:
#      x y z
#    x 2.094140 0.000000 0.009250 
#    y 0.000000 2.329660 0.000000 
#    z 0.009250 0.000000 1.964900 
# 
# From -- ./inp_files/25421.got.cif
#   From: 2010.05.17/outbox.cif.g08.bks.cpg/sg13_13_cif.got.tgz:25421.got - 2010.06.03 16:44:36.
