data_PCOD9238474
_publ_section_title
;
Structure prediction by ZEFSAII (Michael W. Deem and Ramdas Pophale) SiO2 
 PCOD9238474
Probable space group: P 2/C
;
_chemical_formula_sum "Si O2"
_cell_formula_units_Z 22
_cell_length_a 10.303813
_cell_length_b 6.579487
_cell_length_c 28.759097
_cell_angle_alpha 90.000000
_cell_angle_beta 149.587982
_cell_angle_gamma 90.000000
_cell_volume 986.960956
_symmetry_space_group_name_H-M "P 2/C"
_symmetry_group_IT_number 13
_symmetry_cell_setting 'monoclinic'
loop_
_space_group_symop_operation_xyz
x,y,z
-x,y,1/2-z
-x,-y,-z
x,-y,1/2+z
loop_
_atom_site_type_symbol
_atom_site_label
_atom_site_fract_x
_atom_site_fract_y
_atom_site_fract_z
Si Si1 0.695085 0.838542 0.771031
Si Si2 0.529086 0.726388 0.896296
Si Si3 0.997119 0.777687 0.321816
Si Si4 0.501037 0.908292 0.449182
Si Si5 0.000000 0.456375 0.250000
Si Si6 0.132132 0.534087 0.941674
O O1 0.500000 0.911254 0.750000
O O2 0.545378 0.747588 0.680447
O O3 0.877506 0.668805 0.852254
O O4 0.844151 0.034089 0.796072
O O5 0.261071 0.669043 0.841380
O O6 0.604486 0.944747 0.941409
O O7 0.763486 0.572719 0.978921
O O8 0.204482 0.865843 0.350238
O O9 0.889125 0.592802 0.257894
O O10 0.124852 0.653058 0.403611
O O11 0.648817 0.698916 0.498841
O O12 0.500000 0.000000 0.500000
#
# Coordination Sequence:
#
# PCOD9238474 Si02
#       6
#     4   4   4   4   2   4
#     4  12  29  49  68  99 147 201 249 286 343 434
#     4  12  25  42  72 109 143 188 235 300 372 417
#     4  12  23  43  69 105 143 180 231 298 359 421
#     4  12  21  39  71 107 145 171 223 307 373 425
#     4  12  22  40  74 110 140 176 234 298 376 424
#     4  12  24  45  71 108 138 185 240 297 361 421
#
# _framework density 22.290648000000001
#
# number of rings (size 3 to 8) (size 9 to 14) (size 15 to 20)
#    0.000    0.000    7.273    3.818    0.000    1.455 
#    0.000    3.636    0.000    0.000    0.000    0.000 
#    0.000    0.000    0.000    0.000    0.000    0.000 
#
# Total GULP energy -122663.965165 kJ/mol
# GULP energy per Si atom -5575.634780 kJ/mol
# Density = 2.223991 g / cm^3
# Si number density = 22.290648 Si / 1000 Ang^3
#
#
#
# Elastic Constant Matrix: (Units=GPa)
#
#
# Indices 1 2 3 4 5 6 
#
# 1 51.0186 6.8968 24.0174 0.0000 -15.9177 0.0000
# 2 6.8968 89.5653 40.8068 0.0000 -19.7285 0.0000
# 3 24.0174 40.8068 120.6185 0.0000 -29.7177 0.0000
# 4 0.0000 0.0000 0.0000 44.1009 0.0000 -7.8911
# 5 -15.9177 -19.7285 -29.7177 0.0000 15.8166 0.0000
# 6 0.0000 0.0000 0.0000 -7.8911 0.0000 3.2092
#
#
#
# Elastic Compliance Matrix: (Units=1/GPa)
#
#
# Indices 1 2 3 4 5 6 
#
# 1 0.031246 0.006090 0.002489 0.000000 0.043719 0.000000
# 2 0.006090 0.016633 -0.000406 0.000000 0.026112 0.000000
# 3 0.002489 -0.000406 0.015686 0.000000 0.031471 0.000000
# 4 0.000000 0.000000 0.000000 0.040490 0.000000 0.099562
# 5 0.043719 0.026112 0.031471 0.000000 0.198924 0.000000
# 6 0.000000 0.000000 0.000000 0.099562 0.000000 0.556423
#
#
# Mechanical properties :
#
#
# Convention : Reuss Voigt Hill
#
# Bulk Modulus (GPa) = 12.51399 44.96046 28.73723
# Shear Modulus (GPa) = 5.74915 25.25741 15.50328
#
# Velocity S-wave (km/s) = 1.60772 3.36980 2.64011
# Velocity P-wave (km/s) = 3.01207 5.94597 4.71313
#
# Compressibility (1/GPa) = 0.07991054
#
# Stress axis : x y z
#
# Youngs Moduli (GPa) = 32.00442 60.12170 63.75049
#
# Poissons Ratio (x) = -0.36612 -0.15871
# Poissons Ratio (y) = -0.19490 0.02590
# Poissons Ratio (z) = -0.07967 0.02443
#
# Static dielectric constant tensor:
#      x y z
#    x 1.765310 0.000000 -0.009190 
#    y 0.000000 1.919750 0.000000 
#    z -0.009190 0.000000 1.913970 
# 
# From -- ./inp_files/96480.got.cif
#   From: 2010.05.17/outbox.cif.g08.bks.cpg/sg13_49_cif.got.tgz:96480.got - 2010.06.03 16:44:36.
