data_PCOD9238315
_publ_section_title
;
Structure prediction by ZEFSAII (Michael W. Deem and Ramdas Pophale) SiO2 
 PCOD9238315
Probable space group: P 2/C
;
_chemical_formula_sum "Si O2"
_cell_formula_units_Z 30
_cell_length_a 21.451381
_cell_length_b 5.489276
_cell_length_c 18.140990
_cell_angle_alpha 90.000000
_cell_angle_beta 36.671718
_cell_angle_gamma 90.000000
_cell_volume 1275.770098
_symmetry_space_group_name_H-M "P 2/C"
_symmetry_group_IT_number 13
_symmetry_cell_setting 'monoclinic'
loop_
_space_group_symop_operation_xyz
x,y,z
-x,y,1/2-z
-x,-y,-z
x,-y,1/2+z
loop_
_atom_site_type_symbol
_atom_site_label
_atom_site_fract_x
_atom_site_fract_y
_atom_site_fract_z
Si Si1 0.801432 0.673767 0.675582
Si Si2 0.925073 0.973244 0.452136
Si Si3 0.000000 0.649393 0.250000
Si Si4 0.593271 0.932427 0.857152
Si Si5 0.120896 0.320495 0.248658
Si Si6 0.333900 0.209550 0.978541
Si Si7 0.716898 0.289232 0.641930
Si Si8 0.454235 0.309051 0.375108
O O1 0.899829 0.817732 0.548629
O O2 0.840316 0.546301 0.713401
O O3 0.758900 0.518886 0.647384
O O4 0.701074 0.840088 0.791321
O O5 0.938878 0.808078 0.367212
O O6 0.819980 0.123856 0.541154
O O7 0.026426 0.141941 0.359169
O O8 0.921620 0.490750 0.275546
O O9 0.628787 0.160245 0.774362
O O10 0.546580 0.733998 0.845473
O O11 0.500000 0.000000 0.000000
O O12 0.219803 0.181762 0.121577
O O13 0.322713 0.292706 0.903812
O O14 0.390540 0.449165 0.958442
O O15 0.391841 0.949848 0.931522
O O16 0.500000 0.343823 0.250000
#
# Coordination Sequence:
#
# PCOD9238315 Si02
#       8
#     4   4   2   4   4   4   4   4
#     4  11  26  47  74 103 148 195 246 314 378 468
#     4  11  25  47  74 105 148 192 244 312 387 453
#     4  12  26  44  76 102 146 188 242 312 370 460
#     4  11  26  46  74 105 148 194 250 315 379 450
#     4  12  27  46  73 112 144 195 250 311 384 457
#     4  12  27  45  76 112 153 197 262 313 382 456
#     4  11  25  47  72 108 144 201 248 309 384 455
#     4  12  26  47  74 110 147 208 254 319 380 453
#
# _framework density 23.515208999999999
#
# number of rings (size 3 to 8) (size 9 to 14) (size 15 to 20)
#    0.000    0.533    1.333    6.000    9.333    4.800 
#    0.000    0.000    0.000    0.000    0.000    0.000 
#    0.000    0.000    0.000    0.000    0.000    0.000 
#
# Total GULP energy -167941.882085 kJ/mol
# GULP energy per Si atom -5598.062736 kJ/mol
# Density = 2.346169 g / cm^3
# Si number density = 23.515209 Si / 1000 Ang^3
#
#
#
# Elastic Constant Matrix: (Units=GPa)
#
#
# Indices 1 2 3 4 5 6 
#
# 1 115.8315 17.0053 27.4769 0.0000 11.6055 0.0000
# 2 17.0053 65.0932 30.9515 0.0000 -16.2115 0.0000
# 3 27.4769 30.9515 162.8822 0.0000 -10.1086 0.0000
# 4 0.0000 0.0000 0.0000 40.3710 0.0000 20.6110
# 5 11.6055 -16.2115 -10.1086 0.0000 17.9379 0.0000
# 6 0.0000 0.0000 0.0000 20.6110 0.0000 -27.3774
#
#
#
# Elastic Compliance Matrix: (Units=1/GPa)
#
#
# Indices 1 2 3 4 5 6 
#
# 1 0.011108 -0.005335 -0.001663 0.000000 -0.012946 0.000000
# 2 -0.005335 0.023653 -0.002128 0.000000 0.023629 0.000000
# 3 -0.001663 -0.002128 0.007017 0.000000 0.003107 0.000000
# 4 0.000000 0.000000 0.000000 0.017893 0.000000 0.013471
# 5 -0.012946 0.023629 0.003107 0.000000 0.087230 0.000000
# 6 0.000000 0.000000 0.000000 0.013471 0.000000 -0.026385
#
#
# Mechanical properties :
#
#
# Convention : Reuss Voigt Hill
#
# Bulk Modulus (GPa) = 42.50814 54.96382 48.73598
# Shear Modulus (GPa) = 34.10365 24.07783 29.09074
#
# Velocity S-wave (km/s) = 3.81239 3.20336 3.52106
# Velocity P-wave (km/s) = 6.12333 6.09151 6.10744
#
# Compressibility (1/GPa) = 0.02352490
#
# Stress axis : x y z
#
# Youngs Moduli (GPa) = 90.02380 42.27755 142.50544
#
# Poissons Ratio (x) = 0.22556 0.23706
# Poissons Ratio (y) = 0.48029 0.30328
# Poissons Ratio (z) = 0.14975 0.08998
#
# Static dielectric constant tensor:
#      x y z
#    x 2.454080 0.000000 -0.455760 
#    y 0.000000 1.949090 0.000000 
#    z -0.455760 0.000000 2.119980 
# 
# From -- ./inp_files/81946.got.cif
#   From: 2010.05.17/outbox.cif.g08.bks.cpg/sg13_41_cif.got.tgz:81946.got - 2010.06.03 16:44:36.
