data_PCOD9238018
_publ_section_title
;
Structure prediction by ZEFSAII (Michael W. Deem and Ramdas Pophale) SiO2 
 PCOD9238018
Probable space group: P 2/C
;
_chemical_formula_sum "Si O2"
_cell_formula_units_Z 22
_cell_length_a 26.189685
_cell_length_b 4.982130
_cell_length_c 8.997920
_cell_angle_alpha 90.000000
_cell_angle_beta 135.193093
_cell_angle_gamma 90.000000
_cell_volume 827.377863
_symmetry_space_group_name_H-M "P 2/C"
_symmetry_group_IT_number 13
_symmetry_cell_setting 'monoclinic'
loop_
_space_group_symop_operation_xyz
x,y,z
-x,y,1/2-z
-x,-y,-z
x,-y,1/2+z
loop_
_atom_site_type_symbol
_atom_site_label
_atom_site_fract_x
_atom_site_fract_y
_atom_site_fract_z
Si Si1 0.980036 0.775973 0.349221
Si Si2 0.500000 0.160725 0.250000
Si Si3 0.874004 0.477908 0.803817
Si Si4 0.686242 0.264186 0.166045
Si Si5 0.598419 0.124359 0.703068
Si Si6 0.785597 0.764026 0.393404
O O1 0.898510 0.690500 0.208955
O O2 0.000000 0.945882 0.250000
O O3 0.044671 0.555887 0.475860
O O4 0.000000 0.000000 0.500000
O O5 0.557577 0.292658 0.485738
O O6 0.456024 0.990778 0.282042
O O7 0.830702 0.720695 0.638386
O O8 0.830511 0.325402 0.840114
O O9 0.718247 0.555436 0.266696
O O10 0.634724 0.123071 0.185314
O O11 0.753077 0.056117 0.304141
O O12 0.653001 0.268336 0.930493
#
# Coordination Sequence:
#
# PCOD9238018 Si02
#       6
#     4   2   4   4   4   4
#     4  11  26  44  67  95 129 175 220 303 346 407
#     4   8  16  34  72 100 132 178 220 274 328 386
#     4  11  26  42  64  94 132 169 236 276 352 407
#     4  11  24  41  66  95 136 177 220 274 332 393
#     4   9  18  38  66 100 136 173 224 272 328 393
#     4  12  26  43  68  97 132 184 222 276 334 416
#
# _framework density 26.590029999999999
#
# number of rings (size 3 to 8) (size 9 to 14) (size 15 to 20)
#    0.000    1.455    1.818    2.182    7.636    0.000 
#    0.000    0.000    0.000   76.364    0.000    0.000 
#    0.000    0.000    0.000    0.000    0.000    0.000 
#
# Total GULP energy -122787.766811 kJ/mol
# GULP energy per Si atom -5581.262128 kJ/mol
# Density = 2.652951 g / cm^3
# Si number density = 26.590030 Si / 1000 Ang^3
#
#
#
# Elastic Constant Matrix: (Units=GPa)
#
#
# Indices 1 2 3 4 5 6 
#
# 1 190.8414 -1.3331 34.0710 0.0000 -23.7617 0.0000
# 2 -1.3331 58.0573 16.9593 0.0000 9.6611 0.0000
# 3 34.0710 16.9593 173.5418 0.0000 -8.5225 0.0000
# 4 0.0000 0.0000 0.0000 22.9759 0.0000 -7.9827
# 5 -23.7617 9.6611 -8.5225 0.0000 47.9914 0.0000
# 6 0.0000 0.0000 0.0000 -7.9827 0.0000 34.7156
#
#
#
# Elastic Compliance Matrix: (Units=1/GPa)
#
#
# Indices 1 2 3 4 5 6 
#
# 1 0.005751 -0.000022 -0.000995 0.000000 0.002675 0.000000
# 2 -0.000022 0.018489 -0.002003 0.000000 -0.004089 0.000000
# 3 -0.000995 -0.002003 0.006203 0.000000 0.001012 0.000000
# 4 0.000000 0.000000 0.000000 0.047303 0.000000 0.010877
# 5 0.002675 -0.004089 0.001012 0.000000 0.023164 0.000000
# 6 0.000000 0.000000 0.000000 0.010877 0.000000 0.031307
#
#
# Mechanical properties :
#
#
# Convention : Reuss Voigt Hill
#
# Bulk Modulus (GPa) = 40.98171 57.98165 49.48168
# Shear Modulus (GPa) = 34.15468 45.98615 40.07042
#
# Velocity S-wave (km/s) = 3.58787 4.16318 3.88618
# Velocity P-wave (km/s) = 5.71048 6.70541 6.22785
#
# Compressibility (1/GPa) = 0.02440113
#
# Stress axis : x y z
#
# Youngs Moduli (GPa) = 173.89562 54.08495 161.20706
#
# Poissons Ratio (x) = 0.00121 0.16047
# Poissons Ratio (y) = 0.00388 0.32294
# Poissons Ratio (z) = 0.17310 0.10835
#
# Static dielectric constant tensor:
#      x y z
#    x 2.034690 0.000000 -0.019850 
#    y 0.000000 1.968190 0.000000 
#    z -0.019850 0.000000 2.498620 
# 
# From -- ./inp_files/24323.got.cif
#   From: 2010.05.17/outbox.cif.g08.bks.cpg/sg13_13_cif.got.tgz:24323.got - 2010.06.03 16:44:36.
