data_PCOD9238828
_publ_section_title
;
Structure prediction by ZEFSAII (Michael W. Deem and Ramdas Pophale) SiO2 
 PCOD9238828
Probable space group: P 2/C
;
_chemical_formula_sum "Si O2"
_cell_formula_units_Z 12
_cell_length_a 9.106291
_cell_length_b 4.834808
_cell_length_c 20.267098
_cell_angle_alpha 90.000000
_cell_angle_beta 154.075791
_cell_angle_gamma 90.000000
_cell_volume 390.098638
_symmetry_space_group_name_H-M "P 2/C"
_symmetry_group_IT_number 13
_symmetry_cell_setting 'monoclinic'
loop_
_space_group_symop_operation_xyz
x,y,z
-x,y,1/2-z
-x,-y,-z
x,-y,1/2+z
loop_
_atom_site_type_symbol
_atom_site_label
_atom_site_fract_x
_atom_site_fract_y
_atom_site_fract_z
Si Si1 0.952148 0.049799 0.306186
Si Si2 0.442295 0.607226 0.551245
Si Si3 0.689137 0.213850 0.887820
O O1 0.809265 0.358063 0.233345
O O2 0.000000 0.950884 0.250000
O O3 0.733613 0.095090 0.531844
O O4 0.636808 0.953053 0.220596
O O5 0.500000 0.500000 0.500000
O O6 0.238077 0.425663 0.522233
O O7 0.500000 0.366233 0.750000
O O8 0.000000 0.000000 0.000000
#
# Coordination Sequence:
#
# PCOD9238828 Si02
#       3
#     4   4   4
#     4  12  28  53  89 135 185 244 324 382 481 565
#     4  12  30  55  95 134 189 250 321 401 472 583
#     4  12  31  57  90 134 192 247 318 399 489 558
#
# _framework density 30.761455000000002
#
# number of rings (size 3 to 8) (size 9 to 14) (size 15 to 20)
#    0.000    0.000    3.333    3.000    9.333    6.667 
#    0.000    5.000    0.000    2.000    0.000    0.000 
#    0.000    0.000    0.000    0.000    0.000    0.000 
#
# Total GULP energy -67008.211556 kJ/mol
# GULP energy per Si atom -5584.017630 kJ/mol
# Density = 3.069144 g / cm^3
# Si number density = 30.761455 Si / 1000 Ang^3
#
#
#
# Elastic Constant Matrix: (Units=GPa)
#
#
# Indices 1 2 3 4 5 6 
#
# 1 198.4912 59.7907 99.6581 0.0000 -3.0959 0.0000
# 2 59.7907 140.8532 72.4965 0.0000 -4.3476 0.0000
# 3 99.6581 72.4965 235.7752 0.0000 -10.1898 0.0000
# 4 0.0000 0.0000 0.0000 58.5827 0.0000 1.4014
# 5 -3.0959 -4.3476 -10.1898 0.0000 91.4891 0.0000
# 6 0.0000 0.0000 0.0000 1.4014 0.0000 72.9487
#
#
#
# Elastic Compliance Matrix: (Units=1/GPa)
#
#
# Indices 1 2 3 4 5 6 
#
# 1 0.006703 -0.001649 -0.002331 0.000000 -0.000111 0.000000
# 2 -0.001649 0.008841 -0.002015 0.000000 0.000140 0.000000
# 3 -0.002331 -0.002015 0.005867 0.000000 0.000479 0.000000
# 4 0.000000 0.000000 0.000000 0.017078 0.000000 -0.000328
# 5 -0.000111 0.000140 0.000479 0.000000 0.010986 0.000000
# 6 0.000000 0.000000 0.000000 -0.000328 0.000000 0.013715
#
#
# Mechanical properties :
#
#
# Convention : Reuss Voigt Hill
#
# Bulk Modulus (GPa) = 106.15308 115.44559 110.79933
# Shear Modulus (GPa) = 63.83892 67.48241 65.66067
#
# Velocity S-wave (km/s) = 4.56048 4.68881 4.62509
# Velocity P-wave (km/s) = 7.89392 8.18071 8.03860
#
# Compressibility (1/GPa) = 0.00942036
#
# Stress axis : x y z
#
# Youngs Moduli (GPa) = 149.17661 113.10584 170.44292
#
# Poissons Ratio (x) = 0.18653 0.39733
# Poissons Ratio (y) = 0.24601 0.34351
# Poissons Ratio (z) = 0.34775 0.22796
#
# Static dielectric constant tensor:
#      x y z
#    x 2.444380 0.000000 -0.115870 
#    y 0.000000 2.687500 0.000000 
#    z -0.115870 0.000000 2.465010 
# 
# From -- ./inp_files/25221.got.cif
#   From: 2010.05.17/outbox.cif.g08.bks.cpg/sg13_13_cif.got.tgz:25221.got - 2010.06.03 16:44:36.
