data_PCOD9238293
_publ_section_title
;
Structure prediction by ZEFSAII (Michael W. Deem and Ramdas Pophale) SiO2 
 PCOD9238293
Probable space group: P 2/C
;
_chemical_formula_sum "Si O2"
_cell_formula_units_Z 20
_cell_length_a 11.031722
_cell_length_b 5.382130
_cell_length_c 20.460194
_cell_angle_alpha 90.000000
_cell_angle_beta 140.083415
_cell_angle_gamma 90.000000
_cell_volume 779.507155
_symmetry_space_group_name_H-M "P 2/C"
_symmetry_group_IT_number 13
_symmetry_cell_setting 'monoclinic'
loop_
_space_group_symop_operation_xyz
x,y,z
-x,y,1/2-z
-x,-y,-z
x,-y,1/2+z
loop_
_atom_site_type_symbol
_atom_site_label
_atom_site_fract_x
_atom_site_fract_y
_atom_site_fract_z
Si Si1 0.819374 0.938980 0.129608
Si Si2 0.168277 0.636330 0.643067
Si Si3 0.628743 0.886772 0.240391
Si Si4 0.473790 0.715911 0.051497
Si Si5 0.208043 0.364054 0.005738
O O1 0.681481 0.733267 0.106437
O O2 0.865388 0.837444 0.076308
O O3 0.000000 0.979367 0.250000
O O4 0.681566 0.174314 0.061958
O O5 0.235134 0.878429 0.708278
O O6 0.214625 0.689850 0.585558
O O7 0.946746 0.585974 0.559630
O O8 0.270058 0.381252 0.708293
O O9 0.500000 0.916936 0.250000
O O10 0.494155 0.893225 0.122348
O O11 0.401843 0.466095 0.055565
#
# Coordination Sequence:
#
# PCOD9238293 Si02
#       5
#     4   4   4   4   4
#     4  11  26  49  72 105 148 203 254 309 372 442
#     4  11  27  43  80 110 154 196 244 311 386 442
#     4  12  24  47  73 115 149 197 245 311 378 448
#     4  11  26  45  77 106 150 195 257 305 375 449
#     4  11  25  46  71 110 149 193 256 310 373 450
#
# _framework density 25.657239000000001
#
# number of rings (size 3 to 8) (size 9 to 14) (size 15 to 20)
#    0.000    0.800    2.000    3.600    8.400    2.400 
#    3.600    0.000    0.000    0.000    0.000    0.000 
#    0.000    0.000    0.000    0.000    0.000    0.000 
#
# Total GULP energy -112011.359190 kJ/mol
# GULP energy per Si atom -5600.567959 kJ/mol
# Density = 2.559884 g / cm^3
# Si number density = 25.657239 Si / 1000 Ang^3
#
#
#
# Elastic Constant Matrix: (Units=GPa)
#
#
# Indices 1 2 3 4 5 6 
#
# 1 82.2584 13.7565 31.9076 0.0000 6.5450 0.0000
# 2 13.7565 112.8402 56.7705 0.0000 -0.4311 0.0000
# 3 31.9076 56.7705 194.1143 0.0000 -2.8142 0.0000
# 4 0.0000 0.0000 0.0000 34.6462 0.0000 14.7422
# 5 6.5450 -0.4311 -2.8142 0.0000 34.0767 0.0000
# 6 0.0000 0.0000 0.0000 14.7422 0.0000 20.2883
#
#
#
# Elastic Compliance Matrix: (Units=1/GPa)
#
#
# Indices 1 2 3 4 5 6 
#
# 1 0.013267 -0.000599 -0.002045 0.000000 -0.002725 0.000000
# 2 -0.000599 0.010419 -0.002949 0.000000 0.000003 0.000000
# 3 -0.002045 -0.002949 0.006363 0.000000 0.000881 0.000000
# 4 0.000000 0.000000 0.000000 0.041782 0.000000 -0.030360
# 5 -0.002725 0.000003 0.000881 0.000000 0.029942 0.000000
# 6 0.000000 0.000000 0.000000 -0.030360 0.000000 0.071350
#
#
# Mechanical properties :
#
#
# Convention : Reuss Voigt Hill
#
# Bulk Modulus (GPa) = 53.01276 66.00913 59.51095
# Shear Modulus (GPa) = 26.23369 36.92080 31.57725
#
# Velocity S-wave (km/s) = 3.20107 3.79753 3.51199
# Velocity P-wave (km/s) = 5.86253 6.70906 6.30003
#
# Compressibility (1/GPa) = 0.01886338
#
# Stress axis : x y z
#
# Youngs Moduli (GPa) = 75.37472 95.98288 157.16206
#
# Poissons Ratio (x) = 0.05748 0.32141
# Poissons Ratio (y) = 0.04514 0.46339
# Poissons Ratio (z) = 0.15415 0.28301
#
# Static dielectric constant tensor:
#      x y z
#    x 2.020900 0.000000 0.008800 
#    y 0.000000 2.065300 0.000000 
#    z 0.008800 0.000000 2.006420 
# 
# From -- ./inp_files/77363.got.cif
#   From: 2010.05.17/outbox.cif.g08.bks.cpg/sg13_39_cif.got.tgz:77363.got - 2010.06.03 16:44:36.
