data_PCOD9238156
_publ_section_title
;
Structure prediction by ZEFSAII (Michael W. Deem and Ramdas Pophale) SiO2 
 PCOD9238156
Probable space group: P 2/C
;
_chemical_formula_sum "Si O2"
_cell_formula_units_Z 22
_cell_length_a 7.527078
_cell_length_b 6.675199
_cell_length_c 19.183805
_cell_angle_alpha 90.000000
_cell_angle_beta 103.007516
_cell_angle_gamma 90.000000
_cell_volume 939.152592
_symmetry_space_group_name_H-M "P 2/C"
_symmetry_group_IT_number 13
_symmetry_cell_setting 'monoclinic'
loop_
_space_group_symop_operation_xyz
x,y,z
-x,y,1/2-z
-x,-y,-z
x,-y,1/2+z
loop_
_atom_site_type_symbol
_atom_site_label
_atom_site_fract_x
_atom_site_fract_y
_atom_site_fract_z
Si Si1 0.000000 0.059771 0.250000
Si Si2 0.635152 0.711901 0.928657
Si Si3 0.808495 0.109909 0.971426
Si Si4 0.286021 0.362238 0.219093
Si Si5 0.741683 0.546263 0.571614
Si Si6 0.933274 0.701974 0.341831
O O1 0.005328 0.908125 0.315613
O O2 0.826730 0.202925 0.245831
O O3 0.743444 0.684562 0.866135
O O4 0.442643 0.597321 0.903342
O O5 0.648332 0.948870 0.945012
O O6 0.712561 0.609864 0.005427
O O7 0.832410 0.244752 0.904902
O O8 0.781909 0.247659 0.035800
O O9 0.000000 0.000000 0.000000
O O10 0.500000 0.345951 0.250000
O O11 0.207577 0.586002 0.220674
O O12 0.903006 0.452140 0.629924
#
# Coordination Sequence:
#
# PCOD9238156 Si02
#       6
#     2   4   4   4   4   4
#     4  12  30  52  74 106 146 208 256 308 370 446
#     4  11  24  46  70 115 147 191 241 307 372 447
#     4  12  22  43  75 110 147 188 240 303 379 447
#     4  12  29  52  74 106 154 201 255 308 367 449
#     4  11  25  44  76 110 152 183 241 313 382 437
#     4  12  26  49  77 108 146 198 252 310 373 441
#
# _framework density 23.425373
#
# number of rings (size 3 to 8) (size 9 to 14) (size 15 to 20)
#    0.000    0.364    5.455    2.727    5.091    0.727 
#    6.545    0.000    0.000    0.000    0.000    0.000 
#    0.000    0.000    0.000    0.000    0.000    0.000 
#
# Total GULP energy -123188.266589 kJ/mol
# GULP energy per Si atom -5599.466663 kJ/mol
# Density = 2.337206 g / cm^3
# Si number density = 23.425373 Si / 1000 Ang^3
#
#
#
# Elastic Constant Matrix: (Units=GPa)
#
#
# Indices 1 2 3 4 5 6 
#
# 1 123.3281 51.1905 31.3562 0.0000 10.7071 0.0000
# 2 51.1905 128.8705 21.9538 0.0000 5.9270 0.0000
# 3 31.3562 21.9538 57.6843 0.0000 -9.9041 0.0000
# 4 0.0000 0.0000 0.0000 48.5956 0.0000 -10.0647
# 5 10.7071 5.9270 -9.9041 0.0000 39.1245 0.0000
# 6 0.0000 0.0000 0.0000 -10.0647 0.0000 36.7795
#
#
#
# Elastic Compliance Matrix: (Units=1/GPa)
#
#
# Indices 1 2 3 4 5 6 
#
# 1 0.011245 -0.003344 -0.005521 0.000000 -0.003968 0.000000
# 2 -0.003344 0.009469 -0.001960 0.000000 -0.001016 0.000000
# 3 -0.005521 -0.001960 0.022366 0.000000 0.007470 0.000000
# 4 0.000000 0.000000 0.000000 0.021814 0.000000 0.005969
# 5 -0.003968 -0.001016 0.007470 0.000000 0.028690 0.000000
# 6 0.000000 0.000000 0.000000 0.005969 0.000000 0.028823
#
#
# Mechanical properties :
#
#
# Convention : Reuss Voigt Hill
#
# Bulk Modulus (GPa) = 46.66736 57.65377 52.16056
# Shear Modulus (GPa) = 33.06899 38.59207 35.83053
#
# Velocity S-wave (km/s) = 3.76130 4.06328 3.91520
# Velocity P-wave (km/s) = 6.23122 6.83219 6.53861
#
# Compressibility (1/GPa) = 0.02142825
#
# Stress axis : x y z
#
# Youngs Moduli (GPa) = 88.93191 105.61272 44.71154
#
# Poissons Ratio (x) = 0.35312 0.24686
# Poissons Ratio (y) = 0.29735 0.08766
# Poissons Ratio (z) = 0.49101 0.20705
#
# Static dielectric constant tensor:
#      x y z
#    x 1.893370 0.000000 -0.004500 
#    y 0.000000 1.866230 0.000000 
#    z -0.004500 0.000000 1.910390 
# 
# From -- ./inp_files/74651.got.cif
#   From: 2010.05.17/outbox.cif.g08.bks.cpg/sg13_38_cif.got.tgz:74651.got - 2010.06.03 16:44:36.
