data_PCOD9238480
_publ_section_title
;
Structure prediction by ZEFSAII (Michael W. Deem and Ramdas Pophale) SiO2 
 PCOD9238480
Probable space group: P 2/C
;
_chemical_formula_sum "Si O2"
_cell_formula_units_Z 24
_cell_length_a 9.805844
_cell_length_b 5.909212
_cell_length_c 22.891189
_cell_angle_alpha 90.000000
_cell_angle_beta 117.508559
_cell_angle_gamma 90.000000
_cell_volume 1176.462389
_symmetry_space_group_name_H-M "P 2/C"
_symmetry_group_IT_number 13
_symmetry_cell_setting 'monoclinic'
loop_
_space_group_symop_operation_xyz
x,y,z
-x,y,1/2-z
-x,-y,-z
x,-y,1/2+z
loop_
_atom_site_type_symbol
_atom_site_label
_atom_site_fract_x
_atom_site_fract_y
_atom_site_fract_z
Si Si1 0.500000 0.063332 0.750000
Si Si2 0.081445 0.246930 0.001231
Si Si3 0.277052 0.550571 0.204733
Si Si4 0.732601 0.331540 0.170466
Si Si5 0.591854 0.730577 0.870588
Si Si6 0.053175 0.353081 0.864464
Si Si7 0.000000 0.979378 0.250000
O O1 0.544807 0.927332 0.816537
O O2 0.653293 0.205509 0.768241
O O3 0.103936 0.249492 0.935555
O O4 0.247873 0.238114 0.064742
O O5 0.000000 0.500000 0.000000
O O6 0.000000 0.000000 0.000000
O O7 0.288979 0.423339 0.268182
O O8 0.377683 0.472293 0.169370
O O9 0.101424 0.508771 0.151625
O O10 0.556412 0.292017 0.116962
O O11 0.819040 0.502561 0.144003
O O12 0.851423 0.127898 0.204383
O O13 0.986355 0.177680 0.803955
#
# Coordination Sequence:
#
# PCOD9238480 Si02
#       7
#     2   4   4   4   4   4   2
#     4  12  22  38  74 104 142 182 254 308 374 428
#     4  12  30  52  77 109 152 205 257 310 376 457
#     4  12  21  42  68 105 140 182 245 305 368 437
#     4  12  24  42  69 107 147 180 245 314 376 440
#     4  12  26  43  72 108 144 192 249 314 368 448
#     4  12  26  44  73 103 145 199 242 307 376 454
#     4  12  24  42  74 106 148 188 248 304 388 442
#
# _framework density 20.400141999999999
#
# number of rings (size 3 to 8) (size 9 to 14) (size 15 to 20)
#    0.000    0.000    8.333    2.000    4.667    0.667 
#    0.000    0.833    0.000    0.000    0.000    0.000 
#    0.000    0.000    0.000    0.000    0.000    0.000 
#
# Total GULP energy -133701.431118 kJ/mol
# GULP energy per Si atom -5570.892963 kJ/mol
# Density = 2.035371 g / cm^3
# Si number density = 20.400142 Si / 1000 Ang^3
#
#
#
# Elastic Constant Matrix: (Units=GPa)
#
#
# Indices 1 2 3 4 5 6 
#
# 1 157.7414 44.8308 48.8729 0.0000 31.6354 0.0000
# 2 44.8308 77.8192 33.6806 0.0000 8.7983 0.0000
# 3 48.8729 33.6806 137.5501 0.0000 5.7061 0.0000
# 4 0.0000 0.0000 0.0000 -52.5464 0.0000 -6.7963
# 5 31.6354 8.7983 5.7061 0.0000 36.8018 0.0000
# 6 0.0000 0.0000 0.0000 -6.7963 0.0000 -25.1520
#
#
#
# Elastic Compliance Matrix: (Units=1/GPa)
#
#
# Indices 1 2 3 4 5 6 
#
# 1 0.009452 -0.003731 -0.002159 0.000000 -0.006899 0.000000
# 2 -0.003731 0.016163 -0.002622 0.000000 -0.000250 0.000000
# 3 -0.002159 -0.002622 0.008632 0.000000 0.001144 0.000000
# 4 0.000000 0.000000 0.000000 -0.019720 0.000000 0.005329
# 5 -0.006899 -0.000250 0.001144 0.000000 0.032985 0.000000
# 6 0.000000 0.000000 0.000000 0.005329 0.000000 -0.041198
#
#
# Mechanical properties :
#
#
# Convention : Reuss Voigt Hill
#
# Bulk Modulus (GPa) = 58.05915 69.76436 63.91176
# Shear Modulus (GPa) = 171.95573 8.20245 90.07909
#
# Velocity S-wave (km/s) = 9.19100 2.00736 6.65222
# Velocity P-wave (km/s) = 11.88085 6.29642 9.50788
#
# Compressibility (1/GPa) = 0.01722381
#
# Stress axis : x y z
#
# Youngs Moduli (GPa) = 105.79524 61.87114 115.85426
#
# Poissons Ratio (x) = 0.23085 0.25009
# Poissons Ratio (y) = 0.39473 0.30371
# Poissons Ratio (z) = 0.22838 0.16220
#
# Static dielectric constant tensor:
#      x y z
#    x 1.816860 0.000000 0.075780 
#    y 0.000000 1.838580 0.000000 
#    z 0.075780 0.000000 1.711350 
# 
# From -- ./inp_files/84312.got.cif
#   From: 2010.05.17/outbox.cif.g08.bks.cpg/sg13_43_cif.got.tgz:84312.got - 2010.06.03 16:44:36.
