data_PCOD9238163
_publ_section_title
;
Structure prediction by ZEFSAII (Michael W. Deem and Ramdas Pophale) SiO2 
 PCOD9238163
Probable space group: P 2/C
;
_chemical_formula_sum "Si O2"
_cell_formula_units_Z 28
_cell_length_a 9.812401
_cell_length_b 14.293568
_cell_length_c 12.408402
_cell_angle_alpha 90.000000
_cell_angle_beta 48.951533
_cell_angle_gamma 90.000000
_cell_volume 1312.478000
_symmetry_space_group_name_H-M "P 2/C"
_symmetry_group_IT_number 13
_symmetry_cell_setting 'monoclinic'
loop_
_space_group_symop_operation_xyz
x,y,z
-x,y,1/2-z
-x,-y,-z
x,-y,1/2+z
loop_
_atom_site_type_symbol
_atom_site_label
_atom_site_fract_x
_atom_site_fract_y
_atom_site_fract_z
Si Si1 0.647479 0.738947 0.578885
Si Si2 0.554349 0.795400 0.017705
Si Si3 0.189621 0.939193 0.696972
Si Si4 0.845033 0.354669 0.418516
Si Si5 0.409210 0.522283 0.922514
Si Si6 0.332356 0.905007 0.270854
Si Si7 0.019821 0.807912 0.964750
O O1 0.500000 0.744552 0.750000
O O2 0.564187 0.798889 0.526642
O O3 0.650256 0.630398 0.541946
O O4 0.839803 0.777822 0.516548
O O5 0.690230 0.883062 0.950400
O O6 0.678213 0.704688 0.956438
O O7 0.415016 0.806867 0.186534
O O8 0.135866 0.860062 0.812501
O O9 0.000000 0.973819 0.750000
O O10 0.295305 0.023297 0.694655
O O11 0.758686 0.451687 0.498555
O O12 0.000000 0.369062 0.250000
O O13 0.930016 0.286106 0.463790
O O14 0.500000 0.513292 0.750000
O O15 0.500000 0.500000 0.000000
O O16 0.500000 0.947237 0.250000
O O17 0.138330 0.879409 0.420245
#
# Coordination Sequence:
#
# PCOD9238163 Si02
#       7
#     4   4   4   4   4   4   4
#     4  11  24  46  74 104 140 187 241 291 364 439
#     4  12  23  45  72  96 140 194 231 289 372 438
#     4  12  24  45  69  99 137 187 244 297 362 443
#     4  12  23  47  74 101 145 195 244 295 376 449
#     4  11  27  48  77 114 151 193 252 313 375 451
#     4  12  28  43  66 104 142 181 240 305 365 429
#     4  12  25  44  71 102 141 191 241 297 364 452
#
# _framework density 21.333691000000002
#
# number of rings (size 3 to 8) (size 9 to 14) (size 15 to 20)
#    0.000    0.286    7.143    0.857    8.000    0.571 
#    2.571    0.000    0.000    0.000    0.000    0.000 
#    0.000    0.000    0.000    0.000    0.000    0.000 
#
# Total GULP energy -156183.574497 kJ/mol
# GULP energy per Si atom -5577.984803 kJ/mol
# Density = 2.128513 g / cm^3
# Si number density = 21.333691 Si / 1000 Ang^3
#
#
#
# Elastic Constant Matrix: (Units=GPa)
#
#
# Indices 1 2 3 4 5 6 
#
# 1 151.4875 23.3506 8.5817 0.0000 1.8432 0.0000
# 2 23.3506 50.2811 2.1529 0.0000 -6.3691 0.0000
# 3 8.5817 2.1529 35.2842 0.0000 -1.1985 0.0000
# 4 0.0000 0.0000 0.0000 27.5943 0.0000 4.5938
# 5 1.8432 -6.3691 -1.1985 0.0000 29.6774 0.0000
# 6 0.0000 0.0000 0.0000 4.5938 0.0000 6.7614
#
#
#
# Elastic Compliance Matrix: (Units=1/GPa)
#
#
# Indices 1 2 3 4 5 6 
#
# 1 0.007239 -0.003452 -0.001593 0.000000 -0.001255 0.000000
# 2 -0.003452 0.022133 -0.000343 0.000000 0.004951 0.000000
# 3 -0.001593 -0.000343 0.028790 0.000000 0.001188 0.000000
# 4 0.000000 0.000000 0.000000 0.040861 0.000000 -0.027762
# 5 -0.001255 0.004951 0.001188 0.000000 0.034884 0.000000
# 6 0.000000 0.000000 0.000000 -0.027762 0.000000 0.166760
#
#
# Mechanical properties :
#
#
# Convention : Reuss Voigt Hill
#
# Bulk Modulus (GPa) = 21.10298 33.91367 27.50832
# Shear Modulus (GPa) = 15.27942 26.33781 20.80861
#
# Velocity S-wave (km/s) = 2.67911 3.51745 3.12651
# Velocity P-wave (km/s) = 4.41402 5.69455 5.09467
#
# Compressibility (1/GPa) = 0.04738667
#
# Stress axis : x y z
#
# Youngs Moduli (GPa) = 138.14316 45.18078 34.73446
#
# Poissons Ratio (x) = 0.15599 0.05532
# Poissons Ratio (y) = 0.47694 0.01190
# Poissons Ratio (z) = 0.22000 0.01548
#
# Static dielectric constant tensor:
#      x y z
#    x 1.797800 0.000000 0.053310 
#    y 0.000000 1.727710 0.000000 
#    z 0.053310 0.000000 1.802310 
# 
# From -- ./inp_files/30280.got.cif
#   From: 2010.05.17/outbox.cif.g08.bks.cpg/sg13_16_cif.got.tgz:30280.got - 2010.06.03 16:44:36.
