data_PCOD9238380
_publ_section_title
;
Structure prediction by ZEFSAII (Michael W. Deem and Ramdas Pophale) SiO2 
 PCOD9238380
Probable space group: P 2/C
;
_chemical_formula_sum "Si O2"
_cell_formula_units_Z 16
_cell_length_a 25.072018
_cell_length_b 4.903510
_cell_length_c 14.066618
_cell_angle_alpha 90.000000
_cell_angle_beta 20.869492
_cell_angle_gamma 90.000000
_cell_volume 616.069010
_symmetry_space_group_name_H-M "P 2/C"
_symmetry_group_IT_number 13
_symmetry_cell_setting 'monoclinic'
loop_
_space_group_symop_operation_xyz
x,y,z
-x,y,1/2-z
-x,-y,-z
x,-y,1/2+z
loop_
_atom_site_type_symbol
_atom_site_label
_atom_site_fract_x
_atom_site_fract_y
_atom_site_fract_z
Si Si1 0.429443 0.762358 0.674239
Si Si2 0.845905 0.558320 0.888695
Si Si3 0.188677 0.412262 0.834114
Si Si4 0.298797 0.097238 0.041867
O O1 0.500000 0.500000 0.500000
O O2 0.500000 0.000000 0.500000
O O3 0.254012 0.708661 0.956634
O O4 0.432329 0.908917 0.774075
O O5 0.784884 0.754130 0.907338
O O6 0.020325 0.490178 0.592015
O O7 0.808626 0.650744 0.058215
O O8 0.307992 0.641367 0.599485
O O9 0.205729 0.128843 0.752045
#
# Coordination Sequence:
#
# PCOD9238380 Si02
#       4
#     4   4   4   4
#     4  12  25  45  71  94 137 192 231 282 347 407
#     4  11  26  45  73 103 150 179 231 306 346 422
#     4  11  27  41  74 111 137 181 239 288 375 408
#     4  12  24  45  72 104 139 187 232 294 353 427
#
# _framework density 25.971115000000001
#
# number of rings (size 3 to 8) (size 9 to 14) (size 15 to 20)
#    0.000    0.500    5.000    1.500    7.000    2.000 
#    0.000    7.500    0.000    0.000    0.000    0.000 
#    0.000    0.000    0.000    0.000    0.000    0.000 
#
# Total GULP energy -89234.728809 kJ/mol
# GULP energy per Si atom -5577.170551 kJ/mol
# Density = 2.591200 g / cm^3
# Si number density = 25.971115 Si / 1000 Ang^3
#
#
#
# Elastic Constant Matrix: (Units=GPa)
#
#
# Indices 1 2 3 4 5 6 
#
# 1 123.9731 23.4352 47.4769 0.0000 38.9831 0.0000
# 2 23.4352 185.5696 63.9394 0.0000 20.0548 0.0000
# 3 47.4769 63.9394 89.0559 0.0000 35.1146 0.0000
# 4 0.0000 0.0000 0.0000 59.8740 0.0000 18.6600
# 5 38.9831 20.0548 35.1146 0.0000 55.5688 0.0000
# 6 0.0000 0.0000 0.0000 18.6600 0.0000 25.2293
#
#
#
# Elastic Compliance Matrix: (Units=1/GPa)
#
#
# Indices 1 2 3 4 5 6 
#
# 1 0.011319 0.000663 -0.004376 0.000000 -0.005415 0.000000
# 2 0.000663 0.007232 -0.005771 0.000000 0.000572 0.000000
# 3 -0.004376 -0.005771 0.020875 0.000000 -0.008039 0.000000
# 4 0.000000 0.000000 0.000000 0.021705 0.000000 -0.016053
# 5 -0.005415 0.000572 -0.008039 0.000000 0.026668 0.000000
# 6 0.000000 0.000000 0.000000 -0.016053 0.000000 0.051510
#
#
# Mechanical properties :
#
#
# Convention : Reuss Voigt Hill
#
# Bulk Modulus (GPa) = 48.87803 74.25572 61.56687
# Shear Modulus (GPa) = 30.28562 45.71757 38.00159
#
# Velocity S-wave (km/s) = 3.41856 4.20017 3.82936
# Velocity P-wave (km/s) = 5.86883 7.22327 6.58099
#
# Compressibility (1/GPa) = 0.02045909
#
# Stress axis : x y z
#
# Youngs Moduli (GPa) = 88.34428 138.27853 47.90485
#
# Poissons Ratio (x) = -0.09173 0.20961
# Poissons Ratio (y) = -0.05860 0.27647
# Poissons Ratio (z) = 0.38655 0.79804
#
# Static dielectric constant tensor:
#      x y z
#    x 2.175640 0.000000 -0.006240 
#    y 0.000000 1.990800 0.000000 
#    z -0.006240 0.000000 2.117870 
# 
# From -- ./inp_files/59665.got.cif
#   From: 2010.05.17/outbox.cif.g08.bks.cpg/sg13_30_cif.got.tgz:59665.got - 2010.06.03 16:44:36.
