data_PCOD9238771
_publ_section_title
;
Structure prediction by ZEFSAII (Michael W. Deem and Ramdas Pophale) SiO2 
 PCOD9238771
Probable space group: P 2/C
;
_chemical_formula_sum "Si O2"
_cell_formula_units_Z 14
_cell_length_a 8.210526
_cell_length_b 8.246900
_cell_length_c 9.693699
_cell_angle_alpha 90.000000
_cell_angle_beta 126.380511
_cell_angle_gamma 90.000000
_cell_volume 528.443661
_symmetry_space_group_name_H-M "P 2/C"
_symmetry_group_IT_number 13
_symmetry_cell_setting 'monoclinic'
loop_
_space_group_symop_operation_xyz
x,y,z
-x,y,1/2-z
-x,-y,-z
x,-y,1/2+z
loop_
_atom_site_type_symbol
_atom_site_label
_atom_site_fract_x
_atom_site_fract_y
_atom_site_fract_z
Si Si1 0.147740 0.482241 0.203830
Si Si2 0.500000 0.273736 0.250000
Si Si3 0.291202 0.821152 0.207950
Si Si4 0.782015 0.960561 0.072470
O O1 0.349964 0.380486 0.272403
O O2 0.211659 0.669175 0.253761
O O3 0.000000 0.421559 0.250000
O O4 0.000000 0.500000 0.000000
O O5 0.663151 0.170942 0.420772
O O6 0.500000 0.762176 0.250000
O O7 0.332616 0.965733 0.337332
O O8 0.181715 0.892635 0.017580
O O9 0.000000 0.925735 0.250000
#
# Coordination Sequence:
#
# PCOD9238771 Si02
#       4
#     4   2   4   4
#     4  12  29  51  82 120 163 219 271 333 410 484
#     4  12  28  54  86 120 170 208 276 342 404 490
#     4  12  26  50  78 117 164 210 271 337 405 482
#     4  12  28  51  81 121 160 215 272 334 414 482
#
# _framework density 26.492891
#
# number of rings (size 3 to 8) (size 9 to 14) (size 15 to 20)
#    0.000    0.000    2.857    6.000    4.000    3.429 
#    0.000    1.429    0.000    0.000    0.000    0.000 
#    0.000    0.000    0.000    0.000    0.000    0.000 
#
# Total GULP energy -78187.726634 kJ/mol
# GULP energy per Si atom -5584.837617 kJ/mol
# Density = 2.643259 g / cm^3
# Si number density = 26.492891 Si / 1000 Ang^3
#
#
#
# Elastic Constant Matrix: (Units=GPa)
#
#
# Indices 1 2 3 4 5 6 
#
# 1 126.0751 61.1391 30.7743 0.0000 -5.3076 0.0000
# 2 61.1391 111.5258 63.6156 0.0000 14.2432 0.0000
# 3 30.7743 63.6156 193.4143 0.0000 7.1286 0.0000
# 4 0.0000 0.0000 0.0000 98.6866 0.0000 133.3402
# 5 -5.3076 14.2432 7.1286 0.0000 60.6731 0.0000
# 6 0.0000 0.0000 0.0000 133.3402 0.0000 298.8531
#
#
#
# Elastic Compliance Matrix: (Units=1/GPa)
#
#
# Indices 1 2 3 4 5 6 
#
# 1 0.011171 -0.006618 0.000307 0.000000 0.002495 0.000000
# 2 -0.006618 0.015251 -0.003826 0.000000 -0.003710 0.000000
# 3 0.000307 -0.003826 0.006373 0.000000 0.000176 0.000000
# 4 0.000000 0.000000 0.000000 0.025514 0.000000 -0.011384
# 5 0.002495 -0.003710 0.000176 0.000000 0.017550 0.000000
# 6 0.000000 0.000000 0.000000 -0.011384 0.000000 0.008425
#
#
# Mechanical properties :
#
#
# Convention : Reuss Voigt Hill
#
# Bulk Modulus (GPa) = 79.86423 82.45260 81.15841
# Shear Modulus (GPa) = 45.98416 110.00830 77.99623
#
# Velocity S-wave (km/s) = 4.17071 6.45088 5.43179
# Velocity P-wave (km/s) = 7.30781 9.30995 8.36897
#
# Compressibility (1/GPa) = 0.01252125
#
# Stress axis : x y z
#
# Youngs Moduli (GPa) = 89.51650 65.56968 156.90202
#
# Poissons Ratio (x) = 0.43394 -0.04822
# Poissons Ratio (y) = 0.59242 0.60038
# Poissons Ratio (z) = -0.02751 0.25090
#
# Static dielectric constant tensor:
#      x y z
#    x -1.347480 0.000000 -0.795650 
#    y 0.000000 2.395400 0.000000 
#    z -0.795650 0.000000 1.906540 
# 
# From -- ./inp_files/10908.got.cif
#   From: 2010.05.17/outbox.cif.g08.bks.cpg/sg13_6_cif.got.tgz:10908.got - 2010.06.03 16:44:36.
