data_PCOD9238071
_publ_section_title
;
Structure prediction by ZEFSAII (Michael W. Deem and Ramdas Pophale) SiO2 
 PCOD9238071
Probable space group: P 2/C
;
_chemical_formula_sum "Si O2"
_cell_formula_units_Z 20
_cell_length_a 7.072787
_cell_length_b 11.752579
_cell_length_c 13.209267
_cell_angle_alpha 90.000000
_cell_angle_beta 135.747229
_cell_angle_gamma 90.000000
_cell_volume 766.212203
_symmetry_space_group_name_H-M "P 2/C"
_symmetry_group_IT_number 13
_symmetry_cell_setting 'monoclinic'
loop_
_space_group_symop_operation_xyz
x,y,z
-x,y,1/2-z
-x,-y,-z
x,-y,1/2+z
loop_
_atom_site_type_symbol
_atom_site_label
_atom_site_fract_x
_atom_site_fract_y
_atom_site_fract_z
Si Si1 0.290543 0.059582 0.551748
Si Si2 0.500000 0.851925 0.750000
Si Si3 0.502394 0.732843 0.479145
Si Si4 0.967512 0.776615 0.049220
Si Si5 0.000000 0.854025 0.750000
Si Si6 0.276671 0.431143 0.598201
O O1 0.492016 0.161492 0.597299
O O2 0.119495 0.105045 0.582122
O O3 0.089580 0.065946 0.377618
O O4 0.448693 0.944399 0.638515
O O5 0.239941 0.774362 0.626864
O O6 0.218961 0.742733 0.428056
O O7 0.598331 0.617684 0.459043
O O8 0.741523 0.768742 0.649293
O O9 0.195026 0.682845 0.126463
O O10 0.500000 0.494484 0.750000
O O11 0.000000 0.500000 0.500000
#
# Coordination Sequence:
#
# PCOD9238071 Si02
#       6
#     4   2   4   4   2   4
#     4   9  22  43  63 107 157 205 267 307 374 443
#     4  12  24  42  74 112 154 220 262 324 370 460
#     4   9  22  43  72 108 150 200 256 310 390 457
#     4  11  24  43  72 104 155 203 249 318 390 445
#     4   8  18  40  68 102 160 206 248 330 364 456
#     4  11  28  52  81 112 149 191 255 332 404 482
#
# _framework density 26.102432
#
# number of rings (size 3 to 8) (size 9 to 14) (size 15 to 20)
#    1.200    0.800    0.000    1.800    7.000    2.400 
#    0.000    2.000    0.000    0.000    0.000    0.000 
#    0.000    0.000    0.000    0.000    0.000    0.000 
#
# Total GULP energy -111460.301846 kJ/mol
# GULP energy per Si atom -5573.015092 kJ/mol
# Density = 2.604302 g / cm^3
# Si number density = 26.102432 Si / 1000 Ang^3
#
#
#
# Elastic Constant Matrix: (Units=GPa)
#
#
# Indices 1 2 3 4 5 6 
#
# 1 195.2688 36.4345 27.9710 0.0000 5.1336 0.0000
# 2 36.4345 76.2753 29.7202 0.0000 -5.1289 0.0000
# 3 27.9710 29.7202 166.8214 0.0000 -10.4851 0.0000
# 4 0.0000 0.0000 0.0000 31.3223 0.0000 19.8376
# 5 5.1336 -5.1289 -10.4851 0.0000 38.8953 0.0000
# 6 0.0000 0.0000 0.0000 19.8376 0.0000 32.3972
#
#
#
# Elastic Compliance Matrix: (Units=1/GPa)
#
#
# Indices 1 2 3 4 5 6 
#
# 1 0.005720 -0.002592 -0.000576 0.000000 -0.001252 0.000000
# 2 -0.002592 0.015318 -0.002183 0.000000 0.001774 0.000000
# 3 -0.000576 -0.002183 0.006578 0.000000 0.001561 0.000000
# 4 0.000000 0.000000 0.000000 0.052150 0.000000 -0.031933
# 5 -0.001252 0.001774 0.001561 0.000000 0.026530 0.000000
# 6 0.000000 0.000000 0.000000 -0.031933 0.000000 0.050420
#
#
# Mechanical properties :
#
#
# Convention : Reuss Voigt Hill
#
# Bulk Modulus (GPa) = 59.12088 69.62410 64.37249
# Shear Modulus (GPa) = 28.89209 43.47227 36.18218
#
# Velocity S-wave (km/s) = 3.33058 4.08542 3.72716
# Velocity P-wave (km/s) = 6.12283 6.99897 6.57551
#
# Compressibility (1/GPa) = 0.01691450
#
# Stress axis : x y z
#
# Youngs Moduli (GPa) = 174.81813 65.28079 152.02049
#
# Poissons Ratio (x) = 0.16922 0.08756
# Poissons Ratio (y) = 0.45315 0.33186
# Poissons Ratio (z) = 0.10070 0.14251
#
# Static dielectric constant tensor:
#      x y z
#    x 2.335480 0.000000 0.015030 
#    y 0.000000 2.020780 0.000000 
#    z 0.015030 0.000000 2.151640 
# 
# From -- ./inp_files/87467.got.cif
#   From: 2010.05.17/outbox.cif.g08.bks.cpg/sg13_44_cif.got.tgz:87467.got - 2010.06.03 16:44:36.
