data_PCOD9238398
_publ_section_title
;
Structure prediction by ZEFSAII (Michael W. Deem and Ramdas Pophale) SiO2 
 PCOD9238398
Probable space group: P 2/C
;
_chemical_formula_sum "Si O2"
_cell_formula_units_Z 26
_cell_length_a 12.650952
_cell_length_b 9.409944
_cell_length_c 18.254532
_cell_angle_alpha 90.000000
_cell_angle_beta 145.943366
_cell_angle_gamma 90.000000
_cell_volume 1216.965747
_symmetry_space_group_name_H-M "P 2/C"
_symmetry_group_IT_number 13
_symmetry_cell_setting 'monoclinic'
loop_
_space_group_symop_operation_xyz
x,y,z
-x,y,1/2-z
-x,-y,-z
x,-y,1/2+z
loop_
_atom_site_type_symbol
_atom_site_label
_atom_site_fract_x
_atom_site_fract_y
_atom_site_fract_z
Si Si1 0.293919 0.071157 0.112641
Si Si2 0.500000 0.517535 0.250000
Si Si3 0.552412 0.630780 0.627777
Si Si4 0.191854 0.564566 0.328981
Si Si5 0.935746 0.820259 0.345423
Si Si6 0.172721 0.870775 0.703966
Si Si7 0.805136 0.242066 0.938281
O O1 0.500000 0.123721 0.250000
O O2 0.186238 0.080747 0.127475
O O3 0.299048 0.904049 0.096827
O O4 0.161915 0.159830 0.983184
O O5 0.439142 0.423177 0.284033
O O6 0.327689 0.622256 0.128624
O O7 0.342757 0.608068 0.477268
O O8 0.692217 0.534316 0.659661
O O9 0.637529 0.788546 0.667525
O O10 0.124997 0.703025 0.246506
O O11 0.000000 0.496688 0.250000
O O12 0.855055 0.772896 0.379719
O O13 0.864586 0.977602 0.280438
O O14 0.994747 0.763411 0.596554
#
# Coordination Sequence:
#
# PCOD9238398 Si02
#       7
#     4   2   4   4   4   4   4
#     4   9  17  31  61  97 127 154 208 272 321 385
#     4  12  22  38  68  98 130 176 224 268 332 392
#     4  11  27  43  64  99 128 178 225 267 329 395
#     4  11  26  47  64  87 137 178 220 269 328 395
#     4   9  19  41  63  88 127 173 206 267 333 382
#     4   9  21  37  60  95 129 157 216 271 322 383
#     4   9  18  36  62  94 128 164 205 263 330 385
#
# _framework density 21.364612000000001
#
# number of rings (size 3 to 8) (size 9 to 14) (size 15 to 20)
#    0.000    2.154    2.308    1.846    5.385    2.462 
#    0.000    0.769    3.385    0.000    0.000    0.000 
#    0.000    0.000    0.000    0.000    0.000    0.000 
#
# Total GULP energy -145081.274594 kJ/mol
# GULP energy per Si atom -5580.049023 kJ/mol
# Density = 2.131599 g / cm^3
# Si number density = 21.364612 Si / 1000 Ang^3
#
#
#
# Elastic Constant Matrix: (Units=GPa)
#
#
# Indices 1 2 3 4 5 6 
#
# 1 64.1674 20.8031 17.2624 0.0000 10.8936 0.0000
# 2 20.8031 64.8794 25.6007 0.0000 -0.5677 0.0000
# 3 17.2624 25.6007 85.7732 0.0000 23.0588 0.0000
# 4 0.0000 0.0000 0.0000 12.6147 0.0000 -8.4023
# 5 10.8936 -0.5677 23.0588 0.0000 30.9534 0.0000
# 6 0.0000 0.0000 0.0000 -8.4023 0.0000 -16.0877
#
#
#
# Elastic Compliance Matrix: (Units=1/GPa)
#
#
# Indices 1 2 3 4 5 6 
#
# 1 0.018683 -0.005956 -0.000232 0.000000 -0.006512 0.000000
# 2 -0.005956 0.020082 -0.006824 0.000000 0.007548 0.000000
# 3 -0.000232 -0.006824 0.017198 0.000000 -0.012855 0.000000
# 4 0.000000 0.000000 0.000000 0.058813 0.000000 -0.030717
# 5 -0.006512 0.007548 -0.012855 0.000000 0.044313 0.000000
# 6 0.000000 0.000000 0.000000 -0.030717 0.000000 -0.046117
#
#
# Mechanical properties :
#
#
# Convention : Reuss Voigt Hill
#
# Bulk Modulus (GPa) = 33.40171 38.01693 35.70932
# Shear Modulus (GPa) = 33.56226 15.57301 24.56764
#
# Velocity S-wave (km/s) = 3.96779 2.70277 3.39473
# Velocity P-wave (km/s) = 6.05469 5.25100 5.66711
#
# Compressibility (1/GPa) = 0.02993859
#
# Stress axis : x y z
#
# Youngs Moduli (GPa) = 53.52443 49.79626 58.14589
#
# Poissons Ratio (x) = 0.29659 0.01348
# Poissons Ratio (y) = 0.31880 0.39681
# Poissons Ratio (z) = 0.01241 0.33983
#
# Static dielectric constant tensor:
#      x y z
#    x 1.826500 0.000000 0.042980 
#    y 0.000000 1.786520 0.000000 
#    z 0.042980 0.000000 1.780050 
# 
# From -- ./inp_files/49898.got.cif
#   From: 2010.05.17/outbox.cif.g08.bks.cpg/sg13_25_cif.got.tgz:49898.got - 2010.06.03 16:44:36.
