data_PCOD9238317
_publ_section_title
;
Structure prediction by ZEFSAII (Michael W. Deem and Ramdas Pophale) SiO2 
 PCOD9238317
Probable space group: P 2/C
;
_chemical_formula_sum "Si O2"
_cell_formula_units_Z 12
_cell_length_a 8.506243
_cell_length_b 7.134658
_cell_length_c 9.969452
_cell_angle_alpha 90.000000
_cell_angle_beta 127.803320
_cell_angle_gamma 90.000000
_cell_volume 478.051858
_symmetry_space_group_name_H-M "P 2/C"
_symmetry_group_IT_number 13
_symmetry_cell_setting 'monoclinic'
loop_
_space_group_symop_operation_xyz
x,y,z
-x,y,1/2-z
-x,-y,-z
x,-y,1/2+z
loop_
_atom_site_type_symbol
_atom_site_label
_atom_site_fract_x
_atom_site_fract_y
_atom_site_fract_z
Si Si1 0.376097 0.216580 0.990768
Si Si2 0.225857 0.931325 0.130352
Si Si3 0.221846 0.628524 0.914657
O O1 0.300485 0.104899 0.819603
O O2 0.249514 0.406571 0.939292
O O3 0.601833 0.290233 0.087072
O O4 0.334950 0.081069 0.092627
O O5 0.249928 0.730111 0.071123
O O6 0.000000 0.000000 0.000000
O O7 0.000000 0.674427 0.750000
#
# Coordination Sequence:
#
# PCOD9238317 Si02
#       3
#     4   4   4
#     4  11  27  48  75 110 148 193 246 305 368 436
#     4  12  25  47  76 109 148 193 245 303 368 438
#     4  11  25  47  74 108 148 193 244 302 369 438
#
# _framework density 25.101880000000001
#
# number of rings (size 3 to 8) (size 9 to 14) (size 15 to 20)
#    0.000    0.667    0.000    7.000    0.000   10.667 
#    0.000   10.000    0.000    0.000    0.000    0.000 
#    0.000    0.000    0.000    0.000    0.000    0.000 
#
# Total GULP energy -67353.742970 kJ/mol
# GULP energy per Si atom -5612.811914 kJ/mol
# Density = 2.504475 g / cm^3
# Si number density = 25.101880 Si / 1000 Ang^3
#
#
#
# Elastic Constant Matrix: (Units=GPa)
#
#
# Indices 1 2 3 4 5 6 
#
# 1 156.5910 48.5352 97.5561 0.0000 19.9908 0.0000
# 2 48.5352 199.5907 84.4904 0.0000 -24.3420 0.0000
# 3 97.5561 84.4904 191.3497 0.0000 -4.7719 0.0000
# 4 0.0000 0.0000 0.0000 4.8410 0.0000 11.4820
# 5 19.9908 -24.3420 -4.7719 0.0000 50.6853 0.0000
# 6 0.0000 0.0000 0.0000 11.4820 0.0000 41.7102
#
#
#
# Elastic Compliance Matrix: (Units=1/GPa)
#
#
# Indices 1 2 3 4 5 6 
#
# 1 0.010485 -0.001053 -0.005008 0.000000 -0.005113 0.000000
# 2 -0.001053 0.006663 -0.002320 0.000000 0.003397 0.000000
# 3 -0.005008 -0.002320 0.008846 0.000000 0.001694 0.000000
# 4 0.000000 0.000000 0.000000 0.595161 0.000000 -0.163836
# 5 -0.005113 0.003397 0.001694 0.000000 0.023537 0.000000
# 6 0.000000 0.000000 0.000000 -0.163836 0.000000 0.069076
#
#
# Mechanical properties :
#
#
# Convention : Reuss Voigt Hill
#
# Bulk Modulus (GPa) = 108.33232 112.07721 110.20477
# Shear Modulus (GPa) = 6.81562 40.57728 23.69645
#
# Velocity S-wave (km/s) = 1.64957 4.02494 3.07581
# Velocity P-wave (km/s) = 6.84681 8.14531 7.52412
#
# Compressibility (1/GPa) = 0.00923086
#
# Stress axis : x y z
#
# Youngs Moduli (GPa) = 95.37109 150.08514 113.04362
#
# Poissons Ratio (x) = 0.15808 0.56615
# Poissons Ratio (y) = 0.10045 0.26229
# Poissons Ratio (z) = 0.47764 0.34824
#
# Static dielectric constant tensor:
#      x y z
#    x 2.029760 0.000000 0.062420 
#    y 0.000000 1.949940 0.000000 
#    z 0.062420 0.000000 1.987320 
# 
# From -- ./inp_files/10902.got.cif
#   From: 2010.05.17/outbox.cif.g08.bks.cpg/sg13_6_cif.got.tgz:10902.got - 2010.06.03 16:44:36.
