data_PCOD9238366
_publ_section_title
;
Structure prediction by ZEFSAII (Michael W. Deem and Ramdas Pophale) SiO2 
 PCOD9238366
Probable space group: P 2/C
;
_chemical_formula_sum "Si O2"
_cell_formula_units_Z 12
_cell_length_a 8.449317
_cell_length_b 4.877984
_cell_length_c 12.632365
_cell_angle_alpha 90.000000
_cell_angle_beta 53.910342
_cell_angle_gamma 90.000000
_cell_volume 420.736043
_symmetry_space_group_name_H-M "P 2/C"
_symmetry_group_IT_number 13
_symmetry_cell_setting 'monoclinic'
loop_
_space_group_symop_operation_xyz
x,y,z
-x,y,1/2-z
-x,-y,-z
x,-y,1/2+z
loop_
_atom_site_type_symbol
_atom_site_label
_atom_site_fract_x
_atom_site_fract_y
_atom_site_fract_z
Si Si1 0.925755 0.346483 0.427376
Si Si2 0.358098 0.262274 0.584507
Si Si3 0.713797 0.992282 0.680803
O O1 0.833816 0.592398 0.394317
O O2 0.788454 0.111399 0.538378
O O3 0.000000 0.500000 0.500000
O O4 0.121458 0.178930 0.318610
O O5 0.500000 0.500000 0.500000
O O6 0.322822 0.236476 0.723086
O O7 0.500000 0.000000 0.500000
O O8 0.500000 0.853810 0.750000
#
# Coordination Sequence:
#
# PCOD9238366 Si02
#       3
#     4   4   4
#     4  11  27  50  84 128 173 238 300 367 459 535
#     4  12  28  54  86 127 175 233 298 370 456 537
#     4  11  25  52  88 127 181 233 301 376 451 540
#
# _framework density 28.521446000000001
#
# number of rings (size 3 to 8) (size 9 to 14) (size 15 to 20)
#    0.000    0.667    3.333    2.000    9.333    2.667 
#    0.000    0.000    0.000    0.000    0.000    0.000 
#    0.000    0.000    0.000    0.000    0.000    0.000 
#
# Total GULP energy -66902.501305 kJ/mol
# GULP energy per Si atom -5575.208442 kJ/mol
# Density = 2.845653 g / cm^3
# Si number density = 28.521446 Si / 1000 Ang^3
#
#
#
# Elastic Constant Matrix: (Units=GPa)
#
#
# Indices 1 2 3 4 5 6 
#
# 1 221.7606 58.6198 51.0724 0.0000 -21.1787 0.0000
# 2 58.6198 200.5817 55.1375 0.0000 -21.2178 0.0000
# 3 51.0724 55.1375 133.9843 0.0000 -26.7149 0.0000
# 4 0.0000 0.0000 0.0000 51.7897 0.0000 -16.8215
# 5 -21.1787 -21.2178 -26.7149 0.0000 49.9236 0.0000
# 6 0.0000 0.0000 0.0000 -16.8215 0.0000 69.7031
#
#
#
# Elastic Compliance Matrix: (Units=1/GPa)
#
#
# Indices 1 2 3 4 5 6 
#
# 1 0.005193 -0.001038 -0.001345 0.000000 0.001042 0.000000
# 2 -0.001038 0.005904 -0.001815 0.000000 0.001098 0.000000
# 3 -0.001345 -0.001815 0.009465 0.000000 0.003723 0.000000
# 4 0.000000 0.000000 0.000000 0.020951 0.000000 0.005056
# 5 0.001042 0.001098 0.003723 0.000000 0.022932 0.000000
# 6 0.000000 0.000000 0.000000 0.005056 0.000000 0.015567
#
#
# Mechanical properties :
#
#
# Convention : Reuss Voigt Hill
#
# Bulk Modulus (GPa) = 82.18745 98.44290 90.31518
# Shear Modulus (GPa) = 54.07605 60.38307 57.22956
#
# Velocity S-wave (km/s) = 4.35901 4.60620 4.48431
# Velocity P-wave (km/s) = 7.36296 7.92968 7.65157
#
# Compressibility (1/GPa) = 0.01216731
#
# Stress axis : x y z
#
# Youngs Moduli (GPa) = 192.57102 169.38099 105.64767
#
# Poissons Ratio (x) = 0.17578 0.14205
# Poissons Ratio (y) = 0.19984 0.19177
# Poissons Ratio (z) = 0.25892 0.30745
#
# Static dielectric constant tensor:
#      x y z
#    x 2.508210 0.000000 -0.418640 
#    y 0.000000 1.592540 0.000000 
#    z -0.418640 0.000000 2.422370 
# 
# From -- ./inp_files/44676.got.cif
#   From: 2010.05.17/outbox.cif.g08.bks.cpg/sg13_23_cif.got.tgz:44676.got - 2010.06.03 16:44:36.
