data_PCOD9238968
_publ_section_title
;
Structure prediction by ZEFSAII (Michael W. Deem and Ramdas Pophale) SiO2 
 PCOD9238968
Probable space group: P 2/C
;
_chemical_formula_sum "Si O2"
_cell_formula_units_Z 32
_cell_length_a 21.000000
_cell_length_b 15.000000
_cell_length_c 15.000000
_cell_angle_alpha 90.000000
_cell_angle_beta 160.000000
_cell_angle_gamma 90.000000
_cell_volume 1616.045177
_symmetry_space_group_name_H-M "P 2/C"
_symmetry_group_IT_number 13
_symmetry_cell_setting 'monoclinic'
loop_
_space_group_symop_operation_xyz
x,y,z
-x,y,1/2-z
-x,-y,-z
x,-y,1/2+z
loop_
_atom_site_type_symbol
_atom_site_label
_atom_site_fract_x
_atom_site_fract_y
_atom_site_fract_z
Si Si1 0.736828 0.343267 0.719530
Si Si2 0.531317 0.172291 0.395480
Si Si3 0.785104 0.973501 0.969424
Si Si4 0.420365 0.466168 0.545475
Si Si5 0.847600 0.691280 0.749582
Si Si6 0.798942 0.603395 0.492200
Si Si7 0.297594 0.883068 0.979127
Si Si8 0.800788 0.977490 0.284432
O O1 0.573586 0.272150 0.485106
O O2 0.682919 0.444740 0.623128
O O3 0.782006 0.334487 0.883934
O O4 0.938812 0.325657 0.940808
O O5 0.500000 0.178962 0.250000
O O6 0.365252 0.106496 0.213029
O O7 0.724884 0.119760 0.664251
O O8 0.771565 0.009809 0.850864
O O9 0.762644 0.054006 0.014811
O O10 0.000000 0.939811 0.250000
O O11 0.500000 0.480602 0.750000
O O12 0.292346 0.375416 0.379084
O O13 0.611069 0.453024 0.742084
O O14 0.807323 0.656684 0.595750
O O15 0.825597 0.798786 0.713118
O O16 0.000000 0.554989 0.750000
O O17 0.324633 0.952862 0.934348
O O18 0.500000 0.839103 0.250000
O O19 0.000000 0.000000 0.500000
#
# Coordination Sequence:
#
# PCOD9238968 Si02
#       8
#     4   4   4   4   4   4   4   4
#     4  11  23  38  65  90 127 172 210 258 323 392
#     4  12  24  44  58  92 130 172 217 260 318 396
#     4  12  25  41  65  90 128 175 220 278 330 384
#     4  10  20  41  63  93 126 167 206 263 323 382
#     4  10  23  39  64  95 127 159 214 270 324 382
#     4   9  20  38  60  93 126 157 210 267 313 368
#     4  12  23  41  64  94 128 169 218 278 330 383
#     4  12  23  42  64  91 126 169 215 267 334 385
#
# _framework density 19.801427
#
# number of rings (size 3 to 8) (size 9 to 14) (size 15 to 20)
#    0.000    1.000    3.750    3.375    1.750    1.500 
#    0.000    0.625    0.000    0.000    0.000    0.000 
#    0.000    0.000    0.000    0.000    0.000    0.000 
#
# Total GULP energy -178183.003503 kJ/mol
# GULP energy per Si atom -5568.218859 kJ/mol
# Density = 1.975636 g / cm^3
# Si number density = 19.801427 Si / 1000 Ang^3
#
#
#
# Elastic Constant Matrix: (Units=GPa)
#
#
# Indices 1 2 3 4 5 6 
#
# 1 74.1152 39.7600 43.4992 0.0000 -0.4379 0.0000
# 2 39.7600 97.6778 22.0626 0.0000 15.2065 0.0000
# 3 43.4992 22.0626 87.6110 0.0000 26.5864 0.0000
# 4 0.0000 0.0000 0.0000 28.9874 0.0000 -33.9710
# 5 -0.4379 15.2065 26.5864 0.0000 42.3207 0.0000
# 6 0.0000 0.0000 0.0000 -33.9710 0.0000 -68.1357
#
#
#
# Elastic Compliance Matrix: (Units=1/GPa)
#
#
# Indices 1 2 3 4 5 6 
#
# 1 0.028112 -0.010056 -0.015581 0.000000 0.013692 0.000000
# 2 -0.010056 0.014707 0.003613 0.000000 -0.007658 0.000000
# 3 -0.015581 0.003613 0.023084 0.000000 -0.015961 0.000000
# 4 0.000000 0.000000 0.000000 0.021775 0.000000 -0.010856
# 5 0.013692 -0.007658 -0.015961 0.000000 0.036549 0.000000
# 6 0.000000 0.000000 0.000000 -0.010856 0.000000 -0.009264
#
#
# Mechanical properties :
#
#
# Convention : Reuss Voigt Hill
#
# Bulk Modulus (GPa) = 45.75278 52.22753 48.99016
# Shear Modulus (GPa) = 30.06708 10.90661 20.48684
#
# Velocity S-wave (km/s) = 3.90093 2.34946 3.22003
# Velocity P-wave (km/s) = 6.59133 5.81316 6.21444
#
# Compressibility (1/GPa) = 0.02185660
#
# Stress axis : x y z
#
# Youngs Moduli (GPa) = 35.57167 67.99467 43.32097
#
# Poissons Ratio (x) = 0.68372 0.67496
# Poissons Ratio (y) = 0.35769 -0.15652
# Poissons Ratio (z) = 0.55423 -0.24566
#
# Static dielectric constant tensor:
#      x y z
#    x 1.751040 0.000000 0.013490 
#    y 0.000000 1.689220 0.000000 
#    z 0.013490 0.000000 1.875640 
# 
# From -- ./inp_files/57888.got.cif
#   From: 2010.05.17/outbox.ucp.g08.bks.cvg/sg13_29_cif.got.tgz:57888.got - 2010.06.11 12:23:55.
