data_PCOD9238488
_publ_section_title
;
Structure prediction by ZEFSAII (Michael W. Deem and Ramdas Pophale) SiO2 
 PCOD9238488
Probable space group: P 2/C
;
_chemical_formula_sum "Si O2"
_cell_formula_units_Z 24
_cell_length_a 22.454385
_cell_length_b 10.686246
_cell_length_c 21.912447
_cell_angle_alpha 90.000000
_cell_angle_beta 167.386890
_cell_angle_gamma 90.000000
_cell_volume 1148.162344
_symmetry_space_group_name_H-M "P 2/C"
_symmetry_group_IT_number 13
_symmetry_cell_setting 'monoclinic'
loop_
_space_group_symop_operation_xyz
x,y,z
-x,y,1/2-z
-x,-y,-z
x,-y,1/2+z
loop_
_atom_site_type_symbol
_atom_site_label
_atom_site_fract_x
_atom_site_fract_y
_atom_site_fract_z
Si Si1 0.378142 0.222085 0.517686
Si Si2 0.250001 0.999998 0.795807
Si Si3 0.121854 0.222078 0.761398
Si Si4 0.500000 0.067082 0.750000
Si Si5 0.094772 0.631588 0.916087
Si Si6 0.405227 0.631595 0.726541
Si Si7 0.000000 0.932927 0.250000
O O1 0.301017 0.123408 0.388404
O O2 0.327955 0.145561 0.529738
O O3 0.178612 0.341221 0.319197
O O4 0.686297 0.269198 0.837717
O O5 0.198985 0.123402 0.786373
O O6 0.000000 0.000000 0.500000
O O7 0.500000 0.000000 0.000000
O O8 0.172041 0.145553 0.873825
O O9 0.813705 0.269193 0.465126
O O10 0.321388 0.341212 0.961973
O O11 0.250001 0.000005 0.534777
O O12 0.000000 0.641742 0.750000
O O13 0.250004 0.499998 0.076471
O O14 0.500000 0.641747 0.750000
#
# Coordination Sequence:
#
# PCOD9238488 Si02
#       7
#     4   4   4   2   4   4   2
#     4  12  24  41  67  96 139 178 221 280 345 419
#     4  12  28  48  70  98 134 188 244 296 346 396
#     4  12  24  41  67  96 139 178 221 280 345 419
#     4  12  22  36  62 102 140 170 210 274 366 428
#     4  12  23  40  64 103 144 179 212 268 346 431
#     4  12  23  40  64 103 144 179 212 268 346 431
#     4  12  22  36  62 102 140 170 210 274 366 428
#
# _framework density 20.902968000000001
#
# number of rings (size 3 to 8) (size 9 to 14) (size 15 to 20)
#    0.000    0.000    5.000    7.000    2.333    0.000 
#    0.000    0.000    0.000   20.000    0.000    0.000 
#    0.000    0.000    0.000    0.000    0.000    0.000 
#
# Total GULP energy -133751.440369 kJ/mol
# GULP energy per Si atom -5572.976682 kJ/mol
# Density = 2.085539 g / cm^3
# Si number density = 20.902968 Si / 1000 Ang^3
#
#
#
# Elastic Constant Matrix: (Units=GPa)
#
#
# Indices 1 2 3 4 5 6 
#
# 1 115.0002 55.2845 40.4481 0.0000 -0.5922 0.0000
# 2 55.2845 109.6820 45.3902 0.0000 -1.3825 0.0000
# 3 40.4481 45.3902 150.5983 0.0000 5.5708 0.0000
# 4 0.0000 0.0000 0.0000 47.2670 0.0000 6.6017
# 5 -0.5922 -1.3825 5.5708 0.0000 36.0096 0.0000
# 6 0.0000 0.0000 0.0000 6.6017 0.0000 0.0521
#
#
#
# Elastic Compliance Matrix: (Units=1/GPa)
#
#
# Indices 1 2 3 4 5 6 
#
# 1 0.011795 -0.005287 -0.001583 0.000000 0.000236 0.000000
# 2 -0.005287 0.012815 -0.002471 0.000000 0.000787 0.000000
# 3 -0.001583 -0.002471 0.007860 0.000000 -0.001337 0.000000
# 4 0.000000 0.000000 0.000000 -0.001268 0.000000 0.160556
# 5 0.000236 0.000787 -0.001337 0.000000 0.028011 0.000000
# 6 0.000000 0.000000 0.000000 0.160556 0.000000 -1.149564
#
#
# Mechanical properties :
#
#
# Convention : Reuss Voigt Hill
#
# Bulk Modulus (GPa) = 72.53580 73.05845 72.79713
# Shear Modulus (GPa) = -4.68572 32.27625 13.79526
#
# Velocity S-wave (km/s) = -1.49884 3.93377 2.57177
# Velocity P-wave (km/s) = 5.63748 7.46055 6.61215
#
# Compressibility (1/GPa) = 0.01378630
#
# Stress axis : x y z
#
# Youngs Moduli (GPa) = 84.77827 78.03359 127.23028
#
# Poissons Ratio (x) = 0.41258 0.20143
# Poissons Ratio (y) = 0.44825 0.31445
# Poissons Ratio (z) = 0.13422 0.19286
#
# Static dielectric constant tensor:
#      x y z
#    x 1.722880 0.000000 0.047630 
#    y 0.000000 1.938280 0.000000 
#    z 0.047630 0.000000 2.063370 
# 
# From -- ./inp_files/89135.got.cif
#   From: 2010.05.17/outbox.cif.g08.bks.cpg/sg13_45_cif.got.tgz:89135.got - 2010.06.03 16:44:36.
