data_PCOD9238693
_publ_section_title
;
Structure prediction by ZEFSAII (Michael W. Deem and Ramdas Pophale) SiO2 
 PCOD9238693
Probable space group: P 2/C
;
_chemical_formula_sum "Si O2"
_cell_formula_units_Z 16
_cell_length_a 8.725395
_cell_length_b 16.215646
_cell_length_c 8.872646
_cell_angle_alpha 90.000000
_cell_angle_beta 148.739386
_cell_angle_gamma 90.000000
_cell_volume 651.452329
_symmetry_space_group_name_H-M "P 2/C"
_symmetry_group_IT_number 13
_symmetry_cell_setting 'monoclinic'
loop_
_space_group_symop_operation_xyz
x,y,z
-x,y,1/2-z
-x,-y,-z
x,-y,1/2+z
loop_
_atom_site_type_symbol
_atom_site_label
_atom_site_fract_x
_atom_site_fract_y
_atom_site_fract_z
Si Si1 0.086110 0.913352 0.998158
Si Si2 0.520051 0.844311 0.600682
Si Si3 0.101278 0.583735 0.665320
Si Si4 0.267462 0.663758 0.362071
O O1 0.866356 0.841276 0.866230
O O2 0.000000 0.921909 0.750000
O O3 0.385607 0.889629 0.339825
O O4 0.000000 0.000000 0.000000
O O5 0.500000 0.886932 0.750000
O O6 0.373524 0.755082 0.490306
O O7 0.000000 0.572784 0.750000
O O8 0.000000 0.500000 0.500000
O O9 0.894241 0.657396 0.432493
O O10 0.439470 0.606664 0.906319
O O11 0.000000 0.638494 0.250000
#
# Coordination Sequence:
#
# PCOD9238693 Si02
#       4
#     4   4   4   4
#     4  12  26  45  70 103 145 191 243 303 365 435
#     4  12  25  45  72 104 142 188 241 299 365 436
#     4  12  27  47  72 105 146 191 244 304 368 440
#     4  12  26  47  74 106 145 192 242 300 369 443
#
# _framework density 24.560509
#
# number of rings (size 3 to 8) (size 9 to 14) (size 15 to 20)
#    0.000    0.000    0.000   11.250    0.000    8.000 
#    0.000    0.000    0.000    0.000    0.000    0.000 
#    0.000    0.000    0.000    0.000    0.000    0.000 
#
# Total GULP energy -89333.218259 kJ/mol
# GULP energy per Si atom -5583.326141 kJ/mol
# Density = 2.450461 g / cm^3
# Si number density = 24.560509 Si / 1000 Ang^3
#
#
#
# Elastic Constant Matrix: (Units=GPa)
#
#
# Indices 1 2 3 4 5 6 
#
# 1 157.1475 43.2539 84.1358 0.0000 -18.6229 0.0000
# 2 43.2539 96.9571 50.6305 0.0000 6.2152 0.0000
# 3 84.1358 50.6305 172.0989 0.0000 8.4800 0.0000
# 4 0.0000 0.0000 0.0000 30.5841 0.0000 2.7154
# 5 -18.6229 6.2152 8.4800 0.0000 75.8942 0.0000
# 6 0.0000 0.0000 0.0000 2.7154 0.0000 24.8456
#
#
#
# Elastic Compliance Matrix: (Units=1/GPa)
#
#
# Indices 1 2 3 4 5 6 
#
# 1 0.009575 -0.002295 -0.004154 0.000000 0.003001 0.000000
# 2 -0.002295 0.012763 -0.002568 0.000000 -0.001321 0.000000
# 3 -0.004154 -0.002568 0.008684 0.000000 -0.001779 0.000000
# 4 0.000000 0.000000 0.000000 0.033017 0.000000 -0.003608
# 5 0.003001 -0.001321 -0.001779 0.000000 0.014220 0.000000
# 6 0.000000 0.000000 0.000000 -0.003608 0.000000 0.040643
#
#
# Mechanical properties :
#
#
# Convention : Reuss Voigt Hill
#
# Bulk Modulus (GPa) = 76.98450 86.91598 81.95024
# Shear Modulus (GPa) = 35.39466 42.81035 39.10251
#
# Velocity S-wave (km/s) = 3.80033 4.17952 3.99443
# Velocity P-wave (km/s) = 7.11825 7.66528 7.39683
#
# Compressibility (1/GPa) = 0.01298963
#
# Stress axis : x y z
#
# Youngs Moduli (GPa) = 104.44342 78.35022 115.14953
#
# Poissons Ratio (x) = 0.17979 0.47829
# Poissons Ratio (y) = 0.23967 0.29569
# Poissons Ratio (z) = 0.43382 0.20120
#
# Static dielectric constant tensor:
#      x y z
#    x 2.104110 0.000000 -0.082320 
#    y 0.000000 1.941710 0.000000 
#    z -0.082320 0.000000 2.034090 
# 
# From -- ./inp_files/13239.got.cif
#   From: 2010.05.17/outbox.cif.g08.bks.cpg/sg13_7_cif.got.tgz:13239.got - 2010.06.03 16:44:36.
