data_PCOD9238665
_publ_section_title
;
Structure prediction by ZEFSAII (Michael W. Deem and Ramdas Pophale) SiO2 
 PCOD9238665
Probable space group: P 2/C
;
_chemical_formula_sum "Si O2"
_cell_formula_units_Z 18
_cell_length_a 8.889029
_cell_length_b 5.009295
_cell_length_c 18.075173
_cell_angle_alpha 90.000000
_cell_angle_beta 58.628837
_cell_angle_gamma 90.000000
_cell_volume 687.188864
_symmetry_space_group_name_H-M "P 2/C"
_symmetry_group_IT_number 13
_symmetry_cell_setting 'monoclinic'
loop_
_space_group_symop_operation_xyz
x,y,z
-x,y,1/2-z
-x,-y,-z
x,-y,1/2+z
loop_
_atom_site_type_symbol
_atom_site_label
_atom_site_fract_x
_atom_site_fract_y
_atom_site_fract_z
Si Si1 0.000000 0.704471 0.250000
Si Si2 0.357986 0.609000 0.900423
Si Si3 0.062533 0.560004 0.858075
Si Si4 0.281226 0.154703 0.185712
Si Si5 0.735895 0.877292 0.983008
O O1 0.934205 0.652165 0.353837
O O2 0.172687 0.891320 0.231843
O O3 0.223469 0.517708 0.870853
O O4 0.537302 0.744856 0.825958
O O5 0.381378 0.343787 0.943376
O O6 0.277592 0.847079 0.970091
O O7 0.141201 0.630038 0.755104
O O8 0.937549 0.771662 0.929605
O O9 0.317377 0.141543 0.089286
#
# Coordination Sequence:
#
# PCOD9238665 Si02
#       5
#     2   4   4   4   4
#     4  12  24  48  86 104 160 204 278 302 398 460
#     4  12  30  46  77 117 156 194 262 330 388 450
#     4  12  26  49  77 111 152 210 261 317 386 475
#     4  12  26  49  77 111 152 210 261 317 386 475
#     4  12  25  50  75 114 154 204 250 322 399 464
#
# _framework density 26.193669
#
# number of rings (size 3 to 8) (size 9 to 14) (size 15 to 20)
#    0.000    0.000    4.444    4.667    6.222    0.000 
#    0.000    0.000    0.000    0.000    0.000    0.000 
#    0.000    0.000    0.000    0.000    0.000    0.000 
#
# Total GULP energy -100382.009115 kJ/mol
# GULP energy per Si atom -5576.778284 kJ/mol
# Density = 2.613405 g / cm^3
# Si number density = 26.193669 Si / 1000 Ang^3
#
#
#
# Elastic Constant Matrix: (Units=GPa)
#
#
# Indices 1 2 3 4 5 6 
#
# 1 102.0163 -20.3833 26.0862 0.0000 12.5989 0.0000
# 2 -20.3833 80.1068 6.7358 0.0000 19.4458 0.0000
# 3 26.0862 6.7358 102.5954 0.0000 4.0838 0.0000
# 4 0.0000 0.0000 0.0000 -43.9620 0.0000 -41.2088
# 5 12.5989 19.4458 4.0838 0.0000 41.8425 0.0000
# 6 0.0000 0.0000 0.0000 -41.2088 0.0000 25.8780
#
#
#
# Elastic Compliance Matrix: (Units=1/GPa)
#
#
# Indices 1 2 3 4 5 6 
#
# 1 0.012260 0.004745 -0.003206 0.000000 -0.005583 0.000000
# 2 0.004745 0.015952 -0.001909 0.000000 -0.008656 0.000000
# 3 -0.003206 -0.001909 0.010655 0.000000 0.000813 0.000000
# 4 0.000000 0.000000 0.000000 -0.009125 0.000000 -0.014532
# 5 -0.005583 -0.008656 0.000813 0.000000 0.029524 0.000000
# 6 0.000000 0.000000 0.000000 -0.014532 0.000000 0.015502
#
#
# Mechanical properties :
#
#
# Convention : Reuss Voigt Hill
#
# Bulk Modulus (GPa) = 26.22933 34.39955 30.31444
# Shear Modulus (GPa) = 56.67724 22.90367 39.79045
#
# Velocity S-wave (km/s) = 4.65669 2.96023 3.90177
# Velocity P-wave (km/s) = 6.24086 4.98450 5.64772
#
# Compressibility (1/GPa) = 0.03812526
#
# Stress axis : x y z
#
# Youngs Moduli (GPa) = 81.56741 62.68676 93.84997
#
# Poissons Ratio (x) = -0.29742 0.30093
# Poissons Ratio (y) = -0.38700 0.17917
# Poissons Ratio (z) = 0.26154 0.11968
#
# Static dielectric constant tensor:
#      x y z
#    x 1.653230 0.000000 -0.034290 
#    y 0.000000 2.349230 0.000000 
#    z -0.034290 0.000000 2.028990 
# 
# From -- ./inp_files/62037.got.cif
#   From: 2010.05.17/outbox.cif.g08.bks.cpg/sg13_32_cif.got.tgz:62037.got - 2010.06.03 16:44:36.
