data_PCOD9238372
_publ_section_title
;
Structure prediction by ZEFSAII (Michael W. Deem and Ramdas Pophale) SiO2 
 PCOD9238372
Probable space group: P 2/C
;
_chemical_formula_sum "Si O2"
_cell_formula_units_Z 18
_cell_length_a 8.444393
_cell_length_b 5.031332
_cell_length_c 22.111637
_cell_angle_alpha 90.000000
_cell_angle_beta 132.042283
_cell_angle_gamma 90.000000
_cell_volume 697.681125
_symmetry_space_group_name_H-M "P 2/C"
_symmetry_group_IT_number 13
_symmetry_cell_setting 'monoclinic'
loop_
_space_group_symop_operation_xyz
x,y,z
-x,y,1/2-z
-x,-y,-z
x,-y,1/2+z
loop_
_atom_site_type_symbol
_atom_site_label
_atom_site_fract_x
_atom_site_fract_y
_atom_site_fract_z
Si Si1 0.719607 0.250680 0.411666
Si Si2 0.920834 0.389929 0.636335
Si Si3 0.663103 0.355312 0.687030
Si Si4 0.134143 0.880965 0.959420
Si Si5 0.500000 0.974578 0.750000
O O1 0.546731 0.473508 0.381075
O O2 0.686316 0.020061 0.453038
O O3 0.668209 0.199416 0.328149
O O4 0.974546 0.251344 0.468084
O O5 0.769178 0.280837 0.650689
O O6 0.954106 0.140738 0.599538
O O7 0.137277 0.487783 0.725182
O O8 0.820799 0.640491 0.575012
O O9 0.595543 0.139933 0.719332
#
# Coordination Sequence:
#
# PCOD9238372 Si02
#       5
#     4   4   4   4   2
#     4  11  26  43  75 102 142 191 241 297 360 435
#     4  11  26  48  71 105 148 186 239 302 365 424
#     4  11  26  43  74 102 143 194 241 299 359 435
#     4  11  26  48  71 106 147 186 237 303 364 429
#     4  12  22  44  68 104 132 190 246 290 350 450
#
# _framework density 25.799752000000002
#
# number of rings (size 3 to 8) (size 9 to 14) (size 15 to 20)
#    0.000    0.889    2.222    3.333    6.222    5.333 
#    0.000    0.000    0.000    0.000    0.000    0.000 
#    0.000    0.000    0.000    0.000    0.000    0.000 
#
# Total GULP energy -100445.989665 kJ/mol
# GULP energy per Si atom -5580.332759 kJ/mol
# Density = 2.574103 g / cm^3
# Si number density = 25.799752 Si / 1000 Ang^3
#
#
#
# Elastic Constant Matrix: (Units=GPa)
#
#
# Indices 1 2 3 4 5 6 
#
# 1 84.5432 -11.4346 -11.8467 0.0000 -25.8248 0.0000
# 2 -11.4346 78.6601 12.1458 0.0000 -15.3144 0.0000
# 3 -11.8467 12.1458 86.9530 0.0000 -19.5901 0.0000
# 4 0.0000 0.0000 0.0000 118.1980 0.0000 -87.6105
# 5 -25.8248 -15.3144 -19.5901 0.0000 39.4618 0.0000
# 6 0.0000 0.0000 0.0000 -87.6105 0.0000 89.0370
#
#
#
# Elastic Compliance Matrix: (Units=1/GPa)
#
#
# Indices 1 2 3 4 5 6 
#
# 1 0.018437 0.005091 0.005589 0.000000 0.016816 0.000000
# 2 0.005091 0.015208 0.000731 0.000000 0.009597 0.000000
# 3 0.005589 0.000731 0.014691 0.000000 0.011235 0.000000
# 4 0.000000 0.000000 0.000000 0.031259 0.000000 0.030758
# 5 0.016816 0.009597 0.011235 0.000000 0.045647 0.000000
# 6 0.000000 0.000000 0.000000 0.030758 0.000000 0.041496
#
#
# Mechanical properties :
#
#
# Convention : Reuss Voigt Hill
#
# Bulk Modulus (GPa) = 14.05301 25.32059 19.68680
# Shear Modulus (GPa) = 29.82672 66.75881 48.29277
#
# Velocity S-wave (km/s) = 3.40381 5.09234 4.33116
# Velocity P-wave (km/s) = 4.57239 6.66419 5.71481
#
# Compressibility (1/GPa) = 0.07115915
#
# Stress axis : x y z
#
# Youngs Moduli (GPa) = 54.23984 65.75286 68.06925
#
# Poissons Ratio (x) = -0.33474 -0.38046
# Poissons Ratio (y) = -0.27613 -0.04978
# Poissons Ratio (z) = -0.30316 -0.04809
#
# Static dielectric constant tensor:
#      x y z
#    x 2.531260 0.000000 0.293160 
#    y 0.000000 2.118940 0.000000 
#    z 0.293160 0.000000 2.192010 
# 
# From -- ./inp_files/62067.got.cif
#   From: 2010.05.17/outbox.cif.g08.bks.cpg/sg13_32_cif.got.tgz:62067.got - 2010.06.03 16:44:36.
