data_PCOD9238455
_publ_section_title
;
Structure prediction by ZEFSAII (Michael W. Deem and Ramdas Pophale) SiO2 
 PCOD9238455
Probable space group: P 2/C
;
_chemical_formula_sum "Si O2"
_cell_formula_units_Z 14
_cell_length_a 8.422721
_cell_length_b 5.024107
_cell_length_c 16.693211
_cell_angle_alpha 90.000000
_cell_angle_beta 135.318042
_cell_angle_gamma 90.000000
_cell_volume 496.720441
_symmetry_space_group_name_H-M "P 2/C"
_symmetry_group_IT_number 13
_symmetry_cell_setting 'monoclinic'
loop_
_space_group_symop_operation_xyz
x,y,z
-x,y,1/2-z
-x,-y,-z
x,-y,1/2+z
loop_
_atom_site_type_symbol
_atom_site_label
_atom_site_fract_x
_atom_site_fract_y
_atom_site_fract_z
Si Si1 0.446598 0.774019 0.910840
Si Si2 0.175241 0.058943 0.678019
Si Si3 0.808277 0.336908 0.975707
Si Si4 0.000000 0.545939 0.250000
O O1 0.219263 0.618938 0.852206
O O2 0.357352 0.912014 0.798248
O O3 0.371145 0.453046 0.050815
O O4 0.500000 0.000000 0.000000
O O5 0.275292 0.171172 0.631669
O O6 0.076431 0.282473 0.701708
O O7 0.958154 0.874615 0.579606
O O8 0.000000 0.500000 0.000000
#
# Coordination Sequence:
#
# PCOD9238455 Si02
#       4
#     4   4   4   2
#     4  12  32  60  98 143 193 257 322 409 493 590
#     4  11  29  59  94 138 193 247 331 398 491 583
#     4  11  29  59  97 136 188 256 322 401 487 581
#     4  12  30  58  94 140 188 250 326 402 496 586
#
# _framework density 28.184868999999999
#
# number of rings (size 3 to 8) (size 9 to 14) (size 15 to 20)
#    0.000    0.571    0.000    2.571   12.000   13.714 
#   10.286    0.000    0.000    0.000    0.000    0.000 
#    0.000    0.000    0.000    0.000    0.000    0.000 
#
# Total GULP energy -78451.718333 kJ/mol
# GULP energy per Si atom -5603.694167 kJ/mol
# Density = 2.812072 g / cm^3
# Si number density = 28.184869 Si / 1000 Ang^3
#
#
#
# Elastic Constant Matrix: (Units=GPa)
#
#
# Indices 1 2 3 4 5 6 
#
# 1 203.4080 129.7650 117.9856 0.0000 25.0182 0.0000
# 2 129.7650 227.6844 156.4336 0.0000 5.6537 0.0000
# 3 117.9856 156.4336 316.1195 0.0000 -16.2249 0.0000
# 4 0.0000 0.0000 0.0000 121.1706 0.0000 57.4957
# 5 25.0182 5.6537 -16.2249 0.0000 48.4461 0.0000
# 6 0.0000 0.0000 0.0000 57.4957 0.0000 155.4911
#
#
#
# Elastic Compliance Matrix: (Units=1/GPa)
#
#
# Indices 1 2 3 4 5 6 
#
# 1 0.008893 -0.003795 -0.001683 0.000000 -0.004713 0.000000
# 2 -0.003795 0.008453 -0.002764 0.000000 0.000048 0.000000
# 3 -0.001683 -0.002764 0.005312 0.000000 0.002971 0.000000
# 4 0.000000 0.000000 0.000000 0.010009 0.000000 -0.003701
# 5 -0.004713 0.000048 0.002971 0.000000 0.024065 0.000000
# 6 0.000000 0.000000 0.000000 -0.003701 0.000000 0.007800
#
#
# Mechanical properties :
#
#
# Convention : Reuss Voigt Hill
#
# Bulk Modulus (GPa) = 161.98468 172.84226 167.41347
# Shear Modulus (GPa) = 60.18697 87.89007 74.03852
#
# Velocity S-wave (km/s) = 4.62609 5.59027 5.13088
# Velocity P-wave (km/s) = 9.28069 10.15509 9.72772
#
# Compressibility (1/GPa) = 0.00617342
#
# Stress axis : x y z
#
# Youngs Moduli (GPa) = 112.44269 118.30185 188.25824
#
# Poissons Ratio (x) = 0.44898 0.31687
# Poissons Ratio (y) = 0.42674 0.52036
# Poissons Ratio (z) = 0.18926 0.32699
#
# Static dielectric constant tensor:
#      x y z
#    x 2.199580 0.000000 0.037980 
#    y 0.000000 2.349490 0.000000 
#    z 0.037980 0.000000 2.124250 
# 
# From -- ./inp_files/48332.got.cif
#   From: 2010.05.17/outbox.cif.g08.bks.cpg/sg13_25_cif.got.tgz:48332.got - 2010.06.03 16:44:36.
