data_PCOD9238127
_publ_section_title
;
Structure prediction by ZEFSAII (Michael W. Deem and Ramdas Pophale) SiO2 
 PCOD9238127
Probable space group: P 2/C
;
_chemical_formula_sum "Si O2"
_cell_formula_units_Z 16
_cell_length_a 4.794002
_cell_length_b 8.430787
_cell_length_c 17.221097
_cell_angle_alpha 90.000000
_cell_angle_beta 103.398537
_cell_angle_gamma 90.000000
_cell_volume 677.084038
_symmetry_space_group_name_H-M "P 2/C"
_symmetry_group_IT_number 13
_symmetry_cell_setting 'monoclinic'
loop_
_space_group_symop_operation_xyz
x,y,z
-x,y,1/2-z
-x,-y,-z
x,-y,1/2+z
loop_
_atom_site_type_symbol
_atom_site_label
_atom_site_fract_x
_atom_site_fract_y
_atom_site_fract_z
Si Si1 0.203959 0.432061 0.948087
Si Si2 0.590806 0.075128 0.344844
Si Si3 0.877875 0.067618 0.573494
Si Si4 0.808334 0.613306 0.806550
O O1 0.233899 0.243831 0.943264
O O2 0.034537 0.491624 0.859544
O O3 0.500000 0.500000 0.000000
O O4 0.000000 0.500000 0.000000
O O5 0.500000 0.084065 0.250000
O O6 0.355796 0.036774 0.395164
O O7 0.729551 0.249978 0.363817
O O8 0.829711 0.938936 0.359590
O O9 0.000000 0.000000 0.500000
O O10 0.500000 0.556988 0.750000
O O11 0.000000 0.688634 0.750000
#
# Coordination Sequence:
#
# PCOD9238127 Si02
#       4
#     4   4   4   4
#     4  12  27  47  70 103 146 190 237 293 355 426
#     4  11  24  45  71 105 140 183 235 295 356 423
#     4  12  26  45  72 104 142 186 237 295 354 420
#     4  11  24  45  73 104 141 189 238 293 358 429
#
# _framework density 23.630742999999999
#
# number of rings (size 3 to 8) (size 9 to 14) (size 15 to 20)
#    0.000    0.500    0.000    9.000    0.000    9.000 
#    0.000    0.000    0.000    0.000    0.000    0.000 
#    0.000    0.000    0.000    0.000    0.000    0.000 
#
# Total GULP energy -89324.356481 kJ/mol
# GULP energy per Si atom -5582.772280 kJ/mol
# Density = 2.357696 g / cm^3
# Si number density = 23.630743 Si / 1000 Ang^3
#
#
#
# Elastic Constant Matrix: (Units=GPa)
#
#
# Indices 1 2 3 4 5 6 
#
# 1 217.3139 62.1646 55.5299 0.0000 1.1506 0.0000
# 2 62.1646 139.1676 68.3390 0.0000 -4.5483 0.0000
# 3 55.5299 68.3390 107.2307 0.0000 22.6404 0.0000
# 4 0.0000 0.0000 0.0000 42.3822 0.0000 9.2912
# 5 1.1506 -4.5483 22.6404 0.0000 56.9004 0.0000
# 6 0.0000 0.0000 0.0000 9.2912 0.0000 30.9286
#
#
#
# Elastic Compliance Matrix: (Units=1/GPa)
#
#
# Indices 1 2 3 4 5 6 
#
# 1 0.005541 -0.001432 -0.002084 0.000000 0.000603 0.000000
# 2 -0.001432 0.011643 -0.007513 0.000000 0.003949 0.000000
# 3 -0.002084 -0.007513 0.016715 0.000000 -0.007209 0.000000
# 4 0.000000 0.000000 0.000000 0.025258 0.000000 -0.007588
# 5 0.000603 0.003949 -0.007209 0.000000 0.020747 0.000000
# 6 0.000000 0.000000 0.000000 -0.007588 0.000000 0.034612
#
#
# Mechanical properties :
#
#
# Convention : Reuss Voigt Hill
#
# Bulk Modulus (GPa) = 84.44614 92.86435 88.65524
# Shear Modulus (GPa) = 35.58220 44.55416 40.06818
#
# Velocity S-wave (km/s) = 3.88462 4.34687 4.12223
# Velocity P-wave (km/s) = 7.47888 8.03599 7.76243
#
# Compressibility (1/GPa) = 0.01184187
#
# Stress axis : x y z
#
# Youngs Moduli (GPa) = 180.48764 85.88554 59.82705
#
# Poissons Ratio (x) = 0.12298 0.12467
# Poissons Ratio (y) = 0.25844 0.44946
# Poissons Ratio (z) = 0.37611 0.64523
#
# Static dielectric constant tensor:
#      x y z
#    x 1.887990 0.000000 0.084120 
#    y 0.000000 1.968850 0.000000 
#    z 0.084120 0.000000 2.284790 
# 
# From -- ./inp_files/60791.got.cif
#   From: 2010.05.17/outbox.cif.g08.bks.cpg/sg13_31_cif.got.tgz:60791.got - 2010.06.03 16:44:36.
