data_PCOD9238229
_publ_section_title
;
Structure prediction by ZEFSAII (Michael W. Deem and Ramdas Pophale) SiO2 
 PCOD9238229
Probable space group: P 2/C
;
_chemical_formula_sum "Si O2"
_cell_formula_units_Z 20
_cell_length_a 7.665927
_cell_length_b 6.594797
_cell_length_c 16.296033
_cell_angle_alpha 90.000000
_cell_angle_beta 88.498669
_cell_angle_gamma 90.000000
_cell_volume 823.566921
_symmetry_space_group_name_H-M "P 2/C"
_symmetry_group_IT_number 13
_symmetry_cell_setting 'monoclinic'
loop_
_space_group_symop_operation_xyz
x,y,z
-x,y,1/2-z
-x,-y,-z
x,-y,1/2+z
loop_
_atom_site_type_symbol
_atom_site_label
_atom_site_fract_x
_atom_site_fract_y
_atom_site_fract_z
Si Si1 0.715817 0.824021 0.988770
Si Si2 0.658980 0.719057 0.474967
Si Si3 0.000000 0.190029 0.250000
Si Si4 0.191672 0.564034 0.177805
Si Si5 0.000000 0.500000 0.500000
Si Si6 0.137373 0.812986 0.340980
O O1 0.524819 0.732362 0.977638
O O2 0.730913 0.837511 0.087468
O O3 0.882678 0.693062 0.963499
O O4 0.717117 0.050464 0.955030
O O5 0.655462 0.606944 0.386717
O O6 0.810079 0.612100 0.524568
O O7 0.852873 0.344037 0.286177
O O8 0.934212 0.032320 0.182426
O O9 0.203081 0.709173 0.256757
O O10 0.018562 0.653223 0.128733
#
# Coordination Sequence:
#
# PCOD9238229 Si02
#       6
#     4   4   2   4   2   4
#     4  11  25  43  64 100 135 176 222 272 333 396
#     4  11  25  41  66  99 136 171 226 273 329 395
#     4   8  18  34  64  96 122 162 228 264 334 390
#     4   9  19  37  61  98 123 170 218 275 323 393
#     4  12  24  42  66  88 132 178 212 268 324 396
#     4   9  19  37  63  92 127 169 215 271 329 390
#
# _framework density 24.284604999999999
#
# number of rings (size 3 to 8) (size 9 to 14) (size 15 to 20)
#    0.000    2.400    2.000    1.200    2.800    2.400 
#    0.000    0.000    0.000    9.600    0.000    0.000 
#    0.000    0.000    0.000    0.000    0.000    0.000 
#
# Total GULP energy -111419.237552 kJ/mol
# GULP energy per Si atom -5570.961878 kJ/mol
# Density = 2.422933 g / cm^3
# Si number density = 24.284605 Si / 1000 Ang^3
#
#
#
# Elastic Constant Matrix: (Units=GPa)
#
#
# Indices 1 2 3 4 5 6 
#
# 1 112.6512 50.3330 32.9265 0.0000 1.9168 0.0000
# 2 50.3330 203.6635 59.8834 0.0000 -18.2606 0.0000
# 3 32.9265 59.8834 43.4283 0.0000 -8.4100 0.0000
# 4 0.0000 0.0000 0.0000 31.2830 0.0000 -6.9166
# 5 1.9168 -18.2606 -8.4100 0.0000 21.4198 0.0000
# 6 0.0000 0.0000 0.0000 -6.9166 0.0000 42.7914
#
#
#
# Elastic Compliance Matrix: (Units=1/GPa)
#
#
# Indices 1 2 3 4 5 6 
#
# 1 0.011946 -0.000776 -0.009007 0.000000 -0.005267 0.000000
# 2 -0.000776 0.008465 -0.010468 0.000000 0.003175 0.000000
# 3 -0.009007 -0.010468 0.046233 0.000000 0.010034 0.000000
# 4 0.000000 0.000000 0.000000 0.033151 0.000000 0.005358
# 5 -0.005267 0.003175 0.010034 0.000000 0.053804 0.000000
# 6 0.000000 0.000000 0.000000 0.005358 0.000000 0.024235
#
#
# Mechanical properties :
#
#
# Convention : Reuss Voigt Hill
#
# Bulk Modulus (GPa) = 38.25422 71.78100 55.01761
# Shear Modulus (GPa) = 22.02152 33.53886 27.78019
#
# Velocity S-wave (km/s) = 3.01460 3.72031 3.38589
# Velocity P-wave (km/s) = 5.28240 6.93374 6.16362
#
# Compressibility (1/GPa) = 0.02614091
#
# Stress axis : x y z
#
# Youngs Moduli (GPa) = 83.71002 118.13808 21.62944
#
# Poissons Ratio (x) = 0.09171 0.19481
# Poissons Ratio (y) = 0.06498 0.22643
# Poissons Ratio (z) = 0.75396 1.23672
#
# Static dielectric constant tensor:
#      x y z
#    x 1.893400 0.000000 -0.054270 
#    y 0.000000 1.980160 0.000000 
#    z -0.054270 0.000000 1.789710 
# 
# From -- ./inp_files/74211.got.cif
#   From: 2010.05.17/outbox.cif.g08.bks.cpg/sg13_38_cif.got.tgz:74211.got - 2010.06.03 16:44:36.
