data_PCOD9238139
_publ_section_title
;
Structure prediction by ZEFSAII (Michael W. Deem and Ramdas Pophale) SiO2 
 PCOD9238139
Probable space group: P 2/C
;
_chemical_formula_sum "Si O2"
_cell_formula_units_Z 20
_cell_length_a 5.030929
_cell_length_b 11.127108
_cell_length_c 17.668400
_cell_angle_alpha 90.000000
_cell_angle_beta 50.428249
_cell_angle_gamma 90.000000
_cell_volume 762.403483
_symmetry_space_group_name_H-M "P 2/C"
_symmetry_group_IT_number 13
_symmetry_cell_setting 'monoclinic'
loop_
_space_group_symop_operation_xyz
x,y,z
-x,y,1/2-z
-x,-y,-z
x,-y,1/2+z
loop_
_atom_site_type_symbol
_atom_site_label
_atom_site_fract_x
_atom_site_fract_y
_atom_site_fract_z
Si Si1 0.370635 0.687216 0.651691
Si Si2 0.603379 0.670941 0.443059
Si Si3 0.526460 0.049153 0.372957
Si Si4 0.012057 0.087976 0.608886
Si Si5 0.264795 0.451555 0.864535
O O1 0.386417 0.698316 0.557793
O O2 0.452456 0.819999 0.667461
O O3 0.639656 0.586018 0.627773
O O4 0.000000 0.648878 0.750000
O O5 0.865828 0.782823 0.383379
O O6 0.373826 0.637190 0.412982
O O7 0.867889 0.563471 0.414362
O O8 0.256924 0.066380 0.491445
O O9 0.877969 0.009537 0.349089
O O10 0.367125 0.942153 0.351957
O O11 0.500000 0.422461 0.750000
#
# Coordination Sequence:
#
# PCOD9238139 Si02
#       5
#     4   4   4   4   4
#     4  11  25  44  70 105 144 183 230 286 350 423
#     4  11  24  45  74 102 138 184 232 288 352 413
#     4   9  19  36  62  95 134 172 212 267 336 401
#     4   9  18  37  64  95 129 172 218 268 329 404
#     4  12  26  46  69  99 137 183 239 295 349 410
#
# _framework density 26.232828999999999
#
# number of rings (size 3 to 8) (size 9 to 14) (size 15 to 20)
#    0.000    1.600    0.000    4.200    0.000    9.600 
#    0.000    4.000    0.000    1.200    0.000    0.000 
#    0.000    0.000    0.000    0.000    0.000    0.000 
#
# Total GULP energy -112195.927757 kJ/mol
# GULP energy per Si atom -5609.796388 kJ/mol
# Density = 2.617312 g / cm^3
# Si number density = 26.232829 Si / 1000 Ang^3
#
#
#
# Elastic Constant Matrix: (Units=GPa)
#
#
# Indices 1 2 3 4 5 6 
#
# 1 112.9975 14.1519 14.1490 0.0000 1.3835 0.0000
# 2 14.1519 133.1971 -2.7992 0.0000 7.4537 0.0000
# 3 14.1490 -2.7992 130.5017 0.0000 17.4527 0.0000
# 4 0.0000 0.0000 0.0000 29.4038 0.0000 -5.8976
# 5 1.3835 7.4537 17.4527 0.0000 34.7418 0.0000
# 6 0.0000 0.0000 0.0000 -5.8976 0.0000 26.6132
#
#
#
# Elastic Compliance Matrix: (Units=1/GPa)
#
#
# Indices 1 2 3 4 5 6 
#
# 1 0.009104 -0.001011 -0.001061 0.000000 0.000387 0.000000
# 2 -0.001011 0.007732 0.000527 0.000000 -0.001883 0.000000
# 3 -0.001061 0.000527 0.008360 0.000000 -0.004271 0.000000
# 4 0.000000 0.000000 0.000000 0.035591 0.000000 0.007887
# 5 0.000387 -0.001883 -0.004271 0.000000 0.031318 0.000000
# 6 0.000000 0.000000 0.000000 0.007887 0.000000 0.039323
#
#
# Mechanical properties :
#
#
# Convention : Reuss Voigt Hill
#
# Bulk Modulus (GPa) = 45.23404 47.52218 46.37811
# Shear Modulus (GPa) = 35.23945 41.56474 38.40209
#
# Velocity S-wave (km/s) = 3.66913 3.98484 3.83024
# Velocity P-wave (km/s) = 5.93555 6.27111 6.10563
#
# Compressibility (1/GPa) = 0.02210725
#
# Stress axis : x y z
#
# Youngs Moduli (GPa) = 109.83613 129.33934 119.61462
#
# Poissons Ratio (x) = 0.13080 0.12686
# Poissons Ratio (y) = 0.11108 -0.06308
# Poissons Ratio (z) = 0.11649 -0.06821
#
# Static dielectric constant tensor:
#      x y z
#    x 1.972590 0.000000 0.011650 
#    y 0.000000 2.072750 0.000000 
#    z 0.011650 0.000000 2.098780 
# 
# From -- ./inp_files/61003.got.cif
#   From: 2010.05.17/outbox.cif.g08.bks.cpg/sg13_31_cif.got.tgz:61003.got - 2010.06.03 16:44:36.
