data_PCOD9238072
_publ_section_title
;
Structure prediction by ZEFSAII (Michael W. Deem and Ramdas Pophale) SiO2 
 PCOD9238072
Probable space group: P 2/C
;
_chemical_formula_sum "Si O2"
_cell_formula_units_Z 32
_cell_length_a 9.374719
_cell_length_b 5.163185
_cell_length_c 28.834396
_cell_angle_alpha 90.000000
_cell_angle_beta 86.251313
_cell_angle_gamma 90.000000
_cell_volume 1392.696876
_symmetry_space_group_name_H-M "P 2/C"
_symmetry_group_IT_number 13
_symmetry_cell_setting 'monoclinic'
loop_
_space_group_symop_operation_xyz
x,y,z
-x,y,1/2-z
-x,-y,-z
x,-y,1/2+z
loop_
_atom_site_type_symbol
_atom_site_label
_atom_site_fract_x
_atom_site_fract_y
_atom_site_fract_z
Si Si1 0.034987 0.417241 0.198482
Si Si2 0.432234 0.249006 0.976127
Si Si3 0.340209 0.888474 0.762549
Si Si4 0.213444 0.189573 0.110320
Si Si5 0.900921 0.249550 0.490848
Si Si6 0.273513 0.395116 0.817059
Si Si7 0.739117 0.824712 0.319983
Si Si8 0.484113 0.446611 0.622695
O O1 0.106480 0.282051 0.152809
O O2 0.143127 0.650270 0.206027
O O3 0.000000 0.293509 0.250000
O O4 0.891330 0.533649 0.180315
O O5 0.489904 0.269335 0.922556
O O6 0.500000 0.500000 0.000000
O O7 0.257836 0.249511 0.981514
O O8 0.500000 0.000000 0.000000
O O9 0.500000 0.967995 0.750000
O O10 0.334689 0.593224 0.777495
O O11 0.284501 0.093876 0.801910
O O12 0.272386 0.932890 0.713668
O O13 0.146340 0.236870 0.062085
O O14 0.370336 0.326025 0.112213
O O15 0.227429 0.892969 0.127030
O O16 0.000000 0.500000 0.500000
O O17 0.000000 0.000000 0.500000
O O18 0.356312 0.490377 0.861352
O O19 0.589093 0.684855 0.330843
#
# Coordination Sequence:
#
# PCOD9238072 Si02
#       8
#     4   4   4   4   4   4   4   4
#     4  11  25  44  69 107 152 197 247 300 376 445
#     4  12  26  50  83 111 153 198 261 320 391 471
#     4  12  24  44  69  99 144 190 246 301 360 427
#     4  11  26  47  77 103 153 198 255 307 386 459
#     4  12  29  52  80 117 158 200 254 327 405 466
#     4  12  27  43  69 105 143 189 248 303 362 441
#     4  11  24  43  73 101 147 201 245 304 373 449
#     4  11  26  46  74 109 142 196 254 313 376 447
#
# _framework density 22.977001999999999
#
# number of rings (size 3 to 8) (size 9 to 14) (size 15 to 20)
#    0.000    0.500    3.750    3.375    8.750    0.500 
#    0.000    0.000    0.000    0.000    0.000    0.000 
#    0.000    0.000    0.000    0.000    0.000    0.000 
#
# Total GULP energy -178604.048851 kJ/mol
# GULP energy per Si atom -5581.376527 kJ/mol
# Density = 2.292471 g / cm^3
# Si number density = 22.977002 Si / 1000 Ang^3
#
#
#
# Elastic Constant Matrix: (Units=GPa)
#
#
# Indices 1 2 3 4 5 6 
#
# 1 145.7086 33.8230 53.1076 0.0000 -13.2820 0.0000
# 2 33.8230 97.2842 27.2906 0.0000 4.3562 0.0000
# 3 53.1076 27.2906 125.8215 0.0000 10.0059 0.0000
# 4 0.0000 0.0000 0.0000 32.9302 0.0000 13.3212
# 5 -13.2820 4.3562 10.0059 0.0000 43.8468 0.0000
# 6 0.0000 0.0000 0.0000 13.3212 0.0000 21.5693
#
#
#
# Elastic Compliance Matrix: (Units=1/GPa)
#
#
# Indices 1 2 3 4 5 6 
#
# 1 0.009068 -0.002305 -0.003630 0.000000 0.003804 0.000000
# 2 -0.002305 0.011544 -0.001410 0.000000 -0.001523 0.000000
# 3 -0.003630 -0.001410 0.010044 0.000000 -0.003252 0.000000
# 4 0.000000 0.000000 0.000000 0.040481 0.000000 -0.025001
# 5 0.003804 -0.001523 -0.003252 0.000000 0.024852 0.000000
# 6 0.000000 0.000000 0.000000 -0.025001 0.000000 0.061803
#
#
# Mechanical properties :
#
#
# Convention : Reuss Voigt Hill
#
# Bulk Modulus (GPa) = 62.62949 66.36188 64.49568
# Shear Modulus (GPa) = 28.12078 36.64212 32.38145
#
# Velocity S-wave (km/s) = 3.50218 3.99774 3.75813
# Velocity P-wave (km/s) = 6.60835 7.08899 6.85289
#
# Compressibility (1/GPa) = 0.01596692
#
# Stress axis : x y z
#
# Youngs Moduli (GPa) = 110.27991 86.62372 99.55805
#
# Poissons Ratio (x) = 0.19964 0.36140
# Poissons Ratio (y) = 0.25416 0.14038
# Poissons Ratio (z) = 0.40032 0.12214
#
# Static dielectric constant tensor:
#      x y z
#    x 1.956160 0.000000 0.025540 
#    y 0.000000 1.969130 0.000000 
#    z 0.025540 0.000000 1.866820 
# 
# From -- ./inp_files/95670.got.cif
#   From: 2010.05.17/outbox.cif.g08.bks.cpg/sg13_48_cif.got.tgz:95670.got - 2010.06.03 16:44:36.
