data_PCOD9238106
_publ_section_title
;
Structure prediction by ZEFSAII (Michael W. Deem and Ramdas Pophale) SiO2 
 PCOD9238106
Probable space group: P 2/C
;
_chemical_formula_sum "Si O2"
_cell_formula_units_Z 30
_cell_length_a 16.208217
_cell_length_b 6.386715
_cell_length_c 14.308017
_cell_angle_alpha 90.000000
_cell_angle_beta 64.374465
_cell_angle_gamma 90.000000
_cell_volume 1335.442932
_symmetry_space_group_name_H-M "P 2/C"
_symmetry_group_IT_number 13
_symmetry_cell_setting 'monoclinic'
loop_
_space_group_symop_operation_xyz
x,y,z
-x,y,1/2-z
-x,-y,-z
x,-y,1/2+z
loop_
_atom_site_type_symbol
_atom_site_label
_atom_site_fract_x
_atom_site_fract_y
_atom_site_fract_z
Si Si1 0.264085 0.203763 0.376739
Si Si2 0.325815 0.102678 0.685264
Si Si3 0.000000 0.034307 0.750000
Si Si4 0.667769 0.890771 0.998642
Si Si5 0.104946 0.517704 0.976516
Si Si6 0.139407 0.685672 0.284684
Si Si7 0.854564 0.316933 0.351840
Si Si8 0.601419 0.403410 0.690609
O O1 0.157997 0.268664 0.428633
O O2 0.323368 0.415650 0.354116
O O3 0.293331 0.084066 0.269003
O O4 0.288493 0.059611 0.452410
O O5 0.231860 0.215562 0.698697
O O6 0.378472 0.262750 0.727263
O O7 0.374721 0.010776 0.569624
O O8 0.948380 0.179764 0.700576
O O9 0.921082 0.881333 0.825996
O O10 0.607993 0.743412 0.095354
O O11 0.750552 0.753995 0.915293
O O12 0.151171 0.336623 0.889926
O O13 0.119999 0.470548 0.076594
O O14 0.000000 0.500000 0.000000
O O15 0.129388 0.451720 0.249069
O O16 0.500000 0.494745 0.750000
#
# Coordination Sequence:
#
# PCOD9238106 Si02
#       8
#     4   4   2   4   4   4   4   4
#     4  11  24  45  65 103 140 176 227 294 346 407
#     4  11  24  44  74 100 134 182 231 284 349 414
#     4  12  26  38  64  98 142 190 226 282 336 390
#     4  11  24  44  74 100 134 182 231 284 349 414
#     4  12  24  38  65  93 137 185 229 275 337 405
#     4  12  25  44  64 100 139 180 233 285 334 402
#     4  12  25  44  64 100 139 180 233 285 334 402
#     4  11  26  48  72 102 139 176 224 293 359 417
#
# _framework density 22.464455999999998
#
# number of rings (size 3 to 8) (size 9 to 14) (size 15 to 20)
#    0.000    0.533    4.000    4.400    3.733    3.200 
#    0.000    1.333    0.000    0.000    0.000    0.000 
#    0.000    0.000    0.000    0.000    0.000    0.000 
#
# Total GULP energy -167909.321946 kJ/mol
# GULP energy per Si atom -5596.977398 kJ/mol
# Density = 2.241333 g / cm^3
# Si number density = 22.464456 Si / 1000 Ang^3
#
#
#
# Elastic Constant Matrix: (Units=GPa)
#
#
# Indices 1 2 3 4 5 6 
#
# 1 48.9150 12.6870 18.8572 0.0000 -13.5356 0.0000
# 2 12.6870 78.7557 18.2519 0.0000 1.5128 0.0000
# 3 18.8572 18.2519 73.1521 0.0000 16.9628 0.0000
# 4 0.0000 0.0000 0.0000 20.1443 0.0000 -1.2542
# 5 -13.5356 1.5128 16.9628 0.0000 36.4231 0.0000
# 6 0.0000 0.0000 0.0000 -1.2542 0.0000 16.6783
#
#
#
# Elastic Compliance Matrix: (Units=1/GPa)
#
#
# Indices 1 2 3 4 5 6 
#
# 1 0.029749 -0.002607 -0.010770 0.000000 0.016179 0.000000
# 2 -0.002607 0.013747 -0.002691 0.000000 -0.000286 0.000000
# 3 -0.010770 -0.002691 0.020202 0.000000 -0.013299 0.000000
# 4 0.000000 0.000000 0.000000 0.049875 0.000000 0.003751
# 5 0.016179 -0.000286 -0.013299 0.000000 0.039673 0.000000
# 6 0.000000 0.000000 0.000000 0.003751 0.000000 0.060240
#
#
# Mechanical properties :
#
#
# Convention : Reuss Voigt Hill
#
# Bulk Modulus (GPa) = 31.68529 33.37943 32.53236
# Shear Modulus (GPa) = 19.52037 24.71760 22.11898
#
# Velocity S-wave (km/s) = 2.95098 3.32067 3.14127
# Velocity P-wave (km/s) = 5.07408 5.43999 5.26022
#
# Compressibility (1/GPa) = 0.03156038
#
# Stress axis : x y z
#
# Youngs Moduli (GPa) = 33.61477 72.74454 49.50072
#
# Poissons Ratio (x) = 0.18965 0.53312
# Poissons Ratio (y) = 0.08764 0.13323
# Poissons Ratio (z) = 0.36203 0.19579
#
# Static dielectric constant tensor:
#      x y z
#    x 1.799400 0.000000 -0.004810 
#    y 0.000000 1.840670 0.000000 
#    z -0.004810 0.000000 1.822860 
# 
# From -- ./inp_files/54612.got.cif
#   From: 2010.05.17/outbox.cif.g08.bks.cpg/sg13_28_cif.got.tgz:54612.got - 2010.06.03 16:44:36.
