data_PCOD9238848
_publ_section_title
;
Structure prediction by ZEFSAII (Michael W. Deem and Ramdas Pophale) SiO2 
 PCOD9238848
Probable space group: P 2/C
;
_chemical_formula_sum "Si O2"
_cell_formula_units_Z 24
_cell_length_a 6.748465
_cell_length_b 7.096758
_cell_length_c 19.487123
_cell_angle_alpha 90.000000
_cell_angle_beta 59.819464
_cell_angle_gamma 90.000000
_cell_volume 806.771238
_symmetry_space_group_name_H-M "P 2/C"
_symmetry_group_IT_number 13
_symmetry_cell_setting 'monoclinic'
loop_
_space_group_symop_operation_xyz
x,y,z
-x,y,1/2-z
-x,-y,-z
x,-y,1/2+z
loop_
_atom_site_type_symbol
_atom_site_label
_atom_site_fract_x
_atom_site_fract_y
_atom_site_fract_z
Si Si1 0.644651 0.477732 0.559396
Si Si2 0.947126 0.990725 0.141763
Si Si3 0.324798 0.083894 0.474706
Si Si4 0.998737 0.424176 0.108338
Si Si5 0.339661 0.019010 0.188175
Si Si6 0.305664 0.530348 0.724497
O O1 0.631353 0.698456 0.545982
O O2 0.844334 0.461404 0.581567
O O3 0.411045 0.423747 0.639518
O O4 0.752361 0.401191 0.469975
O O5 0.152009 0.976076 0.162785
O O6 0.911673 0.211174 0.130319
O O7 0.735411 0.927592 0.226654
O O8 0.073380 0.919595 0.051459
O O9 0.410308 0.984037 0.389146
O O10 0.500000 0.000000 0.500000
O O11 0.933865 0.508147 0.193968
O O12 0.310730 0.246084 0.204592
O O13 0.500000 0.509643 0.750000
#
# Coordination Sequence:
#
# PCOD9238848 Si02
#       6
#     4   4   4   4   4   4
#     4   9  17  30  47  67  93 118 149 190 232 274
#     4   9  16  28  47  66  87 116 152 187 225 271
#     4   9  17  30  46  65  89 120 149 184 229 269
#     4   9  17  29  47  69  89 118 153 189 228 271
#     4   8  15  28  45  63  87 117 151 185 218 271
#     4   8  14  27  46  64  85 117 151 180 220 275
#
# _framework density 29.748208999999999
#
# number of rings (size 3 to 8) (size 9 to 14) (size 15 to 20)
#    0.000    3.333    0.000    0.000    0.000    0.667 
#    0.000    9.167    0.000   14.000    0.000    0.000 
#    0.000    0.000    0.000    0.000    0.000    0.000 
#
# Total GULP energy -134217.976105 kJ/mol
# GULP energy per Si atom -5592.415671 kJ/mol
# Density = 2.968050 g / cm^3
# Si number density = 29.748209 Si / 1000 Ang^3
#
#
#
# Elastic Constant Matrix: (Units=GPa)
#
#
# Indices 1 2 3 4 5 6 
#
# 1 111.0107 17.8012 93.0399 0.0000 -26.8303 0.0000
# 2 17.8012 80.9601 15.2707 0.0000 -2.2562 0.0000
# 3 93.0399 15.2707 417.3506 0.0000 -46.0330 0.0000
# 4 0.0000 0.0000 0.0000 34.1521 0.0000 -9.9428
# 5 -26.8303 -2.2562 -46.0330 0.0000 73.8830 0.0000
# 6 0.0000 0.0000 0.0000 -9.9428 0.0000 25.7882
#
#
#
# Elastic Compliance Matrix: (Units=1/GPa)
#
#
# Indices 1 2 3 4 5 6 
#
# 1 0.011940 -0.002118 -0.002269 0.000000 0.002858 0.000000
# 2 -0.002118 0.012814 -0.000041 0.000000 -0.000403 0.000000
# 3 -0.002269 -0.000041 0.003020 0.000000 0.001056 0.000000
# 4 0.000000 0.000000 0.000000 0.032983 0.000000 0.012717
# 5 0.002858 -0.000403 0.001056 0.000000 0.015218 0.000000
# 6 0.000000 0.000000 0.000000 0.012717 0.000000 0.043680
#
#
# Mechanical properties :
#
#
# Convention : Reuss Voigt Hill
#
# Bulk Modulus (GPa) = 52.86022 95.72722 74.29372
# Shear Modulus (GPa) = 37.08699 58.97865 48.03282
#
# Velocity S-wave (km/s) = 3.53469 4.45746 4.02262
# Velocity P-wave (km/s) = 5.87082 7.66427 6.82669
#
# Compressibility (1/GPa) = 0.01891782
#
# Stress axis : x y z
#
# Youngs Moduli (GPa) = 83.75081 78.04000 331.13188
#
# Poissons Ratio (x) = 0.16527 0.75139
# Poissons Ratio (y) = 0.17736 0.01366
# Poissons Ratio (z) = 0.19004 0.00322
#
# Static dielectric constant tensor:
#      x y z
#    x 2.369010 0.000000 -0.043360 
#    y 0.000000 2.316260 0.000000 
#    z -0.043360 0.000000 2.385830 
# 
# From -- ./inp_files/49575.got.cif
#   From: 2010.05.17/outbox.cif.g08.bks.cpg/sg13_25_cif.got.tgz:49575.got - 2010.06.03 16:44:36.
