data_PCOD9238498
_publ_section_title
;
Structure prediction by ZEFSAII (Michael W. Deem and Ramdas Pophale) SiO2 
 PCOD9238498
Probable space group: P 2/C
;
_chemical_formula_sum "Si O2"
_cell_formula_units_Z 16
_cell_length_a 9.038950
_cell_length_b 11.428211
_cell_length_c 8.031252
_cell_angle_alpha 90.000000
_cell_angle_beta 123.484934
_cell_angle_gamma 90.000000
_cell_volume 691.929173
_symmetry_space_group_name_H-M "P 2/C"
_symmetry_group_IT_number 13
_symmetry_cell_setting 'monoclinic'
loop_
_space_group_symop_operation_xyz
x,y,z
-x,y,1/2-z
-x,-y,-z
x,-y,1/2+z
loop_
_atom_site_type_symbol
_atom_site_label
_atom_site_fract_x
_atom_site_fract_y
_atom_site_fract_z
Si Si1 0.810790 0.045240 0.436601
Si Si2 0.500000 0.328572 0.750000
Si Si3 0.087066 0.380248 0.488395
Si Si4 0.402757 0.118848 0.489409
Si Si5 0.000000 0.783734 0.250000
O O1 0.729211 0.128226 0.246634
O O2 0.837455 0.128346 0.611494
O O3 0.703596 0.928767 0.416533
O O4 0.000000 0.000000 0.500000
O O5 0.304933 0.389108 0.618895
O O6 0.494406 0.239721 0.588887
O O7 0.038609 0.288818 0.606293
O O8 0.000000 0.500000 0.500000
O O9 0.000000 0.353836 0.250000
O O10 0.500000 0.000000 0.500000
#
# Coordination Sequence:
#
# PCOD9238498 Si02
#       5
#     4   2   4   4   2
#     4  12  22  39  68 106 154 204 243 293 369 474
#     4  12  26  46  80 110 158 208 254 328 402 454
#     4  12  28  55  80 112 149 200 277 342 395 457
#     4  12  22  40  64 109 156 191 243 291 373 482
#     4  12  24  46  78 108 156 210 250 320 394 450
#
# _framework density 23.123750999999999
#
# number of rings (size 3 to 8) (size 9 to 14) (size 15 to 20)
#    0.000    0.000    6.250    4.500    0.000    1.000 
#    0.000    2.500    0.000    0.000    0.000    0.000 
#    0.000    0.000    0.000    0.000    0.000    0.000 
#
# Total GULP energy -89278.931800 kJ/mol
# GULP energy per Si atom -5579.933237 kJ/mol
# Density = 2.307112 g / cm^3
# Si number density = 23.123751 Si / 1000 Ang^3
#
#
#
# Elastic Constant Matrix: (Units=GPa)
#
#
# Indices 1 2 3 4 5 6 
#
# 1 125.1503 35.7710 39.8587 0.0000 19.2699 0.0000
# 2 35.7710 94.4881 48.7768 0.0000 9.3564 0.0000
# 3 39.8587 48.7768 195.6415 0.0000 -9.0923 0.0000
# 4 0.0000 0.0000 0.0000 40.1165 0.0000 -1.2459
# 5 19.2699 9.3564 -9.0923 0.0000 52.1722 0.0000
# 6 0.0000 0.0000 0.0000 -1.2459 0.0000 50.9590
#
#
#
# Elastic Compliance Matrix: (Units=1/GPa)
#
#
# Indices 1 2 3 4 5 6 
#
# 1 0.009725 -0.002573 -0.001497 0.000000 -0.003391 0.000000
# 2 -0.002573 0.013225 -0.002862 0.000000 -0.001920 0.000000
# 3 -0.001497 -0.002862 0.006230 0.000000 0.002152 0.000000
# 4 0.000000 0.000000 0.000000 0.024946 0.000000 0.000610
# 5 -0.003391 -0.001920 0.002152 0.000000 0.021139 0.000000
# 6 0.000000 0.000000 0.000000 0.000610 0.000000 0.019639
#
#
# Mechanical properties :
#
#
# Convention : Reuss Voigt Hill
#
# Bulk Modulus (GPa) = 65.29555 73.78809 69.54182
# Shear Modulus (GPa) = 43.90801 48.04110 45.97456
#
# Velocity S-wave (km/s) = 4.36228 4.56298 4.46376
# Velocity P-wave (km/s) = 7.32608 7.72919 7.53033
#
# Compressibility (1/GPa) = 0.01531498
#
# Stress axis : x y z
#
# Youngs Moduli (GPa) = 102.82913 75.61389 160.51054
#
# Poissons Ratio (x) = 0.19454 0.24036
# Poissons Ratio (y) = 0.26455 0.45943
# Poissons Ratio (z) = 0.15398 0.21643
#
# Static dielectric constant tensor:
#      x y z
#    x 1.878460 0.000000 -0.005180 
#    y 0.000000 1.818170 0.000000 
#    z -0.005180 0.000000 2.036560 
# 
# From -- ./inp_files/11412.got.cif
#   From: 2010.05.17/outbox.cif.g08.bks.cpg/sg13_6_cif.got.tgz:11412.got - 2010.06.03 16:44:36.
