data_PCOD9238225
_publ_section_title
;
Structure prediction by ZEFSAII (Michael W. Deem and Ramdas Pophale) SiO2 
 PCOD9238225
Probable space group: P 2/C
;
_chemical_formula_sum "Si O2"
_cell_formula_units_Z 16
_cell_length_a 13.850443
_cell_length_b 5.016272
_cell_length_c 24.814788
_cell_angle_alpha 90.000000
_cell_angle_beta 20.518958
_cell_angle_gamma 90.000000
_cell_volume 604.316919
_symmetry_space_group_name_H-M "P 2/C"
_symmetry_group_IT_number 13
_symmetry_cell_setting 'monoclinic'
loop_
_space_group_symop_operation_xyz
x,y,z
-x,y,1/2-z
-x,-y,-z
x,-y,1/2+z
loop_
_atom_site_type_symbol
_atom_site_label
_atom_site_fract_x
_atom_site_fract_y
_atom_site_fract_z
Si Si1 0.002608 0.998640 0.652933
Si Si2 0.069605 0.203961 0.415997
Si Si3 0.402192 0.576085 0.892659
Si Si4 0.710896 0.520974 0.341134
O O1 0.874678 0.207551 0.760158
O O2 0.263172 0.153875 0.490141
O O3 0.837584 0.970060 0.683463
O O4 0.937351 0.714010 0.714873
O O5 0.342617 0.377574 0.281338
O O6 0.826490 0.390878 0.517814
O O7 0.000000 0.000000 0.500000
O O8 0.537937 0.457439 0.875909
O O9 0.500000 0.500000 0.500000
#
# Coordination Sequence:
#
# PCOD9238225 Si02
#       4
#     4   4   4   4
#     4  11  24  50  75 118 161 209 278 334 400 500
#     4  11  28  54  83 117 164 220 273 349 424 501
#     4  11  25  54  79 119 172 209 287 341 416 514
#     4  11  26  50  80 119 166 222 272 340 417 491
#
# _framework density 26.476175000000001
#
# number of rings (size 3 to 8) (size 9 to 14) (size 15 to 20)
#    0.000    1.000    5.000    0.750    7.000    3.000 
#   13.500    1.250    0.000    0.000    0.000    0.000 
#    0.000    0.000    0.000    0.000    0.000    0.000 
#
# Total GULP energy -89297.764630 kJ/mol
# GULP energy per Si atom -5581.110289 kJ/mol
# Density = 2.641591 g / cm^3
# Si number density = 26.476175 Si / 1000 Ang^3
#
#
#
# Elastic Constant Matrix: (Units=GPa)
#
#
# Indices 1 2 3 4 5 6 
#
# 1 152.5180 42.6848 83.3298 0.0000 5.4076 0.0000
# 2 42.6848 155.8110 88.3169 0.0000 -6.4533 0.0000
# 3 83.3298 88.3169 186.0898 0.0000 -14.1000 0.0000
# 4 0.0000 0.0000 0.0000 33.8455 0.0000 -13.1785
# 5 5.4076 -6.4533 -14.1000 0.0000 56.3006 0.0000
# 6 0.0000 0.0000 0.0000 -13.1785 0.0000 12.5826
#
#
#
# Elastic Compliance Matrix: (Units=1/GPa)
#
#
# Indices 1 2 3 4 5 6 
#
# 1 0.008878 -0.000241 -0.004004 0.000000 -0.001883 0.000000
# 2 -0.000241 0.008787 -0.004061 0.000000 0.000013 0.000000
# 3 -0.004004 -0.004061 0.009264 0.000000 0.002239 0.000000
# 4 0.000000 0.000000 0.000000 0.049893 0.000000 0.052256
# 5 -0.001883 0.000013 0.002239 0.000000 0.018505 0.000000
# 6 0.000000 0.000000 0.000000 0.052256 0.000000 0.134206
#
#
# Mechanical properties :
#
#
# Convention : Reuss Voigt Hill
#
# Bulk Modulus (GPa) = 96.93024 102.56465 99.74744
# Shear Modulus (GPa) = 20.03334 39.21823 29.62578
#
# Velocity S-wave (km/s) = 2.75372 3.85290 3.34872
# Velocity P-wave (km/s) = 6.84109 7.65609 7.26003
#
# Compressibility (1/GPa) = 0.01031670
#
# Stress axis : x y z
#
# Youngs Moduli (GPa) = 112.63227 113.81084 107.94563
#
# Poissons Ratio (x) = 0.02738 0.43224
# Poissons Ratio (y) = 0.02710 0.43840
# Poissons Ratio (z) = 0.45100 0.46222
#
# Static dielectric constant tensor:
#      x y z
#    x 2.067770 0.000000 -0.099810 
#    y 0.000000 2.222180 0.000000 
#    z -0.099810 0.000000 2.220060 
# 
# From -- ./inp_files/92527.got.cif
#   From: 2010.05.17/outbox.cif.g08.bks.cpg/sg13_47_cif.got.tgz:92527.got - 2010.06.03 16:44:36.
