data_PCOD9238336
_publ_section_title
;
Structure prediction by ZEFSAII (Michael W. Deem and Ramdas Pophale) SiO2 
 PCOD9238336
Probable space group: P 2/C
;
_chemical_formula_sum "Si O2"
_cell_formula_units_Z 20
_cell_length_a 8.427326
_cell_length_b 11.812553
_cell_length_c 8.882324
_cell_angle_alpha 90.000000
_cell_angle_beta 77.614494
_cell_angle_gamma 90.000000
_cell_volume 863.640851
_symmetry_space_group_name_H-M "P 2/C"
_symmetry_group_IT_number 13
_symmetry_cell_setting 'monoclinic'
loop_
_space_group_symop_operation_xyz
x,y,z
-x,y,1/2-z
-x,-y,-z
x,-y,1/2+z
loop_
_atom_site_type_symbol
_atom_site_label
_atom_site_fract_x
_atom_site_fract_y
_atom_site_fract_z
Si Si1 0.868449 0.018761 0.403576
Si Si2 0.903579 0.591985 0.613266
Si Si3 0.385929 0.437387 0.901820
Si Si4 0.344168 0.775236 0.583245
Si Si5 0.278275 0.206981 0.456882
O O1 0.772355 0.899863 0.430583
O O2 0.000000 0.051676 0.250000
O O3 0.741158 0.116178 0.470806
O O4 0.000000 0.000000 0.500000
O O5 0.727259 0.529172 0.661373
O O6 0.862290 0.698621 0.514447
O O7 0.000000 0.615811 0.750000
O O8 0.000000 0.500000 0.500000
O O9 0.500000 0.385298 0.750000
O O10 0.500000 0.500000 0.000000
O O11 0.289348 0.339256 0.010466
O O12 0.538307 0.766140 0.531663
O O13 0.300304 0.798165 0.768445
#
# Coordination Sequence:
#
# PCOD9238336 Si02
#       5
#     4   4   4   4   4
#     4  12  27  48  75 109 152 191 250 318 380 438
#     4  12  27  44  74 109 150 189 246 314 382 439
#     4  12  25  48  76 112 151 200 250 309 380 463
#     4  11  25  48  76 105 149 200 253 304 372 460
#     4  11  25  48  75 105 147 203 249 303 379 458
#
# _framework density 23.157772999999999
#
# number of rings (size 3 to 8) (size 9 to 14) (size 15 to 20)
#    0.000    0.400    4.000    4.200    5.600    2.400 
#    3.600    0.000    0.000    0.000    0.000    0.000 
#    0.000    0.000    0.000    0.000    0.000    0.000 
#
# Total GULP energy -111445.677619 kJ/mol
# GULP energy per Si atom -5572.283881 kJ/mol
# Density = 2.310506 g / cm^3
# Si number density = 23.157773 Si / 1000 Ang^3
#
#
#
# Elastic Constant Matrix: (Units=GPa)
#
#
# Indices 1 2 3 4 5 6 
#
# 1 115.6098 53.2313 34.7227 0.0000 14.9135 0.0000
# 2 53.2313 158.8455 15.3410 0.0000 2.4303 0.0000
# 3 34.7227 15.3410 48.9397 0.0000 1.0924 0.0000
# 4 0.0000 0.0000 0.0000 26.2374 0.0000 -3.9355
# 5 14.9135 2.4303 1.0924 0.0000 38.5156 0.0000
# 6 0.0000 0.0000 0.0000 -3.9355 0.0000 60.7309
#
#
#
# Elastic Compliance Matrix: (Units=1/GPa)
#
#
# Indices 1 2 3 4 5 6 
#
# 1 0.013414 -0.003624 -0.008276 0.000000 -0.004731 0.000000
# 2 -0.003624 0.007476 0.000207 0.000000 0.000926 0.000000
# 3 -0.008276 0.000207 0.026185 0.000000 0.002449 0.000000
# 4 0.000000 0.000000 0.000000 0.038488 0.000000 0.002494
# 5 -0.004731 0.000926 0.002449 0.000000 0.027667 0.000000
# 6 0.000000 0.000000 0.000000 0.002494 0.000000 0.016628
#
#
# Mechanical properties :
#
#
# Convention : Reuss Voigt Hill
#
# Bulk Modulus (GPa) = 42.21160 58.88724 50.54942
# Shear Modulus (GPa) = 31.02902 39.77011 35.39956
#
# Velocity S-wave (km/s) = 3.66443 4.14859 3.91401
# Velocity P-wave (km/s) = 6.01427 6.95929 6.50397
#
# Compressibility (1/GPa) = 0.02369017
#
# Stress axis : x y z
#
# Youngs Moduli (GPa) = 74.54868 133.76857 38.18917
#
# Poissons Ratio (x) = 0.48472 0.31605
# Poissons Ratio (y) = 0.27013 -0.00790
# Poissons Ratio (z) = 0.61695 -0.02768
#
# Static dielectric constant tensor:
#      x y z
#    x 1.869220 0.000000 -0.035580 
#    y 0.000000 1.955920 0.000000 
#    z -0.035580 0.000000 1.861010 
# 
# From -- ./inp_files/11657.got.cif
#   From: 2010.05.17/outbox.cif.g08.bks.cpg/sg13_6_cif.got.tgz:11657.got - 2010.06.03 16:44:36.
