data_PCOD9238555
_publ_section_title
;
Structure prediction by ZEFSAII (Michael W. Deem and Ramdas Pophale) SiO2 
 PCOD9238555
Probable space group: P 2/C
;
_chemical_formula_sum "Si O2"
_cell_formula_units_Z 16
_cell_length_a 9.327267
_cell_length_b 11.472036
_cell_length_c 9.700580
_cell_angle_alpha 90.000000
_cell_angle_beta 132.935994
_cell_angle_gamma 90.000000
_cell_volume 759.927193
_symmetry_space_group_name_H-M "P 2/C"
_symmetry_group_IT_number 13
_symmetry_cell_setting 'monoclinic'
loop_
_space_group_symop_operation_xyz
x,y,z
-x,y,1/2-z
-x,-y,-z
x,-y,1/2+z
loop_
_atom_site_type_symbol
_atom_site_label
_atom_site_fract_x
_atom_site_fract_y
_atom_site_fract_z
Si Si1 0.852251 0.997062 0.277011
Si Si2 0.356535 0.773297 0.776204
Si Si3 0.620556 0.232474 0.688429
Si Si4 0.007842 0.620029 0.421615
O O1 0.694022 0.895150 0.188778
O O2 0.000000 0.974121 0.250000
O O3 0.748395 0.121942 0.211011
O O4 0.000000 0.000000 0.500000
O O5 0.500000 0.819964 0.750000
O O6 0.198122 0.691793 0.597496
O O7 0.489895 0.713318 0.980136
O O8 0.500000 0.224790 0.750000
O O9 0.816875 0.305900 0.836625
O O10 0.000000 0.605402 0.250000
O O11 0.000000 0.500000 0.500000
#
# Coordination Sequence:
#
# PCOD9238555 Si02
#       4
#     4   4   4   4
#     4  12  23  42  74 106 150 190 229 288 356 423
#     4  12  25  46  74 104 147 189 232 292 361 425
#     4  12  26  46  72 110 146 189 238 289 358 428
#     4  12  29  51  75 103 141 187 244 303 356 422
#
# _framework density 21.054651
#
# number of rings (size 3 to 8) (size 9 to 14) (size 15 to 20)
#    0.000    0.000    5.000    5.250    3.500    2.000 
#    0.000    0.000    0.000    0.000    0.000    0.000 
#    0.000    0.000    0.000    0.000    0.000    0.000 
#
# Total GULP energy -89545.396065 kJ/mol
# GULP energy per Si atom -5596.587254 kJ/mol
# Density = 2.100673 g / cm^3
# Si number density = 21.054651 Si / 1000 Ang^3
#
#
#
# Elastic Constant Matrix: (Units=GPa)
#
#
# Indices 1 2 3 4 5 6 
#
# 1 165.1263 27.4782 49.8056 0.0000 -22.0350 0.0000
# 2 27.4782 97.9610 27.0096 0.0000 5.9663 0.0000
# 3 49.8056 27.0096 163.9727 0.0000 1.5397 0.0000
# 4 0.0000 0.0000 0.0000 7.1114 0.0000 -18.3671
# 5 -22.0350 5.9663 1.5397 0.0000 45.3933 0.0000
# 6 0.0000 0.0000 0.0000 -18.3671 0.0000 8.7887
#
#
#
# Elastic Compliance Matrix: (Units=1/GPa)
#
#
# Indices 1 2 3 4 5 6 
#
# 1 0.007487 -0.001784 -0.002017 0.000000 0.003937 0.000000
# 2 -0.001784 0.011202 -0.001282 0.000000 -0.002295 0.000000
# 3 -0.002017 -0.001282 0.006932 0.000000 -0.001046 0.000000
# 4 0.000000 0.000000 0.000000 -0.031976 0.000000 -0.066826
# 5 0.003937 -0.002295 -0.001046 0.000000 0.024278 0.000000
# 6 0.000000 0.000000 0.000000 -0.066826 0.000000 -0.025874
#
#
# Mechanical properties :
#
#
# Convention : Reuss Voigt Hill
#
# Bulk Modulus (GPa) = 64.70302 70.62741 67.66521
# Shear Modulus (GPa) = 678.88895 33.77647 356.33271
#
# Velocity S-wave (km/s) = 17.97613 4.00963 13.02341
# Velocity P-wave (km/s) = 21.48611 7.41982 16.07337
#
# Compressibility (1/GPa) = 0.01545523
#
# Stress axis : x y z
#
# Youngs Moduli (GPa) = 133.57267 89.27281 144.25357
#
# Poissons Ratio (x) = 0.15923 0.29098
# Poissons Ratio (y) = 0.23824 0.18491
# Poissons Ratio (z) = 0.26944 0.11443
#
# Static dielectric constant tensor:
#      x y z
#    x 1.718260 0.000000 0.021310 
#    y 0.000000 1.847410 0.000000 
#    z 0.021310 0.000000 1.756530 
# 
# From -- ./inp_files/11466.got.cif
#   From: 2010.05.17/outbox.cif.g08.bks.cpg/sg13_6_cif.got.tgz:11466.got - 2010.06.03 16:44:36.
