data_PCOD9238047
_publ_section_title
;
Structure prediction by ZEFSAII (Michael W. Deem and Ramdas Pophale) SiO2 
 PCOD9238047
Probable space group: P 2/C
;
_chemical_formula_sum "Si O2"
_cell_formula_units_Z 26
_cell_length_a 15.823848
_cell_length_b 5.573649
_cell_length_c 17.628478
_cell_angle_alpha 90.000000
_cell_angle_beta 127.839937
_cell_angle_gamma 90.000000
_cell_volume 1227.845873
_symmetry_space_group_name_H-M "P 2/C"
_symmetry_group_IT_number 13
_symmetry_cell_setting 'monoclinic'
loop_
_space_group_symop_operation_xyz
x,y,z
-x,y,1/2-z
-x,-y,-z
x,-y,1/2+z
loop_
_atom_site_type_symbol
_atom_site_label
_atom_site_fract_x
_atom_site_fract_y
_atom_site_fract_z
Si Si1 0.123239 0.222220 0.298828
Si Si2 0.373242 0.412197 0.742509
Si Si3 0.500000 0.019474 0.750000
Si Si4 0.801977 0.740630 0.089169
Si Si5 0.857101 0.516999 0.840182
Si Si6 0.048346 0.798165 0.469806
Si Si7 0.582780 0.354586 0.391457
O O1 0.151509 0.483291 0.354169
O O2 0.133303 0.275036 0.215574
O O3 0.000000 0.169944 0.250000
O O4 0.189545 0.981188 0.355137
O O5 0.393680 0.167257 0.710043
O O6 0.263737 0.425377 0.725886
O O7 0.373689 0.592437 0.670439
O O8 0.483195 0.464835 0.848921
O O9 0.476619 0.891835 0.657789
O O10 0.865996 0.836526 0.049623
O O11 0.680351 0.671463 0.000979
O O12 0.945695 0.317465 0.872185
O O13 0.891292 0.611687 0.941540
O O14 0.000000 0.000000 0.500000
#
# Coordination Sequence:
#
# PCOD9238047 Si02
#       7
#     4   4   2   4   4   4   4
#     4  12  27  47  66  97 145 186 214 272 353 415
#     4   9  19  37  65  91 135 162 231 285 332 392
#     4   8  18  34  62  94 126 168 214 296 332 390
#     4  12  26  45  71  97 140 182 225 273 342 419
#     4  11  24  43  64 101 131 177 229 284 340 392
#     4  11  25  39  69  99 130 172 238 290 322 401
#     4   9  20  37  61 100 123 174 226 276 344 386
#
# _framework density 21.175294999999998
#
# number of rings (size 3 to 8) (size 9 to 14) (size 15 to 20)
#    0.000    1.846    3.077    1.385   10.769    0.000 
#    0.000    1.538    0.000    0.000    0.000    0.000 
#    0.000    0.000    0.000    0.000    0.000    0.000 
#
# Total GULP energy -144749.136583 kJ/mol
# GULP energy per Si atom -5567.274484 kJ/mol
# Density = 2.112710 g / cm^3
# Si number density = 21.175295 Si / 1000 Ang^3
#
#
#
# Elastic Constant Matrix: (Units=GPa)
#
#
# Indices 1 2 3 4 5 6 
#
# 1 55.9779 -19.4491 16.3340 0.0000 19.9495 0.0000
# 2 -19.4491 70.1485 26.2921 0.0000 10.3283 0.0000
# 3 16.3340 26.2921 97.3637 0.0000 24.8113 0.0000
# 4 0.0000 0.0000 0.0000 43.1759 0.0000 -31.2460
# 5 19.9495 10.3283 24.8113 0.0000 36.3508 0.0000
# 6 0.0000 0.0000 0.0000 -31.2460 0.0000 23.6613
#
#
#
# Elastic Compliance Matrix: (Units=1/GPa)
#
#
# Indices 1 2 3 4 5 6 
#
# 1 0.029127 0.011987 -0.003852 0.000000 -0.016761 0.000000
# 2 0.011987 0.020905 -0.005407 0.000000 -0.008828 0.000000
# 3 -0.003852 -0.005407 0.013857 0.000000 -0.005808 0.000000
# 4 0.000000 0.000000 0.000000 0.522489 0.000000 0.689974
# 5 -0.016761 -0.008828 -0.005808 0.000000 0.043181 0.000000
# 6 0.000000 0.000000 0.000000 0.689974 0.000000 0.953410
#
#
# Mechanical properties :
#
#
# Convention : Reuss Voigt Hill
#
# Bulk Modulus (GPa) = 14.42047 29.98269 22.20158
# Shear Modulus (GPa) = 3.12378 33.99182 18.55780
#
# Velocity S-wave (km/s) = 1.21589 4.01091 2.96360
# Velocity P-wave (km/s) = 2.96581 5.96992 4.71359
#
# Compressibility (1/GPa) = 0.06934587
#
# Stress axis : x y z
#
# Youngs Moduli (GPa) = 34.33298 47.83496 72.16539
#
# Poissons Ratio (x) = -0.57340 0.27798
# Poissons Ratio (y) = -0.41155 0.39017
# Poissons Ratio (z) = 0.13225 0.25862
#
# Static dielectric constant tensor:
#      x y z
#    x 1.653960 0.000000 0.000930 
#    y 0.000000 1.897890 0.000000 
#    z 0.000930 0.000000 1.775700 
# 
# From -- ./inp_files/67431.got.cif
#   From: 2010.05.17/outbox.cif.g08.bks.cpg/sg13_34_cif.got.tgz:67431.got - 2010.06.03 16:44:36.
