data_PCOD9238642
_publ_section_title
;
Structure prediction by ZEFSAII (Michael W. Deem and Ramdas Pophale) SiO2 
 PCOD9238642
Probable space group: P 2/C
;
_chemical_formula_sum "Si O2"
_cell_formula_units_Z 20
_cell_length_a 8.759113
_cell_length_b 10.970548
_cell_length_c 15.669487
_cell_angle_alpha 90.000000
_cell_angle_beta 36.683912
_cell_angle_gamma 90.000000
_cell_volume 899.515069
_symmetry_space_group_name_H-M "P 2/C"
_symmetry_group_IT_number 13
_symmetry_cell_setting 'monoclinic'
loop_
_space_group_symop_operation_xyz
x,y,z
-x,y,1/2-z
-x,-y,-z
x,-y,1/2+z
loop_
_atom_site_type_symbol
_atom_site_label
_atom_site_fract_x
_atom_site_fract_y
_atom_site_fract_z
Si Si1 0.137308 0.248681 0.011774
Si Si2 0.776117 0.486014 0.419761
Si Si3 0.287991 0.104131 0.216863
Si Si4 0.500000 0.923682 0.250000
Si Si5 0.179917 0.752019 0.021019
Si Si6 0.000000 0.075980 0.750000
O O1 0.224758 0.377667 0.010264
O O2 0.962399 0.185430 0.160830
O O3 0.368286 0.161867 0.879206
O O4 0.956800 0.254496 0.009094
O O5 0.500000 0.500000 0.500000
O O6 0.824255 0.615700 0.441890
O O7 0.000000 0.463346 0.250000
O O8 0.305212 0.014973 0.291209
O O9 0.239318 0.012650 0.160627
O O10 0.536110 0.189689 0.107506
O O11 0.034868 0.838943 0.152595
#
# Coordination Sequence:
#
# PCOD9238642 Si02
#       6
#     4   4   4   2   4   2
#     4  12  27  48  75 106 150 201 248 308 379 451
#     4  12  30  51  77 108 150 197 262 318 373 448
#     4  12  25  46  75 112 152 192 247 307 381 456
#     4  12  24  46  76 110 150 190 246 306 372 468
#     4  12  25  50  74 107 150 199 250 309 378 452
#     4  12  26  42  76 114 154 192 244 314 378 450
#
# _framework density 22.234203000000001
#
# number of rings (size 3 to 8) (size 9 to 14) (size 15 to 20)
#    0.000    0.000    5.000    4.200    9.800    0.000 
#    3.600    0.000    0.000    0.000    0.000    0.000 
#    0.000    0.000    0.000    0.000    0.000    0.000 
#
# Total GULP energy -111947.215201 kJ/mol
# GULP energy per Si atom -5597.360760 kJ/mol
# Density = 2.218360 g / cm^3
# Si number density = 22.234203 Si / 1000 Ang^3
#
#
#
# Elastic Constant Matrix: (Units=GPa)
#
#
# Indices 1 2 3 4 5 6 
#
# 1 113.3695 69.2134 19.3855 0.0000 -3.0683 0.0000
# 2 69.2134 154.9261 35.8304 0.0000 -1.5708 0.0000
# 3 19.3855 35.8304 105.9673 0.0000 -4.9860 0.0000
# 4 0.0000 0.0000 0.0000 39.5705 0.0000 8.2447
# 5 -3.0683 -1.5708 -4.9860 0.0000 26.0756 0.0000
# 6 0.0000 0.0000 0.0000 8.2447 0.0000 65.4704
#
#
#
# Elastic Compliance Matrix: (Units=1/GPa)
#
#
# Indices 1 2 3 4 5 6 
#
# 1 0.012174 -0.005342 -0.000372 0.000000 0.001040 0.000000
# 2 -0.005342 0.009347 -0.002206 0.000000 -0.000487 0.000000
# 3 -0.000372 -0.002206 0.010335 0.000000 0.001800 0.000000
# 4 0.000000 0.000000 0.000000 0.025952 0.000000 -0.003268
# 5 0.001040 -0.000487 0.001800 0.000000 0.038787 0.000000
# 6 0.000000 0.000000 0.000000 -0.003268 0.000000 0.015686
#
#
# Mechanical properties :
#
#
# Convention : Reuss Voigt Hill
#
# Bulk Modulus (GPa) = 62.43757 69.23571 65.83664
# Shear Modulus (GPa) = 37.46455 42.87887 40.17171
#
# Velocity S-wave (km/s) = 4.10932 4.39624 4.25520
# Velocity P-wave (km/s) = 7.11745 7.54826 7.33602
#
# Compressibility (1/GPa) = 0.01601600
#
# Stress axis : x y z
#
# Youngs Moduli (GPa) = 82.14306 106.99137 96.75417
#
# Poissons Ratio (x) = 0.57157 0.03598
# Poissons Ratio (y) = 0.43882 0.21344
# Poissons Ratio (z) = 0.03054 0.23602
#
# Static dielectric constant tensor:
#      x y z
#    x 1.919480 0.000000 0.021850 
#    y 0.000000 1.778670 0.000000 
#    z 0.021850 0.000000 1.863200 
# 
# From -- ./inp_files/64420.got.cif
#   From: 2010.05.17/outbox.cif.g08.bks.cpg/sg13_33_cif.got.tgz:64420.got - 2010.06.03 16:44:36.
