data_PCOD9238799
_publ_section_title
;
Structure prediction by ZEFSAII (Michael W. Deem and Ramdas Pophale) SiO2 
 PCOD9238799
Probable space group: P 2/C
;
_chemical_formula_sum "Si O2"
_cell_formula_units_Z 12
_cell_length_a 17.848470
_cell_length_b 4.821768
_cell_length_c 10.125090
_cell_angle_alpha 90.000000
_cell_angle_beta 150.673403
_cell_angle_gamma 90.000000
_cell_volume 426.789419
_symmetry_space_group_name_H-M "P 2/C"
_symmetry_group_IT_number 13
_symmetry_cell_setting 'monoclinic'
loop_
_space_group_symop_operation_xyz
x,y,z
-x,y,1/2-z
-x,-y,-z
x,-y,1/2+z
loop_
_atom_site_type_symbol
_atom_site_label
_atom_site_fract_x
_atom_site_fract_y
_atom_site_fract_z
Si Si1 0.330796 0.906723 0.207377
Si Si2 0.905492 0.830277 0.969160
Si Si3 0.322521 0.411784 0.024218
O O1 0.322848 0.587921 0.159971
O O2 0.500000 0.000000 0.500000
O O3 0.295201 0.098125 0.026672
O O4 0.218360 0.972088 0.151823
O O5 0.000000 0.745407 0.250000
O O6 0.811367 0.570759 0.762148
O O7 0.000000 0.000000 0.000000
O O8 0.500000 0.439661 0.250000
#
# Coordination Sequence:
#
# PCOD9238799 Si02
#       3
#     4   4   4
#     4  12  27  52  85 124 164 225 288 356 423 509
#     4  12  28  54  82 127 178 229 279 354 432 515
#     4  12  27  50  88 124 164 224 295 353 421 507
#
# _framework density 28.116909
#
# number of rings (size 3 to 8) (size 9 to 14) (size 15 to 20)
#    0.000    0.000    6.667    2.000    0.000    1.333 
#    6.000    0.000    0.000    0.000    0.000    0.000 
#    0.000    0.000    0.000    0.000    0.000    0.000 
#
# Total GULP energy -67275.945884 kJ/mol
# GULP energy per Si atom -5606.328824 kJ/mol
# Density = 2.805291 g / cm^3
# Si number density = 28.116909 Si / 1000 Ang^3
#
#
#
# Elastic Constant Matrix: (Units=GPa)
#
#
# Indices 1 2 3 4 5 6 
#
# 1 197.9752 21.7701 88.8682 0.0000 14.6459 0.0000
# 2 21.7701 101.9092 20.1542 0.0000 4.6245 0.0000
# 3 88.8682 20.1542 215.4657 0.0000 4.9528 0.0000
# 4 0.0000 0.0000 0.0000 37.9470 0.0000 -2.0532
# 5 14.6459 4.6245 4.9528 0.0000 66.8423 0.0000
# 6 0.0000 0.0000 0.0000 -2.0532 0.0000 58.3840
#
#
#
# Elastic Compliance Matrix: (Units=1/GPa)
#
#
# Indices 1 2 3 4 5 6 
#
# 1 0.006356 -0.000807 -0.002520 0.000000 -0.001150 0.000000
# 2 -0.000807 0.010126 -0.000603 0.000000 -0.000479 0.000000
# 3 -0.002520 -0.000603 0.005733 0.000000 0.000169 0.000000
# 4 0.000000 0.000000 0.000000 0.026403 0.000000 0.000929
# 5 -0.001150 -0.000479 0.000169 0.000000 0.015233 0.000000
# 6 0.000000 0.000000 0.000000 0.000929 0.000000 0.017161
#
#
# Mechanical properties :
#
#
# Convention : Reuss Voigt Hill
#
# Bulk Modulus (GPa) = 69.66293 86.32613 77.99453
# Shear Modulus (GPa) = 53.38648 58.27182 55.82915
#
# Velocity S-wave (km/s) = 4.36217 4.55739 4.46085
# Velocity P-wave (km/s) = 7.08529 7.64607 7.37101
#
# Compressibility (1/GPa) = 0.01435484
#
# Stress axis : x y z
#
# Youngs Moduli (GPa) = 157.33192 98.75429 174.43384
#
# Poissons Ratio (x) = 0.07972 0.43950
# Poissons Ratio (y) = 0.12702 0.10522
# Poissons Ratio (z) = 0.39641 0.05957
#
# Static dielectric constant tensor:
#      x y z
#    x 2.203570 0.000000 -0.103140 
#    y 0.000000 2.099690 0.000000 
#    z -0.103140 0.000000 2.393070 
# 
# From -- ./inp_files/17558.got.cif
#   From: 2010.05.17/outbox.cif.g08.bks.cpg/sg13_9_cif.got.tgz:17558.got - 2010.06.03 16:44:36.
