data_PCOD9238195
_publ_section_title
;
Structure prediction by ZEFSAII (Michael W. Deem and Ramdas Pophale) SiO2 
 PCOD9238195
Probable space group: P 2/C
;
_chemical_formula_sum "Si O2"
_cell_formula_units_Z 18
_cell_length_a 8.241779
_cell_length_b 8.598339
_cell_length_c 20.025106
_cell_angle_alpha 90.000000
_cell_angle_beta 146.634083
_cell_angle_gamma 90.000000
_cell_volume 780.477571
_symmetry_space_group_name_H-M "P 2/C"
_symmetry_group_IT_number 13
_symmetry_cell_setting 'monoclinic'
loop_
_space_group_symop_operation_xyz
x,y,z
-x,y,1/2-z
-x,-y,-z
x,-y,1/2+z
loop_
_atom_site_type_symbol
_atom_site_label
_atom_site_fract_x
_atom_site_fract_y
_atom_site_fract_z
Si Si1 0.292433 0.879013 0.964073
Si Si2 0.000000 0.674812 0.750000
Si Si3 0.512862 0.277650 0.663093
Si Si4 0.024475 0.161424 0.582195
Si Si5 0.544542 0.622143 0.843898
O O1 0.146991 0.779598 0.856795
O O2 0.064473 0.990232 0.924530
O O3 0.482275 0.766308 0.076165
O O4 0.500000 0.000000 0.000000
O O5 0.742397 0.597527 0.706277
O O6 0.357167 0.442073 0.625646
O O7 0.833390 0.255861 0.806050
O O8 0.297072 0.154745 0.625104
O O9 0.759417 0.257271 0.455684
O O10 0.500000 0.669005 0.750000
#
# Coordination Sequence:
#
# PCOD9238195 Si02
#       5
#     4   2   4   4   4
#     4  12  25  48  70 106 150 191 246 307 370 438
#     4  12  28  46  76 112 148 200 250 304 376 442
#     4  11  26  45  77 106 143 196 248 303 373 435
#     4  11  24  47  75 105 145 192 248 303 365 447
#     4  12  26  49  76 108 151 194 249 305 370 443
#
# _framework density 23.062802999999999
#
# number of rings (size 3 to 8) (size 9 to 14) (size 15 to 20)
#    0.000    0.444    4.444    4.000    3.111    2.667 
#    0.000    0.000    0.000    0.000    0.000    0.000 
#    0.000    0.000    0.000    0.000    0.000    0.000 
#
# Total GULP energy -100493.258967 kJ/mol
# GULP energy per Si atom -5582.958831 kJ/mol
# Density = 2.301031 g / cm^3
# Si number density = 23.062803 Si / 1000 Ang^3
#
#
#
# Elastic Constant Matrix: (Units=GPa)
#
#
# Indices 1 2 3 4 5 6 
#
# 1 101.7802 14.1425 41.1804 0.0000 -9.1835 0.0000
# 2 14.1425 40.7563 28.1961 0.0000 -27.1340 0.0000
# 3 41.1804 28.1961 140.0390 0.0000 -53.8241 0.0000
# 4 0.0000 0.0000 0.0000 45.4616 0.0000 -16.1920
# 5 -9.1835 -27.1340 -53.8241 0.0000 53.2224 0.0000
# 6 0.0000 0.0000 0.0000 -16.1920 0.0000 64.7877
#
#
#
# Elastic Compliance Matrix: (Units=1/GPa)
#
#
# Indices 1 2 3 4 5 6 
#
# 1 0.011739 -0.004003 -0.004338 0.000000 -0.004403 0.000000
# 2 -0.004003 0.038518 0.001152 0.000000 0.020111 0.000000
# 3 -0.004338 0.001152 0.013287 0.000000 0.013276 0.000000
# 4 0.000000 0.000000 0.000000 0.024146 0.000000 0.006035
# 5 -0.004403 0.020111 0.013276 0.000000 0.041709 0.000000
# 6 0.000000 0.000000 0.000000 0.006035 0.000000 0.016943
#
#
# Mechanical properties :
#
#
# Convention : Reuss Voigt Hill
#
# Bulk Modulus (GPa) = 20.33989 49.95706 35.14847
# Shear Modulus (GPa) = 28.23092 45.96476 37.09784
#
# Velocity S-wave (km/s) = 3.50249 4.46918 4.01503
# Velocity P-wave (km/s) = 5.01947 6.95268 6.06361
#
# Compressibility (1/GPa) = 0.04916448
#
# Stress axis : x y z
#
# Youngs Moduli (GPa) = 85.18337 25.96205 75.25915
#
# Poissons Ratio (x) = 0.10394 0.32649
# Poissons Ratio (y) = 0.34103 -0.08667
# Poissons Ratio (z) = 0.36955 -0.02990
#
# Static dielectric constant tensor:
#      x y z
#    x 1.914920 0.000000 -0.062930 
#    y 0.000000 1.793250 0.000000 
#    z -0.062930 0.000000 1.730130 
# 
# From -- ./inp_files/75897.got.cif
#   From: 2010.05.17/outbox.cif.g08.bks.cpg/sg13_38_cif.got.tgz:75897.got - 2010.06.03 16:44:36.
