data_PCOD9238736
_publ_section_title
;
Structure prediction by ZEFSAII (Michael W. Deem and Ramdas Pophale) SiO2 
 PCOD9238736
Probable space group: P 2/C
;
_chemical_formula_sum "Si O2"
_cell_formula_units_Z 16
_cell_length_a 13.699715
_cell_length_b 4.729421
_cell_length_c 10.510583
_cell_angle_alpha 90.000000
_cell_angle_beta 66.018223
_cell_angle_gamma 90.000000
_cell_volume 622.211378
_symmetry_space_group_name_H-M "P 2/C"
_symmetry_group_IT_number 13
_symmetry_cell_setting 'monoclinic'
loop_
_space_group_symop_operation_xyz
x,y,z
-x,y,1/2-z
-x,-y,-z
x,-y,1/2+z
loop_
_atom_site_type_symbol
_atom_site_label
_atom_site_fract_x
_atom_site_fract_y
_atom_site_fract_z
Si Si1 0.882557 0.156586 0.367398
Si Si2 0.297377 0.311972 0.209664
Si Si3 0.557777 0.831778 0.350619
Si Si4 0.109255 0.642420 0.986511
O O1 0.772121 0.120681 0.352079
O O2 0.877393 0.495086 0.385284
O O3 0.000000 0.089949 0.250000
O O4 0.884369 0.975125 0.495280
O O5 0.376420 0.564377 0.127481
O O6 0.206585 0.442734 0.347050
O O7 0.366165 0.077846 0.244900
O O8 0.500000 0.730136 0.250000
O O9 0.500000 0.000000 0.500000
O O10 0.000000 0.500000 0.000000
#
# Coordination Sequence:
#
# PCOD9238736 Si02
#       4
#     4   4   4   4
#     4  12  26  44  74 113 159 203 254 309 392 496
#     4  12  28  49  79 108 153 210 252 331 409 463
#     4  12  30  54  80 113 153 206 279 342 398 464
#     4  12  26  45  73 114 160 201 252 311 394 488
#
# _framework density 25.714732000000001
#
# number of rings (size 3 to 8) (size 9 to 14) (size 15 to 20)
#    0.000    0.000    2.500    6.000   14.000    0.000 
#    0.000    0.000    0.000    0.000    0.000    0.000 
#    0.000    0.000    0.000    0.000    0.000    0.000 
#
# Total GULP energy -89216.256375 kJ/mol
# GULP energy per Si atom -5576.016023 kJ/mol
# Density = 2.565620 g / cm^3
# Si number density = 25.714732 Si / 1000 Ang^3
#
#
#
# Elastic Constant Matrix: (Units=GPa)
#
#
# Indices 1 2 3 4 5 6 
#
# 1 126.4361 48.2273 41.8616 0.0000 -3.1289 0.0000
# 2 48.2273 125.3922 15.2245 0.0000 -5.5563 0.0000
# 3 41.8616 15.2245 83.1323 0.0000 -10.3558 0.0000
# 4 0.0000 0.0000 0.0000 43.2115 0.0000 4.2252
# 5 -3.1289 -5.5563 -10.3558 0.0000 37.7317 0.0000
# 6 0.0000 0.0000 0.0000 4.2252 0.0000 41.0918
#
#
#
# Elastic Compliance Matrix: (Units=1/GPa)
#
#
# Indices 1 2 3 4 5 6 
#
# 1 0.010912 -0.003640 -0.004952 0.000000 -0.000990 0.000000
# 2 -0.003640 0.009395 0.000256 0.000000 0.001152 0.000000
# 3 -0.004952 0.000256 0.014940 0.000000 0.003727 0.000000
# 4 0.000000 0.000000 0.000000 0.023377 0.000000 -0.002404
# 5 -0.000990 0.001152 0.003727 0.000000 0.027613 0.000000
# 6 0.000000 0.000000 0.000000 -0.002404 0.000000 0.024583
#
#
# Mechanical properties :
#
#
# Convention : Reuss Voigt Hill
#
# Bulk Modulus (GPa) = 53.83352 60.62083 57.22718
# Shear Modulus (GPa) = 37.40161 39.71680 38.55920
#
# Velocity S-wave (km/s) = 3.81790 3.93430 3.87654
# Velocity P-wave (km/s) = 6.35732 6.65310 6.50689
#
# Compressibility (1/GPa) = 0.01857579
#
# Stress axis : x y z
#
# Youngs Moduli (GPa) = 91.63859 106.44139 66.93443
#
# Poissons Ratio (x) = 0.38742 0.33144
# Poissons Ratio (y) = 0.33354 -0.01712
# Poissons Ratio (z) = 0.45377 -0.02722
#
# Static dielectric constant tensor:
#      x y z
#    x 2.173630 0.000000 0.006510 
#    y 0.000000 1.946270 0.000000 
#    z 0.006510 0.000000 1.986100 
# 
# From -- ./inp_files/31251.got.cif
#   From: 2010.05.17/outbox.cif.g08.bks.cpg/sg13_16_cif.got.tgz:31251.got - 2010.06.03 16:44:36.
