data_PCOD9238208
_publ_section_title
;
Structure prediction by ZEFSAII (Michael W. Deem and Ramdas Pophale) SiO2 
 PCOD9238208
Probable space group: P 2/C
;
_chemical_formula_sum "Si O2"
_cell_formula_units_Z 28
_cell_length_a 16.948739
_cell_length_b 12.472735
_cell_length_c 21.303258
_cell_angle_alpha 90.000000
_cell_angle_beta 164.325534
_cell_angle_gamma 90.000000
_cell_volume 1216.702714
_symmetry_space_group_name_H-M "P 2/C"
_symmetry_group_IT_number 13
_symmetry_cell_setting 'monoclinic'
loop_
_space_group_symop_operation_xyz
x,y,z
-x,y,1/2-z
-x,-y,-z
x,-y,1/2+z
loop_
_atom_site_type_symbol
_atom_site_label
_atom_site_fract_x
_atom_site_fract_y
_atom_site_fract_z
Si Si1 0.200783 0.683798 0.558604
Si Si2 0.440604 0.179977 0.589039
Si Si3 0.500000 0.987894 0.250000
Si Si4 0.852769 0.551773 0.508240
Si Si5 0.211613 0.932637 0.792597
Si Si6 0.000000 0.368625 0.250000
Si Si7 0.946180 0.748667 0.925486
Si Si8 0.134893 0.874537 0.422292
O O1 0.500000 0.672032 0.750000
O O2 0.066080 0.565000 0.456399
O O3 0.259999 0.713465 0.676082
O O4 0.045157 0.773963 0.395721
O O5 0.476660 0.105450 0.676531
O O6 0.260531 0.122105 0.396750
O O7 0.270858 0.289927 0.470614
O O8 0.766620 0.209015 0.818205
O O9 0.530531 0.091000 0.327300
O O10 0.500000 0.557947 0.250000
O O11 0.019277 0.563222 0.702011
O O12 0.955347 0.649165 0.542501
O O13 0.162908 0.843595 0.702935
O O14 0.938442 0.014811 0.592500
O O15 0.500000 0.000000 0.000000
O O16 0.000000 0.872692 0.250000
#
# Coordination Sequence:
#
# PCOD9238208 Si02
#       8
#     4   4   2   4   4   2   4   4
#     4  11  28  48  71  97 140 199 240 293 360 427
#     4  12  23  41  68 109 140 179 230 291 360 416
#     4  12  22  40  68 102 142 180 226 284 352 424
#     4  11  24  48  75 104 140 181 238 308 362 425
#     4  12  27  41  67 105 145 183 228 293 354 427
#     4  12  22  42  74 112 136 176 234 302 366 418
#     4  12  25  47  73 105 145 184 244 299 357 425
#     4  12  25  44  67 100 144 188 236 287 352 436
#
# _framework density 23.013014999999999
#
# number of rings (size 3 to 8) (size 9 to 14) (size 15 to 20)
#    0.000    0.286    6.429    3.000    5.000    1.143 
#    0.000    0.714    0.000    0.000    0.000    0.000 
#    0.000    0.000    0.000    0.000    0.000    0.000 
#
# Total GULP energy -156208.573815 kJ/mol
# GULP energy per Si atom -5578.877636 kJ/mol
# Density = 2.296064 g / cm^3
# Si number density = 23.013015 Si / 1000 Ang^3
#
#
#
# Elastic Constant Matrix: (Units=GPa)
#
#
# Indices 1 2 3 4 5 6 
#
# 1 127.5083 63.4969 35.0010 0.0000 -27.9366 0.0000
# 2 63.4969 164.6029 35.0543 0.0000 -30.8614 0.0000
# 3 35.0010 35.0543 72.4072 0.0000 -34.2814 0.0000
# 4 0.0000 0.0000 0.0000 102.7078 0.0000 130.9011
# 5 -27.9366 -30.8614 -34.2814 0.0000 43.5162 0.0000
# 6 0.0000 0.0000 0.0000 130.9011 0.0000 277.1028
#
#
#
# Elastic Compliance Matrix: (Units=1/GPa)
#
#
# Indices 1 2 3 4 5 6 
#
# 1 0.010628 -0.003079 -0.002313 0.000000 0.002817 0.000000
# 2 -0.003079 0.008026 -0.001018 0.000000 0.002913 0.000000
# 3 -0.002313 -0.001018 0.022929 0.000000 0.015856 0.000000
# 4 0.000000 0.000000 0.000000 0.024467 0.000000 -0.011558
# 5 0.002817 0.002913 0.015856 0.000000 0.039346 0.000000
# 6 0.000000 0.000000 0.000000 -0.011558 0.000000 0.009069
#
#
# Mechanical properties :
#
#
# Convention : Reuss Voigt Hill
#
# Bulk Modulus (GPa) = 34.76692 70.18031 52.47362
# Shear Modulus (GPa) = 36.53037 100.06310 68.29674
#
# Velocity S-wave (km/s) = 3.98851 6.60117 5.45361
# Velocity P-wave (km/s) = 6.02920 9.41609 7.90614
#
# Compressibility (1/GPa) = 0.02876297
#
# Stress axis : x y z
#
# Youngs Moduli (GPa) = 94.08986 124.59488 43.61329
#
# Poissons Ratio (x) = 0.38364 0.10088
# Poissons Ratio (y) = 0.28971 0.04439
# Poissons Ratio (z) = 0.21764 0.12682
#
# Static dielectric constant tensor:
#      x y z
#    x 1.772060 0.000000 -0.454690 
#    y 0.000000 1.937510 0.000000 
#    z -0.454690 0.000000 0.942760 
# 
# From -- ./inp_files/81110.got.cif
#   From: 2010.05.17/outbox.cif.g08.bks.cpg/sg13_41_cif.got.tgz:81110.got - 2010.06.03 16:44:36.
