data_PCOD9238674
_publ_section_title
;
Structure prediction by ZEFSAII (Michael W. Deem and Ramdas Pophale) SiO2 
 PCOD9238674
Probable space group: P 2/C
;
_chemical_formula_sum "Si O2"
_cell_formula_units_Z 10
_cell_length_a 8.983595
_cell_length_b 5.800755
_cell_length_c 9.171389
_cell_angle_alpha 90.000000
_cell_angle_beta 130.565339
_cell_angle_gamma 90.000000
_cell_volume 363.071229
_symmetry_space_group_name_H-M "P 2/C"
_symmetry_group_IT_number 13
_symmetry_cell_setting 'monoclinic'
loop_
_space_group_symop_operation_xyz
x,y,z
-x,y,1/2-z
-x,-y,-z
x,-y,1/2+z
loop_
_atom_site_type_symbol
_atom_site_label
_atom_site_fract_x
_atom_site_fract_y
_atom_site_fract_z
Si Si1 0.831447 0.310715 0.394612
Si Si2 0.500000 0.396826 0.750000
Si Si3 0.715524 0.969462 0.567099
O O1 0.627381 0.440654 0.226925
O O2 0.854786 0.116666 0.285567
O O3 0.000000 0.500000 0.500000
O O4 0.789411 0.188750 0.523046
O O5 0.333615 0.235922 0.575458
O O6 0.500000 0.000000 0.500000
#
# Coordination Sequence:
#
# PCOD9238674 Si02
#       3
#     4   2   4
#     4  12  29  52  86 128 169 225 288 360 429 511
#     4  12  24  50  88 118 172 224 286 352 440 498
#     4  12  24  55  85 118 172 226 289 350 428 519
#
# _framework density 27.542807
#
# number of rings (size 3 to 8) (size 9 to 14) (size 15 to 20)
#    0.000    0.000    8.000    1.200    0.000    3.200 
#    7.200    2.000    0.000    0.000    0.000    0.000 
#    0.000    0.000    0.000    0.000    0.000    0.000 
#
# Total GULP energy -56118.937814 kJ/mol
# GULP energy per Si atom -5611.893781 kJ/mol
# Density = 2.748012 g / cm^3
# Si number density = 27.542807 Si / 1000 Ang^3
#
#
#
# Elastic Constant Matrix: (Units=GPa)
#
#
# Indices 1 2 3 4 5 6 
#
# 1 181.6367 113.8814 65.9243 0.0000 6.3650 0.0000
# 2 113.8814 164.1896 70.6076 0.0000 -2.7228 0.0000
# 3 65.9243 70.6076 142.4725 0.0000 3.3533 0.0000
# 4 0.0000 0.0000 0.0000 63.1509 0.0000 12.8000
# 5 6.3650 -2.7228 3.3533 0.0000 49.1917 0.0000
# 6 0.0000 0.0000 0.0000 12.8000 0.0000 87.1907
#
#
#
# Elastic Compliance Matrix: (Units=1/GPa)
#
#
# Indices 1 2 3 4 5 6 
#
# 1 0.010110 -0.006408 -0.001466 0.000000 -0.001563 0.000000
# 2 -0.006408 0.011825 -0.002935 0.000000 0.001684 0.000000
# 3 -0.001466 -0.002935 0.009166 0.000000 -0.000598 0.000000
# 4 0.000000 0.000000 0.000000 0.016321 0.000000 -0.002396
# 5 -0.001563 0.001684 -0.000598 0.000000 0.020665 0.000000
# 6 0.000000 0.000000 0.000000 -0.002396 0.000000 0.011821
#
#
# Mechanical properties :
#
#
# Convention : Reuss Voigt Hill
#
# Bulk Modulus (GPa) = 105.44305 109.90284 107.67294
# Shear Modulus (GPa) = 47.76269 55.76569 51.76419
#
# Velocity S-wave (km/s) = 4.16880 4.50454 4.33992
# Velocity P-wave (km/s) = 7.84464 8.18802 8.01817
#
# Compressibility (1/GPa) = 0.00948379
#
# Stress axis : x y z
#
# Youngs Moduli (GPa) = 98.91572 84.56700 109.10323
#
# Poissons Ratio (x) = 0.54188 0.15989
# Poissons Ratio (y) = 0.63382 0.32022
# Poissons Ratio (z) = 0.14496 0.24820
#
# Static dielectric constant tensor:
#      x y z
#    x 2.263980 0.000000 -0.049010 
#    y 0.000000 2.201710 0.000000 
#    z -0.049010 0.000000 2.156470 
# 
# From -- ./inp_files/10383.got.cif
#   From: 2010.05.17/outbox.cif.g08.bks.cpg/sg13_6_cif.got.tgz:10383.got - 2010.06.03 16:44:36.
