data_PCOD9238237
_publ_section_title
;
Structure prediction by ZEFSAII (Michael W. Deem and Ramdas Pophale) SiO2 
 PCOD9238237
Probable space group: P 2/C
;
_chemical_formula_sum "Si O2"
_cell_formula_units_Z 20
_cell_length_a 10.456938
_cell_length_b 12.369474
_cell_length_c 10.334447
_cell_angle_alpha 90.000000
_cell_angle_beta 45.176566
_cell_angle_gamma 90.000000
_cell_volume 948.117671
_symmetry_space_group_name_H-M "P 2/C"
_symmetry_group_IT_number 13
_symmetry_cell_setting 'monoclinic'
loop_
_space_group_symop_operation_xyz
x,y,z
-x,y,1/2-z
-x,-y,-z
x,-y,1/2+z
loop_
_atom_site_type_symbol
_atom_site_label
_atom_site_fract_x
_atom_site_fract_y
_atom_site_fract_z
Si Si1 0.844391 0.684769 0.966089
Si Si2 0.718309 0.075483 0.577067
Si Si3 0.161836 0.709152 0.224865
Si Si4 0.385113 0.518535 0.952068
Si Si5 0.687403 0.067379 0.874935
O O1 0.000000 0.664192 0.750000
O O2 0.773930 0.805966 0.992508
O O3 0.889440 0.683942 0.088557
O O4 0.696756 0.593406 0.042416
O O5 0.500000 0.077336 0.750000
O O6 0.790225 0.049442 0.667924
O O7 0.775351 0.984827 0.436765
O O8 0.316557 0.802461 0.113952
O O9 0.000000 0.750518 0.250000
O O10 0.232556 0.601922 0.104803
O O11 0.500000 0.564512 0.750000
O O12 0.500000 0.500000 0.000000
O O13 0.500000 0.000000 0.000000
#
# Coordination Sequence:
#
# PCOD9238237 Si02
#       5
#     4   4   4   4   4
#     4  11  25  43  65  94 136 181 216 278 344 396
#     4   9  19  38  64  91 125 167 217 270 322 394
#     4  11  26  45  66 101 140 174 226 283 338 402
#     4  12  26  44  71  98 130 176 232 275 335 407
#     4   9  20  38  65  93 128 169 217 270 325 396
#
# _framework density 21.094427
#
# number of rings (size 3 to 8) (size 9 to 14) (size 15 to 20)
#    0.000    1.600    2.000    1.200    8.400    6.400 
#    0.000    4.000    0.000    0.000    0.000    0.000 
#    0.000    0.000    0.000    0.000    0.000    0.000 
#
# Total GULP energy -111560.195895 kJ/mol
# GULP energy per Si atom -5578.009795 kJ/mol
# Density = 2.104641 g / cm^3
# Si number density = 21.094427 Si / 1000 Ang^3
#
#
#
# Elastic Constant Matrix: (Units=GPa)
#
#
# Indices 1 2 3 4 5 6 
#
# 1 81.2807 22.1469 35.0876 0.0000 26.0774 0.0000
# 2 22.1469 90.4765 40.8079 0.0000 20.8876 0.0000
# 3 35.0876 40.8079 103.7934 0.0000 18.4203 0.0000
# 4 0.0000 0.0000 0.0000 42.6645 0.0000 6.8349
# 5 26.0774 20.8876 18.4203 0.0000 39.4409 0.0000
# 6 0.0000 0.0000 0.0000 6.8349 0.0000 20.7813
#
#
#
# Elastic Compliance Matrix: (Units=1/GPa)
#
#
# Indices 1 2 3 4 5 6 
#
# 1 0.017090 -0.000213 -0.004043 0.000000 -0.009298 0.000000
# 2 -0.000213 0.014436 -0.004658 0.000000 -0.005329 0.000000
# 3 -0.004043 -0.004658 0.012998 0.000000 -0.000930 0.000000
# 4 0.000000 0.000000 0.000000 0.024742 0.000000 -0.008138
# 5 -0.009298 -0.005329 -0.000930 0.000000 0.034759 0.000000
# 6 0.000000 0.000000 0.000000 -0.008138 0.000000 0.050797
#
#
# Mechanical properties :
#
#
# Convention : Reuss Voigt Hill
#
# Bulk Modulus (GPa) = 37.46042 52.40393 44.93218
# Shear Modulus (GPa) = 27.54097 32.41123 29.97610
#
# Velocity S-wave (km/s) = 3.61723 3.92405 3.77376
# Velocity P-wave (km/s) = 5.93657 6.73998 6.35099
#
# Compressibility (1/GPa) = 0.02669484
#
# Stress axis : x y z
#
# Youngs Moduli (GPa) = 58.51511 69.27199 76.93597
#
# Poissons Ratio (x) = 0.01475 0.31108
# Poissons Ratio (y) = 0.01246 0.35836
# Poissons Ratio (z) = 0.23659 0.32267
#
# Static dielectric constant tensor:
#      x y z
#    x 1.876830 0.000000 -0.000830 
#    y 0.000000 1.734920 0.000000 
#    z -0.000830 0.000000 1.740460 
# 
# From -- ./inp_files/33584.got.cif
#   From: 2010.05.17/outbox.cif.g08.bks.cpg/sg13_17_cif.got.tgz:33584.got - 2010.06.03 16:44:36.
