data_PCOD9238344
_publ_section_title
;
Structure prediction by ZEFSAII (Michael W. Deem and Ramdas Pophale) SiO2 
 PCOD9238344
Probable space group: P 2/C
;
_chemical_formula_sum "Si O2"
_cell_formula_units_Z 20
_cell_length_a 17.650959
_cell_length_b 5.159700
_cell_length_c 25.537505
_cell_angle_alpha 90.000000
_cell_angle_beta 160.283572
_cell_angle_gamma 90.000000
_cell_volume 784.641881
_symmetry_space_group_name_H-M "P 2/C"
_symmetry_group_IT_number 13
_symmetry_cell_setting 'monoclinic'
loop_
_space_group_symop_operation_xyz
x,y,z
-x,y,1/2-z
-x,-y,-z
x,-y,1/2+z
loop_
_atom_site_type_symbol
_atom_site_label
_atom_site_fract_x
_atom_site_fract_y
_atom_site_fract_z
Si Si1 0.471152 0.865577 0.668905
Si Si2 0.148588 0.028314 0.303560
Si Si3 0.821257 0.638811 0.529676
Si Si4 0.406503 0.305558 0.894258
Si Si5 0.136395 0.627134 0.635751
O O1 0.500000 0.828631 0.750000
O O2 0.292078 0.640434 0.537473
O O3 0.702114 0.835398 0.786969
O O4 0.371267 0.146599 0.594436
O O5 0.386754 0.114606 0.481894
O O6 0.000000 0.887466 0.250000
O O7 0.005304 0.276867 0.192219
O O8 0.209034 0.859361 0.292538
O O9 0.949594 0.685164 0.558053
O O10 0.309712 0.450419 0.781581
O O11 0.500000 0.500000 0.000000
O O12 0.000000 0.500000 0.500000
#
# Coordination Sequence:
#
# PCOD9238344 Si02
#       5
#     4   4   4   4   4
#     4  12  28  48  77 116 157 206 271 320 396 489
#     4  11  26  46  79 108 153 206 262 339 400 470
#     4  12  27  50  76 118 153 206 270 324 402 475
#     4  11  25  49  72 114 154 200 273 318 399 486
#     4  12  27  52  81 112 166 213 256 340 400 472
#
# _framework density 25.489336000000002
#
# number of rings (size 3 to 8) (size 9 to 14) (size 15 to 20)
#    0.000    0.400    4.000    3.000    2.800    4.800 
#    0.000    0.000    0.000    0.000    0.000    0.000 
#    0.000    0.000    0.000    0.000    0.000    0.000 
#
# Total GULP energy -112221.636891 kJ/mol
# GULP energy per Si atom -5611.081845 kJ/mol
# Density = 2.543132 g / cm^3
# Si number density = 25.489336 Si / 1000 Ang^3
#
#
#
# Elastic Constant Matrix: (Units=GPa)
#
#
# Indices 1 2 3 4 5 6 
#
# 1 156.8960 4.5760 37.5728 0.0000 15.6392 0.0000
# 2 4.5760 57.7768 16.1403 0.0000 -1.7405 0.0000
# 3 37.5728 16.1403 104.1027 0.0000 -3.1407 0.0000
# 4 0.0000 0.0000 0.0000 42.0848 0.0000 11.0247
# 5 15.6392 -1.7405 -3.1407 0.0000 71.4230 0.0000
# 6 0.0000 0.0000 0.0000 11.0247 0.0000 30.1631
#
#
#
# Elastic Compliance Matrix: (Units=1/GPa)
#
#
# Indices 1 2 3 4 5 6 
#
# 1 0.007175 0.000124 -0.002660 0.000000 -0.001685 0.000000
# 2 0.000124 0.018101 -0.002842 0.000000 0.000289 0.000000
# 3 -0.002660 -0.002842 0.011037 0.000000 0.000998 0.000000
# 4 0.000000 0.000000 0.000000 0.026278 0.000000 -0.009604
# 5 -0.001685 0.000289 0.000998 0.000000 0.014421 0.000000
# 6 0.000000 0.000000 0.000000 -0.009604 0.000000 0.036664
#
#
# Mechanical properties :
#
#
# Convention : Reuss Voigt Hill
#
# Bulk Modulus (GPa) = 39.12937 48.37267 43.75102
# Shear Modulus (GPa) = 37.60827 46.09994 41.85411
#
# Velocity S-wave (km/s) = 3.84533 4.25737 4.05659
# Velocity P-wave (km/s) = 5.92452 6.57159 6.25643
#
# Compressibility (1/GPa) = 0.02555625
#
# Stress axis : x y z
#
# Youngs Moduli (GPa) = 139.37459 55.24582 90.60738
#
# Poissons Ratio (x) = -0.00685 0.24098
# Poissons Ratio (y) = -0.01728 0.25755
# Poissons Ratio (z) = 0.37068 0.15703
#
# Static dielectric constant tensor:
#      x y z
#    x 1.408780 0.000000 -0.045980 
#    y 0.000000 2.014450 0.000000 
#    z -0.045980 0.000000 2.048840 
# 
# From -- ./inp_files/93205.got.cif
#   From: 2010.05.17/outbox.cif.g08.bks.cpg/sg13_47_cif.got.tgz:93205.got - 2010.06.03 16:44:36.
