data_PCOD9238760
_publ_section_title
;
Structure prediction by ZEFSAII (Michael W. Deem and Ramdas Pophale) SiO2 
 PCOD9238760
Probable space group: P 2/C
;
_chemical_formula_sum "Si O2"
_cell_formula_units_Z 16
_cell_length_a 5.022518
_cell_length_b 4.814915
_cell_length_c 23.060942
_cell_angle_alpha 90.000000
_cell_angle_beta 102.215421
_cell_angle_gamma 90.000000
_cell_volume 545.056193
_symmetry_space_group_name_H-M "P 2/C"
_symmetry_group_IT_number 13
_symmetry_cell_setting 'monoclinic'
loop_
_space_group_symop_operation_xyz
x,y,z
-x,y,1/2-z
-x,-y,-z
x,-y,1/2+z
loop_
_atom_site_type_symbol
_atom_site_label
_atom_site_fract_x
_atom_site_fract_y
_atom_site_fract_z
Si Si1 0.500000 0.500000 0.500000
Si Si2 0.322966 0.273256 0.616306
Si Si3 0.705591 0.077411 0.210500
Si Si4 0.500000 0.000000 0.500000
Si Si5 0.939432 0.231193 0.107085
O O1 0.712545 0.740497 0.546429
O O2 0.726602 0.247870 0.493605
O O3 0.192834 0.568037 0.619216
O O4 0.542715 0.172860 0.672742
O O5 0.443767 0.245212 0.556399
O O6 0.067664 0.070440 0.612437
O O7 0.500000 0.188721 0.250000
O O8 0.000000 0.998952 0.250000
O O9 0.778227 0.272689 0.159654
#
# Coordination Sequence:
#
# PCOD9238760 Si02
#       5
#     2   4   4   2   4
#     4  12  26  48  82 124 168 220 280 350 440 524
#     4  12  29  56  85 126 176 231 290 362 446 525
#     4  12  28  62  88 128 174 238 304 370 438 534
#     4  12  26  48  82 124 168 220 280 350 440 524
#     4  12  29  56  85 126 176 231 290 362 446 525
#
# _framework density 29.354773000000002
#
# number of rings (size 3 to 8) (size 9 to 14) (size 15 to 20)
#    0.000    0.000    5.000    3.000    0.000    6.000 
#   13.500    0.000    0.000    0.000    0.000    0.000 
#    0.000    0.000    0.000    0.000    0.000    0.000 
#
# Total GULP energy -89511.271282 kJ/mol
# GULP energy per Si atom -5594.454455 kJ/mol
# Density = 2.928796 g / cm^3
# Si number density = 29.354773 Si / 1000 Ang^3
#
#
#
# Elastic Constant Matrix: (Units=GPa)
#
#
# Indices 1 2 3 4 5 6 
#
# 1 239.5063 4.2092 90.3994 0.0000 28.9909 0.0000
# 2 4.2092 203.9991 15.8200 0.0000 2.0794 0.0000
# 3 90.3994 15.8200 192.5404 0.0000 4.9616 0.0000
# 4 0.0000 0.0000 0.0000 28.0758 0.0000 -17.5966
# 5 28.9909 2.0794 4.9616 0.0000 78.9598 0.0000
# 6 0.0000 0.0000 0.0000 -17.5966 0.0000 64.4220
#
#
#
# Elastic Compliance Matrix: (Units=1/GPa)
#
#
# Indices 1 2 3 4 5 6 
#
# 1 0.005320 0.000099 -0.002459 0.000000 -0.001801 0.000000
# 2 0.000099 0.004936 -0.000449 0.000000 -0.000138 0.000000
# 3 -0.002459 -0.000449 0.006372 0.000000 0.000514 0.000000
# 4 0.000000 0.000000 0.000000 0.042975 0.000000 0.011738
# 5 -0.001801 -0.000138 0.000514 0.000000 0.013297 0.000000
# 6 0.000000 0.000000 0.000000 0.011738 0.000000 0.018729
#
#
# Mechanical properties :
#
#
# Convention : Reuss Voigt Hill
#
# Bulk Modulus (GPa) = 90.82256 95.21146 93.01701
# Shear Modulus (GPa) = 49.54563 69.33266 59.43914
#
# Velocity S-wave (km/s) = 4.11277 4.86520 4.50472
# Velocity P-wave (km/s) = 7.31847 8.00408 7.66894
#
# Compressibility (1/GPa) = 0.01101048
#
# Stress axis : x y z
#
# Youngs Moduli (GPa) = 187.97530 202.58767 156.93515
#
# Poissons Ratio (x) = -0.02012 0.38598
# Poissons Ratio (y) = -0.01867 0.07041
# Poissons Ratio (z) = 0.46232 0.09089
#
# Static dielectric constant tensor:
#      x y z
#    x 2.157530 0.000000 0.054140 
#    y 0.000000 2.552500 0.000000 
#    z 0.054140 0.000000 2.432950 
# 
# From -- ./inp_files/89773.got.cif
#   From: 2010.05.17/outbox.cif.g08.bks.cpg/sg13_45_cif.got.tgz:89773.got - 2010.06.03 16:44:36.
