data_PCOD9238757
_publ_section_title
;
Structure prediction by ZEFSAII (Michael W. Deem and Ramdas Pophale) SiO2 
 PCOD9238757
Probable space group: P 2/C
;
_chemical_formula_sum "Si O2"
_cell_formula_units_Z 14
_cell_length_a 8.163465
_cell_length_b 8.780113
_cell_length_c 9.251562
_cell_angle_alpha 90.000000
_cell_angle_beta 63.599856
_cell_angle_gamma 90.000000
_cell_volume 593.960328
_symmetry_space_group_name_H-M "P 2/C"
_symmetry_group_IT_number 13
_symmetry_cell_setting 'monoclinic'
loop_
_space_group_symop_operation_xyz
x,y,z
-x,y,1/2-z
-x,-y,-z
x,-y,1/2+z
loop_
_atom_site_type_symbol
_atom_site_label
_atom_site_fract_x
_atom_site_fract_y
_atom_site_fract_z
Si Si1 0.155455 0.578469 0.840752
Si Si2 0.641357 0.607049 0.026173
Si Si3 0.500000 0.888504 0.250000
Si Si4 0.865220 0.078301 0.163730
O O1 0.187592 0.597317 0.655127
O O2 0.176459 0.752954 0.878966
O O3 0.311911 0.468166 0.839605
O O4 0.000000 0.500000 0.000000
O O5 0.500000 0.500000 0.000000
O O6 0.576997 0.777685 0.091310
O O7 0.672502 0.986436 0.242759
O O8 0.000000 0.087649 0.250000
O O9 0.000000 0.000000 0.000000
#
# Coordination Sequence:
#
# PCOD9238757 Si02
#       4
#     4   4   2   4
#     4  12  26  49  76 113 157 205 268 329 394 481
#     4  12  26  48  76 113 149 203 269 319 398 477
#     4  12  28  52  84 116 166 210 268 340 412 476
#     4  12  30  50  78 118 162 209 266 333 408 480
#
# _framework density 23.570599000000001
#
# number of rings (size 3 to 8) (size 9 to 14) (size 15 to 20)
#    0.000    0.000    2.857    6.000    8.000    2.286 
#    0.000    0.000    0.000    0.000    0.000    0.000 
#    0.000    0.000    0.000    0.000    0.000    0.000 
#
# Total GULP energy -77989.978514 kJ/mol
# GULP energy per Si atom -5570.712751 kJ/mol
# Density = 2.351695 g / cm^3
# Si number density = 23.570599 Si / 1000 Ang^3
#
#
#
# Elastic Constant Matrix: (Units=GPa)
#
#
# Indices 1 2 3 4 5 6 
#
# 1 124.0847 66.2250 44.7856 0.0000 -28.1197 0.0000
# 2 66.2250 191.1417 60.3317 0.0000 -15.3933 0.0000
# 3 44.7856 60.3317 167.5261 0.0000 -29.4337 0.0000
# 4 0.0000 0.0000 0.0000 53.8891 0.0000 -15.7032
# 5 -28.1197 -15.3933 -29.4337 0.0000 40.4124 0.0000
# 6 0.0000 0.0000 0.0000 -15.7032 0.0000 50.2774
#
#
#
# Elastic Compliance Matrix: (Units=1/GPa)
#
#
# Indices 1 2 3 4 5 6 
#
# 1 0.011469 -0.003217 -0.000826 0.000000 0.006153 0.000000
# 2 -0.003217 0.006828 -0.001761 0.000000 -0.000920 0.000000
# 3 -0.000826 -0.001761 0.007575 0.000000 0.004271 0.000000
# 4 0.000000 0.000000 0.000000 0.020415 0.000000 0.006376
# 5 0.006153 -0.000920 0.004271 0.000000 0.031787 0.000000
# 6 0.000000 0.000000 0.000000 0.006376 0.000000 0.021881
#
#
# Mechanical properties :
#
#
# Convention : Reuss Voigt Hill
#
# Bulk Modulus (GPa) = 70.11132 91.71523 80.91328
# Shear Modulus (GPa) = 42.98631 49.67646 46.33139
#
# Velocity S-wave (km/s) = 4.27514 4.59580 4.43837
# Velocity P-wave (km/s) = 7.36064 8.19495 7.78897
#
# Compressibility (1/GPa) = 0.01426303
#
# Stress axis : x y z
#
# Youngs Moduli (GPa) = 87.19429 146.45573 132.02008
#
# Poissons Ratio (x) = 0.47118 0.10909
# Poissons Ratio (y) = 0.28052 0.23243
# Poissons Ratio (z) = 0.07205 0.25784
#
# Static dielectric constant tensor:
#      x y z
#    x 2.155740 0.000000 -0.122740 
#    y 0.000000 1.775550 0.000000 
#    z -0.122740 0.000000 1.869370 
# 
# From -- ./inp_files/10540.got.cif
#   From: 2010.05.17/outbox.cif.g08.bks.cpg/sg13_6_cif.got.tgz:10540.got - 2010.06.03 16:44:36.
