data_PCOD9238204
_publ_section_title
;
Structure prediction by ZEFSAII (Michael W. Deem and Ramdas Pophale) SiO2 
 PCOD9238204
Probable space group: P 2/C
;
_chemical_formula_sum "Si O2"
_cell_formula_units_Z 18
_cell_length_a 12.230850
_cell_length_b 5.218252
_cell_length_c 14.415404
_cell_angle_alpha 90.000000
_cell_angle_beta 135.621419
_cell_angle_gamma 90.000000
_cell_volume 643.475142
_symmetry_space_group_name_H-M "P 2/C"
_symmetry_group_IT_number 13
_symmetry_cell_setting 'monoclinic'
loop_
_space_group_symop_operation_xyz
x,y,z
-x,y,1/2-z
-x,-y,-z
x,-y,1/2+z
loop_
_atom_site_type_symbol
_atom_site_label
_atom_site_fract_x
_atom_site_fract_y
_atom_site_fract_z
Si Si1 0.949677 0.502777 0.624149
Si Si2 0.306094 0.864405 0.482472
Si Si3 0.144885 0.805740 0.101566
Si Si4 0.437196 0.737906 0.377111
Si Si5 0.500000 0.356575 0.250000
O O1 0.866530 0.242607 0.609690
O O2 0.838820 0.674902 0.490414
O O3 0.000000 0.640124 0.750000
O O4 0.086636 0.414961 0.638238
O O5 0.376259 0.683314 0.443216
O O6 0.370802 0.814330 0.624001
O O7 0.394380 0.126374 0.510928
O O8 0.296829 0.915142 0.247269
O O9 0.000000 0.000000 0.000000
O O10 0.441789 0.528375 0.299604
#
# Coordination Sequence:
#
# PCOD9238204 Si02
#       5
#     4   4   4   4   2
#     4  11  24  48  73 103 142 191 235 292 363 428
#     4  11  25  44  71 102 141 184 241 296 353 430
#     4  11  26  45  72 105 143 183 238 295 359 429
#     4  11  25  46  69 104 140 188 239 293 360 425
#     4  12  24  44  70  96 140 186 240 294 354 416
#
# _framework density 27.973108
#
# number of rings (size 3 to 8) (size 9 to 14) (size 15 to 20)
#    0.000    0.889    4.444    1.333    6.222    0.889 
#    8.000    0.000    0.000    0.000    0.000    0.000 
#    0.000    0.000    0.000    0.000    0.000    0.000 
#
# Total GULP energy -100628.157567 kJ/mol
# GULP energy per Si atom -5590.453198 kJ/mol
# Density = 2.790944 g / cm^3
# Si number density = 27.973108 Si / 1000 Ang^3
#
#
#
# Elastic Constant Matrix: (Units=GPa)
#
#
# Indices 1 2 3 4 5 6 
#
# 1 145.6610 16.3907 44.8005 0.0000 -37.1074 0.0000
# 2 16.3907 75.4489 22.4262 0.0000 -9.6159 0.0000
# 3 44.8005 22.4262 193.4310 0.0000 -35.3764 0.0000
# 4 0.0000 0.0000 0.0000 37.7640 0.0000 -9.9338
# 5 -37.1074 -9.6159 -35.3764 0.0000 65.7892 0.0000
# 6 0.0000 0.0000 0.0000 -9.9338 0.0000 47.2780
#
#
#
# Elastic Compliance Matrix: (Units=1/GPa)
#
#
# Indices 1 2 3 4 5 6 
#
# 1 0.008320 -0.000979 -0.001088 0.000000 0.003964 0.000000
# 2 -0.000979 0.013939 -0.001240 0.000000 0.000819 0.000000
# 3 -0.001088 -0.001240 0.006011 0.000000 0.002437 0.000000
# 4 0.000000 0.000000 0.000000 0.028029 0.000000 0.005889
# 5 0.003964 0.000819 0.002437 0.000000 0.018866 0.000000
# 6 0.000000 0.000000 0.000000 0.005889 0.000000 0.022389
#
#
# Mechanical properties :
#
#
# Convention : Reuss Voigt Hill
#
# Bulk Modulus (GPa) = 46.17395 64.64174 55.40784
# Shear Modulus (GPa) = 44.88788 52.22781 48.55784
#
# Velocity S-wave (km/s) = 4.01019 4.32565 4.17090
# Velocity P-wave (km/s) = 6.16316 6.93592 6.56093
#
# Compressibility (1/GPa) = 0.02165723
#
# Stress axis : x y z
#
# Youngs Moduli (GPa) = 120.19042 71.73882 166.35073
#
# Poissons Ratio (x) = 0.07021 0.18107
# Poissons Ratio (y) = 0.11763 0.20623
# Poissons Ratio (z) = 0.13083 0.08894
#
# Static dielectric constant tensor:
#      x y z
#    x 2.244980 0.000000 0.200280 
#    y 0.000000 2.433470 0.000000 
#    z 0.200280 0.000000 2.252420 
# 
# From -- ./inp_files/52449.got.cif
#   From: 2010.05.17/outbox.cif.g08.bks.cpg/sg13_27_cif.got.tgz:52449.got - 2010.06.03 16:44:36.
