data_PCOD9238130
_publ_section_title
;
Structure prediction by ZEFSAII (Michael W. Deem and Ramdas Pophale) SiO2 
 PCOD9238130
Probable space group: P 2/C
;
_chemical_formula_sum "Si O2"
_cell_formula_units_Z 18
_cell_length_a 6.704451
_cell_length_b 7.440135
_cell_length_c 20.884197
_cell_angle_alpha 90.000000
_cell_angle_beta 55.190842
_cell_angle_gamma 90.000000
_cell_volume 855.333817
_symmetry_space_group_name_H-M "P 2/C"
_symmetry_group_IT_number 13
_symmetry_cell_setting 'monoclinic'
loop_
_space_group_symop_operation_xyz
x,y,z
-x,y,1/2-z
-x,-y,-z
x,-y,1/2+z
loop_
_atom_site_type_symbol
_atom_site_label
_atom_site_fract_x
_atom_site_fract_y
_atom_site_fract_z
Si Si1 0.295903 0.671586 0.406501
Si Si2 0.558486 0.972306 0.415946
Si Si3 0.073098 0.138602 0.302826
Si Si4 0.189672 0.261342 0.423670
Si Si5 0.500000 0.875529 0.250000
O O1 0.307443 0.457962 0.406960
O O2 0.346323 0.752530 0.326949
O O3 0.043257 0.734861 0.486085
O O4 0.504288 0.767507 0.408791
O O5 0.372373 0.103827 0.411657
O O6 0.836711 0.018561 0.355976
O O7 0.500000 0.000000 0.500000
O O8 0.114799 0.238853 0.362709
O O9 0.000000 0.241225 0.250000
O O10 0.305999 0.009000 0.252348
#
# Coordination Sequence:
#
# PCOD9238130 Si02
#       5
#     4   4   4   4   2
#     4  11  24  45  72 102 142 181 227 292 353 416
#     4  12  23  43  74  99 137 188 233 287 347 428
#     4  12  23  42  73 100 135 191 238 285 354 417
#     4  11  25  47  70 103 144 182 232 292 355 416
#     4  12  24  44  70 102 142 182 232 292 354 412
#
# _framework density 21.044415000000001
#
# number of rings (size 3 to 8) (size 9 to 14) (size 15 to 20)
#    0.000    0.444    6.667    2.000    0.000    3.556 
#    4.000    1.111    4.889    0.000    0.000    0.000 
#    0.000    0.000    0.000    0.000    0.000    0.000 
#
# Total GULP energy -100512.230652 kJ/mol
# GULP energy per Si atom -5584.012814 kJ/mol
# Density = 2.099652 g / cm^3
# Si number density = 21.044415 Si / 1000 Ang^3
#
#
#
# Elastic Constant Matrix: (Units=GPa)
#
#
# Indices 1 2 3 4 5 6 
#
# 1 116.9342 50.4963 42.4940 0.0000 12.9537 0.0000
# 2 50.4963 112.7055 42.4455 0.0000 2.2602 0.0000
# 3 42.4940 42.4455 142.8248 0.0000 17.0187 0.0000
# 4 0.0000 0.0000 0.0000 14.4654 0.0000 11.5719
# 5 12.9537 2.2602 17.0187 0.0000 48.1701 0.0000
# 6 0.0000 0.0000 0.0000 11.5719 0.0000 24.8099
#
#
#
# Elastic Compliance Matrix: (Units=1/GPa)
#
#
# Indices 1 2 3 4 5 6 
#
# 1 0.011335 -0.004350 -0.001817 0.000000 -0.002202 0.000000
# 2 -0.004350 0.011677 -0.002349 0.000000 0.001452 0.000000
# 3 -0.001817 -0.002349 0.008528 0.000000 -0.002414 0.000000
# 4 0.000000 0.000000 0.000000 0.110277 0.000000 -0.051436
# 5 -0.002202 0.001452 -0.002414 0.000000 0.022137 0.000000
# 6 0.000000 0.000000 0.000000 -0.051436 0.000000 0.064297
#
#
# Mechanical properties :
#
#
# Convention : Reuss Voigt Hill
#
# Bulk Modulus (GPa) = 68.93003 71.48180 70.20592
# Shear Modulus (GPa) = 19.99050 33.29100 26.64075
#
# Velocity S-wave (km/s) = 3.08542 3.98168 3.56185
# Velocity P-wave (km/s) = 6.74676 7.42827 7.09570
#
# Compressibility (1/GPa) = 0.01450746
#
# Stress axis : x y z
#
# Youngs Moduli (GPa) = 88.22613 85.63770 117.26032
#
# Poissons Ratio (x) = 0.37250 0.21309
# Poissons Ratio (y) = 0.38376 0.27546
# Poissons Ratio (z) = 0.16033 0.20117
#
# Static dielectric constant tensor:
#      x y z
#    x 1.753490 0.000000 0.053850 
#    y 0.000000 1.717820 0.000000 
#    z 0.053850 0.000000 1.862330 
# 
# From -- ./inp_files/72925.got.cif
#   From: 2010.05.17/outbox.cif.g08.bks.cpg/sg13_37_cif.got.tgz:72925.got - 2010.06.03 16:44:36.
