data_PCOD9238841
_publ_section_title
;
Structure prediction by ZEFSAII (Michael W. Deem and Ramdas Pophale) SiO2 
 PCOD9238841
Probable space group: P 2/C
;
_chemical_formula_sum "Si O2"
_cell_formula_units_Z 20
_cell_length_a 6.425263
_cell_length_b 11.071714
_cell_length_c 17.964706
_cell_angle_alpha 90.000000
_cell_angle_beta 145.162246
_cell_angle_gamma 90.000000
_cell_volume 730.054925
_symmetry_space_group_name_H-M "P 2/C"
_symmetry_group_IT_number 13
_symmetry_cell_setting 'monoclinic'
loop_
_space_group_symop_operation_xyz
x,y,z
-x,y,1/2-z
-x,-y,-z
x,-y,1/2+z
loop_
_atom_site_type_symbol
_atom_site_label
_atom_site_fract_x
_atom_site_fract_y
_atom_site_fract_z
Si Si1 0.549867 0.243899 0.949854
Si Si2 0.654513 0.502984 0.953968
Si Si3 0.153609 0.620579 0.702754
Si Si4 0.772832 0.911152 0.034462
Si Si5 0.638630 0.017656 0.699067
O O1 0.255799 0.210735 0.926994
O O2 0.923874 0.262735 0.107357
O O3 0.478876 0.371079 0.890979
O O4 0.547149 0.141089 0.886344
O O5 0.363705 0.604048 0.843055
O O6 0.000000 0.500000 0.000000
O O7 0.867903 0.487167 0.095517
O O8 0.500000 0.612893 0.750000
O O9 0.618427 0.910369 0.906346
O O10 0.166089 0.967796 0.163952
O O11 0.500000 0.000000 0.000000
O O12 0.000000 0.006764 0.750000
#
# Coordination Sequence:
#
# PCOD9238841 Si02
#       5
#     4   4   4   4   4
#     4   8  14  22  42  60  84 109 144 165 221 245
#     4   8  14  24  40  57  83 112 146 172 203 244
#     4   8  14  24  40  57  80 112 147 175 203 240
#     4   8  14  26  46  65  82 106 140 178 219 258
#     4   8  14  26  46  65  82 106 140 178 219 258
#
# _framework density 27.395199999999999
#
# number of rings (size 3 to 8) (size 9 to 14) (size 15 to 20)
#    1.200    3.200    0.000    0.000    0.000    0.000 
#    0.000    0.000   26.400   10.800    0.000   22.400 
#    0.000    0.000    0.000    0.000    0.000    0.000 
#
# Total GULP energy -111393.530069 kJ/mol
# GULP energy per Si atom -5569.676503 kJ/mol
# Density = 2.733285 g / cm^3
# Si number density = 27.395200 Si / 1000 Ang^3
#
#
#
# Elastic Constant Matrix: (Units=GPa)
#
#
# Indices 1 2 3 4 5 6 
#
# 1 33.5855 11.8830 38.0814 0.0000 -3.9340 0.0000
# 2 11.8830 67.4036 14.2959 0.0000 -7.2622 0.0000
# 3 38.0814 14.2959 229.8010 0.0000 -1.8477 0.0000
# 4 0.0000 0.0000 0.0000 56.8323 0.0000 -7.5009
# 5 -3.9340 -7.2622 -1.8477 0.0000 72.2664 0.0000
# 6 0.0000 0.0000 0.0000 -7.5009 0.0000 28.0287
#
#
#
# Elastic Compliance Matrix: (Units=1/GPa)
#
#
# Indices 1 2 3 4 5 6 
#
# 1 0.038731 -0.005388 -0.006072 0.000000 0.001412 0.000000
# 2 -0.005388 0.015946 -0.000089 0.000000 0.001307 0.000000
# 3 -0.006072 -0.000089 0.005362 0.000000 -0.000202 0.000000
# 4 0.000000 0.000000 0.000000 0.018240 0.000000 0.004881
# 5 0.001412 0.001307 -0.000202 0.000000 0.014041 0.000000
# 6 0.000000 0.000000 0.000000 0.004881 0.000000 0.036984
#
#
# Mechanical properties :
#
#
# Convention : Reuss Voigt Hill
#
# Bulk Modulus (GPa) = 27.07013 51.03454 39.05234
# Shear Modulus (GPa) = 30.35570 49.19413 39.77491
#
# Velocity S-wave (km/s) = 3.33237 4.24219 3.81451
# Velocity P-wave (km/s) = 4.97082 6.53180 5.80403
#
# Compressibility (1/GPa) = 0.03694109
#
# Stress axis : x y z
#
# Youngs Moduli (GPa) = 25.81905 62.71357 186.50961
#
# Poissons Ratio (x) = 0.33792 1.13244
# Poissons Ratio (y) = 0.13912 0.01651
# Poissons Ratio (z) = 0.15677 0.00555
#
# Static dielectric constant tensor:
#      x y z
#    x 2.655610 0.000000 -0.116950 
#    y 0.000000 2.188090 0.000000 
#    z -0.116950 0.000000 2.205060 
# 
# From -- ./inp_files/76559.got.cif
#   From: 2010.05.17/outbox.cif.g08.bks.cpg/sg13_39_cif.got.tgz:76559.got - 2010.06.03 16:44:36.
