data_PCOD9238772
_publ_section_title
;
Structure prediction by ZEFSAII (Michael W. Deem and Ramdas Pophale) SiO2 
 PCOD9238772
Probable space group: P 2/C
;
_chemical_formula_sum "Si O2"
_cell_formula_units_Z 16
_cell_length_a 28.831226
_cell_length_b 5.010152
_cell_length_c 13.669789
_cell_angle_alpha 90.000000
_cell_angle_beta 161.896011
_cell_angle_gamma 90.000000
_cell_volume 613.587672
_symmetry_space_group_name_H-M "P 2/C"
_symmetry_group_IT_number 13
_symmetry_cell_setting 'monoclinic'
loop_
_space_group_symop_operation_xyz
x,y,z
-x,y,1/2-z
-x,-y,-z
x,-y,1/2+z
loop_
_atom_site_type_symbol
_atom_site_label
_atom_site_fract_x
_atom_site_fract_y
_atom_site_fract_z
Si Si1 0.718461 0.179787 0.798168
Si Si2 0.780454 0.328463 0.301171
Si Si3 0.847988 0.052747 0.252089
Si Si4 0.589048 0.615445 0.771248
O O1 0.500000 0.500000 0.500000
O O2 0.804936 0.389947 0.902886
O O3 0.764547 0.226564 0.002582
O O4 0.541411 0.216175 0.438882
O O5 0.753228 0.114248 0.330274
O O6 0.886122 0.200918 0.430132
O O7 0.639095 0.387039 0.946906
O O8 0.734406 0.803676 0.043121
O O9 0.000000 0.000000 0.500000
#
# Coordination Sequence:
#
# PCOD9238772 Si02
#       4
#     4   4   4   4
#     4  12  28  49  84 116 156 204 273 331 397 470
#     4  12  28  50  82 120 153 209 270 328 398 477
#     4  12  30  55  76 119 170 214 261 335 411 493
#     4  12  26  50  84 113 162 206 275 333 404 467
#
# _framework density 26.076143999999999
#
# number of rings (size 3 to 8) (size 9 to 14) (size 15 to 20)
#    0.000    0.000    5.000    3.000    7.000    2.000 
#    4.500    0.000    0.000    0.000    0.000    0.000 
#    0.000    0.000    0.000    0.000    0.000    0.000 
#
# Total GULP energy -89572.003554 kJ/mol
# GULP energy per Si atom -5598.250222 kJ/mol
# Density = 2.601679 g / cm^3
# Si number density = 26.076144 Si / 1000 Ang^3
#
#
#
# Elastic Constant Matrix: (Units=GPa)
#
#
# Indices 1 2 3 4 5 6 
#
# 1 129.6057 23.6147 34.3269 0.0000 4.4373 0.0000
# 2 23.6147 105.8016 20.6460 0.0000 1.2417 0.0000
# 3 34.3269 20.6460 72.7965 0.0000 14.4805 0.0000
# 4 0.0000 0.0000 0.0000 26.0853 0.0000 -8.5062
# 5 4.4373 1.2417 14.4805 0.0000 79.1619 0.0000
# 6 0.0000 0.0000 0.0000 -8.5062 0.0000 55.3263
#
#
#
# Elastic Compliance Matrix: (Units=1/GPa)
#
#
# Indices 1 2 3 4 5 6 
#
# 1 0.008973 -0.001239 -0.003927 0.000000 0.000235 0.000000
# 2 -0.001239 0.010187 -0.002373 0.000000 0.000344 0.000000
# 3 -0.003927 -0.002373 0.016822 0.000000 -0.002820 0.000000
# 4 0.000000 0.000000 0.000000 0.040359 0.000000 0.006205
# 5 0.000235 0.000344 -0.002820 0.000000 0.013130 0.000000
# 6 0.000000 0.000000 0.000000 0.006205 0.000000 0.019029
#
#
# Mechanical properties :
#
#
# Convention : Reuss Voigt Hill
#
# Bulk Modulus (GPa) = 47.83558 51.70876 49.77217
# Shear Modulus (GPa) = 38.30027 47.42246 42.86136
#
# Velocity S-wave (km/s) = 3.83663 4.26915 4.05866
# Velocity P-wave (km/s) = 6.16528 6.64634 6.41032
#
# Compressibility (1/GPa) = 0.02090494
#
# Stress axis : x y z
#
# Youngs Moduli (GPa) = 111.43948 98.16090 59.44425
#
# Poissons Ratio (x) = 0.12166 0.23341
# Poissons Ratio (y) = 0.13812 0.14107
# Poissons Ratio (z) = 0.43758 0.23296
#
# Static dielectric constant tensor:
#      x y z
#    x 2.142840 0.000000 0.100110 
#    y 0.000000 2.095230 0.000000 
#    z 0.100110 0.000000 2.103400 
# 
# From -- ./inp_files/42000.got.cif
#   From: 2010.05.17/outbox.cif.g08.bks.cpg/sg13_21_cif.got.tgz:42000.got - 2010.06.03 16:44:36.
