data_PCOD9238209
_publ_section_title
;
Structure prediction by ZEFSAII (Michael W. Deem and Ramdas Pophale) SiO2 
 PCOD9238209
Probable space group: P 2/C
;
_chemical_formula_sum "Si O2"
_cell_formula_units_Z 14
_cell_length_a 6.272992
_cell_length_b 5.217174
_cell_length_c 15.782249
_cell_angle_alpha 90.000000
_cell_angle_beta 98.530838
_cell_angle_gamma 90.000000
_cell_volume 510.795668
_symmetry_space_group_name_H-M "P 2/C"
_symmetry_group_IT_number 13
_symmetry_cell_setting 'monoclinic'
loop_
_space_group_symop_operation_xyz
x,y,z
-x,y,1/2-z
-x,-y,-z
x,-y,1/2+z
loop_
_atom_site_type_symbol
_atom_site_label
_atom_site_fract_x
_atom_site_fract_y
_atom_site_fract_z
Si Si1 0.630033 0.562783 0.186521
Si Si2 0.958705 0.744266 0.590195
Si Si3 0.000000 0.882912 0.250000
Si Si4 0.665214 0.053196 0.934629
O O1 0.500000 0.396364 0.250000
O O2 0.789003 0.454396 0.122865
O O3 0.476207 0.774455 0.135788
O O4 0.802653 0.701649 0.256728
O O5 0.940582 0.955273 0.664355
O O6 0.858362 0.788619 0.491054
O O7 0.217509 0.789350 0.589283
O O8 0.500000 0.000000 0.000000
#
# Coordination Sequence:
#
# PCOD9238209 Si02
#       4
#     4   4   2   4
#     4  12  26  47  78 112 156 212 267 327 410 467
#     4  11  26  45  75 114 153 206 269 328 393 486
#     4  12  24  48  70 114 154 198 274 328 382 492
#     4  11  24  48  75 108 162 207 262 336 397 474
#
# _framework density 27.408221000000001
#
# number of rings (size 3 to 8) (size 9 to 14) (size 15 to 20)
#    0.000    0.571    5.714    1.714    0.000    6.857 
#    0.000    0.000    0.000    0.000    0.000    0.000 
#    0.000    0.000    0.000    0.000    0.000    0.000 
#
# Total GULP energy -78003.879278 kJ/mol
# GULP energy per Si atom -5571.705663 kJ/mol
# Density = 2.734584 g / cm^3
# Si number density = 27.408221 Si / 1000 Ang^3
#
#
#
# Elastic Constant Matrix: (Units=GPa)
#
#
# Indices 1 2 3 4 5 6 
#
# 1 219.0092 58.0688 84.8736 0.0000 -29.5912 0.0000
# 2 58.0688 45.4063 18.1676 0.0000 3.5320 0.0000
# 3 84.8736 18.1676 90.2010 0.0000 5.4468 0.0000
# 4 0.0000 0.0000 0.0000 24.2284 0.0000 11.4011
# 5 -29.5912 3.5320 5.4468 0.0000 86.4162 0.0000
# 6 0.0000 0.0000 0.0000 11.4011 0.0000 36.8278
#
#
#
# Elastic Compliance Matrix: (Units=1/GPa)
#
#
# Indices 1 2 3 4 5 6 
#
# 1 0.012061 -0.012141 -0.009218 0.000000 0.005207 0.000000
# 2 -0.012141 0.036216 0.004487 0.000000 -0.005921 0.000000
# 3 -0.009218 0.004487 0.019130 0.000000 -0.004546 0.000000
# 4 0.000000 0.000000 0.000000 0.048312 0.000000 -0.014956
# 5 0.005207 -0.005921 -0.004546 0.000000 0.013883 0.000000
# 6 0.000000 0.000000 0.000000 -0.014956 0.000000 0.031784
#
#
# Mechanical properties :
#
#
# Convention : Reuss Voigt Hill
#
# Bulk Modulus (GPa) = 29.70548 75.20407 52.45478
# Shear Modulus (GPa) = 24.23070 42.39492 33.31281
#
# Velocity S-wave (km/s) = 2.97655 3.93720 3.49009
# Velocity P-wave (km/s) = 4.76181 6.94023 5.95154
#
# Compressibility (1/GPa) = 0.03366382
#
# Stress axis : x y z
#
# Youngs Moduli (GPa) = 82.91239 27.61241 52.27333
#
# Poissons Ratio (x) = 0.33525 0.48184
# Poissons Ratio (y) = 1.00667 -0.23458
# Poissons Ratio (z) = 0.76425 -0.12391
#
# Static dielectric constant tensor:
#      x y z
#    x 2.435920 0.000000 0.159440 
#    y 0.000000 2.304170 0.000000 
#    z 0.159440 0.000000 2.329180 
# 
# From -- ./inp_files/60057.got.cif
#   From: 2010.05.17/outbox.cif.g08.bks.cpg/sg13_31_cif.got.tgz:60057.got - 2010.06.03 16:44:36.
