data_PCOD9238669
_publ_section_title
;
Structure prediction by ZEFSAII (Michael W. Deem and Ramdas Pophale) SiO2 
 PCOD9238669
Probable space group: P 2/C
;
_chemical_formula_sum "Si O2"
_cell_formula_units_Z 20
_cell_length_a 12.627946
_cell_length_b 5.109939
_cell_length_c 19.562214
_cell_angle_alpha 90.000000
_cell_angle_beta 142.057176
_cell_angle_gamma 90.000000
_cell_volume 776.163357
_symmetry_space_group_name_H-M "P 2/C"
_symmetry_group_IT_number 13
_symmetry_cell_setting 'monoclinic'
loop_
_space_group_symop_operation_xyz
x,y,z
-x,y,1/2-z
-x,-y,-z
x,-y,1/2+z
loop_
_atom_site_type_symbol
_atom_site_label
_atom_site_fract_x
_atom_site_fract_y
_atom_site_fract_z
Si Si1 0.777939 0.231179 0.309169
Si Si2 0.115847 0.471730 0.958890
Si Si3 0.000000 0.666974 0.250000
Si Si4 0.339815 0.951527 0.369756
Si Si5 0.503100 0.657473 0.180388
Si Si6 0.000000 0.000000 0.500000
O O1 0.631099 0.414937 0.261252
O O2 0.814743 0.961288 0.365720
O O3 0.979356 0.324601 0.425834
O O4 0.735686 0.202624 0.208269
O O5 0.052948 0.469048 0.848332
O O6 0.309837 0.569215 0.062829
O O7 0.096391 0.194370 0.986550
O O8 0.174134 0.826083 0.320747
O O9 0.420680 0.790031 0.348293
O O10 0.500000 0.000000 0.500000
O O11 0.500000 0.811483 0.250000
#
# Coordination Sequence:
#
# PCOD9238669 Si02
#       6
#     4   4   2   4   4   2
#     4  12  26  50  78 115 159 206 268 336 398 479
#     4  12  28  48  84 111 164 209 269 329 408 477
#     4  12  26  52  74 120 156 214 258 338 396 488
#     4  12  30  51  78 118 161 213 275 328 407 483
#     4  12  28  51  81 121 154 212 267 337 402 479
#     4  12  24  50  76 116 152 204 274 322 396 476
#
# _framework density 25.767769999999999
#
# number of rings (size 3 to 8) (size 9 to 14) (size 15 to 20)
#    0.000    0.000    6.000    1.800    8.400    4.000 
#    0.000    0.000    0.000    0.000    0.000    0.000 
#    0.000    0.000    0.000    0.000    0.000    0.000 
#
# Total GULP energy -111501.321903 kJ/mol
# GULP energy per Si atom -5575.066095 kJ/mol
# Density = 2.570912 g / cm^3
# Si number density = 25.767770 Si / 1000 Ang^3
#
#
#
# Elastic Constant Matrix: (Units=GPa)
#
#
# Indices 1 2 3 4 5 6 
#
# 1 190.4614 43.9749 102.6504 0.0000 15.8724 0.0000
# 2 43.9749 46.9645 45.0714 0.0000 17.4991 0.0000
# 3 102.6504 45.0714 271.4836 0.0000 8.9178 0.0000
# 4 0.0000 0.0000 0.0000 39.1130 0.0000 1.3698
# 5 15.8724 17.4991 8.9178 0.0000 80.3984 0.0000
# 6 0.0000 0.0000 0.0000 1.3698 0.0000 31.3815
#
#
#
# Elastic Compliance Matrix: (Units=1/GPa)
#
#
# Indices 1 2 3 4 5 6 
#
# 1 0.007505 -0.005055 -0.001993 0.000000 -0.000160 0.000000
# 2 -0.005055 0.030969 -0.003053 0.000000 -0.005404 0.000000
# 3 -0.001993 -0.003053 0.004927 0.000000 0.000511 0.000000
# 4 0.000000 0.000000 0.000000 0.025606 0.000000 -0.001118
# 5 -0.000160 -0.005404 0.000511 0.000000 0.013589 0.000000
# 6 0.000000 0.000000 0.000000 -0.001118 0.000000 0.031915
#
#
# Mechanical properties :
#
#
# Convention : Reuss Voigt Hill
#
# Bulk Modulus (GPa) = 43.10393 99.14477 71.12435
# Shear Modulus (GPa) = 35.10113 51.32609 43.21361
#
# Velocity S-wave (km/s) = 3.69482 4.46788 4.09961
# Velocity P-wave (km/s) = 5.91324 8.07315 7.07609
#
# Compressibility (1/GPa) = 0.02319974
#
# Stress axis : x y z
#
# Youngs Moduli (GPa) = 133.24212 32.29065 202.95656
#
# Poissons Ratio (x) = 0.16322 0.40456
# Poissons Ratio (y) = 0.67349 0.61956
# Poissons Ratio (z) = 0.26559 0.09857
#
# Static dielectric constant tensor:
#      x y z
#    x 1.847680 0.000000 0.065660 
#    y 0.000000 -0.182630 0.000000 
#    z 0.065660 0.000000 2.088910 
# 
# From -- ./inp_files/77390.got.cif
#   From: 2010.05.17/outbox.cif.g08.bks.cpg/sg13_39_cif.got.tgz:77390.got - 2010.06.03 16:44:36.
