data_PCOD9238341
_publ_section_title
;
Structure prediction by ZEFSAII (Michael W. Deem and Ramdas Pophale) SiO2 
 PCOD9238341
Probable space group: P 2/C
;
_chemical_formula_sum "Si O2"
_cell_formula_units_Z 16
_cell_length_a 9.272180
_cell_length_b 6.048217
_cell_length_c 18.577904
_cell_angle_alpha 90.000000
_cell_angle_beta 143.751622
_cell_angle_gamma 90.000000
_cell_volume 616.033217
_symmetry_space_group_name_H-M "P 2/C"
_symmetry_group_IT_number 13
_symmetry_cell_setting 'monoclinic'
loop_
_space_group_symop_operation_xyz
x,y,z
-x,y,1/2-z
-x,-y,-z
x,-y,1/2+z
loop_
_atom_site_type_symbol
_atom_site_label
_atom_site_fract_x
_atom_site_fract_y
_atom_site_fract_z
Si Si1 0.287349 0.330432 0.763084
Si Si2 0.402321 0.691885 0.908083
Si Si3 0.128928 0.986995 0.407266
Si Si4 0.168737 0.290059 0.550717
O O1 0.248698 0.573655 0.782138
O O2 0.252533 0.264415 0.666261
O O3 0.577054 0.317281 0.889764
O O4 0.091726 0.158242 0.714303
O O5 0.242372 0.851687 0.893384
O O6 0.500000 0.500000 0.000000
O O7 0.644181 0.824287 0.979413
O O8 0.046731 0.114761 0.447523
O O9 0.000000 0.500000 0.500000
#
# Coordination Sequence:
#
# PCOD9238341 Si02
#       4
#     4   4   4   4
#     4  11  25  48  83 117 157 223 268 333 422 481
#     4  11  25  54  79 120 166 208 281 344 405 499
#     4  11  26  52  84 117 167 215 276 346 415 489
#     4  11  25  51  77 116 162 209 277 342 401 499
#
# _framework density 25.972625000000001
#
# number of rings (size 3 to 8) (size 9 to 14) (size 15 to 20)
#    0.000    1.000    2.500    2.250    0.000    3.000 
#    9.000    5.000    0.000    0.000    0.000    0.000 
#    0.000    0.000    0.000    0.000    0.000    0.000 
#
# Total GULP energy -89261.304981 kJ/mol
# GULP energy per Si atom -5578.831561 kJ/mol
# Density = 2.591351 g / cm^3
# Si number density = 25.972625 Si / 1000 Ang^3
#
#
#
# Elastic Constant Matrix: (Units=GPa)
#
#
# Indices 1 2 3 4 5 6 
#
# 1 158.4225 89.2728 74.1564 0.0000 -12.5436 0.0000
# 2 89.2728 180.0376 97.2339 0.0000 8.8793 0.0000
# 3 74.1564 97.2339 118.1904 0.0000 14.8221 0.0000
# 4 0.0000 0.0000 0.0000 78.3258 0.0000 -3.1892
# 5 -12.5436 8.8793 14.8221 0.0000 52.7908 0.0000
# 6 0.0000 0.0000 0.0000 -3.1892 0.0000 66.7279
#
#
#
# Elastic Compliance Matrix: (Units=1/GPa)
#
#
# Indices 1 2 3 4 5 6 
#
# 1 0.010492 -0.002821 -0.004803 0.000000 0.004316 0.000000
# 2 -0.002821 0.010776 -0.007031 0.000000 -0.000509 0.000000
# 3 -0.004803 -0.007031 0.017884 0.000000 -0.004980 0.000000
# 4 0.000000 0.000000 0.000000 0.012792 0.000000 0.000611
# 5 0.004316 -0.000509 -0.004980 0.000000 0.021452 0.000000
# 6 0.000000 0.000000 0.000000 0.000611 0.000000 0.015015
#
#
# Mechanical properties :
#
#
# Convention : Reuss Voigt Hill
#
# Bulk Modulus (GPa) = 101.62582 108.66410 105.14496
# Shear Modulus (GPa) = 41.32123 52.63473 46.97798
#
# Velocity S-wave (km/s) = 3.99300 4.50660 4.25755
# Velocity P-wave (km/s) = 7.77636 8.30711 8.04611
#
# Compressibility (1/GPa) = 0.00984002
#
# Stress axis : x y z
#
# Youngs Moduli (GPa) = 95.30814 92.80041 55.91687
#
# Poissons Ratio (x) = 0.26182 0.26859
# Poissons Ratio (y) = 0.26890 0.39316
# Poissons Ratio (z) = 0.45780 0.65249
#
# Static dielectric constant tensor:
#      x y z
#    x 2.120100 0.000000 0.080680 
#    y 0.000000 2.159190 0.000000 
#    z 0.080680 0.000000 2.142630 
# 
# From -- ./inp_files/74749.got.cif
#   From: 2010.05.17/outbox.cif.g08.bks.cpg/sg13_38_cif.got.tgz:74749.got - 2010.06.03 16:44:36.
