data_PCOD9238859
_publ_section_title
;
Structure prediction by ZEFSAII (Michael W. Deem and Ramdas Pophale) SiO2 
 PCOD9238859
Probable space group: P 2/C
;
_chemical_formula_sum "Si O2"
_cell_formula_units_Z 24
_cell_length_a 8.207517
_cell_length_b 7.284850
_cell_length_c 14.892861
_cell_angle_alpha 90.000000
_cell_angle_beta 78.981515
_cell_angle_gamma 90.000000
_cell_volume 874.037082
_symmetry_space_group_name_H-M "P 2/C"
_symmetry_group_IT_number 13
_symmetry_cell_setting 'monoclinic'
loop_
_space_group_symop_operation_xyz
x,y,z
-x,y,1/2-z
-x,-y,-z
x,-y,1/2+z
loop_
_atom_site_type_symbol
_atom_site_label
_atom_site_fract_x
_atom_site_fract_y
_atom_site_fract_z
Si Si1 0.136919 0.525841 0.305987
Si Si2 0.603571 0.460523 0.856957
Si Si3 0.603571 0.960523 0.356957
Si Si4 0.136919 0.025841 0.805987
Si Si5 0.742817 0.971763 0.024485
Si Si6 0.742817 0.471763 0.524485
O O1 0.309973 0.466588 0.241171
O O2 0.134833 0.750000 0.305951
O O3 0.130447 0.469164 0.410676
O O4 0.000000 0.462704 0.250000
O O5 0.562038 0.250000 0.842431
O O6 0.436046 0.538002 0.917088
O O7 0.741068 0.462632 0.922483
O O8 0.436046 0.038002 0.417089
O O9 0.690027 0.033412 0.258830
O O10 0.741068 0.962631 0.422483
O O11 0.130447 0.969164 0.910676
O O12 0.000000 0.962704 0.750000
O O13 0.744727 0.750000 0.019460
#
# Coordination Sequence:
#
# PCOD9238859 Si02
#       6
#     4   4   4   4   4   4
#     4   9  17  29  46  67  90 118 150 181 216 262
#     4   9  17  30  48  68  89 115 148 184 220 259
#     4   9  17  30  48  68  89 115 148 184 220 259
#     4   9  17  29  46  67  90 118 150 181 216 262
#     4   9  17  30  48  68  89 115 148 184 220 259
#     4   9  17  30  48  68  89 115 148 184 220 259
#
# _framework density 27.458791000000002
#
# number of rings (size 3 to 8) (size 9 to 14) (size 15 to 20)
#    0.000    3.000    0.000    1.000    0.000    5.333 
#    0.000    1.667    0.000   10.000    0.000    0.000 
#    0.000    0.000    0.000    0.000    0.000    0.000 
#
# Total GULP energy -134182.052031 kJ/mol
# GULP energy per Si atom -5590.918835 kJ/mol
# Density = 2.739629 g / cm^3
# Si number density = 27.458791 Si / 1000 Ang^3
#
#
#
# Elastic Constant Matrix: (Units=GPa)
#
#
# Indices 1 2 3 4 5 6 
#
# 1 85.9042 -7.3315 19.4484 0.0000 34.9142 0.0000
# 2 -7.3315 129.0159 -5.8393 0.0000 1.1548 0.0000
# 3 19.4484 -5.8393 186.3212 0.0000 39.4904 0.0000
# 4 0.0000 0.0000 0.0000 3.8468 0.0000 10.6447
# 5 34.9142 1.1548 39.4904 0.0000 62.9268 0.0000
# 6 0.0000 0.0000 0.0000 10.6447 0.0000 3.6537
#
#
#
# Elastic Compliance Matrix: (Units=1/GPa)
#
#
# Indices 1 2 3 4 5 6 
#
# 1 0.015154 0.000950 0.000270 0.000000 -0.008595 0.000000
# 2 0.000950 0.007828 0.000333 0.000000 -0.000880 0.000000
# 3 0.000270 0.000333 0.006208 0.000000 -0.004052 0.000000
# 4 0.000000 0.000000 0.000000 -0.036811 0.000000 0.107246
# 5 -0.008595 -0.000880 -0.004052 0.000000 0.023219 0.000000
# 6 0.000000 0.000000 0.000000 0.107246 0.000000 -0.038756
#
#
# Mechanical properties :
#
#
# Convention : Reuss Voigt Hill
#
# Bulk Modulus (GPa) = 30.96449 45.97738 38.47094
# Shear Modulus (GPa) = -322.62851 40.41637 -141.10607
#
# Velocity S-wave (km/s) = -10.85129 3.84069 -7.17634
# Velocity P-wave (km/s) = 12.07061 6.03724 7.39092
#
# Compressibility (1/GPa) = 0.03229506
#
# Stress axis : x y z
#
# Youngs Moduli (GPa) = 65.98870 127.74806 161.07999
#
# Poissons Ratio (x) = -0.12140 -0.04343
# Poissons Ratio (y) = -0.06271 -0.05357
# Poissons Ratio (z) = -0.01779 -0.04249
#
# Static dielectric constant tensor:
#      x y z
#    x 2.263410 0.000000 0.009540 
#    y 0.000000 2.049530 0.000000 
#    z 0.009540 0.000000 2.058930 
# 
# From -- ./inp_files/46541.got.cif
#   From: 2010.05.17/outbox.cif.g08.bks.cpg/sg13_24_cif.got.tgz:46541.got - 2010.06.03 16:44:36.
