data_PCOD9238888
_publ_section_title
;
Structure prediction by ZEFSAII (Michael W. Deem and Ramdas Pophale) SiO2 
 PCOD9238888
Probable space group: P 2/C
;
_chemical_formula_sum "Si O2"
_cell_formula_units_Z 32
_cell_length_a 27.000000
_cell_length_b 9.000000
_cell_length_c 21.000000
_cell_angle_alpha 90.000000
_cell_angle_beta 160.000000
_cell_angle_gamma 90.000000
_cell_volume 1745.328791
_symmetry_space_group_name_H-M "P 2/C"
_symmetry_group_IT_number 13
_symmetry_cell_setting 'monoclinic'
loop_
_space_group_symop_operation_xyz
x,y,z
-x,y,1/2-z
-x,-y,-z
x,-y,1/2+z
loop_
_atom_site_type_symbol
_atom_site_label
_atom_site_fract_x
_atom_site_fract_y
_atom_site_fract_z
Si Si1 0.161483 0.948937 0.476095
Si Si2 0.670073 0.899217 0.943150
Si Si3 0.155930 0.386716 0.009706
Si Si4 0.830096 0.419329 0.854557
Si Si5 0.816397 0.408178 0.215646
Si Si6 0.807745 0.421378 0.583679
Si Si7 0.848776 0.088884 0.899517
Si Si8 0.189048 0.076644 0.271597
O O1 0.272122 0.978856 0.551762
O O2 0.192185 0.784639 0.541366
O O3 0.000000 0.950030 0.250000
O O4 0.165074 0.049264 0.543175
O O5 0.500000 0.903961 0.750000
O O6 0.726079 0.730767 0.001252
O O7 0.742938 0.970949 0.093193
O O8 0.210603 0.467109 0.011708
O O9 0.980442 0.391729 0.799461
O O10 0.209741 0.464900 0.138290
O O11 0.775062 0.476348 0.720442
O O12 0.784490 0.252058 0.812200
O O13 0.006909 0.410801 0.068410
O O14 0.768593 0.457876 0.088401
O O15 0.760099 0.245456 0.162341
O O16 0.784654 0.980898 0.768097
O O17 0.018719 0.083902 0.084948
#
# Coordination Sequence:
#
# PCOD9238888 Si02
#       8
#     4   4   4   4   4   4   4   4
#     4  11  18  34  54  80 106 140 177 219 268 312
#     4  11  22  36  54  78 109 144 179 217 264 319
#     4   9  15  28  48  72 102 130 164 212 264 309
#     4   9  17  27  44  79 107 131 166 216 270 309
#     4   9  17  28  47  72 106 137 169 214 262 314
#     4   9  16  30  48  71  97 134 169 211 257 307
#     4  10  19  31  54  81 110 138 176 224 266 314
#     4  10  19  33  52  80 109 143 177 218 268 314
#
# _framework density 18.334654
#
# number of rings (size 3 to 8) (size 9 to 14) (size 15 to 20)
#    0.000    2.250    3.750    1.500    0.000    5.000 
#    2.250    1.250    0.000    0.000    0.000    8.750 
#    0.000    0.000    0.000    0.000    0.000    0.000 
#
# Total GULP energy -178228.780127 kJ/mol
# GULP energy per Si atom -5569.649379 kJ/mol
# Density = 1.829292 g / cm^3
# Si number density = 18.334654 Si / 1000 Ang^3
#
#
#
# Elastic Constant Matrix: (Units=GPa)
#
#
# Indices 1 2 3 4 5 6 
#
# 1 123.5843 46.6886 28.6103 0.0000 -8.2473 0.0000
# 2 46.6886 68.4477 14.6387 0.0000 -3.5785 0.0000
# 3 28.6103 14.6387 16.2775 0.0000 3.3638 0.0000
# 4 0.0000 0.0000 0.0000 3.0567 0.0000 -8.8267
# 5 -8.2473 -3.5785 3.3638 0.0000 12.2357 0.0000
# 6 0.0000 0.0000 0.0000 -8.8267 0.0000 30.2579
#
#
#
# Elastic Compliance Matrix: (Units=1/GPa)
#
#
# Indices 1 2 3 4 5 6 
#
# 1 0.018970 -0.004735 -0.033335 0.000000 0.020566 0.000000
# 2 -0.004735 0.020598 -0.011436 0.000000 0.005976 0.000000
# 3 -0.033335 -0.011436 0.143815 0.000000 -0.065351 0.000000
# 4 0.000000 0.000000 0.000000 2.075520 0.000000 0.605465
# 5 0.020566 0.005976 -0.065351 0.000000 0.115304 0.000000
# 6 0.000000 0.000000 0.000000 0.605465 0.000000 0.209674
#
#
# Mechanical properties :
#
#
# Convention : Reuss Voigt Hill
#
# Bulk Modulus (GPa) = 11.85238 43.13165 27.49201
# Shear Modulus (GPa) = 1.84433 17.00152 9.42292
#
# Velocity S-wave (km/s) = 1.00405 3.04844 2.26948
# Velocity P-wave (km/s) = 2.79690 5.99720 4.67916
#
# Compressibility (1/GPa) = 0.08437124
#
# Stress axis : x y z
#
# Youngs Moduli (GPa) = 52.71441 48.54852 6.95336
#
# Poissons Ratio (x) = 0.22989 0.23179
# Poissons Ratio (y) = 0.24962 0.07952
# Poissons Ratio (z) = 1.75721 0.55521
#
# Static dielectric constant tensor:
#      x y z
#    x 1.642330 0.000000 0.004190 
#    y 0.000000 1.651560 0.000000 
#    z 0.004190 0.000000 1.640650 
# 
# From -- ./inp_files/82541.got.cif
#   From: 2010.05.17/outbox.ucp.g08.bks.cvg/sg13_42_cif.got.tgz:82541.got - 2010.06.11 12:23:55.
