data_PCOD9238196
_publ_section_title
;
Structure prediction by ZEFSAII (Michael W. Deem and Ramdas Pophale) SiO2 
 PCOD9238196
Probable space group: P 2/C
;
_chemical_formula_sum "Si O2"
_cell_formula_units_Z 28
_cell_length_a 8.059948
_cell_length_b 15.789701
_cell_length_c 10.856088
_cell_angle_alpha 90.000000
_cell_angle_beta 113.936247
_cell_angle_gamma 90.000000
_cell_volume 1262.770692
_symmetry_space_group_name_H-M "P 2/C"
_symmetry_group_IT_number 13
_symmetry_cell_setting 'monoclinic'
loop_
_space_group_symop_operation_xyz
x,y,z
-x,y,1/2-z
-x,-y,-z
x,-y,1/2+z
loop_
_atom_site_type_symbol
_atom_site_label
_atom_site_fract_x
_atom_site_fract_y
_atom_site_fract_z
Si Si1 0.695120 0.047778 0.576681
Si Si2 0.292068 0.141670 0.688841
Si Si3 0.233240 0.664272 0.196099
Si Si4 0.393784 0.483651 0.596703
Si Si5 0.969412 0.905232 0.596934
Si Si6 0.188516 0.635296 0.462283
Si Si7 0.329084 0.190742 0.107968
O O1 0.776524 0.070306 0.736098
O O2 0.641811 0.139810 0.509153
O O3 0.500000 0.000000 0.500000
O O4 0.860109 0.996541 0.560946
O O5 0.500000 0.115539 0.750000
O O6 0.285912 0.238612 0.727243
O O7 0.181960 0.143375 0.529116
O O8 0.335449 0.611229 0.120360
O O9 0.254273 0.627037 0.339982
O O10 0.020932 0.659746 0.103422
O O11 0.500000 0.514905 0.750000
O O12 0.500000 0.500000 0.500000
O O13 0.221077 0.545047 0.533911
O O14 0.000000 0.890183 0.750000
O O15 0.158277 0.864023 0.606118
O O16 0.287480 0.712020 0.563187
O O17 0.500000 0.183009 0.250000
#
# Coordination Sequence:
#
# PCOD9238196 Si02
#       7
#     4   4   4   4   4   4   4
#     4  12  27  46  73 109 149 202 260 322 394 460
#     4  12  26  47  78 109 151 203 254 323 387 472
#     4  11  24  47  76 112 150 197 263 311 388 477
#     4  12  25  48  75 112 153 197 253 320 391 471
#     4  12  29  46  70 108 148 197 261 322 390 460
#     4  11  24  47  75 108 148 202 255 318 388 471
#     4  12  27  48  71 106 156 201 258 316 389 464
#
# _framework density 22.173463999999999
#
# number of rings (size 3 to 8) (size 9 to 14) (size 15 to 20)
#    0.000    0.286    5.714    2.571    6.000    0.000 
#    2.571    0.000    0.000    0.000    0.000    0.000 
#    0.000    0.000    0.000    0.000    0.000    0.000 
#
# Total GULP energy -156007.135240 kJ/mol
# GULP energy per Si atom -5571.683401 kJ/mol
# Density = 2.212300 g / cm^3
# Si number density = 22.173464 Si / 1000 Ang^3
#
#
#
# Elastic Constant Matrix: (Units=GPa)
#
#
# Indices 1 2 3 4 5 6 
#
# 1 98.8940 33.7148 34.1539 0.0000 17.9235 0.0000
# 2 33.7148 104.9413 27.2365 0.0000 -3.5522 0.0000
# 3 34.1539 27.2365 148.8887 0.0000 18.1778 0.0000
# 4 0.0000 0.0000 0.0000 59.4754 0.0000 -2.9318
# 5 17.9235 -3.5522 18.1778 0.0000 36.5795 0.0000
# 6 0.0000 0.0000 0.0000 -2.9318 0.0000 36.4506
#
#
#
# Elastic Compliance Matrix: (Units=1/GPa)
#
#
# Indices 1 2 3 4 5 6 
#
# 1 0.013108 -0.004018 -0.001533 0.000000 -0.006051 0.000000
# 2 -0.004018 0.011376 -0.001634 0.000000 0.003885 0.000000
# 3 -0.001533 -0.001634 0.007766 0.000000 -0.003267 0.000000
# 4 0.000000 0.000000 0.000000 0.016881 0.000000 0.001358
# 5 -0.006051 0.003885 -0.003267 0.000000 0.032303 0.000000
# 6 0.000000 0.000000 0.000000 0.001358 0.000000 0.027544
#
#
# Mechanical properties :
#
#
# Convention : Reuss Voigt Hill
#
# Bulk Modulus (GPa) = 55.92950 60.32605 58.12777
# Shear Modulus (GPa) = 38.66801 43.67569 41.17185
#
# Velocity S-wave (km/s) = 4.18052 4.44298 4.31374
# Velocity P-wave (km/s) = 6.96998 7.32021 7.14724
#
# Compressibility (1/GPa) = 0.01787965
#
# Stress axis : x y z
#
# Youngs Moduli (GPa) = 76.29036 87.90788 128.77079
#
# Poissons Ratio (x) = 0.35322 0.19741
# Poissons Ratio (y) = 0.30654 0.21036
# Poissons Ratio (z) = 0.11695 0.14360
#
# Static dielectric constant tensor:
#      x y z
#    x 1.854140 0.000000 -0.075460 
#    y 0.000000 1.821140 0.000000 
#    z -0.075460 0.000000 1.824610 
# 
# From -- ./inp_files/30502.got.cif
#   From: 2010.05.17/outbox.cif.g08.bks.cpg/sg13_16_cif.got.tgz:30502.got - 2010.06.03 16:44:36.
