data_PCOD9238656
_publ_section_title
;
Structure prediction by ZEFSAII (Michael W. Deem and Ramdas Pophale) SiO2 
 PCOD9238656
Probable space group: P 2/C
;
_chemical_formula_sum "Si O2"
_cell_formula_units_Z 22
_cell_length_a 9.245919
_cell_length_b 9.339083
_cell_length_c 18.456029
_cell_angle_alpha 90.000000
_cell_angle_beta 35.363539
_cell_angle_gamma 90.000000
_cell_volume 922.343826
_symmetry_space_group_name_H-M "P 2/C"
_symmetry_group_IT_number 13
_symmetry_cell_setting 'monoclinic'
loop_
_space_group_symop_operation_xyz
x,y,z
-x,y,1/2-z
-x,-y,-z
x,-y,1/2+z
loop_
_atom_site_type_symbol
_atom_site_label
_atom_site_fract_x
_atom_site_fract_y
_atom_site_fract_z
Si Si1 0.984835 0.650901 0.048518
Si Si2 0.757174 0.616029 0.298965
Si Si3 0.607209 0.846042 0.974547
Si Si4 0.500000 0.878044 0.750000
Si Si5 0.791269 0.907933 0.044440
Si Si6 0.563397 0.304589 0.344961
O O1 0.858061 0.650799 0.178538
O O2 0.811095 0.754182 0.072323
O O3 0.264917 0.709254 0.951502
O O4 0.000000 0.500000 0.000000
O O5 0.587052 0.738523 0.405317
O O6 0.608084 0.469576 0.345769
O O7 0.000000 0.590555 0.250000
O O8 0.812990 0.883558 0.950514
O O9 0.664877 0.774742 0.874364
O O10 0.500000 0.000000 0.000000
O O11 0.330583 0.764351 0.772840
O O12 0.442582 0.993203 0.837656
O O13 0.000000 0.000000 0.000000
#
# Coordination Sequence:
#
# PCOD9238656 Si02
#       6
#     4   4   4   2   4   4
#     4  12  26  48  76 110 148 201 252 312 385 453
#     4  12  28  47  78 113 147 198 252 312 382 454
#     4  12  25  50  76 108 150 195 250 317 380 456
#     4  12  24  48  74 114 148 196 260 304 386 460
#     4  12  26  46  75 106 148 194 249 313 377 453
#     4  12  26  48  76 108 153 195 251 314 377 464
#
# _framework density 23.852274999999999
#
# number of rings (size 3 to 8) (size 9 to 14) (size 15 to 20)
#    0.000    0.000    5.455    3.818    2.545    1.455 
#    0.000    0.909    0.000    0.000    0.000    0.000 
#    0.000    0.000    0.000    0.000    0.000    0.000 
#
# Total GULP energy -122864.652157 kJ/mol
# GULP energy per Si atom -5584.756916 kJ/mol
# Density = 2.379799 g / cm^3
# Si number density = 23.852275 Si / 1000 Ang^3
#
#
#
# Elastic Constant Matrix: (Units=GPa)
#
#
# Indices 1 2 3 4 5 6 
#
# 1 162.9426 45.4281 40.0566 0.0000 49.1936 0.0000
# 2 45.4281 172.2743 27.6258 0.0000 19.9668 0.0000
# 3 40.0566 27.6258 63.8156 0.0000 35.9192 0.0000
# 4 0.0000 0.0000 0.0000 26.5608 0.0000 9.1302
# 5 49.1936 19.9668 35.9192 0.0000 52.4210 0.0000
# 6 0.0000 0.0000 0.0000 9.1302 0.0000 54.9526
#
#
#
# Elastic Compliance Matrix: (Units=1/GPa)
#
#
# Indices 1 2 3 4 5 6 
#
# 1 0.008928 -0.001366 -0.000960 0.000000 -0.007200 0.000000
# 2 -0.001366 0.006470 -0.002080 0.000000 0.000243 0.000000
# 3 -0.000960 -0.002080 0.026403 0.000000 -0.016399 0.000000
# 4 0.000000 0.000000 0.000000 0.039930 0.000000 -0.006634
# 5 -0.007200 0.000243 -0.016399 0.000000 0.036977 0.000000
# 6 0.000000 0.000000 0.000000 -0.006634 0.000000 0.019300
#
#
# Mechanical properties :
#
#
# Convention : Reuss Voigt Hill
#
# Bulk Modulus (GPa) = 30.31290 69.47261 49.89275
# Shear Modulus (GPa) = 31.68237 45.84834 38.76536
#
# Velocity S-wave (km/s) = 3.64850 4.38902 4.03578
# Velocity P-wave (km/s) = 5.52132 7.40771 6.53296
#
# Compressibility (1/GPa) = 0.03298925
#
# Stress axis : x y z
#
# Youngs Moduli (GPa) = 112.01191 154.55195 37.87400
#
# Poissons Ratio (x) = 0.21108 0.03636
# Poissons Ratio (y) = 0.15298 0.07879
# Poissons Ratio (z) = 0.10753 0.32151
#
# Static dielectric constant tensor:
#      x y z
#    x 1.978460 0.000000 -0.080780 
#    y 0.000000 2.028110 0.000000 
#    z -0.080780 0.000000 3.206460 
# 
# From -- ./inp_files/63695.got.cif
#   From: 2010.05.17/outbox.cif.g08.bks.cpg/sg13_32_cif.got.tgz:63695.got - 2010.06.03 16:44:36.
