data_PCOD9238910
_publ_section_title
;
Structure prediction by ZEFSAII (Michael W. Deem and Ramdas Pophale) SiO2 
 PCOD9238910
Probable space group: P 2/C
;
_chemical_formula_sum "Si O2"
_cell_formula_units_Z 30
_cell_length_a 15.000000
_cell_length_b 6.000000
_cell_length_c 18.000000
_cell_angle_alpha 90.000000
_cell_angle_beta 110.000000
_cell_angle_gamma 90.000000
_cell_volume 1522.302046
_symmetry_space_group_name_H-M "P 2/C"
_symmetry_group_IT_number 13
_symmetry_cell_setting 'monoclinic'
loop_
_space_group_symop_operation_xyz
x,y,z
-x,y,1/2-z
-x,-y,-z
x,-y,1/2+z
loop_
_atom_site_type_symbol
_atom_site_label
_atom_site_fract_x
_atom_site_fract_y
_atom_site_fract_z
Si Si1 0.309896 0.249408 0.269318
Si Si2 0.347729 0.089232 0.591638
Si Si3 0.500000 0.042877 0.250000
Si Si4 0.119133 0.049584 0.712739
Si Si5 0.208018 0.711873 0.509514
Si Si6 0.725436 0.676375 0.570711
Si Si7 0.205236 0.597089 0.140589
Si Si8 0.909635 0.981030 0.626759
O O1 0.410130 0.169764 0.263033
O O2 0.315877 0.302166 0.358666
O O3 0.272459 0.465217 0.216037
O O4 0.220094 0.078583 0.233791
O O5 0.342316 0.195066 0.507521
O O6 0.272875 0.233550 0.616528
O O7 0.445383 0.081255 0.666000
O O8 0.295894 0.851378 0.568555
O O9 0.128064 0.270281 0.665868
O O10 0.106848 0.094196 0.797060
O O11 0.022064 0.925821 0.658654
O O12 0.254955 0.565829 0.457438
O O13 0.167856 0.564149 0.565246
O O14 0.126409 0.862791 0.450143
O O15 0.831480 0.784714 0.602425
#
# Coordination Sequence:
#
# PCOD9238910 Si02
#       8
#     4   4   2   4   4   4   4   4
#     4  11  23  40  62  92 120 158 209 251 296 360
#     4  10  22  41  62  88 124 159 198 252 303 359
#     4  12  22  42  66  86 120 160 202 254 304 358
#     4  10  20  38  58  91 121 161 202 250 294 358
#     4  10  19  39  58  88 122 162 197 245 296 364
#     4   9  21  40  64  89 124 161 196 249 301 353
#     4  11  20  37  62  85 124 160 199 252 298 349
#     4   9  20  36  61  86 126 161 200 242 302 354
#
# _framework density 19.706996
#
# number of rings (size 3 to 8) (size 9 to 14) (size 15 to 20)
#    0.000    1.867    2.667    0.800    0.000    2.667 
#    0.000   12.667    0.000    0.000    0.000    0.000 
#    0.000    0.000    0.000    0.000    0.000    0.000 
#
# Total GULP energy -167239.532573 kJ/mol
# GULP energy per Si atom -5574.651086 kJ/mol
# Density = 1.966214 g / cm^3
# Si number density = 19.706996 Si / 1000 Ang^3
#
#
#
# Elastic Constant Matrix: (Units=GPa)
#
#
# Indices 1 2 3 4 5 6 
#
# 1 89.1666 11.5081 36.3428 0.0000 4.4955 0.0000
# 2 11.5081 42.5216 28.2579 0.0000 -8.3635 0.0000
# 3 36.3428 28.2579 139.6998 0.0000 1.1114 0.0000
# 4 0.0000 0.0000 0.0000 39.8707 0.0000 0.3489
# 5 4.4955 -8.3635 1.1114 0.0000 40.3109 0.0000
# 6 0.0000 0.0000 0.0000 0.3489 0.0000 6.2170
#
#
#
# Elastic Compliance Matrix: (Units=1/GPa)
#
#
# Indices 1 2 3 4 5 6 
#
# 1 0.012732 -0.001839 -0.002926 0.000000 -0.001721 0.000000
# 2 -0.001839 0.028857 -0.005409 0.000000 0.006341 0.000000
# 3 -0.002926 -0.005409 0.009022 0.000000 -0.001045 0.000000
# 4 0.000000 0.000000 0.000000 0.025093 0.000000 -0.001408
# 5 -0.001721 0.006341 -0.001045 0.000000 0.026344 0.000000
# 6 0.000000 0.000000 0.000000 -0.001408 0.000000 0.160927
#
#
# Mechanical properties :
#
#
# Convention : Reuss Voigt Hill
#
# Bulk Modulus (GPa) = 33.04571 47.06732 40.05651
# Shear Modulus (GPa) = 17.04088 30.29832 23.66960
#
# Velocity S-wave (km/s) = 2.94379 3.92527 3.46941
# Velocity P-wave (km/s) = 5.32536 6.66927 6.03484
#
# Compressibility (1/GPa) = 0.03026112
#
# Stress axis : x y z
#
# Youngs Moduli (GPa) = 78.54293 34.65348 110.84084
#
# Poissons Ratio (x) = 0.06374 0.32437
# Poissons Ratio (y) = 0.14448 0.59954
# Poissons Ratio (z) = 0.22985 0.18744
#
# Static dielectric constant tensor:
#      x y z
#    x 1.658090 0.000000 -0.016180 
#    y 0.000000 1.762660 0.000000 
#    z -0.016180 0.000000 1.707730 
# 
# From -- ./inp_files/67603.got.cif
#   From: 2010.05.17/outbox.ucp.g08.bks.cvg/sg13_34_cif.got.tgz:67603.got - 2010.06.11 12:23:55.
