data_PCOD9238912
_publ_section_title
;
Structure prediction by ZEFSAII (Michael W. Deem and Ramdas Pophale) SiO2 
 PCOD9238912
Probable space group: P 2/C
;
_chemical_formula_sum "Si O2"
_cell_formula_units_Z 28
_cell_length_a 27.000000
_cell_length_b 6.000000
_cell_length_c 18.000000
_cell_angle_alpha 90.000000
_cell_angle_beta 150.000000
_cell_angle_gamma 90.000000
_cell_volume 1458.000000
_symmetry_space_group_name_H-M "P 2/C"
_symmetry_group_IT_number 13
_symmetry_cell_setting 'monoclinic'
loop_
_space_group_symop_operation_xyz
x,y,z
-x,y,1/2-z
-x,-y,-z
x,-y,1/2+z
loop_
_atom_site_type_symbol
_atom_site_label
_atom_site_fract_x
_atom_site_fract_y
_atom_site_fract_z
Si Si1 0.496765 0.749095 0.452124
Si Si2 0.140652 0.517548 0.841345
Si Si3 0.362516 0.877524 0.998168
Si Si4 0.364111 0.413698 0.652137
Si Si5 0.862997 0.813158 0.804727
Si Si6 0.000000 0.839341 0.750000
Si Si7 0.998139 0.132052 0.613585
Si Si8 0.500000 0.240849 0.250000
O O1 0.500000 0.500000 0.500000
O O2 0.585393 0.766572 0.505992
O O3 0.401437 0.721903 0.272937
O O4 0.500000 0.000000 0.500000
O O5 0.144439 0.604159 0.760763
O O6 0.071229 0.304039 0.748197
O O7 0.084678 0.693835 0.820862
O O8 0.252802 0.494108 0.014652
O O9 0.247019 0.911876 0.830181
O O10 0.366641 0.732759 0.079647
O O11 0.424033 0.094061 0.102794
O O12 0.439353 0.611313 0.729967
O O13 0.932184 0.983474 0.849129
O O14 0.915400 0.765645 0.951507
O O15 0.044952 0.983856 0.875789
#
# Coordination Sequence:
#
# PCOD9238912 Si02
#       8
#     4   4   4   4   4   2   4   2
#     4  12  26  45  63  98 146 177 222 288 350 409
#     4  10  21  39  63  92 124 165 220 265 334 398
#     4  11  22  41  66  93 124 178 228 282 334 413
#     4  11  23  41  67  95 124 181 234 276 336 417
#     4   9  21  37  64  94 117 161 220 271 329 379
#     4  10  22  38  58  86 132 162 204 256 334 410
#     4  10  19  40  61  90 127 160 209 274 324 402
#     4  12  18  38  72  90 130 168 244 286 328 404
#
# _framework density 19.20439
#
# number of rings (size 3 to 8) (size 9 to 14) (size 15 to 20)
#    0.000    1.429    2.857    2.571    0.000    1.143 
#    5.143    0.000    0.000    0.000    0.000    0.000 
#    0.000    0.000    0.000    0.000    0.000    0.000 
#
# Total GULP energy -156039.770941 kJ/mol
# GULP energy per Si atom -5572.848962 kJ/mol
# Density = 1.916068 g / cm^3
# Si number density = 19.204390 Si / 1000 Ang^3
#
#
#
# Elastic Constant Matrix: (Units=GPa)
#
#
# Indices 1 2 3 4 5 6 
#
# 1 88.4063 23.6876 35.4025 0.0000 -18.5170 0.0000
# 2 23.6876 72.4009 18.0959 0.0000 -9.3186 0.0000
# 3 35.4025 18.0959 97.6744 0.0000 -2.9581 0.0000
# 4 0.0000 0.0000 0.0000 16.9427 0.0000 -15.8008
# 5 -18.5170 -9.3186 -2.9581 0.0000 25.8281 0.0000
# 6 0.0000 0.0000 0.0000 -15.8008 0.0000 15.3157
#
#
#
# Elastic Compliance Matrix: (Units=1/GPa)
#
#
# Indices 1 2 3 4 5 6 
#
# 1 0.016166 -0.002737 -0.005049 0.000000 0.010024 0.000000
# 2 -0.002737 0.015601 -0.001794 0.000000 0.003461 0.000000
# 3 -0.005049 -0.001794 0.012314 0.000000 -0.002856 0.000000
# 4 0.000000 0.000000 0.000000 1.559116 0.000000 1.608502
# 5 0.010024 0.003461 -0.002856 0.000000 0.046826 0.000000
# 6 0.000000 0.000000 0.000000 1.608502 0.000000 1.724745
#
#
# Mechanical properties :
#
#
# Convention : Reuss Voigt Hill
#
# Bulk Modulus (GPa) = 40.12439 45.87261 42.99850
# Shear Modulus (GPa) = 1.46962 23.70367 12.58665
#
# Velocity S-wave (km/s) = 0.87574 3.51705 2.56286
# Velocity P-wave (km/s) = 4.68628 6.35856 5.58536
#
# Compressibility (1/GPa) = 0.02492250
#
# Stress axis : x y z
#
# Youngs Moduli (GPa) = 61.85738 64.09752 81.20935
#
# Poissons Ratio (x) = 0.17544 0.41001
# Poissons Ratio (y) = 0.16930 0.14565
# Poissons Ratio (z) = 0.31231 0.11496
#
# Static dielectric constant tensor:
#      x y z
#    x 1.664660 0.000000 -0.005020 
#    y 0.000000 1.737530 0.000000 
#    z -0.005020 0.000000 1.679340 
# 
# From -- ./inp_files/54748.got.cif
#   From: 2010.05.17/outbox.ucp.g08.bks.cvg/sg13_28_cif.got.tgz:54748.got - 2010.06.11 12:23:55.
