data_PCOD9238758
_publ_section_title
;
Structure prediction by ZEFSAII (Michael W. Deem and Ramdas Pophale) SiO2 
 PCOD9238758
Probable space group: P 2/C
;
_chemical_formula_sum "Si O2"
_cell_formula_units_Z 16
_cell_length_a 15.552477
_cell_length_b 8.381747
_cell_length_c 16.148050
_cell_angle_alpha 90.000000
_cell_angle_beta 162.455407
_cell_angle_gamma 90.000000
_cell_volume 634.551070
_symmetry_space_group_name_H-M "P 2/C"
_symmetry_group_IT_number 13
_symmetry_cell_setting 'monoclinic'
loop_
_space_group_symop_operation_xyz
x,y,z
-x,y,1/2-z
-x,-y,-z
x,-y,1/2+z
loop_
_atom_site_type_symbol
_atom_site_label
_atom_site_fract_x
_atom_site_fract_y
_atom_site_fract_z
Si Si1 0.000000 0.120501 0.250000
Si Si2 0.594762 0.316078 0.999465
Si Si3 0.500000 0.904363 0.750000
Si Si4 0.782469 0.665130 0.126482
Si Si5 0.998541 0.191965 0.994871
O O1 0.790547 0.223595 0.113622
O O2 0.217078 0.009770 0.500673
O O3 0.633884 0.501689 0.017059
O O4 0.722883 0.262819 0.205390
O O5 0.269905 0.260275 0.699058
O O6 0.430862 0.794863 0.607986
O O7 0.941623 0.739170 0.351427
O O8 0.000000 0.630916 0.250000
O O9 0.000000 0.000000 0.000000
#
# Coordination Sequence:
#
# PCOD9238758 Si02
#       5
#     2   4   2   4   4
#     4  12  26  48  76 118 150 218 256 340 386 484
#     4  12  28  51  81 113 162 203 275 320 406 467
#     4  12  28  46  78 114 160 202 266 314 400 462
#     4  12  29  51  80 118 161 212 265 329 402 474
#     4  12  29  51  81 120 159 212 264 334 393 473
#
# _framework density 25.214676000000001
#
# number of rings (size 3 to 8) (size 9 to 14) (size 15 to 20)
#    0.000    0.000    2.500    5.250   10.500    1.000 
#    0.000    0.000    0.000    0.000    0.000    0.000 
#    0.000    0.000    0.000    0.000    0.000    0.000 
#
# Total GULP energy -89919.001305 kJ/mol
# GULP energy per Si atom -5619.937582 kJ/mol
# Density = 2.515729 g / cm^3
# Si number density = 25.214676 Si / 1000 Ang^3
#
#
#
# Elastic Constant Matrix: (Units=GPa)
#
#
# Indices 1 2 3 4 5 6 
#
# 1 101.5908 28.8067 -28.8448 0.0000 0.5994 0.0000
# 2 28.8067 174.5007 5.8876 0.0000 3.9577 0.0000
# 3 -28.8448 5.8876 66.2792 0.0000 9.6691 0.0000
# 4 0.0000 0.0000 0.0000 3.9647 0.0000 -23.0443
# 5 0.5994 3.9577 9.6691 0.0000 54.9913 0.0000
# 6 0.0000 0.0000 0.0000 -23.0443 0.0000 24.5517
#
#
#
# Elastic Compliance Matrix: (Units=1/GPa)
#
#
# Indices 1 2 3 4 5 6 
#
# 1 0.012042 -0.002154 0.005571 0.000000 -0.000956 0.000000
# 2 -0.002154 0.006139 -0.001459 0.000000 -0.000162 0.000000
# 3 0.005571 -0.001459 0.018100 0.000000 -0.003138 0.000000
# 4 0.000000 0.000000 0.000000 -0.056610 0.000000 -0.053134
# 5 -0.000956 -0.000162 -0.003138 0.000000 0.018759 0.000000
# 6 0.000000 0.000000 0.000000 -0.053134 0.000000 -0.009142
#
#
# Mechanical properties :
#
#
# Convention : Reuss Voigt Hill
#
# Bulk Modulus (GPa) = 24.87766 39.34107 32.10936
# Shear Modulus (GPa) = -4067.94531 39.13628 -2014.40451
#
# Velocity S-wave (km/s) = -40.20979 3.94397 -28.29551
# Velocity P-wave (km/s) = 46.32366 6.03127 32.47695
#
# Compressibility (1/GPa) = 0.04019671
#
# Stress axis : x y z
#
# Youngs Moduli (GPa) = 83.04430 162.88898 55.24922
#
# Poissons Ratio (x) = 0.35089 -0.30781
# Poissons Ratio (y) = 0.17889 0.08062
# Poissons Ratio (z) = -0.46267 0.23769
#
# Static dielectric constant tensor:
#      x y z
#    x 2.065070 0.000000 0.025670 
#    y 0.000000 1.927560 0.000000 
#    z 0.025670 0.000000 1.933640 
# 
# From -- ./inp_files/52845.got.cif
#   From: 2010.05.17/outbox.cif.g08.bks.cpg/sg13_27_cif.got.tgz:52845.got - 2010.06.03 16:44:36.
