data_PCOD9238762
_publ_section_title
;
Structure prediction by ZEFSAII (Michael W. Deem and Ramdas Pophale) SiO2 
 PCOD9238762
Probable space group: P 2/C
;
_chemical_formula_sum "Si O2"
_cell_formula_units_Z 16
_cell_length_a 18.235369
_cell_length_b 7.610126
_cell_length_c 13.678328
_cell_angle_alpha 90.000000
_cell_angle_beta 21.313713
_cell_angle_gamma 90.000000
_cell_volume 689.942688
_symmetry_space_group_name_H-M "P 2/C"
_symmetry_group_IT_number 13
_symmetry_cell_setting 'monoclinic'
loop_
_space_group_symop_operation_xyz
x,y,z
-x,y,1/2-z
-x,-y,-z
x,-y,1/2+z
loop_
_atom_site_type_symbol
_atom_site_label
_atom_site_fract_x
_atom_site_fract_y
_atom_site_fract_z
Si Si1 0.017469 0.289222 0.499875
Si Si2 0.861441 0.833329 0.992295
Si Si3 0.296738 0.133376 0.454060
Si Si4 0.566115 0.301301 0.408571
O O1 0.978148 0.177069 0.450581
O O2 0.000000 0.500000 0.500000
O O3 0.239214 0.256746 0.268168
O O4 0.852173 0.225664 0.784228
O O5 0.633559 0.798282 0.310107
O O6 0.814858 0.987022 0.971435
O O7 0.000000 0.707520 0.750000
O O8 0.500000 0.058776 0.250000
O O9 0.375339 0.269828 0.275936
O O10 0.500000 0.500000 0.500000
#
# Coordination Sequence:
#
# PCOD9238762 Si02
#       4
#     4   4   4   4
#     4  12  27  51  80 112 157 206 262 324 392 469
#     4  12  29  48  75 114 153 204 258 321 393 457
#     4  12  27  50  79 113 158 203 263 324 396 464
#     4  12  26  49  78 111 155 204 262 321 387 466
#
# _framework density 23.190331
#
# number of rings (size 3 to 8) (size 9 to 14) (size 15 to 20)
#    0.000    0.000    5.000    3.000    7.000    2.000 
#    0.000    0.000    0.000    0.000    0.000    0.000 
#    0.000    0.000    0.000    0.000    0.000    0.000 
#
# Total GULP energy -89388.307427 kJ/mol
# GULP energy per Si atom -5586.769214 kJ/mol
# Density = 2.313755 g / cm^3
# Si number density = 23.190331 Si / 1000 Ang^3
#
#
#
# Elastic Constant Matrix: (Units=GPa)
#
#
# Indices 1 2 3 4 5 6 
#
# 1 191.9892 52.3983 110.0320 0.0000 0.7054 0.0000
# 2 52.3983 71.7971 17.8717 0.0000 18.6347 0.0000
# 3 110.0320 17.8717 197.1923 0.0000 14.1424 0.0000
# 4 0.0000 0.0000 0.0000 7.5254 0.0000 -9.8672
# 5 0.7054 18.6347 14.1424 0.0000 79.2955 0.0000
# 6 0.0000 0.0000 0.0000 -9.8672 0.0000 33.7163
#
#
#
# Elastic Compliance Matrix: (Units=1/GPa)
#
#
# Indices 1 2 3 4 5 6 
#
# 1 0.009928 -0.006589 -0.005113 0.000000 0.002372 0.000000
# 2 -0.006589 0.019449 0.002266 0.000000 -0.004916 0.000000
# 3 -0.005113 0.002266 0.007854 0.000000 -0.001888 0.000000
# 4 0.000000 0.000000 0.000000 0.215622 0.000000 0.063103
# 5 0.002372 -0.004916 -0.001888 0.000000 0.014082 0.000000
# 6 0.000000 0.000000 0.000000 0.063103 0.000000 0.048126
#
#
# Mechanical properties :
#
#
# Convention : Reuss Voigt Hill
#
# Bulk Modulus (GPa) = 54.46478 91.28694 72.87586
# Shear Modulus (GPa) = 14.70360 42.81922 28.76141
#
# Velocity S-wave (km/s) = 2.52075 4.30167 3.52551
# Velocity P-wave (km/s) = 5.65767 8.00763 6.93294
#
# Compressibility (1/GPa) = 0.01836049
#
# Stress axis : x y z
#
# Youngs Moduli (GPa) = 100.72023 51.41778 127.32044
#
# Poissons Ratio (x) = 0.33878 0.65099
# Poissons Ratio (y) = 0.66363 -0.28857
# Poissons Ratio (z) = 0.51498 -0.11654
#
# Static dielectric constant tensor:
#      x y z
#    x 1.816100 0.000000 0.084620 
#    y 0.000000 1.975460 0.000000 
#    z 0.084620 0.000000 1.639690 
# 
# From -- ./inp_files/56967.got.cif
#   From: 2010.05.17/outbox.cif.g08.bks.cpg/sg13_29_cif.got.tgz:56967.got - 2010.06.03 16:44:36.
