data_PCOD9238877
_publ_section_title
;
Structure prediction by ZEFSAII (Michael W. Deem and Ramdas Pophale) SiO2 
 PCOD9238877
Probable space group: P 2/C
;
_chemical_formula_sum "Si O2"
_cell_formula_units_Z 26
_cell_length_a 12.000000
_cell_length_b 9.000000
_cell_length_c 15.000000
_cell_angle_alpha 90.000000
_cell_angle_beta 120.000000
_cell_angle_gamma 90.000000
_cell_volume 1402.961154
_symmetry_space_group_name_H-M "P 2/C"
_symmetry_group_IT_number 13
_symmetry_cell_setting 'monoclinic'
loop_
_space_group_symop_operation_xyz
x,y,z
-x,y,1/2-z
-x,-y,-z
x,-y,1/2+z
loop_
_atom_site_type_symbol
_atom_site_label
_atom_site_fract_x
_atom_site_fract_y
_atom_site_fract_z
Si Si1 0.770442 0.858199 0.138361
Si Si2 0.590905 0.363280 0.659310
Si Si3 0.170992 0.066236 0.492391
Si Si4 0.128779 0.083772 0.167415
Si Si5 0.189910 0.435127 0.201998
Si Si6 0.309136 0.360244 0.609443
Si Si7 0.000000 0.625617 0.250000
O O1 0.645487 0.758969 0.113107
O O2 0.886694 0.737627 0.171621
O O3 0.752672 0.961247 0.045247
O O4 0.813649 0.971884 0.234942
O O5 0.681662 0.510828 0.692241
O O6 0.438590 0.397512 0.604501
O O7 0.634614 0.299629 0.773853
O O8 0.229113 0.230665 0.530067
O O9 0.026960 0.079566 0.394540
O O10 0.165411 0.984022 0.585612
O O11 0.170450 0.257497 0.193692
O O12 0.221021 0.504628 0.114887
O O13 0.070658 0.522353 0.202915
#
# Coordination Sequence:
#
# PCOD9238877 Si02
#       7
#     4   4   4   4   4   4   2
#     4  11  20  38  59  84 118 155 195 245 293 351
#     4   8  18  39  61  74 115 158 193 237 291 343
#     4  11  22  34  60  86 121 154 191 245 293 356
#     4  11  22  36  55  92 121 149 195 243 297 352
#     4   9  20  34  57  84 113 154 193 239 298 343
#     4   9  18  39  57  80 111 160 196 232 292 349
#     4  10  18  34  54  82 116 156 184 234 300 344
#
# _framework density 18.532230999999999
#
# number of rings (size 3 to 8) (size 9 to 14) (size 15 to 20)
#    0.923    1.231    3.077    0.000    4.308    1.231 
#    0.000    3.077    0.000    1.846    0.000    0.000 
#    0.000    0.000    0.000    0.000    0.000    0.000 
#
# Total GULP energy -144791.205136 kJ/mol
# GULP energy per Si atom -5568.892505 kJ/mol
# Density = 1.849005 g / cm^3
# Si number density = 18.532231 Si / 1000 Ang^3
#
#
#
# Elastic Constant Matrix: (Units=GPa)
#
#
# Indices 1 2 3 4 5 6 
#
# 1 124.3224 47.3401 7.2297 0.0000 -3.4100 0.0000
# 2 47.3401 131.4620 8.7203 0.0000 2.5000 0.0000
# 3 7.2297 8.7203 25.3731 0.0000 -5.6283 0.0000
# 4 0.0000 0.0000 0.0000 9.6865 0.0000 8.7265
# 5 -3.4100 2.5000 -5.6283 0.0000 15.6214 0.0000
# 6 0.0000 0.0000 0.0000 8.7265 0.0000 13.8773
#
#
#
# Elastic Compliance Matrix: (Units=1/GPa)
#
#
# Indices 1 2 3 4 5 6 
#
# 1 0.009451 -0.003377 -0.001038 0.000000 0.002230 0.000000
# 2 -0.003377 0.009075 -0.002872 0.000000 -0.003224 0.000000
# 3 -0.001038 -0.002872 0.044286 0.000000 0.016189 0.000000
# 4 0.000000 0.000000 0.000000 0.238151 0.000000 -0.149757
# 5 0.002230 -0.003224 0.016189 0.000000 0.070850 0.000000
# 6 0.000000 0.000000 0.000000 -0.149757 0.000000 0.166233
#
#
# Mechanical properties :
#
#
# Convention : Reuss Voigt Hill
#
# Bulk Modulus (GPa) = 20.73044 45.30422 33.01733
# Shear Modulus (GPa) = 8.79203 22.36153 15.57678
#
# Velocity S-wave (km/s) = 2.18048 3.47743 2.90232
# Velocity P-wave (km/s) = 4.18924 6.37358 5.39316
#
# Compressibility (1/GPa) = 0.04823824
#
# Stress axis : x y z
#
# Youngs Moduli (GPa) = 105.80908 110.19761 22.58074
#
# Poissons Ratio (x) = 0.37213 0.02343
# Poissons Ratio (y) = 0.35731 0.06485
# Poissons Ratio (z) = 0.10981 0.31646
#
# Static dielectric constant tensor:
#      x y z
#    x 1.683560 0.000000 -0.013830 
#    y 0.000000 1.609680 0.000000 
#    z -0.013830 0.000000 1.648020 
# 
# From -- ./inp_files/50169.got.cif
#   From: 2010.05.17/outbox.ucp.g08.bks.cvg/sg13_26_cif.got.tgz:50169.got - 2010.06.11 12:23:55.
