data_PCOD9238994
_publ_section_title
;
Structure prediction by ZEFSAII (Michael W. Deem and Ramdas Pophale) SiO2 
 PCOD9238994
Probable space group: P 2/C
;
_chemical_formula_sum "Si O2"
_cell_formula_units_Z 30
_cell_length_a 12.000000
_cell_length_b 15.000000
_cell_length_c 18.000000
_cell_angle_alpha 90.000000
_cell_angle_beta 150.000000
_cell_angle_gamma 90.000000
_cell_volume 1620.000000
_symmetry_space_group_name_H-M "P 2/C"
_symmetry_group_IT_number 13
_symmetry_cell_setting 'monoclinic'
loop_
_space_group_symop_operation_xyz
x,y,z
-x,y,1/2-z
-x,-y,-z
x,-y,1/2+z
loop_
_atom_site_type_symbol
_atom_site_label
_atom_site_fract_x
_atom_site_fract_y
_atom_site_fract_z
Si Si1 0.000000 0.569719 0.750000
Si Si2 0.724087 0.266535 0.038605
Si Si3 0.718709 0.571548 0.830806
Si Si4 0.203876 0.920698 0.314549
Si Si5 0.894190 0.557642 0.326521
Si Si6 0.687854 0.122764 0.151424
Si Si7 0.784985 0.755737 0.288860
Si Si8 0.930222 0.248445 0.395629
O O1 0.204408 0.637755 0.885942
O O2 0.063696 0.504424 0.719524
O O3 0.738358 0.190674 0.111437
O O4 0.898656 0.251836 0.073709
O O5 0.480607 0.260693 0.861237
O O6 0.500000 0.594177 0.750000
O O7 0.698434 0.487856 0.763079
O O8 0.806681 0.657099 0.836075
O O9 0.896401 0.548982 0.997375
O O10 0.428433 0.900111 0.490318
O O11 0.190060 0.847872 0.241331
O O12 0.000000 0.904330 0.250000
O O13 0.199811 0.024969 0.288545
O O14 0.865216 0.663116 0.296049
O O15 0.756701 0.173185 0.267063
O O16 0.924874 0.764802 0.445835
#
# Coordination Sequence:
#
# PCOD9238994 Si02
#       8
#     2   4   4   4   4   4   4   4
#     4  12  22  38  62  88 116 156 218 252 306 376
#     4  11  20  39  63  91 116 161 208 262 302 372
#     4  10  22  39  58  83 120 161 200 245 325 368
#     4  10  22  41  61  93 127 166 201 257 314 374
#     4  10  23  39  55  86 120 160 203 258 302 376
#     4  10  21  39  68  91 123 163 210 253 313 365
#     4  10  25  37  59  90 125 162 204 255 318 360
#     4  11  20  40  61  90 119 160 206 257 303 374
#
# _framework density 18.518519000000001
#
# number of rings (size 3 to 8) (size 9 to 14) (size 15 to 20)
#    0.000    1.600    2.667    1.200    2.800    3.200 
#    2.400    0.000    0.000    1.600    0.000    0.000 
#    0.000    0.000    0.000    0.000    0.000    0.000 
#
# Total GULP energy -167251.109307 kJ/mol
# GULP energy per Si atom -5575.036977 kJ/mol
# Density = 1.847637 g / cm^3
# Si number density = 18.518519 Si / 1000 Ang^3
#
#
#
# Elastic Constant Matrix: (Units=GPa)
#
#
# Indices 1 2 3 4 5 6 
#
# 1 71.8092 41.7652 28.3598 0.0000 4.0412 0.0000
# 2 41.7652 126.6326 40.7826 0.0000 -20.2967 0.0000
# 3 28.3598 40.7826 76.0051 0.0000 -13.7454 0.0000
# 4 0.0000 0.0000 0.0000 35.0840 0.0000 -7.9147
# 5 4.0412 -20.2967 -13.7454 0.0000 22.8693 0.0000
# 6 0.0000 0.0000 0.0000 -7.9147 0.0000 6.3305
#
#
#
# Elastic Compliance Matrix: (Units=1/GPa)
#
#
# Indices 1 2 3 4 5 6 
#
# 1 0.021619 -0.007245 -0.006768 0.000000 -0.014318 0.000000
# 2 -0.007245 0.012785 -0.002101 0.000000 0.011364 0.000000
# 3 -0.006768 -0.002101 0.018724 0.000000 0.010585 0.000000
# 4 0.000000 0.000000 0.000000 0.039700 0.000000 0.049635
# 5 -0.014318 0.011364 0.010585 0.000000 0.062704 0.000000
# 6 0.000000 0.000000 0.000000 0.049635 0.000000 0.220021
#
#
# Mechanical properties :
#
#
# Convention : Reuss Voigt Hill
#
# Bulk Modulus (GPa) = 47.85271 55.14024 51.49647
# Shear Modulus (GPa) = 12.05550 23.75939 17.90745
#
# Velocity S-wave (km/s) = 2.55423 3.58580 3.11304
# Velocity P-wave (km/s) = 5.88178 6.85451 6.38669
#
# Compressibility (1/GPa) = 0.02089746
#
# Stress axis : x y z
#
# Youngs Moduli (GPa) = 46.25646 78.21913 53.40640
#
# Poissons Ratio (x) = 0.56672 0.36147
# Poissons Ratio (y) = 0.33514 0.11223
# Poissons Ratio (z) = 0.31308 0.16437
#
# Static dielectric constant tensor:
#      x y z
#    x 1.641960 0.000000 0.029630 
#    y 0.000000 1.646680 0.000000 
#    z 0.029630 0.000000 1.668000 
# 
# From -- ./inp_files/66861.got.cif
#   From: 2010.05.17/outbox.ucp.g08.bks.cvg/sg13_34_cif.got.tgz:66861.got - 2010.06.11 12:23:55.
