data_PCOD9238233
_publ_section_title
;
Structure prediction by ZEFSAII (Michael W. Deem and Ramdas Pophale) SiO2 
 PCOD9238233
Probable space group: P 2/C
;
_chemical_formula_sum "Si O2"
_cell_formula_units_Z 28
_cell_length_a 20.509723
_cell_length_b 6.365973
_cell_length_c 15.706150
_cell_angle_alpha 90.000000
_cell_angle_beta 41.898694
_cell_angle_gamma 90.000000
_cell_volume 1369.464823
_symmetry_space_group_name_H-M "P 2/C"
_symmetry_group_IT_number 13
_symmetry_cell_setting 'monoclinic'
loop_
_space_group_symop_operation_xyz
x,y,z
-x,y,1/2-z
-x,-y,-z
x,-y,1/2+z
loop_
_atom_site_type_symbol
_atom_site_label
_atom_site_fract_x
_atom_site_fract_y
_atom_site_fract_z
Si Si1 0.000000 0.678649 0.750000
Si Si2 0.190025 0.439317 0.508381
Si Si3 0.954815 0.302909 0.994286
Si Si4 0.483690 0.018442 0.414121
Si Si5 0.632059 0.288312 0.677348
Si Si6 0.918817 0.960503 0.691231
Si Si7 0.279382 0.057576 0.529664
Si Si8 0.500000 0.359033 0.250000
O O1 0.898651 0.551885 0.854162
O O2 0.994682 0.827037 0.673028
O O3 0.131703 0.341146 0.486758
O O4 0.269721 0.594749 0.387599
O O5 0.242447 0.269527 0.518941
O O6 0.915604 0.141481 0.102202
O O7 0.000000 0.500000 0.000000
O O8 0.041851 0.194752 0.857284
O O9 0.515973 0.212067 0.318249
O O10 0.500000 0.000000 0.500000
O O11 0.544448 0.815153 0.318539
O O12 0.367153 0.050212 0.513090
O O13 0.674226 0.091577 0.586155
O O14 0.587330 0.472740 0.661871
O O15 0.815885 0.957566 0.836783
#
# Coordination Sequence:
#
# PCOD9238233 Si02
#       8
#     2   4   4   4   4   4   4   2
#     4  12  22  44  68 106 140 192 250 294 358 438
#     4  12  25  42  75 101 140 198 240 294 375 429
#     4  11  25  46  64 102 150 188 239 303 359 438
#     4  12  27  48  75 111 149 189 247 309 379 448
#     4  12  24  47  75 101 145 191 241 304 370 439
#     4  11  25  42  70  99 148 187 239 300 358 430
#     4  12  24  45  72 106 142 188 246 298 365 443
#     4  12  22  52  76 100 150 192 238 322 370 448
#
# _framework density 20.445941999999999
#
# number of rings (size 3 to 8) (size 9 to 14) (size 15 to 20)
#    0.000    0.286    7.143    1.714    0.000    4.000 
#    2.571    0.000    0.000    0.000    0.000    0.000 
#    0.000    0.000    0.000    0.000    0.000    0.000 
#
# Total GULP energy -155906.739598 kJ/mol
# GULP energy per Si atom -5568.097843 kJ/mol
# Density = 2.039941 g / cm^3
# Si number density = 20.445942 Si / 1000 Ang^3
#
#
#
# Elastic Constant Matrix: (Units=GPa)
#
#
# Indices 1 2 3 4 5 6 
#
# 1 144.6323 67.3407 53.9088 0.0000 -4.4345 0.0000
# 2 67.3407 107.8560 51.6805 0.0000 -6.0236 0.0000
# 3 53.9088 51.6805 91.5491 0.0000 -9.3362 0.0000
# 4 0.0000 0.0000 0.0000 45.0435 0.0000 -7.7026
# 5 -4.4345 -6.0236 -9.3362 0.0000 36.0787 0.0000
# 6 0.0000 0.0000 0.0000 -7.7026 0.0000 29.2255
#
#
#
# Elastic Compliance Matrix: (Units=1/GPa)
#
#
# Indices 1 2 3 4 5 6 
#
# 1 0.010469 -0.004915 -0.003433 0.000000 -0.000422 0.000000
# 2 -0.004915 0.015019 -0.005536 0.000000 0.000471 0.000000
# 3 -0.003433 -0.005536 0.016365 0.000000 0.002888 0.000000
# 4 0.000000 0.000000 0.000000 0.023249 0.000000 0.006127
# 5 -0.000422 0.000471 0.002888 0.000000 0.028491 0.000000
# 6 0.000000 0.000000 0.000000 0.006127 0.000000 0.035832
#
#
# Mechanical properties :
#
#
# Convention : Reuss Voigt Hill
#
# Bulk Modulus (GPa) = 71.00276 76.65524 73.82900
# Shear Modulus (GPa) = 30.88532 33.47671 32.18102
#
# Velocity S-wave (km/s) = 3.89084 4.05078 3.97162
# Velocity P-wave (km/s) = 7.41534 7.71048 7.56435
#
# Compressibility (1/GPa) = 0.01408396
#
# Stress axis : x y z
#
# Youngs Moduli (GPa) = 95.51767 66.58017 61.10694
#
# Poissons Ratio (x) = 0.32724 0.20980
# Poissons Ratio (y) = 0.46947 0.33831
# Poissons Ratio (z) = 0.32794 0.36862
#
# Static dielectric constant tensor:
#      x y z
#    x 1.807860 0.000000 0.047920 
#    y 0.000000 1.779910 0.000000 
#    z 0.047920 0.000000 1.756750 
# 
# From -- ./inp_files/70274.got.cif
#   From: 2010.05.17/outbox.cif.g08.bks.cpg/sg13_36_cif.got.tgz:70274.got - 2010.06.03 16:44:36.
