data_PCOD9238871
_publ_section_title
;
Structure prediction by ZEFSAII (Michael W. Deem and Ramdas Pophale) SiO2 
 PCOD9238871
Probable space group: P 2/C
;
_chemical_formula_sum "Si O2"
_cell_formula_units_Z 26
_cell_length_a 12.000000
_cell_length_b 9.000000
_cell_length_c 15.000000
_cell_angle_alpha 90.000000
_cell_angle_beta 120.000000
_cell_angle_gamma 90.000000
_cell_volume 1402.961154
_symmetry_space_group_name_H-M "P 2/C"
_symmetry_group_IT_number 13
_symmetry_cell_setting 'monoclinic'
loop_
_space_group_symop_operation_xyz
x,y,z
-x,y,1/2-z
-x,-y,-z
x,-y,1/2+z
loop_
_atom_site_type_symbol
_atom_site_label
_atom_site_fract_x
_atom_site_fract_y
_atom_site_fract_z
Si Si1 0.755294 0.829297 0.027431
Si Si2 0.655506 0.014393 0.816822
Si Si3 0.000000 0.671312 0.750000
Si Si4 0.514388 0.817563 0.499869
Si Si5 0.615603 0.340942 0.862561
Si Si6 0.115282 0.513117 0.468832
Si Si7 0.226626 0.095693 0.319951
O O1 0.717495 0.920404 0.922639
O O2 0.619021 0.764891 0.010360
O O3 0.848030 0.686966 0.042526
O O4 0.796500 0.959679 0.116735
O O5 0.500000 0.984081 0.750000
O O6 0.727698 0.975106 0.754623
O O7 0.669279 0.190440 0.838440
O O8 0.941672 0.572739 0.643171
O O9 0.889196 0.787836 0.736076
O O10 0.539533 0.731408 0.417302
O O11 0.651027 0.803638 0.602450
O O12 0.500000 0.000000 0.500000
O O13 0.500000 0.403288 0.750000
O O14 0.744333 0.438992 0.941915
O O15 0.000000 0.500000 0.500000
#
# Coordination Sequence:
#
# PCOD9238871 Si02
#       7
#     4   4   2   4   4   4   4
#     4  11  22  41  68 101 132 173 228 280 338 403
#     4  11  19  36  70 100 130 169 218 292 341 383
#     4  12  26  48  66  90 144 190 224 276 336 404
#     4  10  17  39  68  99 130 157 220 291 329 383
#     4  11  22  42  69 102 138 177 225 283 343 398
#     4  12  29  48  64  96 148 187 224 274 338 419
#     4  11  22  41  68  99 129 175 232 280 329 396
#
# _framework density 18.532230999999999
#
# number of rings (size 3 to 8) (size 9 to 14) (size 15 to 20)
#    0.000    0.923    6.154    3.692    0.000    5.538 
#    2.769    3.077    0.000    0.000    0.000    0.000 
#    0.000    0.000    0.000    0.000    0.000    0.000 
#
# Total GULP energy -144798.014232 kJ/mol
# GULP energy per Si atom -5569.154394 kJ/mol
# Density = 1.849005 g / cm^3
# Si number density = 18.532231 Si / 1000 Ang^3
#
#
#
# Elastic Constant Matrix: (Units=GPa)
#
#
# Indices 1 2 3 4 5 6 
#
# 1 110.6960 38.6134 42.1642 0.0000 -3.2170 0.0000
# 2 38.6134 97.5437 49.3212 0.0000 1.7220 0.0000
# 3 42.1642 49.3212 136.5521 0.0000 -4.9497 0.0000
# 4 0.0000 0.0000 0.0000 36.6798 0.0000 9.6994
# 5 -3.2170 1.7220 -4.9497 0.0000 45.5922 0.0000
# 6 0.0000 0.0000 0.0000 9.6994 0.0000 38.4926
#
#
#
# Elastic Compliance Matrix: (Units=1/GPa)
#
#
# Indices 1 2 3 4 5 6 
#
# 1 0.011031 -0.003264 -0.002203 0.000000 0.000662 0.000000
# 2 -0.003264 0.013551 -0.003929 0.000000 -0.001169 0.000000
# 3 -0.002203 -0.003929 0.009460 0.000000 0.001020 0.000000
# 4 0.000000 0.000000 0.000000 0.029209 0.000000 -0.007360
# 5 0.000662 -0.001169 0.001020 0.000000 0.022135 0.000000
# 6 0.000000 0.000000 0.000000 -0.007360 0.000000 0.027834
#
#
# Mechanical properties :
#
#
# Convention : Reuss Voigt Hill
#
# Bulk Modulus (GPa) = 65.57856 67.22105 66.39981
# Shear Modulus (GPa) = 36.47092 38.46577 37.46835
#
# Velocity S-wave (km/s) = 4.44100 4.56083 4.50131
# Velocity P-wave (km/s) = 7.85873 8.00539 7.93240
#
# Compressibility (1/GPa) = 0.01524889
#
# Stress axis : x y z
#
# Youngs Moduli (GPa) = 90.65497 73.79359 105.71360
#
# Poissons Ratio (x) = 0.24089 0.23288
# Poissons Ratio (y) = 0.29594 0.41535
# Poissons Ratio (z) = 0.19971 0.28993
#
# Static dielectric constant tensor:
#      x y z
#    x 1.679510 0.000000 -0.006470 
#    y 0.000000 1.649150 0.000000 
#    z -0.006470 0.000000 1.717010 
# 
# From -- ./inp_files/50162.got.cif
#   From: 2010.05.17/outbox.ucp.g08.bks.cvg/sg13_26_cif.got.tgz:50162.got - 2010.06.11 12:23:55.
