data_PCOD9238308
_publ_section_title
;
Structure prediction by ZEFSAII (Michael W. Deem and Ramdas Pophale) SiO2 
 PCOD9238308
Probable space group: P 2/C
;
_chemical_formula_sum "Si O2"
_cell_formula_units_Z 20
_cell_length_a 5.162279
_cell_length_b 16.806116
_cell_length_c 9.603142
_cell_angle_alpha 90.000000
_cell_angle_beta 64.491632
_cell_angle_gamma 90.000000
_cell_volume 751.934773
_symmetry_space_group_name_H-M "P 2/C"
_symmetry_group_IT_number 13
_symmetry_cell_setting 'monoclinic'
loop_
_space_group_symop_operation_xyz
x,y,z
-x,y,1/2-z
-x,-y,-z
x,-y,1/2+z
loop_
_atom_site_type_symbol
_atom_site_label
_atom_site_fract_x
_atom_site_fract_y
_atom_site_fract_z
Si Si1 0.267101 0.797126 0.621551
Si Si2 0.164240 0.846181 0.354678
Si Si3 0.189192 0.547790 0.067326
Si Si4 0.341768 0.940944 0.931854
Si Si5 0.211496 0.362582 0.315421
O O1 0.183929 0.784529 0.480125
O O2 0.544396 0.850258 0.566411
O O3 0.278209 0.719308 0.715318
O O4 0.000000 0.845450 0.750000
O O5 0.500000 0.863369 0.250000
O O6 0.000000 0.823963 0.250000
O O7 0.005479 0.924046 0.045663
O O8 0.000000 0.558842 0.250000
O O9 0.500000 0.500000 0.000000
O O10 0.172371 0.634585 0.990189
O O11 0.000000 0.500000 0.000000
O O12 0.500000 0.958248 0.750000
O O13 0.500000 0.000000 0.000000
O O14 0.500000 0.413319 0.250000
O O15 0.000000 0.398944 0.250000
#
# Coordination Sequence:
#
# PCOD9238308 Si02
#       5
#     4   4   4   4   4
#     4  11  25  50  80 110 160 221 277 346 437 509
#     4  12  27  50  79 117 158 208 278 354 438 513
#     4  12  25  47  82 127 173 219 273 340 408 497
#     4  12  28  50  84 116 160 218 287 361 450 518
#     4  11  25  46  80 116 163 225 276 334 418 500
#
# _framework density 26.598053
#
# number of rings (size 3 to 8) (size 9 to 14) (size 15 to 20)
#    0.000    0.400    4.000    4.200    5.600    1.600 
#    0.000    9.000    0.000    0.000    0.000    0.000 
#    0.000    0.000    0.000    0.000    0.000    0.000 
#
# Total GULP energy -111363.125803 kJ/mol
# GULP energy per Si atom -5568.156290 kJ/mol
# Density = 2.653751 g / cm^3
# Si number density = 26.598053 Si / 1000 Ang^3
#
#
#
# Elastic Constant Matrix: (Units=GPa)
#
#
# Indices 1 2 3 4 5 6 
#
# 1 231.1412 22.2828 105.6624 0.0000 0.9151 0.0000
# 2 22.2828 108.6028 70.9831 0.0000 13.6050 0.0000
# 3 105.6624 70.9831 302.0337 0.0000 27.7595 0.0000
# 4 0.0000 0.0000 0.0000 45.3337 0.0000 18.9516
# 5 0.9151 13.6050 27.7595 0.0000 68.3178 0.0000
# 6 0.0000 0.0000 0.0000 18.9516 0.0000 23.1671
#
#
#
# Elastic Compliance Matrix: (Units=1/GPa)
#
#
# Indices 1 2 3 4 5 6 
#
# 1 0.005182 0.000091 -0.001897 0.000000 0.000683 0.000000
# 2 0.000091 0.010972 -0.002503 0.000000 -0.001169 0.000000
# 3 -0.001897 -0.002503 0.004690 0.000000 -0.001382 0.000000
# 4 0.000000 0.000000 0.000000 0.033523 0.000000 -0.027423
# 5 0.000683 -0.001169 -0.001382 0.000000 0.015423 0.000000
# 6 0.000000 0.000000 0.000000 -0.027423 0.000000 0.065598
#
#
# Mechanical properties :
#
#
# Convention : Reuss Voigt Hill
#
# Bulk Modulus (GPa) = 81.79561 115.51494 98.65528
# Shear Modulus (GPa) = 33.76565 56.88699 45.32632
#
# Velocity S-wave (km/s) = 3.56684 4.62970 4.13258
# Velocity P-wave (km/s) = 6.91248 8.49134 7.74226
#
# Compressibility (1/GPa) = 0.01222559
#
# Stress axis : x y z
#
# Youngs Moduli (GPa) = 192.97195 91.14489 213.22923
#
# Poissons Ratio (x) = -0.00830 0.40452
# Poissons Ratio (y) = -0.01758 0.53370
# Poissons Ratio (z) = 0.36609 0.22813
#
# Static dielectric constant tensor:
#      x y z
#    x 2.645050 0.000000 -0.358660 
#    y 0.000000 2.453340 0.000000 
#    z -0.358660 0.000000 2.509720 
# 
# From -- ./inp_files/9952.got.cif
#   From: 2010.05.17/outbox.cif.g08.bks.cpg/sg13_5_cif.got.tgz:9952.got - 2010.06.03 16:44:36.
