data_PCOD9238617
_publ_section_title
;
Structure prediction by ZEFSAII (Michael W. Deem and Ramdas Pophale) SiO2 
 PCOD9238617
Probable space group: P 2/C
;
_chemical_formula_sum "Si O2"
_cell_formula_units_Z 20
_cell_length_a 4.933432
_cell_length_b 5.950316
_cell_length_c 28.363865
_cell_angle_alpha 90.000000
_cell_angle_beta 80.436334
_cell_angle_gamma 90.000000
_cell_volume 821.062557
_symmetry_space_group_name_H-M "P 2/C"
_symmetry_group_IT_number 13
_symmetry_cell_setting 'monoclinic'
loop_
_space_group_symop_operation_xyz
x,y,z
-x,y,1/2-z
-x,-y,-z
x,-y,1/2+z
loop_
_atom_site_type_symbol
_atom_site_label
_atom_site_fract_x
_atom_site_fract_y
_atom_site_fract_z
Si Si1 0.000000 0.327632 0.250000
Si Si2 0.399323 0.830599 0.344386
Si Si3 0.907562 0.447447 0.843184
Si Si4 0.471448 0.786204 0.586981
Si Si5 0.500000 0.059352 0.250000
Si Si6 0.031913 0.749352 0.523815
O O1 0.915642 0.451604 0.204607
O O2 0.270189 0.193067 0.228080
O O3 0.671204 0.692567 0.324087
O O4 0.327289 0.943784 0.296606
O O5 0.125989 0.695894 0.366737
O O6 0.504914 0.985414 0.383933
O O7 0.722517 0.617981 0.878296
O O8 0.789274 0.731729 0.569453
O O9 0.326605 0.778667 0.540338
O O10 0.000000 0.500000 0.500000
O O11 0.000000 0.000000 0.500000
#
# Coordination Sequence:
#
# PCOD9238617 Si02
#       6
#     2   4   4   4   2   4
#     4  12  24  44  68 104 156 202 252 308 376 444
#     4  12  26  45  74 107 151 202 255 311 376 461
#     4  12  26  45  74 107 151 202 255 311 376 461
#     4  12  28  50  79 114 148 196 255 326 386 472
#     4  12  24  44  68 104 156 202 252 308 376 444
#     4  12  30  54  83 114 156 200 255 332 416 486
#
# _framework density 24.358675999999999
#
# number of rings (size 3 to 8) (size 9 to 14) (size 15 to 20)
#    0.000    0.000    2.000    7.200   11.200    0.000 
#    0.000    0.000    0.000    0.000    0.000    0.000 
#    0.000    0.000    0.000    0.000    0.000    0.000 
#
# Total GULP energy -111581.955644 kJ/mol
# GULP energy per Si atom -5579.097782 kJ/mol
# Density = 2.430323 g / cm^3
# Si number density = 24.358676 Si / 1000 Ang^3
#
#
#
# Elastic Constant Matrix: (Units=GPa)
#
#
# Indices 1 2 3 4 5 6 
#
# 1 119.8202 25.8021 -10.7362 0.0000 -4.0339 0.0000
# 2 25.8021 102.0995 32.1749 0.0000 3.7803 0.0000
# 3 -10.7362 32.1749 46.1654 0.0000 -4.5385 0.0000
# 4 0.0000 0.0000 0.0000 35.7352 0.0000 -8.6094
# 5 -4.0339 3.7803 -4.5385 0.0000 49.5230 0.0000
# 6 0.0000 0.0000 0.0000 -8.6094 0.0000 60.2205
#
#
#
# Elastic Compliance Matrix: (Units=1/GPa)
#
#
# Indices 1 2 3 4 5 6 
#
# 1 0.009794 -0.004232 0.005386 0.000000 0.001614 0.000000
# 2 -0.004232 0.014536 -0.011361 0.000000 -0.002496 0.000000
# 3 0.005386 -0.011361 0.031242 0.000000 0.004169 0.000000
# 4 0.000000 0.000000 0.000000 0.028982 0.000000 0.004143
# 5 0.001614 -0.002496 0.004169 0.000000 0.020897 0.000000
# 6 0.000000 0.000000 0.000000 0.004143 0.000000 0.017198
#
#
# Mechanical properties :
#
#
# Convention : Reuss Voigt Hill
#
# Bulk Modulus (GPa) = 28.44273 40.28519 34.36396
# Shear Modulus (GPa) = 32.30351 43.81871 38.06111
#
# Velocity S-wave (km/s) = 3.64560 4.24594 3.95717
# Velocity P-wave (km/s) = 5.42425 6.37272 5.91752
#
# Compressibility (1/GPa) = 0.03515837
#
# Stress axis : x y z
#
# Youngs Moduli (GPa) = 102.10151 68.79248 32.00867
#
# Poissons Ratio (x) = 0.29115 -0.17240
# Poissons Ratio (y) = 0.43212 0.36364
# Poissons Ratio (z) = -0.54993 0.78153
#
# Static dielectric constant tensor:
#      x y z
#    x 1.908530 0.000000 0.050150 
#    y 0.000000 2.252730 0.000000 
#    z 0.050150 0.000000 1.907440 
# 
# From -- ./inp_files/89908.got.cif
#   From: 2010.05.17/outbox.cif.g08.bks.cpg/sg13_45_cif.got.tgz:89908.got - 2010.06.03 16:44:36.
