data_PCOD9238161
_publ_section_title
;
Structure prediction by ZEFSAII (Michael W. Deem and Ramdas Pophale) SiO2 
 PCOD9238161
Probable space group: P 2/C
;
_chemical_formula_sum "Si O2"
_cell_formula_units_Z 30
_cell_length_a 8.782877
_cell_length_b 11.446154
_cell_length_c 13.746771
_cell_angle_alpha 90.000000
_cell_angle_beta 55.918749
_cell_angle_gamma 90.000000
_cell_volume 1144.603977
_symmetry_space_group_name_H-M "P 2/C"
_symmetry_group_IT_number 13
_symmetry_cell_setting 'monoclinic'
loop_
_space_group_symop_operation_xyz
x,y,z
-x,y,1/2-z
-x,-y,-z
x,-y,1/2+z
loop_
_atom_site_type_symbol
_atom_site_label
_atom_site_fract_x
_atom_site_fract_y
_atom_site_fract_z
Si Si1 0.396391 0.802139 0.383627
Si Si2 0.158681 0.594597 0.955155
Si Si3 0.014641 0.820276 0.036774
Si Si4 0.500000 0.000000 0.000000
Si Si5 0.808194 0.633449 0.764800
Si Si6 0.481095 0.542664 0.115860
Si Si7 0.458669 0.837747 0.650850
Si Si8 0.892796 0.962269 0.693536
O O1 0.500000 0.847600 0.250000
O O2 0.185256 0.778544 0.432031
O O3 0.487815 0.677768 0.376885
O O4 0.408082 0.896339 0.464474
O O5 0.152870 0.667325 0.858424
O O6 0.353541 0.531156 0.894389
O O7 0.000000 0.500000 0.000000
O O8 0.116652 0.703148 0.040086
O O9 0.962795 0.910672 0.140902
O O10 0.093778 0.894013 0.914509
O O11 0.390807 0.893472 0.972288
O O12 0.720037 0.505569 0.787985
O O13 0.650465 0.725618 0.850559
O O14 0.000000 0.634482 0.750000
O O15 0.500000 0.500000 0.000000
O O16 0.500000 0.819764 0.750000
O O17 0.317368 0.949477 0.692271
O O18 0.000000 0.914186 0.750000
#
# Coordination Sequence:
#
# PCOD9238161 Si02
#       8
#     4   4   4   2   4   4   4   4
#     4  12  26  50  76 113 159 208 256 338 400 479
#     4  12  24  47  79 111 150 202 253 321 398 473
#     4  11  25  45  76 109 155 200 259 319 398 468
#     4  12  26  42  78 110 158 200 262 320 404 488
#     4  12  27  48  79 108 150 201 260 323 393 478
#     4  12  27  50  77 114 153 203 268 327 402 480
#     4  12  25  46  72 112 150 202 261 321 398 482
#     4  11  24  46  73 107 155 202 257 319 385 475
#
# _framework density 26.209935999999999
#
# number of rings (size 3 to 8) (size 9 to 14) (size 15 to 20)
#    0.000    0.267    2.667    6.800    1.867    1.067 
#    9.600    0.667    0.000    0.000    0.000    0.000 
#    0.000    0.000    0.000    0.000    0.000    0.000 
#
# Total GULP energy -167392.356787 kJ/mol
# GULP energy per Si atom -5579.745226 kJ/mol
# Density = 2.615028 g / cm^3
# Si number density = 26.209936 Si / 1000 Ang^3
#
#
#
# Elastic Constant Matrix: (Units=GPa)
#
#
# Indices 1 2 3 4 5 6 
#
# 1 129.1158 46.0253 9.0985 0.0000 8.0432 0.0000
# 2 46.0253 184.0584 31.2160 0.0000 -19.9297 0.0000
# 3 9.0985 31.2160 48.9615 0.0000 17.9532 0.0000
# 4 0.0000 0.0000 0.0000 36.6499 0.0000 -9.6725
# 5 8.0432 -19.9297 17.9532 0.0000 43.1214 0.0000
# 6 0.0000 0.0000 0.0000 -9.6725 0.0000 35.4851
#
#
#
# Elastic Compliance Matrix: (Units=1/GPa)
#
#
# Indices 1 2 3 4 5 6 
#
# 1 0.008886 -0.002867 0.001499 0.000000 -0.003606 0.000000
# 2 -0.002867 0.008213 -0.007425 0.000000 0.007422 0.000000
# 3 0.001499 -0.007425 0.030968 0.000000 -0.016604 0.000000
# 4 0.000000 0.000000 0.000000 0.029400 0.000000 0.008014
# 5 -0.003606 0.007422 -0.016604 0.000000 0.034206 0.000000
# 6 0.000000 0.000000 0.000000 0.008014 0.000000 0.030365
#
#
# Mechanical properties :
#
#
# Convention : Reuss Voigt Hill
#
# Bulk Modulus (GPa) = 32.80706 59.42392 46.11549
# Shear Modulus (GPa) = 29.44916 41.43767 35.44341
#
# Velocity S-wave (km/s) = 3.35563 3.98048 3.68134
# Velocity P-wave (km/s) = 5.24956 6.62172 5.97516
#
# Compressibility (1/GPa) = 0.03048125
#
# Stress axis : x y z
#
# Youngs Moduli (GPa) = 112.53783 121.76188 32.29145
#
# Poissons Ratio (x) = 0.34905 -0.04840
# Poissons Ratio (y) = 0.32261 0.23976
# Poissons Ratio (z) = -0.16867 0.90406
#
# Static dielectric constant tensor:
#      x y z
#    x 2.091160 0.000000 0.029000 
#    y 0.000000 1.980920 0.000000 
#    z 0.029000 0.000000 1.782190 
# 
# From -- ./inp_files/47174.got.cif
#   From: 2010.05.17/outbox.cif.g08.bks.cpg/sg13_24_cif.got.tgz:47174.got - 2010.06.03 16:44:36.
