data_PCOD9238077
_publ_section_title
;
Structure prediction by ZEFSAII (Michael W. Deem and Ramdas Pophale) SiO2 
 PCOD9238077
Probable space group: P 2/C
;
_chemical_formula_sum "Si O2"
_cell_formula_units_Z 28
_cell_length_a 22.416623
_cell_length_b 8.359311
_cell_length_c 27.618387
_cell_angle_alpha 90.000000
_cell_angle_beta 11.878174
_cell_angle_gamma 90.000000
_cell_volume 1065.247823
_symmetry_space_group_name_H-M "P 2/C"
_symmetry_group_IT_number 13
_symmetry_cell_setting 'monoclinic'
loop_
_space_group_symop_operation_xyz
x,y,z
-x,y,1/2-z
-x,-y,-z
x,-y,1/2+z
loop_
_atom_site_type_symbol
_atom_site_label
_atom_site_fract_x
_atom_site_fract_y
_atom_site_fract_z
Si Si1 0.629598 0.960833 0.568502
Si Si2 0.549386 0.699412 0.153166
Si Si3 0.759610 0.376619 0.006362
Si Si4 0.822511 0.334571 0.639026
Si Si5 0.534011 0.864382 0.537543
Si Si6 0.622581 0.483265 0.956259
Si Si7 0.962062 0.922070 0.108980
O O1 0.787452 0.797585 0.459871
O O2 0.607660 0.955927 0.527953
O O3 0.733071 0.138104 0.500362
O O4 0.298927 0.951854 0.851705
O O5 0.500000 0.690170 0.250000
O O6 0.676055 0.524963 0.038093
O O7 0.260089 0.713589 0.350009
O O8 0.500000 0.355031 0.250000
O O9 0.961549 0.449483 0.688514
O O10 0.502767 0.366222 0.916170
O O11 0.957370 0.207926 0.569278
O O12 0.000000 0.500000 0.500000
O O13 0.494663 0.678950 0.580586
O O14 0.784853 0.871653 0.297627
O O15 0.238850 0.935080 0.750747
O O16 0.500000 0.500000 0.000000
#
# Coordination Sequence:
#
# PCOD9238077 Si02
#       7
#     4   4   4   4   4   4   4
#     4  12  25  50  81 114 161 218 270 332 429 501
#     4  11  27  48  77 115 160 216 267 334 414 501
#     4  11  27  52  76 113 163 214 272 338 418 499
#     4  12  26  48  81 117 160 218 275 347 421 499
#     4  11  24  43  75 117 159 201 264 343 407 488
#     4  12  27  48  80 115 154 212 279 341 411 500
#     4  11  24  46  73 121 158 203 274 339 405 505
#
# _framework density 26.284963000000001
#
# number of rings (size 3 to 8) (size 9 to 14) (size 15 to 20)
#    0.000    0.571    2.857    4.286    6.000    2.286 
#    2.571    2.857    0.000    0.000    0.000    0.000 
#    0.000    0.000    0.000    0.000    0.000    0.000 
#
# Total GULP energy -156875.649658 kJ/mol
# GULP energy per Si atom -5602.701774 kJ/mol
# Density = 2.622514 g / cm^3
# Si number density = 26.284963 Si / 1000 Ang^3
#
#
#
# Elastic Constant Matrix: (Units=GPa)
#
#
# Indices 1 2 3 4 5 6 
#
# 1 127.1964 20.8984 27.0638 0.0000 3.8529 0.0000
# 2 20.8984 143.6650 17.7513 0.0000 -7.4272 0.0000
# 3 27.0638 17.7513 146.2225 0.0000 -6.8094 0.0000
# 4 0.0000 0.0000 0.0000 22.7871 0.0000 -4.2642
# 5 3.8529 -7.4272 -6.8094 0.0000 40.9997 0.0000
# 6 0.0000 0.0000 0.0000 -4.2642 0.0000 52.8852
#
#
#
# Elastic Compliance Matrix: (Units=1/GPa)
#
#
# Indices 1 2 3 4 5 6 
#
# 1 0.008395 -0.001102 -0.001477 0.000000 -0.001234 0.000000
# 2 -0.001102 0.007265 -0.000617 0.000000 0.001317 0.000000
# 3 -0.001477 -0.000617 0.007244 0.000000 0.001230 0.000000
# 4 0.000000 0.000000 0.000000 0.044557 0.000000 0.003593
# 5 -0.001234 0.001317 0.001230 0.000000 0.024949 0.000000
# 6 0.000000 0.000000 0.000000 0.003593 0.000000 0.019199
#
#
# Mechanical properties :
#
#
# Convention : Reuss Voigt Hill
#
# Bulk Modulus (GPa) = 60.56312 60.94566 60.75439
# Shear Modulus (GPa) = 40.48391 46.75909 43.62150
#
# Velocity S-wave (km/s) = 3.92879 4.22231 4.07819
# Velocity P-wave (km/s) = 6.60844 6.85619 6.73346
#
# Compressibility (1/GPa) = 0.01651170
#
# Stress axis : x y z
#
# Youngs Moduli (GPa) = 119.12266 137.64076 138.03595
#
# Poissons Ratio (x) = 0.15173 0.20393
# Poissons Ratio (y) = 0.13132 0.08512
# Poissons Ratio (z) = 0.17599 0.08487
#
# Static dielectric constant tensor:
#      x y z
#    x 2.071380 0.000000 -0.073680 
#    y 0.000000 2.120610 0.000000 
#    z -0.073680 0.000000 2.215090 
# 
# From -- ./inp_files/88460.got.cif
#   From: 2010.05.17/outbox.cif.g08.bks.cpg/sg13_45_cif.got.tgz:88460.got - 2010.06.03 16:44:36.
