data_PCOD9238144
_publ_section_title
;
Structure prediction by ZEFSAII (Michael W. Deem and Ramdas Pophale) SiO2 
 PCOD9238144
Probable space group: P 2/C
;
_chemical_formula_sum "Si O2"
_cell_formula_units_Z 20
_cell_length_a 9.753436
_cell_length_b 5.708570
_cell_length_c 24.117196
_cell_angle_alpha 90.000000
_cell_angle_beta 37.018564
_cell_angle_gamma 90.000000
_cell_volume 808.465471
_symmetry_space_group_name_H-M "P 2/C"
_symmetry_group_IT_number 13
_symmetry_cell_setting 'monoclinic'
loop_
_space_group_symop_operation_xyz
x,y,z
-x,y,1/2-z
-x,-y,-z
x,-y,1/2+z
loop_
_atom_site_type_symbol
_atom_site_label
_atom_site_fract_x
_atom_site_fract_y
_atom_site_fract_z
Si Si1 0.668623 0.482067 0.065168
Si Si2 0.000000 0.900364 0.750000
Si Si3 0.500000 0.041204 0.250000
Si Si4 0.550244 0.752421 0.953101
Si Si5 0.871261 0.407493 0.122678
Si Si6 0.293714 0.764079 0.231827
O O1 0.862493 0.629420 0.971492
O O2 0.761990 0.443994 0.096857
O O3 0.420202 0.592927 0.149125
O O4 0.622897 0.252299 0.043650
O O5 0.133286 0.065040 0.750220
O O6 0.810030 0.761765 0.846583
O O7 0.509105 0.887561 0.192368
O O8 0.722332 0.191456 0.190693
O O9 0.500000 0.500000 0.000000
O O10 0.500000 0.000000 0.000000
O O11 0.826701 0.618692 0.179935
#
# Coordination Sequence:
#
# PCOD9238144 Si02
#       6
#     4   2   2   4   4   4
#     4  11  24  47  77 108 158 205 274 321 423 471
#     4  12  30  50  86 112 166 218 266 340 424 482
#     4  12  22  44  76 106 160 194 276 318 414 460
#     4  12  29  53  78 117 161 215 272 336 401 497
#     4  11  24  45  74 114 151 207 259 351 388 497
#     4  12  25  51  74 118 159 210 271 337 405 497
#
# _framework density 24.738223000000001
#
# number of rings (size 3 to 8) (size 9 to 14) (size 15 to 20)
#    0.000    0.400    4.000    3.600    2.800    4.000 
#    3.600    0.000    0.000    0.000    0.000    0.000 
#    0.000    0.000    0.000    0.000    0.000    0.000 
#
# Total GULP energy -111841.803216 kJ/mol
# GULP energy per Si atom -5592.090161 kJ/mol
# Density = 2.468192 g / cm^3
# Si number density = 24.738223 Si / 1000 Ang^3
#
#
#
# Elastic Constant Matrix: (Units=GPa)
#
#
# Indices 1 2 3 4 5 6 
#
# 1 122.5760 50.7594 57.2328 0.0000 13.8974 0.0000
# 2 50.7594 119.9342 69.1952 0.0000 16.8706 0.0000
# 3 57.2328 69.1952 151.5776 0.0000 -6.6649 0.0000
# 4 0.0000 0.0000 0.0000 22.1226 0.0000 48.7843
# 5 13.8974 16.8706 -6.6649 0.0000 46.4244 0.0000
# 6 0.0000 0.0000 0.0000 48.7843 0.0000 3.8279
#
#
#
# Elastic Compliance Matrix: (Units=1/GPa)
#
#
# Indices 1 2 3 4 5 6 
#
# 1 0.010957 -0.002411 -0.003162 0.000000 -0.002858 0.000000
# 2 -0.002411 0.013069 -0.005266 0.000000 -0.004784 0.000000
# 3 -0.003162 -0.005266 0.010387 0.000000 0.004352 0.000000
# 4 0.000000 0.000000 0.000000 -0.001668 0.000000 0.021255
# 5 -0.002858 -0.004784 0.004352 0.000000 0.024759 0.000000
# 6 0.000000 0.000000 0.000000 0.021255 0.000000 -0.009639
#
#
# Mechanical properties :
#
#
# Convention : Reuss Voigt Hill
#
# Bulk Modulus (GPa) = 78.52726 83.16251 80.84489
# Shear Modulus (GPa) = 67.76003 28.93501 48.34752
#
# Velocity S-wave (km/s) = 5.23930 3.42372 4.42562
# Velocity P-wave (km/s) = 8.27119 7.02276 7.67241
#
# Compressibility (1/GPa) = 0.01273443
#
# Stress axis : x y z
#
# Youngs Moduli (GPa) = 91.26486 76.51402 96.27703
#
# Poissons Ratio (x) = 0.18447 0.30446
# Poissons Ratio (y) = 0.22003 0.50702
# Poissons Ratio (z) = 0.28861 0.40294
#
# Static dielectric constant tensor:
#      x y z
#    x 1.935350 0.000000 0.058860 
#    y 0.000000 2.027200 0.000000 
#    z 0.058860 0.000000 2.058430 
# 
# From -- ./inp_files/74214.got.cif
#   From: 2010.05.17/outbox.cif.g08.bks.cpg/sg13_38_cif.got.tgz:74214.got - 2010.06.03 16:44:36.
