data_PCOD9238335
_publ_section_title
;
Structure prediction by ZEFSAII (Michael W. Deem and Ramdas Pophale) SiO2 
 PCOD9238335
Probable space group: P 2/C
;
_chemical_formula_sum "Si O2"
_cell_formula_units_Z 28
_cell_length_a 15.065297
_cell_length_b 5.223036
_cell_length_c 15.845417
_cell_angle_alpha 90.000000
_cell_angle_beta 120.608814
_cell_angle_gamma 90.000000
_cell_volume 1073.094282
_symmetry_space_group_name_H-M "P 2/C"
_symmetry_group_IT_number 13
_symmetry_cell_setting 'monoclinic'
loop_
_space_group_symop_operation_xyz
x,y,z
-x,y,1/2-z
-x,-y,-z
x,-y,1/2+z
loop_
_atom_site_type_symbol
_atom_site_label
_atom_site_fract_x
_atom_site_fract_y
_atom_site_fract_z
Si Si1 0.476966 0.696089 0.564791
Si Si2 0.268540 0.332937 0.654885
Si Si3 0.000000 0.357288 0.750000
Si Si4 0.199176 0.826294 0.708073
Si Si5 0.184250 0.629123 0.938561
Si Si6 0.333537 0.937844 0.919029
Si Si7 0.500000 0.594690 0.250000
Si Si8 0.008057 0.028050 0.403369
O O1 0.500000 0.500000 0.500000
O O2 0.569439 0.899752 0.595840
O O3 0.488380 0.572630 0.660482
O O4 0.369632 0.841337 0.498366
O O5 0.259476 0.563109 0.718749
O O6 0.210997 0.463097 0.546185
O O7 0.389508 0.267130 0.701660
O O8 0.217019 0.060670 0.651716
O O9 0.105813 0.491341 0.836389
O O10 0.975115 0.191757 0.822296
O O11 0.237632 0.963164 0.811558
O O12 0.078923 0.757075 0.655000
O O13 0.295411 0.696464 0.954204
O O14 0.120299 0.887794 0.928116
O O15 0.000000 0.000000 0.500000
#
# Coordination Sequence:
#
# PCOD9238335 Si02
#       8
#     4   4   2   4   4   4   2   4
#     4  11  25  48  74 112 158 213 268 340 398 492
#     4  12  29  49  80 117 162 211 274 336 410 490
#     4  12  28  48  80 116 162 216 274 342 420 498
#     4  12  27  50  78 115 159 213 267 336 409 489
#     4  12  28  48  77 118 160 213 274 346 418 497
#     4  11  26  45  77 110 159 207 268 332 414 475
#     4  12  26  48  82 116 162 218 282 330 416 496
#     4  12  27  49  78 114 161 212 274 334 414 499
#
# _framework density 26.092769000000001
#
# number of rings (size 3 to 8) (size 9 to 14) (size 15 to 20)
#    0.000    0.286    2.857    4.714    6.000    5.143 
#    0.000    0.000    0.000    0.000    0.000    0.000 
#    0.000    0.000    0.000    0.000    0.000    0.000 
#
# Total GULP energy -156486.052723 kJ/mol
# GULP energy per Si atom -5588.787597 kJ/mol
# Density = 2.603338 g / cm^3
# Si number density = 26.092769 Si / 1000 Ang^3
#
#
#
# Elastic Constant Matrix: (Units=GPa)
#
#
# Indices 1 2 3 4 5 6 
#
# 1 92.6511 27.2618 13.1332 0.0000 4.5951 0.0000
# 2 27.2618 84.3304 21.0318 0.0000 -6.7039 0.0000
# 3 13.1332 21.0318 153.7352 0.0000 -20.4813 0.0000
# 4 0.0000 0.0000 0.0000 42.5835 0.0000 7.6899
# 5 4.5951 -6.7039 -20.4813 0.0000 51.8508 0.0000
# 6 0.0000 0.0000 0.0000 7.6899 0.0000 32.8240
#
#
#
# Elastic Compliance Matrix: (Units=1/GPa)
#
#
# Indices 1 2 3 4 5 6 
#
# 1 0.012136 -0.003884 -0.000755 0.000000 -0.001876 0.000000
# 2 -0.003884 0.013567 -0.001314 0.000000 0.001579 0.000000
# 3 -0.000755 -0.001314 0.007109 0.000000 0.002705 0.000000
# 4 0.000000 0.000000 0.000000 0.024521 0.000000 -0.005745
# 5 -0.001876 0.001579 0.002705 0.000000 0.020725 0.000000
# 6 0.000000 0.000000 0.000000 -0.005745 0.000000 0.031811
#
#
# Mechanical properties :
#
#
# Convention : Reuss Voigt Hill
#
# Bulk Modulus (GPa) = 47.83306 50.39669 49.11488
# Shear Modulus (GPa) = 38.83655 43.40433 41.12044
#
# Velocity S-wave (km/s) = 3.86217 4.08298 3.97411
# Velocity P-wave (km/s) = 6.18548 6.44857 6.31839
#
# Compressibility (1/GPa) = 0.02090604
#
# Stress axis : x y z
#
# Youngs Moduli (GPa) = 82.39854 73.70858 140.65945
#
# Poissons Ratio (x) = 0.28629 0.10625
# Poissons Ratio (y) = 0.32004 0.18480
# Poissons Ratio (z) = 0.06224 0.09684
#
# Static dielectric constant tensor:
#      x y z
#    x 2.088380 0.000000 0.003770 
#    y 0.000000 2.103270 0.000000 
#    z 0.003770 0.000000 2.851230 
# 
# From -- ./inp_files/67647.got.cif
#   From: 2010.05.17/outbox.cif.g08.bks.cpg/sg13_34_cif.got.tgz:67647.got - 2010.06.03 16:44:36.
