data_PCOD9238123
_publ_section_title
;
Structure prediction by ZEFSAII (Michael W. Deem and Ramdas Pophale) SiO2 
 PCOD9238123
Probable space group: P 2/C
;
_chemical_formula_sum "Si O2"
_cell_formula_units_Z 26
_cell_length_a 13.279197
_cell_length_b 10.017880
_cell_length_c 13.408466
_cell_angle_alpha 90.000000
_cell_angle_beta 41.969126
_cell_angle_gamma 90.000000
_cell_volume 1192.827332
_symmetry_space_group_name_H-M "P 2/C"
_symmetry_group_IT_number 13
_symmetry_cell_setting 'monoclinic'
loop_
_space_group_symop_operation_xyz
x,y,z
-x,y,1/2-z
-x,-y,-z
x,-y,1/2+z
loop_
_atom_site_type_symbol
_atom_site_label
_atom_site_fract_x
_atom_site_fract_y
_atom_site_fract_z
Si Si1 0.000000 0.912441 0.250000
Si Si2 0.446770 0.913353 0.632085
Si Si3 0.285438 0.982431 0.429174
Si Si4 0.771577 0.318513 0.558460
Si Si5 0.542363 0.359961 0.018460
Si Si6 0.000000 0.464559 0.250000
Si Si7 0.131093 0.309049 0.796821
Si Si8 0.500000 0.487580 0.250000
O O1 0.869654 0.995047 0.399177
O O2 0.938713 0.816733 0.207788
O O3 0.589780 0.935574 0.600401
O O4 0.305487 0.964825 0.800881
O O5 0.426004 0.762247 0.609034
O O6 0.500000 0.000000 0.500000
O O7 0.304811 0.823146 0.410123
O O8 0.878900 0.306656 0.576470
O O9 0.637432 0.420558 0.683988
O O10 0.867419 0.376272 0.395754
O O11 0.568478 0.396511 0.113904
O O12 0.500000 0.500000 0.000000
O O13 0.691966 0.306704 0.857702
O O14 0.062071 0.560838 0.292680
#
# Coordination Sequence:
#
# PCOD9238123 Si02
#       8
#     2   4   4   4   4   2   4   2
#     4  11  25  48  70  98 141 187 238 282 354 434
#     4  11  25  46  71 103 142 182 235 296 357 415
#     4  11  25  45  72  99 141 189 234 291 356 425
#     4  12  25  45  68 105 136 182 236 293 350 417
#     4  12  24  42  72 103 133 181 232 282 351 416
#     4  11  25  44  66  98 145 181 228 290 358 424
#     4  11  24  45  69  98 141 183 230 293 352 419
#     4  12  24  40  70  96 138 170 228 286 340 412
#
# _framework density 21.796952999999998
#
# number of rings (size 3 to 8) (size 9 to 14) (size 15 to 20)
#    0.000    0.615    4.615    3.692    2.154    0.615 
#    5.538    0.000    0.000    0.000    0.000    0.000 
#    0.000    0.000    0.000    0.000    0.000    0.000 
#
# Total GULP energy -145292.674947 kJ/mol
# GULP energy per Si atom -5588.179806 kJ/mol
# Density = 2.174734 g / cm^3
# Si number density = 21.796953 Si / 1000 Ang^3
#
#
#
# Elastic Constant Matrix: (Units=GPa)
#
#
# Indices 1 2 3 4 5 6 
#
# 1 47.6483 -1.0916 3.2766 0.0000 20.1478 0.0000
# 2 -1.0916 103.3815 22.4790 0.0000 15.8819 0.0000
# 3 3.2766 22.4790 115.0728 0.0000 7.6291 0.0000
# 4 0.0000 0.0000 0.0000 27.3432 0.0000 -2.4383
# 5 20.1478 15.8819 7.6291 0.0000 32.1591 0.0000
# 6 0.0000 0.0000 0.0000 -2.4383 0.0000 15.9142
#
#
#
# Elastic Compliance Matrix: (Units=1/GPa)
#
#
# Indices 1 2 3 4 5 6 
#
# 1 0.029633 0.003460 -0.000178 0.000000 -0.020232 0.000000
# 2 0.003460 0.011221 -0.001808 0.000000 -0.007280 0.000000
# 3 -0.000178 -0.001808 0.009125 0.000000 -0.001160 0.000000
# 4 0.000000 0.000000 0.000000 0.037079 0.000000 0.005681
# 5 -0.020232 -0.007280 -0.001160 0.000000 0.047641 0.000000
# 6 0.000000 0.000000 0.000000 0.005681 0.000000 0.063707
#
#
# Mechanical properties :
#
#
# Convention : Reuss Voigt Hill
#
# Bulk Modulus (GPa) = 18.89396 35.04785 26.97090
# Shear Modulus (GPa) = 23.46293 31.17921 27.32107
#
# Velocity S-wave (km/s) = 3.28446 3.78622 3.54423
# Velocity P-wave (km/s) = 4.80318 5.93532 5.39901
#
# Compressibility (1/GPa) = 0.05292697
#
# Stress axis : x y z
#
# Youngs Moduli (GPa) = 33.74562 89.11915 109.58543
#
# Poissons Ratio (x) = -0.30833 0.01954
# Poissons Ratio (y) = -0.11675 0.19811
# Poissons Ratio (z) = 0.00602 0.16111
#
# Static dielectric constant tensor:
#      x y z
#    x 1.892740 0.000000 -0.011640 
#    y 0.000000 1.794980 0.000000 
#    z -0.011640 0.000000 1.817030 
# 
# From -- ./inp_files/53333.got.cif
#   From: 2010.05.17/outbox.cif.g08.bks.cpg/sg13_27_cif.got.tgz:53333.got - 2010.06.03 16:44:36.
