data_PCOD9238102
_publ_section_title
;
Structure prediction by ZEFSAII (Michael W. Deem and Ramdas Pophale) SiO2 
 PCOD9238102
Probable space group: P 2/C
;
_chemical_formula_sum "Si O2"
_cell_formula_units_Z 16
_cell_length_a 25.028338
_cell_length_b 5.032078
_cell_length_c 26.494031
_cell_angle_alpha 90.000000
_cell_angle_beta 169.659782
_cell_angle_gamma 90.000000
_cell_volume 598.927753
_symmetry_space_group_name_H-M "P 2/C"
_symmetry_group_IT_number 13
_symmetry_cell_setting 'monoclinic'
loop_
_space_group_symop_operation_xyz
x,y,z
-x,y,1/2-z
-x,-y,-z
x,-y,1/2+z
loop_
_atom_site_type_symbol
_atom_site_label
_atom_site_fract_x
_atom_site_fract_y
_atom_site_fract_z
Si Si1 0.509626 0.249279 0.545848
Si Si2 0.776866 0.391329 0.651007
Si Si3 0.689636 0.297206 0.974981
Si Si4 0.745059 0.984785 0.853306
O O1 0.500000 0.500000 0.500000
O O2 0.241449 0.332010 0.335110
O O3 0.500000 0.000000 0.500000
O O4 0.774313 0.180714 0.831846
O O5 0.806190 0.468505 0.619930
O O6 0.461193 0.248034 0.361669
O O7 0.005338 0.187447 0.887202
O O8 0.000000 0.151128 0.250000
O O9 0.500000 0.381573 0.750000
O O10 0.455524 0.132229 0.791097
#
# Coordination Sequence:
#
# PCOD9238102 Si02
#       4
#     4   4   4   4
#     4  11  24  48  76 116 156 208 258 321 390 468
#     4  11  25  46  73 110 155 202 258 323 391 474
#     4  11  24  44  72 108 150 202 262 327 400 474
#     4  11  25  46  73 110 155 202 258 323 391 474
#
# _framework density 26.714404999999999
#
# number of rings (size 3 to 8) (size 9 to 14) (size 15 to 20)
#    0.000    1.000    2.500    3.000    0.000   12.000 
#    0.000    0.000    0.000    0.000    0.000    0.000 
#    0.000    0.000    0.000    0.000    0.000    0.000 
#
# Total GULP energy -89480.112043 kJ/mol
# GULP energy per Si atom -5592.507003 kJ/mol
# Density = 2.665360 g / cm^3
# Si number density = 26.714405 Si / 1000 Ang^3
#
#
#
# Elastic Constant Matrix: (Units=GPa)
#
#
# Indices 1 2 3 4 5 6 
#
# 1 186.0538 78.5816 81.2549 0.0000 -53.9197 0.0000
# 2 78.5816 185.0348 87.0816 0.0000 -39.4580 0.0000
# 3 81.2549 87.0816 192.2709 0.0000 -51.8106 0.0000
# 4 0.0000 0.0000 0.0000 45.2224 0.0000 -4.9253
# 5 -53.9197 -39.4580 -51.8106 0.0000 58.2818 0.0000
# 6 0.0000 0.0000 0.0000 -4.9253 0.0000 36.9355
#
#
#
# Elastic Compliance Matrix: (Units=1/GPa)
#
#
# Indices 1 2 3 4 5 6 
#
# 1 0.008194 -0.001771 -0.001237 0.000000 0.005281 0.000000
# 2 -0.001771 0.007535 -0.002276 0.000000 0.001439 0.000000
# 3 -0.001237 -0.002276 0.007931 0.000000 0.004364 0.000000
# 4 0.000000 0.000000 0.000000 0.022439 0.000000 0.002992
# 5 0.005281 0.001439 0.004364 0.000000 0.026898 0.000000
# 6 0.000000 0.000000 0.000000 0.002992 0.000000 0.027473
#
#
# Mechanical properties :
#
#
# Convention : Reuss Voigt Hill
#
# Bulk Modulus (GPa) = 76.39560 117.46620 96.93090
# Shear Modulus (GPa) = 43.32643 49.18402 46.25522
#
# Velocity S-wave (km/s) = 4.03157 4.29546 4.16561
# Velocity P-wave (km/s) = 7.09441 8.28661 7.71358
#
# Compressibility (1/GPa) = 0.01308976
#
# Stress axis : x y z
#
# Youngs Moduli (GPa) = 122.04205 132.71877 126.08805
#
# Poissons Ratio (x) = 0.23508 0.15602
# Poissons Ratio (y) = 0.21616 0.28701
# Poissons Ratio (z) = 0.15102 0.30210
#
# Static dielectric constant tensor:
#      x y z
#    x 2.173770 0.000000 0.099410 
#    y 0.000000 2.198230 0.000000 
#    z 0.099410 0.000000 2.166260 
# 
# From -- ./inp_files/94033.got.cif
#   From: 2010.05.17/outbox.cif.g08.bks.cpg/sg13_48_cif.got.tgz:94033.got - 2010.06.03 16:44:36.
