data_PCOD9238868
_publ_section_title
;
Structure prediction by ZEFSAII (Michael W. Deem and Ramdas Pophale) SiO2 
 PCOD9238868
Probable space group: P 2/C
;
_chemical_formula_sum "Si O2"
_cell_formula_units_Z 32
_cell_length_a 12.000000
_cell_length_b 9.000000
_cell_length_c 15.000000
_cell_angle_alpha 90.000000
_cell_angle_beta 90.000000
_cell_angle_gamma 90.000000
_cell_volume 1620.000000
_symmetry_space_group_name_H-M "P 2/C"
_symmetry_group_IT_number 13
_symmetry_cell_setting 'monoclinic'
loop_
_space_group_symop_operation_xyz
x,y,z
-x,y,1/2-z
-x,-y,-z
x,-y,1/2+z
loop_
_atom_site_type_symbol
_atom_site_label
_atom_site_fract_x
_atom_site_fract_y
_atom_site_fract_z
Si Si1 0.049248 0.551248 0.648931
Si Si2 0.760506 0.283742 0.600965
Si Si3 0.229174 0.842022 0.049467
Si Si4 0.727893 0.601938 0.298548
Si Si5 0.328473 0.422187 0.455751
Si Si6 0.556237 0.586653 0.879169
Si Si7 0.606360 0.106941 0.477229
Si Si8 0.012713 0.263357 0.971655
O O1 0.178266 0.514951 0.668414
O O2 0.027254 0.678837 0.574167
O O3 0.000000 0.571256 0.750000
O O4 0.008638 0.402906 0.596144
O O5 0.754591 0.322502 0.704325
O O6 0.761712 0.449572 0.558284
O O7 0.652754 0.196205 0.563922
O O8 0.870446 0.201571 0.565496
O O9 0.275141 0.738090 0.969008
O O10 0.264920 0.740515 0.133535
O O11 0.095492 0.840728 0.039929
O O12 0.294792 0.996079 0.052331
O O13 0.617448 0.500652 0.300242
O O14 0.395226 0.481467 0.541664
O O15 0.423445 0.419877 0.381790
O O16 0.584491 0.758481 0.906334
O O17 0.500000 0.000000 0.500000
#
# Coordination Sequence:
#
# PCOD9238868 Si02
#       8
#     4   4   4   4   4   4   4   4
#     4  10  17  32  60  93 127 156 202 270 321 371
#     4  11  22  37  62  91 125 164 219 265 320 386
#     4  10  21  37  63  89 128 169 208 255 327 398
#     4  10  21  36  60  94 123 161 210 268 319 374
#     4   9  17  33  57  87 114 156 206 258 305 370
#     4   9  18  35  59  85 117 155 211 253 311 369
#     4  11  22  41  63  86 125 177 213 259 326 397
#     4  10  20  35  59  96 127 163 207 261 328 387
#
# _framework density 19.753086
#
# number of rings (size 3 to 8) (size 9 to 14) (size 15 to 20)
#    0.000    2.000    2.500    3.750    1.750    1.000 
#    0.000    1.250    5.500    0.000    0.000    0.000 
#    0.000    0.000    0.000    0.000    0.000    0.000 
#
# Total GULP energy -178223.588113 kJ/mol
# GULP energy per Si atom -5569.487129 kJ/mol
# Density = 1.970813 g / cm^3
# Si number density = 19.753086 Si / 1000 Ang^3
#
#
#
# Elastic Constant Matrix: (Units=GPa)
#
#
# Indices 1 2 3 4 5 6 
#
# 1 116.8253 24.3456 30.1642 0.0000 -14.8885 0.0000
# 2 24.3456 64.6032 14.0052 0.0000 -7.6427 0.0000
# 3 30.1642 14.0052 122.9898 0.0000 -7.4888 0.0000
# 4 0.0000 0.0000 0.0000 6.2995 0.0000 -2.4215
# 5 -14.8885 -7.6427 -7.4888 0.0000 19.0717 0.0000
# 6 0.0000 0.0000 0.0000 -2.4215 0.0000 34.6098
#
#
#
# Elastic Compliance Matrix: (Units=1/GPa)
#
#
# Indices 1 2 3 4 5 6 
#
# 1 0.010420 -0.002780 -0.001856 0.000000 0.006292 0.000000
# 2 -0.002780 0.017262 -0.001019 0.000000 0.004347 0.000000
# 3 -0.001856 -0.001019 0.008799 0.000000 0.001598 0.000000
# 4 0.000000 0.000000 0.000000 0.163131 0.000000 0.011414
# 5 0.006292 0.004347 0.001598 0.000000 0.059715 0.000000
# 6 0.000000 0.000000 0.000000 0.011414 0.000000 0.029692
#
#
# Mechanical properties :
#
#
# Convention : Reuss Voigt Hill
#
# Bulk Modulus (GPa) = 39.72825 49.04981 44.38903
# Shear Modulus (GPa) = 16.19591 27.72310 21.95950
#
# Velocity S-wave (km/s) = 2.86653 3.75037 3.33783
# Velocity P-wave (km/s) = 5.57782 6.60599 6.11356
#
# Compressibility (1/GPa) = 0.02517101
#
# Stress axis : x y z
#
# Youngs Moduli (GPa) = 95.96747 57.93070 113.64556
#
# Poissons Ratio (x) = 0.16106 0.21092
# Poissons Ratio (y) = 0.26680 0.11582
# Poissons Ratio (z) = 0.17811 0.05904
#
# Static dielectric constant tensor:
#      x y z
#    x 1.804250 0.000000 -0.045510 
#    y 0.000000 1.667740 0.000000 
#    z -0.045510 0.000000 1.761820 
# 
# From -- ./inp_files/50361.got.cif
#   From: 2010.05.17/outbox.ucp.g08.bks.cvg/sg13_26_cif.got.tgz:50361.got - 2010.06.11 12:23:55.
