data_PCOD9238032
_publ_section_title
;
Structure prediction by ZEFSAII (Michael W. Deem and Ramdas Pophale) SiO2 
 PCOD9238032
Probable space group: P 2/C
;
_chemical_formula_sum "Si O2"
_cell_formula_units_Z 20
_cell_length_a 8.020070
_cell_length_b 7.806413
_cell_length_c 17.095951
_cell_angle_alpha 90.000000
_cell_angle_beta 51.196517
_cell_angle_gamma 90.000000
_cell_volume 834.118114
_symmetry_space_group_name_H-M "P 2/C"
_symmetry_group_IT_number 13
_symmetry_cell_setting 'monoclinic'
loop_
_space_group_symop_operation_xyz
x,y,z
-x,y,1/2-z
-x,-y,-z
x,-y,1/2+z
loop_
_atom_site_type_symbol
_atom_site_label
_atom_site_fract_x
_atom_site_fract_y
_atom_site_fract_z
Si Si1 0.918452 0.356399 0.936158
Si Si2 0.434119 0.581257 0.857000
Si Si3 0.262752 0.034769 0.600266
Si Si4 0.346375 0.769124 0.233555
Si Si5 0.806317 0.338404 0.361150
O O1 0.830651 0.180228 0.926919
O O2 0.805280 0.517541 0.927190
O O3 0.163480 0.332592 0.836580
O O4 0.814527 0.375929 0.052750
O O5 0.500000 0.631650 0.750000
O O6 0.507104 0.382533 0.845245
O O7 0.589543 0.671460 0.874360
O O8 0.263213 0.111640 0.688383
O O9 0.500000 0.000000 0.500000
O O10 0.144179 0.853876 0.626933
O O11 0.500000 0.864622 0.250000
O O12 0.000000 0.399008 0.250000
#
# Coordination Sequence:
#
# PCOD9238032 Si02
#       5
#     4   4   4   4   4
#     4  12  23  48  73  98 142 186 231 290 350 412
#     4  11  24  42  67 103 136 179 228 283 348 415
#     4  12  24  43  72 105 136 181 237 285 344 416
#     4  11  25  46  72 105 145 183 232 293 352 414
#     4  12  22  42  73 101 131 179 233 284 343 419
#
# _framework density 23.977419999999999
#
# number of rings (size 3 to 8) (size 9 to 14) (size 15 to 20)
#    0.000    0.400    6.000    3.600    0.000    4.000 
#    3.600    1.000    0.000    0.000    0.000    0.000 
#    0.000    0.000    0.000    0.000    0.000    0.000 
#
# Total GULP energy -111817.972404 kJ/mol
# GULP energy per Si atom -5590.898620 kJ/mol
# Density = 2.392285 g / cm^3
# Si number density = 23.977420 Si / 1000 Ang^3
#
#
#
# Elastic Constant Matrix: (Units=GPa)
#
#
# Indices 1 2 3 4 5 6 
#
# 1 39.7347 11.5768 5.3716 0.0000 -15.4117 0.0000
# 2 11.5768 123.6697 13.7864 0.0000 14.1318 0.0000
# 3 5.3716 13.7864 134.5934 0.0000 -15.5693 0.0000
# 4 0.0000 0.0000 0.0000 15.3372 0.0000 -33.1415
# 5 -15.4117 14.1318 -15.5693 0.0000 34.5887 0.0000
# 6 0.0000 0.0000 0.0000 -33.1415 0.0000 -6.4546
#
#
#
# Elastic Compliance Matrix: (Units=1/GPa)
#
#
# Indices 1 2 3 4 5 6 
#
# 1 0.033349 -0.005268 0.001241 0.000000 0.017570 0.000000
# 2 -0.005268 0.009549 -0.001573 0.000000 -0.006957 0.000000
# 3 0.001241 -0.001573 0.008101 0.000000 0.004842 0.000000
# 4 0.000000 0.000000 0.000000 0.005391 0.000000 -0.027679
# 5 0.017570 -0.006957 0.004842 0.000000 0.041762 0.000000
# 6 0.000000 0.000000 0.000000 -0.027679 0.000000 -0.012809
#
#
# Mechanical properties :
#
#
# Convention : Reuss Voigt Hill
#
# Bulk Modulus (GPa) = 25.12509 39.94083 32.53296
# Shear Modulus (GPa) = 45.53368 26.51180 36.02274
#
# Velocity S-wave (km/s) = 4.36251 3.32881 3.88024
# Velocity P-wave (km/s) = 5.98971 5.60968 5.80281
#
# Compressibility (1/GPa) = 0.03980085
#
# Stress axis : x y z
#
# Youngs Moduli (GPa) = 29.98606 104.71810 123.43445
#
# Poissons Ratio (x) = 0.55165 -0.15319
# Poissons Ratio (y) = 0.15796 0.19412
# Poissons Ratio (z) = -0.03722 0.16468
#
# Static dielectric constant tensor:
#      x y z
#    x 2.053900 0.000000 -0.025740 
#    y 0.000000 1.901040 0.000000 
#    z -0.025740 0.000000 2.003330 
# 
# From -- ./inp_files/63664.got.cif
#   From: 2010.05.17/outbox.cif.g08.bks.cpg/sg13_32_cif.got.tgz:63664.got - 2010.06.03 16:44:36.
