data_PCOD9238651
_publ_section_title
;
Structure prediction by ZEFSAII (Michael W. Deem and Ramdas Pophale) SiO2 
 PCOD9238651
Probable space group: P 2/C
;
_chemical_formula_sum "Si O2"
_cell_formula_units_Z 20
_cell_length_a 15.393342
_cell_length_b 8.139308
_cell_length_c 23.932325
_cell_angle_alpha 90.000000
_cell_angle_beta 162.660816
_cell_angle_gamma 90.000000
_cell_volume 893.638777
_symmetry_space_group_name_H-M "P 2/C"
_symmetry_group_IT_number 13
_symmetry_cell_setting 'monoclinic'
loop_
_space_group_symop_operation_xyz
x,y,z
-x,y,1/2-z
-x,-y,-z
x,-y,1/2+z
loop_
_atom_site_type_symbol
_atom_site_label
_atom_site_fract_x
_atom_site_fract_y
_atom_site_fract_z
Si Si1 0.336358 0.860834 0.867433
Si Si2 0.671576 0.656854 0.989266
Si Si3 0.500000 0.869208 0.250000
Si Si4 0.934869 0.309888 0.451030
Si Si5 0.000000 0.364430 0.250000
Si Si6 0.098404 0.896961 0.454266
O O1 0.577850 0.749979 0.987025
O O2 0.155980 0.750584 0.800132
O O3 0.144602 0.964706 0.705341
O O4 0.500000 0.000000 0.000000
O O5 0.375551 0.673367 0.770895
O O6 0.900909 0.760747 0.093675
O O7 0.790017 0.482024 0.083371
O O8 0.782372 0.764045 0.407096
O O9 0.606973 0.992804 0.364390
O O10 0.916044 0.201399 0.496133
O O11 0.000000 0.500000 0.500000
#
# Coordination Sequence:
#
# PCOD9238651 Si02
#       6
#     4   4   2   4   2   4
#     4  12  27  49  75 105 146 203 254 306 366 447
#     4  12  26  48  73 111 150 192 248 308 377 443
#     4  12  24  48  70 112 148 198 244 298 378 444
#     4  12  29  43  76 112 151 192 242 314 380 448
#     4  12  30  48  76 108 152 204 254 310 370 446
#     4  12  25  48  78 111 149 192 249 309 380 450
#
# _framework density 22.380405
#
# number of rings (size 3 to 8) (size 9 to 14) (size 15 to 20)
#    0.000    0.000    4.000    4.800   11.200    0.000 
#    0.000    0.000    0.000    0.000    0.000    0.000 
#    0.000    0.000    0.000    0.000    0.000    0.000 
#
# Total GULP energy -111728.167120 kJ/mol
# GULP energy per Si atom -5586.408356 kJ/mol
# Density = 2.232947 g / cm^3
# Si number density = 22.380405 Si / 1000 Ang^3
#
#
#
# Elastic Constant Matrix: (Units=GPa)
#
#
# Indices 1 2 3 4 5 6 
#
# 1 127.2245 77.7551 42.4386 0.0000 8.4305 0.0000
# 2 77.7551 188.7877 74.1234 0.0000 -0.8966 0.0000
# 3 42.4386 74.1234 115.1367 0.0000 -13.4283 0.0000
# 4 0.0000 0.0000 0.0000 63.7819 0.0000 8.9197
# 5 8.4305 -0.8966 -13.4283 0.0000 27.3685 0.0000
# 6 0.0000 0.0000 0.0000 8.9197 0.0000 34.3129
#
#
#
# Elastic Compliance Matrix: (Units=1/GPa)
#
#
# Indices 1 2 3 4 5 6 
#
# 1 0.011221 -0.003754 -0.002266 0.000000 -0.004692 0.000000
# 2 -0.003754 0.008464 -0.004134 0.000000 -0.000595 0.000000
# 3 -0.002266 -0.004134 0.012991 0.000000 0.006937 0.000000
# 4 0.000000 0.000000 0.000000 0.016270 0.000000 -0.004229
# 5 -0.004692 -0.000595 0.006937 0.000000 0.041368 0.000000
# 6 0.000000 0.000000 0.000000 -0.004229 0.000000 0.030243
#
#
# Mechanical properties :
#
#
# Convention : Reuss Voigt Hill
#
# Bulk Modulus (GPa) = 80.86349 91.08703 85.97526
# Shear Modulus (GPa) = 34.48534 40.88144 37.68339
#
# Velocity S-wave (km/s) = 3.92965 4.27858 4.10782
# Velocity P-wave (km/s) = 7.53654 8.07442 7.81011
#
# Compressibility (1/GPa) = 0.01236652
#
# Stress axis : x y z
#
# Youngs Moduli (GPa) = 89.11523 118.15301 76.97373
#
# Poissons Ratio (x) = 0.44356 0.17446
# Poissons Ratio (y) = 0.33455 0.31824
# Poissons Ratio (z) = 0.20198 0.48849
#
# Static dielectric constant tensor:
#      x y z
#    x 1.829750 0.000000 -0.062850 
#    y 0.000000 -0.073160 0.000000 
#    z -0.062850 0.000000 1.919160 
# 
# From -- ./inp_files/87209.got.cif
#   From: 2010.05.17/outbox.cif.g08.bks.cpg/sg13_44_cif.got.tgz:87209.got - 2010.06.03 16:44:36.
