data_PCOD9238689
_publ_section_title
;
Structure prediction by ZEFSAII (Michael W. Deem and Ramdas Pophale) SiO2 
 PCOD9238689
Probable space group: P 2/C
;
_chemical_formula_sum "Si O2"
_cell_formula_units_Z 12
_cell_length_a 8.009887
_cell_length_b 13.558632
_cell_length_c 7.918942
_cell_angle_alpha 90.000000
_cell_angle_beta 35.453695
_cell_angle_gamma 90.000000
_cell_volume 498.851149
_symmetry_space_group_name_H-M "P 2/C"
_symmetry_group_IT_number 13
_symmetry_cell_setting 'monoclinic'
loop_
_space_group_symop_operation_xyz
x,y,z
-x,y,1/2-z
-x,-y,-z
x,-y,1/2+z
loop_
_atom_site_type_symbol
_atom_site_label
_atom_site_fract_x
_atom_site_fract_y
_atom_site_fract_z
Si Si1 0.213879 0.570500 0.230758
Si Si2 0.207682 0.777258 0.417456
Si Si3 0.712116 0.929923 0.427987
O O1 0.271826 0.669925 0.285936
O O2 0.000000 0.599691 0.250000
O O3 0.000000 0.500000 0.500000
O O4 0.500000 0.500000 0.000000
O O5 0.500000 0.820713 0.250000
O O6 0.144846 0.847121 0.310240
O O7 0.000000 0.768712 0.750000
O O8 0.000000 0.987324 0.250000
O O9 0.500000 0.000000 0.500000
O O10 0.500000 0.889747 0.750000
#
# Coordination Sequence:
#
# PCOD9238689 Si02
#       3
#     4   4   4
#     4  12  25  44  71 105 144 190 239 293 357 431
#     4  12  26  47  73 107 147 192 242 301 364 433
#     4  12  27  49  75 106 143 190 243 304 367 434
#
# _framework density 24.055271000000001
#
# number of rings (size 3 to 8) (size 9 to 14) (size 15 to 20)
#    0.000    0.000    0.000   11.000    0.000    5.333 
#    0.000    0.000    0.000    0.000    0.000    0.000 
#    0.000    0.000    0.000    0.000    0.000    0.000 
#
# Total GULP energy -66955.266048 kJ/mol
# GULP energy per Si atom -5579.605504 kJ/mol
# Density = 2.400052 g / cm^3
# Si number density = 24.055271 Si / 1000 Ang^3
#
#
#
# Elastic Constant Matrix: (Units=GPa)
#
#
# Indices 1 2 3 4 5 6 
#
# 1 140.3206 28.7209 65.4254 0.0000 -14.4507 0.0000
# 2 28.7209 122.2957 45.2876 0.0000 14.6878 0.0000
# 3 65.4254 45.2876 204.4174 0.0000 -13.5048 0.0000
# 4 0.0000 0.0000 0.0000 -295.0786 0.0000 -81.3141
# 5 -14.4507 14.6878 -13.5048 0.0000 63.0312 0.0000
# 6 0.0000 0.0000 0.0000 -81.3141 0.0000 21.2109
#
#
#
# Elastic Compliance Matrix: (Units=1/GPa)
#
#
# Indices 1 2 3 4 5 6 
#
# 1 0.008696 -0.001387 -0.002356 0.000000 0.001812 0.000000
# 2 -0.001387 0.009547 -0.001865 0.000000 -0.002942 0.000000
# 3 -0.002356 -0.001865 0.006139 0.000000 0.001210 0.000000
# 4 0.000000 0.000000 0.000000 -0.001648 0.000000 -0.006318
# 5 0.001812 -0.002942 0.001210 0.000000 0.017225 0.000000
# 6 0.000000 0.000000 0.000000 -0.006318 0.000000 0.022926
#
#
# Mechanical properties :
#
#
# Convention : Reuss Voigt Hill
#
# Bulk Modulus (GPa) = 75.96371 82.87794 79.42082
# Shear Modulus (GPa) = 63.70160 -20.32732 21.68714
#
# Velocity S-wave (km/s) = 5.15159 -2.91009 3.00585
# Velocity P-wave (km/s) = 8.18734 4.82042 6.71822
#
# Compressibility (1/GPa) = 0.01316418
#
# Stress axis : x y z
#
# Youngs Moduli (GPa) = 115.00035 104.74619 162.88686
#
# Poissons Ratio (x) = 0.14532 0.38377
# Poissons Ratio (y) = 0.15954 0.30385
# Poissons Ratio (z) = 0.27095 0.19540
#
# Static dielectric constant tensor:
#      x y z
#    x 1.861690 0.000000 0.007210 
#    y 0.000000 1.817070 0.000000 
#    z 0.007210 0.000000 1.856120 
# 
# From -- ./inp_files/8204.got.cif
#   From: 2010.05.17/outbox.cif.g08.bks.cpg/sg13_5_cif.got.tgz:8204.got - 2010.06.03 16:44:36.
