data_PCOD9238062
_publ_section_title
;
Structure prediction by ZEFSAII (Michael W. Deem and Ramdas Pophale) SiO2 
 PCOD9238062
Probable space group: P 2/C
;
_chemical_formula_sum "Si O2"
_cell_formula_units_Z 26
_cell_length_a 20.984141
_cell_length_b 5.022098
_cell_length_c 21.081655
_cell_angle_alpha 90.000000
_cell_angle_beta 149.970014
_cell_angle_gamma 90.000000
_cell_volume 1111.845711
_symmetry_space_group_name_H-M "P 2/C"
_symmetry_group_IT_number 13
_symmetry_cell_setting 'monoclinic'
loop_
_space_group_symop_operation_xyz
x,y,z
-x,y,1/2-z
-x,-y,-z
x,-y,1/2+z
loop_
_atom_site_type_symbol
_atom_site_label
_atom_site_fract_x
_atom_site_fract_y
_atom_site_fract_z
Si Si1 0.412041 0.926955 0.983057
Si Si2 0.033395 0.645845 0.400979
Si Si3 0.260668 0.556113 0.018617
Si Si4 0.257463 0.469527 0.877572
Si Si5 0.906795 0.865029 0.470551
Si Si6 0.500000 0.238847 0.250000
Si Si7 0.367354 0.131736 0.734201
O O1 0.314230 0.693179 0.880131
O O2 0.341327 0.197804 0.945416
O O3 0.500000 0.000000 0.000000
O O4 0.510227 0.791309 0.118794
O O5 0.127166 0.565400 0.424931
O O6 0.067899 0.948514 0.446791
O O7 0.885548 0.616338 0.260772
O O8 0.065759 0.439677 0.486517
O O9 0.382591 0.371734 0.114154
O O10 0.311646 0.707020 0.125474
O O11 0.245540 0.644545 0.933127
O O12 0.756023 0.899807 0.327577
O O13 0.000000 0.000000 0.500000
O O14 0.575387 0.110312 0.256184
#
# Coordination Sequence:
#
# PCOD9238062 Si02
#       7
#     4   4   4   4   4   2   4
#     4  12  28  48  70 108 145 194 238 290 362 429
#     4  11  25  45  70 106 137 187 234 293 359 426
#     4  11  24  43  69 106 139 178 241 294 362 418
#     4  12  26  47  73 101 149 188 233 298 363 427
#     4  11  25  46  70 102 141 190 240 288 351 428
#     4  12  18  42  66  98 140 168 238 292 352 408
#     4  11  25  42  74 103 141 186 241 298 356 422
#
# _framework density 23.384537999999999
#
# number of rings (size 3 to 8) (size 9 to 14) (size 15 to 20)
#    0.000    0.615    3.077    4.615    4.308    0.000 
#    0.000    3.077    0.000    0.000    0.000    0.000 
#    0.000    0.000    0.000    0.000    0.000    0.000 
#
# Total GULP energy -144838.171120 kJ/mol
# GULP energy per Si atom -5570.698889 kJ/mol
# Density = 2.333131 g / cm^3
# Si number density = 23.384538 Si / 1000 Ang^3
#
#
#
# Elastic Constant Matrix: (Units=GPa)
#
#
# Indices 1 2 3 4 5 6 
#
# 1 91.3371 20.4275 33.6143 0.0000 41.2620 0.0000
# 2 20.4275 79.1635 24.6533 0.0000 14.2940 0.0000
# 3 33.6143 24.6533 106.7890 0.0000 36.3902 0.0000
# 4 0.0000 0.0000 0.0000 34.0833 0.0000 4.7778
# 5 41.2620 14.2940 36.3902 0.0000 33.6302 0.0000
# 6 0.0000 0.0000 0.0000 4.7778 0.0000 36.3337
#
#
#
# Elastic Compliance Matrix: (Units=1/GPa)
#
#
# Indices 1 2 3 4 5 6 
#
# 1 0.025882 -0.001583 0.004452 0.000000 -0.035900 0.000000
# 2 -0.001583 0.014017 -0.002169 0.000000 -0.001669 0.000000
# 3 0.004452 -0.002169 0.015858 0.000000 -0.021700 0.000000
# 4 0.000000 0.000000 0.000000 0.029891 0.000000 -0.003931
# 5 -0.035900 -0.001669 -0.021700 0.000000 0.097973 0.000000
# 6 0.000000 0.000000 0.000000 -0.003931 0.000000 0.028040
#
#
# Mechanical properties :
#
#
# Convention : Reuss Voigt Hill
#
# Bulk Modulus (GPa) = 17.49536 48.29776 32.89656
# Shear Modulus (GPa) = 21.80414 34.04906 27.92660
#
# Velocity S-wave (km/s) = 3.05686 3.81996 3.45952
# Velocity P-wave (km/s) = 4.46733 6.33677 5.48232
#
# Compressibility (1/GPa) = 0.05715802
#
# Stress axis : x y z
#
# Youngs Moduli (GPa) = 38.63660 71.34011 63.05795
#
# Poissons Ratio (x) = 0.11292 -0.28074
# Poissons Ratio (y) = 0.06116 0.13679
# Poissons Ratio (z) = -0.17201 0.15475
#
# Static dielectric constant tensor:
#      x y z
#    x 1.831430 0.000000 -0.198200 
#    y 0.000000 1.934460 0.000000 
#    z -0.198200 0.000000 1.806720 
# 
# From -- ./inp_files/81426.got.cif
#   From: 2010.05.17/outbox.cif.g08.bks.cpg/sg13_41_cif.got.tgz:81426.got - 2010.06.03 16:44:36.
