data_PCOD9238253
_publ_section_title
;
Structure prediction by ZEFSAII (Michael W. Deem and Ramdas Pophale) SiO2 
 PCOD9238253
Probable space group: P 2/C
;
_chemical_formula_sum "Si O2"
_cell_formula_units_Z 28
_cell_length_a 16.537730
_cell_length_b 6.821217
_cell_length_c 12.376770
_cell_angle_alpha 90.000000
_cell_angle_beta 127.640053
_cell_angle_gamma 90.000000
_cell_volume 1105.592522
_symmetry_space_group_name_H-M "P 2/C"
_symmetry_group_IT_number 13
_symmetry_cell_setting 'monoclinic'
loop_
_space_group_symop_operation_xyz
x,y,z
-x,y,1/2-z
-x,-y,-z
x,-y,1/2+z
loop_
_atom_site_type_symbol
_atom_site_label
_atom_site_fract_x
_atom_site_fract_y
_atom_site_fract_z
Si Si1 0.168255 0.217091 0.842628
Si Si2 0.649902 0.197064 0.192534
Si Si3 0.000000 0.528254 0.750000
Si Si4 0.471364 0.707036 0.111640
Si Si5 0.500000 0.325005 0.250000
Si Si6 0.993709 0.096597 0.379165
Si Si7 0.767725 0.943026 0.438211
Si Si8 0.300900 0.634187 0.251828
O O1 0.098225 0.384633 0.843135
O O2 0.250891 0.107307 0.986560
O O3 0.225698 0.302020 0.785728
O O4 0.087037 0.051625 0.739418
O O5 0.605213 0.193818 0.035047
O O6 0.561810 0.202935 0.212072
O O7 0.728259 0.032483 0.292791
O O8 0.705764 0.401952 0.254554
O O9 0.972098 0.678430 0.825937
O O10 0.500000 0.806175 0.250000
O O11 0.439817 0.487281 0.126014
O O12 0.578809 0.683111 0.135599
O O13 0.113416 0.086767 0.452287
O O14 0.000000 0.000000 0.500000
O O15 0.723669 0.726408 0.386458
#
# Coordination Sequence:
#
# PCOD9238253 Si02
#       8
#     4   4   2   4   2   4   4   4
#     4  12  27  46  76 112 145 198 258 302 380 462
#     4  11  25  44  73 107 144 199 249 302 387 438
#     4  12  26  50  80 100 150 208 244 302 390 440
#     4   9  22  46  73 104 148 194 245 309 375 444
#     4   8  18  42  68  98 144 186 242 310 354 452
#     4  12  26  51  71 106 158 192 243 318 369 451
#     4  12  27  44  69 113 147 188 250 308 371 452
#     4  11  26  45  72 107 145 191 251 309 377 442
#
# _framework density 25.325786999999998
#
# number of rings (size 3 to 8) (size 9 to 14) (size 15 to 20)
#    0.429    0.571    4.286    1.714    8.000    2.286 
#    1.286    0.000    0.000    0.000    0.000    0.000 
#    0.000    0.000    0.000    0.000    0.000    0.000 
#
# Total GULP energy -156152.265175 kJ/mol
# GULP energy per Si atom -5576.866613 kJ/mol
# Density = 2.526814 g / cm^3
# Si number density = 25.325787 Si / 1000 Ang^3
#
#
#
# Elastic Constant Matrix: (Units=GPa)
#
#
# Indices 1 2 3 4 5 6 
#
# 1 65.2026 42.6235 2.0962 0.0000 -3.8091 0.0000
# 2 42.6235 115.2344 35.1387 0.0000 -7.3653 0.0000
# 3 2.0962 35.1387 134.3938 0.0000 -20.0909 0.0000
# 4 0.0000 0.0000 0.0000 65.1816 0.0000 29.3701
# 5 -3.8091 -7.3653 -20.0909 0.0000 22.1687 0.0000
# 6 0.0000 0.0000 0.0000 29.3701 0.0000 64.8041
#
#
#
# Elastic Compliance Matrix: (Units=1/GPa)
#
#
# Indices 1 2 3 4 5 6 
#
# 1 0.020787 -0.008190 0.002249 0.000000 0.002889 0.000000
# 2 -0.008190 0.012677 -0.003201 0.000000 -0.000097 0.000000
# 3 0.002249 -0.003201 0.009417 0.000000 0.007858 0.000000
# 4 0.000000 0.000000 0.000000 0.019279 0.000000 -0.008737
# 5 0.002889 -0.000097 0.007858 0.000000 0.052694 0.000000
# 6 0.000000 0.000000 0.000000 -0.008737 0.000000 0.019391
#
#
# Mechanical properties :
#
#
# Convention : Reuss Voigt Hill
#
# Bulk Modulus (GPa) = 40.65495 52.72751 46.69123
# Shear Modulus (GPa) = 31.10820 46.09573 38.60196
#
# Velocity S-wave (km/s) = 3.50854 4.27090 3.90836
# Velocity P-wave (km/s) = 5.70095 6.72203 6.23244
#
# Compressibility (1/GPa) = 0.02459725
#
# Stress axis : x y z
#
# Youngs Moduli (GPa) = 48.10667 78.88092 106.18632
#
# Poissons Ratio (x) = 0.64603 -0.23881
# Poissons Ratio (y) = 0.39399 0.33994
# Poissons Ratio (z) = -0.10819 0.25252
#
# Static dielectric constant tensor:
#      x y z
#    x 2.110600 0.000000 0.006020 
#    y 0.000000 1.896240 0.000000 
#    z 0.006020 0.000000 2.027610 
# 
# From -- ./inp_files/54747.got.cif
#   From: 2010.05.17/outbox.cif.g08.bks.cpg/sg13_28_cif.got.tgz:54747.got - 2010.06.03 16:44:36.
