data_PCOD9238468
_publ_section_title
;
Structure prediction by ZEFSAII (Michael W. Deem and Ramdas Pophale) SiO2 
 PCOD9238468
Probable space group: P 2/C
;
_chemical_formula_sum "Si O2"
_cell_formula_units_Z 22
_cell_length_a 18.927741
_cell_length_b 7.672298
_cell_length_c 16.007430
_cell_angle_alpha 90.000000
_cell_angle_beta 27.867953
_cell_angle_gamma 90.000000
_cell_volume 1086.594455
_symmetry_space_group_name_H-M "P 2/C"
_symmetry_group_IT_number 13
_symmetry_cell_setting 'monoclinic'
loop_
_space_group_symop_operation_xyz
x,y,z
-x,y,1/2-z
-x,-y,-z
x,-y,1/2+z
loop_
_atom_site_type_symbol
_atom_site_label
_atom_site_fract_x
_atom_site_fract_y
_atom_site_fract_z
Si Si1 0.454414 0.981581 0.950614
Si Si2 0.235019 0.087099 0.937164
Si Si3 0.779126 0.671997 0.346613
Si Si4 0.051041 0.189751 0.982785
Si Si5 0.757544 0.718483 0.895602
Si Si6 0.000000 0.177098 0.750000
O O1 0.606449 0.988645 0.736716
O O2 0.358565 0.151244 0.026547
O O3 0.500000 0.000000 0.000000
O O4 0.348730 0.816736 0.038820
O O5 0.197559 0.177718 0.888970
O O6 0.231194 0.216188 0.020330
O O7 0.099636 0.949545 0.088512
O O8 0.899129 0.688557 0.145467
O O9 0.712461 0.481233 0.430366
O O10 0.879235 0.717363 0.322904
O O11 0.916517 0.257083 0.181846
O O12 0.000000 0.000000 0.000000
#
# Coordination Sequence:
#
# PCOD9238468 Si02
#       6
#     4   4   4   4   4   2
#     4  12  25  48  73  98 144 188 231 286 360 419
#     4  12  22  45  74  97 142 189 228 292 348 419
#     4  12  27  46  72 107 139 184 238 292 353 420
#     4  12  20  45  74 100 139 188 233 290 347 413
#     4  12  26  45  69 106 144 182 239 291 352 415
#     4  12  24  44  76  98 136 186 240 284 358 406
#
# _framework density 20.246744
#
# number of rings (size 3 to 8) (size 9 to 14) (size 15 to 20)
#    0.000    0.000    9.091    1.091    2.545    0.727 
#    6.545    0.000    0.000    0.000    0.000    0.000 
#    0.000    0.000    0.000    0.000    0.000    0.000 
#
# Total GULP energy -122999.493309 kJ/mol
# GULP energy per Si atom -5590.886060 kJ/mol
# Density = 2.020066 g / cm^3
# Si number density = 20.246744 Si / 1000 Ang^3
#
#
#
# Elastic Constant Matrix: (Units=GPa)
#
#
# Indices 1 2 3 4 5 6 
#
# 1 134.9530 57.9882 -5.7387 0.0000 0.6885 0.0000
# 2 57.9882 154.4539 21.1022 0.0000 -8.7704 0.0000
# 3 -5.7387 21.1022 91.8306 0.0000 -9.0551 0.0000
# 4 0.0000 0.0000 0.0000 10.7264 0.0000 10.6499
# 5 0.6885 -8.7704 -9.0551 0.0000 39.1952 0.0000
# 6 0.0000 0.0000 0.0000 10.6499 0.0000 2.7768
#
#
#
# Elastic Compliance Matrix: (Units=1/GPa)
#
#
# Indices 1 2 3 4 5 6 
#
# 1 0.009019 -0.003605 0.001327 0.000000 -0.000658 0.000000
# 2 -0.003605 0.008178 -0.001962 0.000000 0.001440 0.000000
# 3 0.001327 -0.001962 0.011643 0.000000 0.002227 0.000000
# 4 0.000000 0.000000 0.000000 -0.033201 0.000000 0.127338
# 5 -0.000658 0.001440 0.002227 0.000000 0.026362 0.000000
# 6 0.000000 0.000000 0.000000 0.127338 0.000000 -0.128253
#
#
# Mechanical properties :
#
#
# Convention : Reuss Voigt Hill
#
# Bulk Modulus (GPa) = 49.11784 58.66009 53.88897
# Shear Modulus (GPa) = -54.95309 31.06539 -11.94385
#
# Velocity S-wave (km/s) = -5.21542 3.92131 -2.43145
# Velocity P-wave (km/s) = 3.45763 7.03831 4.33489
#
# Compressibility (1/GPa) = 0.02035920
#
# Stress axis : x y z
#
# Youngs Moduli (GPa) = 110.88110 122.28477 85.88743
#
# Poissons Ratio (x) = 0.44079 -0.11397
# Poissons Ratio (y) = 0.39969 0.16855
# Poissons Ratio (z) = -0.14714 0.23998
#
# Static dielectric constant tensor:
#      x y z
#    x 1.767030 0.000000 -0.002390 
#    y 0.000000 1.731650 0.000000 
#    z -0.002390 0.000000 1.743030 
# 
# From -- ./inp_files/46049.got.cif
#   From: 2010.05.17/outbox.cif.g08.bks.cpg/sg13_24_cif.got.tgz:46049.got - 2010.06.03 16:44:36.
