data_PCOD9238823
_publ_section_title
;
Structure prediction by ZEFSAII (Michael W. Deem and Ramdas Pophale) SiO2 
 PCOD9238823
Probable space group: P 2/C
;
_chemical_formula_sum "Si O2"
_cell_formula_units_Z 16
_cell_length_a 7.655695
_cell_length_b 5.097125
_cell_length_c 22.846217
_cell_angle_alpha 90.000000
_cell_angle_beta 47.855481
_cell_angle_gamma 90.000000
_cell_volume 661.011208
_symmetry_space_group_name_H-M "P 2/C"
_symmetry_group_IT_number 13
_symmetry_cell_setting 'monoclinic'
loop_
_space_group_symop_operation_xyz
x,y,z
-x,y,1/2-z
-x,-y,-z
x,-y,1/2+z
loop_
_atom_site_type_symbol
_atom_site_label
_atom_site_fract_x
_atom_site_fract_y
_atom_site_fract_z
Si Si1 0.610830 0.347077 0.662485
Si Si2 0.648823 0.998216 0.551039
Si Si3 0.241212 0.649494 0.662513
Si Si4 0.128433 0.501814 0.561077
O O1 0.500000 0.284300 0.750000
O O2 0.418364 0.498200 0.666301
O O3 0.847812 0.514592 0.617299
O O4 0.685388 0.088859 0.609615
O O5 0.376795 0.910217 0.610845
O O6 0.783670 0.746543 0.495829
O O7 0.735525 0.246811 0.494753
O O8 0.188222 0.484933 0.616048
O O9 0.000000 0.708530 0.750000
#
# Coordination Sequence:
#
# PCOD9238823 Si02
#       4
#     4   4   4   4
#     4  12  28  51  81 115 162 210 261 326 400 469
#     4  12  28  52  82 116 156 208 262 330 392 466
#     4  12  28  51  81 115 162 210 261 326 400 469
#     4  12  28  52  82 116 154 204 270 326 390 472
#
# _framework density 24.20534
#
# number of rings (size 3 to 8) (size 9 to 14) (size 15 to 20)
#    0.000    0.000    5.000    3.000    7.000    4.000 
#    0.000    0.000    0.000    0.000    0.000    0.000 
#    0.000    0.000    0.000    0.000    0.000    0.000 
#
# Total GULP energy -89723.566304 kJ/mol
# GULP energy per Si atom -5607.722894 kJ/mol
# Density = 2.415025 g / cm^3
# Si number density = 24.205340 Si / 1000 Ang^3
#
#
#
# Elastic Constant Matrix: (Units=GPa)
#
#
# Indices 1 2 3 4 5 6 
#
# 1 183.9724 51.0833 91.0024 0.0000 13.7380 0.0000
# 2 51.0833 142.2591 66.5143 0.0000 16.5264 0.0000
# 3 91.0024 66.5143 217.3177 0.0000 25.7851 0.0000
# 4 0.0000 0.0000 0.0000 -2.6690 0.0000 -0.4728
# 5 13.7380 16.5264 25.7851 0.0000 4.9027 0.0000
# 6 0.0000 0.0000 0.0000 -0.4728 0.0000 29.6867
#
#
#
# Elastic Compliance Matrix: (Units=1/GPa)
#
#
# Indices 1 2 3 4 5 6 
#
# 1 0.007139 -0.000829 -0.001845 0.000000 -0.007506 0.000000
# 2 -0.000829 0.012373 0.003280 0.000000 -0.056638 0.000000
# 3 -0.001845 0.003280 0.013482 0.000000 -0.076794 0.000000
# 4 0.000000 0.000000 0.000000 -0.373622 0.000000 -0.005950
# 5 -0.007506 -0.056638 -0.076794 0.000000 0.819816 0.000000
# 6 0.000000 0.000000 0.000000 -0.005950 0.000000 0.033590
#
#
# Mechanical properties :
#
#
# Convention : Reuss Voigt Hill
#
# Bulk Modulus (GPa) = 29.23416 106.74993 67.99205
# Shear Modulus (GPa) = 9.56082 28.71404 19.13743
#
# Velocity S-wave (km/s) = 1.98959 3.44796 2.81486
# Velocity P-wave (km/s) = 4.16914 7.74912 6.22216
#
# Compressibility (1/GPa) = 0.03420656
#
# Stress axis : x y z
#
# Youngs Moduli (GPa) = 140.07646 80.82074 74.17296
#
# Poissons Ratio (x) = 0.06698 0.13686
# Poissons Ratio (y) = 0.11609 -0.24331
# Poissons Ratio (z) = 0.25847 -0.26511
#
# Static dielectric constant tensor:
#      x y z
#    x 1.988350 0.000000 -0.004790 
#    y 0.000000 1.928950 0.000000 
#    z -0.004790 0.000000 1.875810 
# 
# From -- ./inp_files/83965.got.cif
#   From: 2010.05.17/outbox.cif.g08.bks.cpg/sg13_42_cif.got.tgz:83965.got - 2010.06.03 16:44:36.
