data_PCOD9238241
_publ_section_title
;
Structure prediction by ZEFSAII (Michael W. Deem and Ramdas Pophale) SiO2 
 PCOD9238241
Probable space group: P 2/C
;
_chemical_formula_sum "Si O2"
_cell_formula_units_Z 18
_cell_length_a 10.554748
_cell_length_b 6.390692
_cell_length_c 10.193004
_cell_angle_alpha 90.000000
_cell_angle_beta 98.958948
_cell_angle_gamma 90.000000
_cell_volume 679.152100
_symmetry_space_group_name_H-M "P 2/C"
_symmetry_group_IT_number 13
_symmetry_cell_setting 'monoclinic'
loop_
_space_group_symop_operation_xyz
x,y,z
-x,y,1/2-z
-x,-y,-z
x,-y,1/2+z
loop_
_atom_site_type_symbol
_atom_site_label
_atom_site_fract_x
_atom_site_fract_y
_atom_site_fract_z
Si Si1 0.148360 0.451384 0.385317
Si Si2 0.855387 0.688502 0.874169
Si Si3 0.662248 0.046816 0.436686
Si Si4 0.500000 0.614382 0.750000
Si Si5 0.671331 0.246724 0.703321
O O1 0.200638 0.509123 0.536781
O O2 0.193105 0.287679 0.282979
O O3 0.185481 0.664040 0.308713
O O4 0.002961 0.377160 0.386460
O O5 0.813597 0.899068 0.938999
O O6 0.585041 0.235439 0.354620
O O7 0.635632 0.076096 0.585944
O O8 0.643994 0.847757 0.341823
O O9 0.586288 0.456074 0.677756
#
# Coordination Sequence:
#
# PCOD9238241 Si02
#       5
#     4   4   4   2   4
#     4   9  18  37  65  93 124 166 212 263 325 388
#     4   9  18  37  65  93 124 166 212 263 325 388
#     4  11  25  43  68 101 133 174 223 274 331 395
#     4  12  24  44  70  96 126 180 226 284 322 390
#     4  11  25  43  68 101 133 174 223 274 331 395
#
# _framework density 26.503636
#
# number of rings (size 3 to 8) (size 9 to 14) (size 15 to 20)
#    0.000    1.778    2.222    1.333    0.000    7.111 
#    0.000    4.444    0.000   24.000    0.000    0.000 
#    0.000    0.000    0.000    0.000    0.000    0.000 
#
# Total GULP energy -100217.919385 kJ/mol
# GULP energy per Si atom -5567.662188 kJ/mol
# Density = 2.644331 g / cm^3
# Si number density = 26.503636 Si / 1000 Ang^3
#
#
#
# Elastic Constant Matrix: (Units=GPa)
#
#
# Indices 1 2 3 4 5 6 
#
# 1 109.0071 49.5508 15.3273 0.0000 -9.2613 0.0000
# 2 49.5508 91.1074 21.9793 0.0000 5.3431 0.0000
# 3 15.3273 21.9793 83.7926 0.0000 -25.6458 0.0000
# 4 0.0000 0.0000 0.0000 37.8364 0.0000 -4.0821
# 5 -9.2613 5.3431 -25.6458 0.0000 34.5427 0.0000
# 6 0.0000 0.0000 0.0000 -4.0821 0.0000 37.8185
#
#
#
# Elastic Compliance Matrix: (Units=1/GPa)
#
#
# Indices 1 2 3 4 5 6 
#
# 1 0.012977 -0.007732 0.001404 0.000000 0.005718 0.000000
# 2 -0.007732 0.017125 -0.005853 0.000000 -0.009067 0.000000
# 3 0.001404 -0.005853 0.017605 0.000000 0.014353 0.000000
# 4 0.000000 0.000000 0.000000 0.026741 0.000000 0.002886
# 5 0.005718 -0.009067 0.014353 0.000000 0.042541 0.000000
# 6 0.000000 0.000000 0.000000 0.002886 0.000000 0.026754
#
#
# Mechanical properties :
#
#
# Convention : Reuss Voigt Hill
#
# Bulk Modulus (GPa) = 42.83279 50.84688 46.83984
# Shear Modulus (GPa) = 28.42769 35.17619 31.80194
#
# Velocity S-wave (km/s) = 3.27860 3.64706 3.46773
# Velocity P-wave (km/s) = 5.52526 6.07957 5.80903
#
# Compressibility (1/GPa) = 0.02334660
#
# Stress axis : x y z
#
# Youngs Moduli (GPa) = 77.06181 58.39475 56.80087
#
# Poissons Ratio (x) = 0.45149 -0.07977
# Poissons Ratio (y) = 0.59582 0.33244
# Poissons Ratio (z) = -0.10823 0.34177
#
# Static dielectric constant tensor:
#      x y z
#    x 2.219690 0.000000 0.003050 
#    y 0.000000 2.077060 0.000000 
#    z 0.003050 0.000000 2.131030 
# 
# From -- ./inp_files/31325.got.cif
#   From: 2010.05.17/outbox.cif.g08.bks.cpg/sg13_16_cif.got.tgz:31325.got - 2010.06.03 16:44:36.
