data_PCOD9238145
_publ_section_title
;
Structure prediction by ZEFSAII (Michael W. Deem and Ramdas Pophale) SiO2 
 PCOD9238145
Probable space group: P 2/C
;
_chemical_formula_sum "Si O2"
_cell_formula_units_Z 20
_cell_length_a 12.206117
_cell_length_b 10.647699
_cell_length_c 7.897907
_cell_angle_alpha 90.000000
_cell_angle_beta 131.518253
_cell_angle_gamma 90.000000
_cell_volume 768.562174
_symmetry_space_group_name_H-M "P 2/C"
_symmetry_group_IT_number 13
_symmetry_cell_setting 'monoclinic'
loop_
_space_group_symop_operation_xyz
x,y,z
-x,y,1/2-z
-x,-y,-z
x,-y,1/2+z
loop_
_atom_site_type_symbol
_atom_site_label
_atom_site_fract_x
_atom_site_fract_y
_atom_site_fract_z
Si Si1 0.142101 0.726462 0.798148
Si Si2 0.666820 0.465881 0.217595
Si Si3 0.863666 0.103940 0.521387
Si Si4 0.634394 0.104827 0.763983
Si Si5 0.301019 0.703264 0.417011
O O1 0.247094 0.622365 0.823622
O O2 0.087942 0.812854 0.586859
O O3 0.000000 0.678405 0.750000
O O4 0.244798 0.815002 0.014184
O O5 0.742626 0.602036 0.272063
O O6 0.662731 0.388966 0.388338
O O7 0.500000 0.500000 0.000000
O O8 0.810378 0.200066 0.611894
O O9 0.000000 0.033761 0.750000
O O10 0.726560 0.020241 0.318728
O O11 0.500000 0.078421 0.750000
O O12 0.588788 0.197309 0.561805
#
# Coordination Sequence:
#
# PCOD9238145 Si02
#       5
#     4   4   4   4   4
#     4  11  25  46  75 111 154 202 258 324 396 470
#     4  11  24  45  75 107 149 200 254 316 384 464
#     4  11  26  48  76 110 153 204 259 322 391 467
#     4  12  26  45  73 111 154 204 261 323 392 469
#     4  11  25  45  72 108 149 197 253 312 383 462
#
# _framework density 26.022615999999999
#
# number of rings (size 3 to 8) (size 9 to 14) (size 15 to 20)
#    0.000    0.800    0.000    6.000    0.000   11.200 
#    0.000    5.000    0.000    3.600    0.000    0.000 
#    0.000    0.000    0.000    0.000    0.000    0.000 
#
# Total GULP energy -111900.980008 kJ/mol
# GULP energy per Si atom -5595.049000 kJ/mol
# Density = 2.596339 g / cm^3
# Si number density = 26.022616 Si / 1000 Ang^3
#
#
#
# Elastic Constant Matrix: (Units=GPa)
#
#
# Indices 1 2 3 4 5 6 
#
# 1 197.6633 75.6721 52.0205 0.0000 -4.5673 0.0000
# 2 75.6721 155.6691 57.1374 0.0000 -5.5007 0.0000
# 3 52.0205 57.1374 97.1737 0.0000 8.8303 0.0000
# 4 0.0000 0.0000 0.0000 42.5054 0.0000 -12.0041
# 5 -4.5673 -5.5007 8.8303 0.0000 32.6214 0.0000
# 6 0.0000 0.0000 0.0000 -12.0041 0.0000 60.4109
#
#
#
# Elastic Compliance Matrix: (Units=1/GPa)
#
#
# Indices 1 2 3 4 5 6 
#
# 1 0.006569 -0.002326 -0.002252 0.000000 0.001137 0.000000
# 2 -0.002326 0.009264 -0.004423 0.000000 0.002434 0.000000
# 3 -0.002252 -0.004423 0.014551 0.000000 -0.005000 0.000000
# 4 0.000000 0.000000 0.000000 0.024925 0.000000 0.004953
# 5 0.001137 0.002434 -0.005000 0.000000 0.032578 0.000000
# 6 0.000000 0.000000 0.000000 0.004953 0.000000 0.017537
#
#
# Mechanical properties :
#
#
# Convention : Reuss Voigt Hill
#
# Bulk Modulus (GPa) = 80.76419 91.12957 85.94688
# Shear Modulus (GPa) = 39.19898 44.81929 42.00913
#
# Velocity S-wave (km/s) = 3.88537 4.15459 4.02223
# Velocity P-wave (km/s) = 7.15763 7.62296 7.39396
#
# Compressibility (1/GPa) = 0.01238173
#
# Stress axis : x y z
#
# Youngs Moduli (GPa) = 152.23888 107.94243 68.72183
#
# Poissons Ratio (x) = 0.25111 0.15475
# Poissons Ratio (y) = 0.35416 0.30396
# Poissons Ratio (z) = 0.34282 0.47743
#
# Static dielectric constant tensor:
#      x y z
#    x 2.028250 0.000000 -0.057980 
#    y 0.000000 2.062150 0.000000 
#    z -0.057980 0.000000 2.112520 
# 
# From -- ./inp_files/16008.got.cif
#   From: 2010.05.17/outbox.cif.g08.bks.cpg/sg13_9_cif.got.tgz:16008.got - 2010.06.03 16:44:36.
