data_PCOD9238427
_publ_section_title
;
Structure prediction by ZEFSAII (Michael W. Deem and Ramdas Pophale) SiO2 
 PCOD9238427
Probable space group: P 2/C
;
_chemical_formula_sum "Si O2"
_cell_formula_units_Z 16
_cell_length_a 12.363373
_cell_length_b 5.082824
_cell_length_c 18.723906
_cell_angle_alpha 90.000000
_cell_angle_beta 145.755177
_cell_angle_gamma 90.000000
_cell_volume 662.123114
_symmetry_space_group_name_H-M "P 2/C"
_symmetry_group_IT_number 13
_symmetry_cell_setting 'monoclinic'
loop_
_space_group_symop_operation_xyz
x,y,z
-x,y,1/2-z
-x,-y,-z
x,-y,1/2+z
loop_
_atom_site_type_symbol
_atom_site_label
_atom_site_fract_x
_atom_site_fract_y
_atom_site_fract_z
Si Si1 0.204333 0.612053 0.882940
Si Si2 0.565376 0.257758 0.128851
Si Si3 0.221989 0.571993 0.614231
Si Si4 0.303164 0.087294 0.563611
O O1 0.304353 0.751882 0.870010
O O2 0.000000 0.488939 0.750000
O O3 0.366971 0.409344 0.000034
O O4 0.162384 0.819324 0.923472
O O5 0.683237 0.391514 0.257005
O O6 0.495875 0.984179 0.125251
O O7 0.313071 0.332799 0.620823
O O8 0.000000 0.500000 0.500000
O O9 0.248337 0.835594 0.581216
#
# Coordination Sequence:
#
# PCOD9238427 Si02
#       4
#     4   4   4   4
#     4  11  26  52  75 113 156 205 257 318 387 463
#     4  11  27  47  82 112 158 199 264 316 393 453
#     4  12  28  50  80 116 156 205 259 322 387 461
#     4  12  26  50  77 113 155 201 257 318 384 458
#
# _framework density 24.16469
#
# number of rings (size 3 to 8) (size 9 to 14) (size 15 to 20)
#    0.000    0.500    2.500    3.750    7.000    1.000 
#    4.500    0.000    0.000    0.000    0.000    0.000 
#    0.000    0.000    0.000    0.000    0.000    0.000 
#
# Total GULP energy -89633.246799 kJ/mol
# GULP energy per Si atom -5602.077925 kJ/mol
# Density = 2.410969 g / cm^3
# Si number density = 24.164690 Si / 1000 Ang^3
#
#
#
# Elastic Constant Matrix: (Units=GPa)
#
#
# Indices 1 2 3 4 5 6 
#
# 1 112.6333 39.6321 79.5916 0.0000 -26.9334 0.0000
# 2 39.6321 134.3245 52.1091 0.0000 -22.3594 0.0000
# 3 79.5916 52.1091 201.6698 0.0000 -1.6747 0.0000
# 4 0.0000 0.0000 0.0000 21.9012 0.0000 -4.3396
# 5 -26.9334 -22.3594 -1.6747 0.0000 53.7929 0.0000
# 6 0.0000 0.0000 0.0000 -4.3396 0.0000 32.9048
#
#
#
# Elastic Compliance Matrix: (Units=1/GPa)
#
#
# Indices 1 2 3 4 5 6 
#
# 1 0.014757 -0.001102 -0.005483 0.000000 0.006760 0.000000
# 2 -0.001102 0.009017 -0.001869 0.000000 0.003138 0.000000
# 3 -0.005483 -0.001869 0.007578 0.000000 -0.003286 0.000000
# 4 0.000000 0.000000 0.000000 0.046885 0.000000 0.006183
# 5 0.006760 0.003138 -0.003286 0.000000 0.023177 0.000000
# 6 0.000000 0.000000 0.000000 0.006183 0.000000 0.031206
#
#
# Mechanical properties :
#
#
# Convention : Reuss Voigt Hill
#
# Bulk Modulus (GPa) = 69.22989 87.92148 78.57569
# Shear Modulus (GPa) = 32.39521 40.20608 36.30065
#
# Velocity S-wave (km/s) = 3.66539 4.08344 3.88005
# Velocity P-wave (km/s) = 6.82824 7.66133 7.25675
#
# Compressibility (1/GPa) = 0.01444463
#
# Stress axis : x y z
#
# Youngs Moduli (GPa) = 67.76286 110.89946 131.95471
#
# Poissons Ratio (x) = 0.12217 0.72356
# Poissons Ratio (y) = 0.07465 0.24664
# Poissons Ratio (z) = 0.37157 0.20728
#
# Static dielectric constant tensor:
#      x y z
#    x 1.914920 0.000000 0.005480 
#    y 0.000000 1.964670 0.000000 
#    z 0.005480 0.000000 1.970400 
# 
# From -- ./inp_files/65210.got.cif
#   From: 2010.05.17/outbox.cif.g08.bks.cpg/sg13_33_cif.got.tgz:65210.got - 2010.06.03 16:44:36.
