data_PCOD9238849
_publ_section_title
;
Structure prediction by ZEFSAII (Michael W. Deem and Ramdas Pophale) SiO2 
 PCOD9238849
Probable space group: P 2/C
;
_chemical_formula_sum "Si O2"
_cell_formula_units_Z 24
_cell_length_a 25.261798
_cell_length_b 7.074845
_cell_length_c 17.154802
_cell_angle_alpha 90.000000
_cell_angle_beta 15.133817
_cell_angle_gamma 90.000000
_cell_volume 800.444130
_symmetry_space_group_name_H-M "P 2/C"
_symmetry_group_IT_number 13
_symmetry_cell_setting 'monoclinic'
loop_
_space_group_symop_operation_xyz
x,y,z
-x,y,1/2-z
-x,-y,-z
x,-y,1/2+z
loop_
_atom_site_type_symbol
_atom_site_label
_atom_site_fract_x
_atom_site_fract_y
_atom_site_fract_z
Si Si1 0.745307 0.963195 0.905707
Si Si2 0.709282 0.068065 0.292761
Si Si3 0.230169 0.412238 0.931342
Si Si4 0.210322 0.486726 0.123501
Si Si5 0.259597 0.969186 0.921131
Si Si6 0.726955 0.511941 0.800893
O O1 0.500000 0.982065 0.250000
O O2 0.807101 0.077403 0.895900
O O3 0.820620 0.013832 0.710985
O O4 0.784036 0.740439 0.867550
O O5 0.504242 0.949102 0.572962
O O6 0.642854 0.276020 0.413928
O O7 0.809573 0.101842 0.065679
O O8 0.307948 0.517527 0.898995
O O9 0.000000 0.481849 0.250000
O O10 0.218027 0.192431 0.969832
O O11 0.318912 0.425143 0.718540
O O12 0.307340 0.572645 0.064097
O O13 0.973284 0.534535 0.453743
#
# Coordination Sequence:
#
# PCOD9238849 Si02
#       6
#     4   4   4   4   4   4
#     4   8  14  27  48  69  91 124 158 186 227 282
#     4   9  17  29  47  70  92 119 153 190 230 271
#     4   9  17  30  47  65  88 120 153 187 229 276
#     4   8  15  28  46  65  89 119 151 185 225 274
#     4   9  17  30  47  67  93 121 152 187 227 279
#     4   9  16  28  47  67  89 116 151 191 228 267
#
# _framework density 29.983356000000001
#
# number of rings (size 3 to 8) (size 9 to 14) (size 15 to 20)
#    0.000    3.333    0.000    0.000    0.000    0.667 
#    0.000    4.167    0.000   34.000    0.000    0.000 
#    0.000    0.000    0.000    0.000    0.000    0.000 
#
# Total GULP energy -134245.261715 kJ/mol
# GULP energy per Si atom -5593.552571 kJ/mol
# Density = 2.991511 g / cm^3
# Si number density = 29.983356 Si / 1000 Ang^3
#
#
#
# Elastic Constant Matrix: (Units=GPa)
#
#
# Indices 1 2 3 4 5 6 
#
# 1 385.6752 24.3249 86.1623 0.0000 28.8045 0.0000
# 2 24.3249 85.6810 11.2781 0.0000 -3.2508 0.0000
# 3 86.1623 11.2781 103.6887 0.0000 16.2971 0.0000
# 4 0.0000 0.0000 0.0000 22.6903 0.0000 9.0367
# 5 28.8045 -3.2508 16.2971 0.0000 76.8284 0.0000
# 6 0.0000 0.0000 0.0000 9.0367 0.0000 36.5928
#
#
#
# Elastic Compliance Matrix: (Units=1/GPa)
#
#
# Indices 1 2 3 4 5 6 
#
# 1 0.003248 -0.000617 -0.002520 0.000000 -0.000709 0.000000
# 2 -0.000617 0.012006 -0.000941 0.000000 0.000939 0.000000
# 3 -0.002520 -0.000941 0.012102 0.000000 -0.001662 0.000000
# 4 0.000000 0.000000 0.000000 0.048879 0.000000 -0.012071
# 5 -0.000709 0.000939 -0.001662 0.000000 0.013674 0.000000
# 6 0.000000 0.000000 0.000000 -0.012071 0.000000 0.030309
#
#
# Mechanical properties :
#
#
# Convention : Reuss Voigt Hill
#
# Bulk Modulus (GPa) = 52.08419 90.95284 71.51851
# Shear Modulus (GPa) = 37.09934 57.44095 47.27015
#
# Velocity S-wave (km/s) = 3.52139 4.38169 3.97488
# Velocity P-wave (km/s) = 5.82600 7.48326 6.70602
#
# Compressibility (1/GPa) = 0.01919968
#
# Stress axis : x y z
#
# Youngs Moduli (GPa) = 307.90245 83.29275 82.63093
#
# Poissons Ratio (x) = 0.05141 0.20825
# Poissons Ratio (y) = 0.19004 0.07772
# Poissons Ratio (z) = 0.77598 0.07834
#
# Static dielectric constant tensor:
#      x y z
#    x 2.447090 0.000000 0.029320 
#    y 0.000000 2.458910 0.000000 
#    z 0.029320 0.000000 2.415980 
# 
# From -- ./inp_files/65727.got.cif
#   From: 2010.05.17/outbox.cif.g08.bks.cpg/sg13_33_cif.got.tgz:65727.got - 2010.06.03 16:44:36.
