data_PCOD9238103
_publ_section_title
;
Structure prediction by ZEFSAII (Michael W. Deem and Ramdas Pophale) SiO2 
 PCOD9238103
Probable space group: P 2/C
;
_chemical_formula_sum "Si O2"
_cell_formula_units_Z 20
_cell_length_a 17.620485
_cell_length_b 5.178351
_cell_length_c 25.858277
_cell_angle_alpha 90.000000
_cell_angle_beta 20.057355
_cell_angle_gamma 90.000000
_cell_volume 809.195020
_symmetry_space_group_name_H-M "P 2/C"
_symmetry_group_IT_number 13
_symmetry_cell_setting 'monoclinic'
loop_
_space_group_symop_operation_xyz
x,y,z
-x,y,1/2-z
-x,-y,-z
x,-y,1/2+z
loop_
_atom_site_type_symbol
_atom_site_label
_atom_site_fract_x
_atom_site_fract_y
_atom_site_fract_z
Si Si1 0.682315 0.762108 0.506438
Si Si2 0.631506 0.495512 0.213510
Si Si3 0.849693 0.924090 0.253699
Si Si4 0.388245 0.735820 0.518294
Si Si5 0.059700 0.186573 0.916032
O O1 0.529133 0.708422 0.654748
O O2 0.654543 0.525192 0.484738
O O3 0.938100 0.787037 0.358326
O O4 0.619930 0.024941 0.517011
O O5 0.500000 0.625067 0.250000
O O6 0.725981 0.663337 0.200386
O O7 0.850778 0.377185 0.046737
O O8 0.628179 0.750615 0.392038
O O9 0.906212 0.971211 0.157814
O O10 0.790064 0.177137 0.324574
O O11 0.000000 0.000000 0.000000
#
# Coordination Sequence:
#
# PCOD9238103 Si02
#       5
#     4   4   4   4   4
#     4  12  26  50  78 112 157 204 267 320 397 472
#     4  11  24  44  72 111 148 202 254 324 385 467
#     4  11  25  49  77 113 157 209 257 330 386 470
#     4  11  28  49  77 116 155 204 265 324 393 466
#     4  11  24  46  72 110 153 200 258 318 397 461
#
# _framework density 24.715920000000001
#
# number of rings (size 3 to 8) (size 9 to 14) (size 15 to 20)
#    0.000    0.800    4.000    1.800    0.000   10.400 
#    7.200    0.000    0.000    0.000    0.000    0.000 
#    0.000    0.000    0.000    0.000    0.000    0.000 
#
# Total GULP energy -112108.254397 kJ/mol
# GULP energy per Si atom -5605.412720 kJ/mol
# Density = 2.465967 g / cm^3
# Si number density = 24.715920 Si / 1000 Ang^3
#
#
#
# Elastic Constant Matrix: (Units=GPa)
#
#
# Indices 1 2 3 4 5 6 
#
# 1 149.5818 38.5207 68.9433 0.0000 -5.2516 0.0000
# 2 38.5207 83.1822 37.3100 0.0000 -10.6215 0.0000
# 3 68.9433 37.3100 147.8526 0.0000 -12.5888 0.0000
# 4 0.0000 0.0000 0.0000 39.8366 0.0000 7.0276
# 5 -5.2516 -10.6215 -12.5888 0.0000 70.7240 0.0000
# 6 0.0000 0.0000 0.0000 7.0276 0.0000 31.8471
#
#
#
# Elastic Compliance Matrix: (Units=1/GPa)
#
#
# Indices 1 2 3 4 5 6 
#
# 1 0.008987 -0.002610 -0.003563 0.000000 -0.000359 0.000000
# 2 -0.002610 0.014462 -0.002299 0.000000 0.001569 0.000000
# 3 -0.003563 -0.002299 0.009091 0.000000 0.001008 0.000000
# 4 0.000000 0.000000 0.000000 0.026119 0.000000 -0.005764
# 5 -0.000359 0.001569 0.001008 0.000000 0.014528 0.000000
# 6 0.000000 0.000000 0.000000 -0.005764 0.000000 0.032672
#
#
# Mechanical properties :
#
#
# Convention : Reuss Voigt Hill
#
# Bulk Modulus (GPa) = 64.11450 74.46275 69.28862
# Shear Modulus (GPa) = 39.06270 44.20437 41.63353
#
# Velocity S-wave (km/s) = 3.97982 4.23365 4.10870
# Velocity P-wave (km/s) = 6.86407 7.35468 7.11361
#
# Compressibility (1/GPa) = 0.01559710
#
# Stress axis : x y z
#
# Youngs Moduli (GPa) = 111.27534 69.14800 110.00281
#
# Poissons Ratio (x) = 0.18044 0.39189
# Poissons Ratio (y) = 0.29038 0.25289
# Poissons Ratio (z) = 0.39642 0.15897
#
# Static dielectric constant tensor:
#      x y z
#    x 1.956500 0.000000 -0.039170 
#    y 0.000000 2.031670 0.000000 
#    z -0.039170 0.000000 2.116210 
# 
# From -- ./inp_files/93122.got.cif
#   From: 2010.05.17/outbox.cif.g08.bks.cpg/sg13_47_cif.got.tgz:93122.got - 2010.06.03 16:44:36.
