data_PCOD9238550
_publ_section_title
;
Structure prediction by ZEFSAII (Michael W. Deem and Ramdas Pophale) SiO2 
 PCOD9238550
Probable space group: P 2/C
;
_chemical_formula_sum "Si O2"
_cell_formula_units_Z 12
_cell_length_a 9.349401
_cell_length_b 4.982569
_cell_length_c 17.010458
_cell_angle_alpha 90.000000
_cell_angle_beta 134.269216
_cell_angle_gamma 90.000000
_cell_volume 567.423485
_symmetry_space_group_name_H-M "P 2/C"
_symmetry_group_IT_number 13
_symmetry_cell_setting 'monoclinic'
loop_
_space_group_symop_operation_xyz
x,y,z
-x,y,1/2-z
-x,-y,-z
x,-y,1/2+z
loop_
_atom_site_type_symbol
_atom_site_label
_atom_site_fract_x
_atom_site_fract_y
_atom_site_fract_z
Si Si1 0.605097 0.125431 0.710686
Si Si2 0.987060 0.249096 0.553517
Si Si3 0.549559 0.632581 0.935864
O O1 0.500000 0.019698 0.750000
O O2 0.828397 0.218034 0.816341
O O3 0.485293 0.389405 0.638369
O O4 0.586363 0.887174 0.640282
O O5 0.000000 0.500000 0.500000
O O6 0.776653 0.266766 0.517176
O O7 0.000000 0.000000 0.500000
O O8 0.500000 0.500000 0.000000
#
# Coordination Sequence:
#
# PCOD9238550 Si02
#       3
#     4   4   4
#     4  12  23  43  74 100 137 188 240 281 347 431
#     4  12  23  41  71 103 133 184 239 285 345 427
#     4  12  26  45  67 106 146 177 230 303 355 407
#
# _framework density 21.148222000000001
#
# number of rings (size 3 to 8) (size 9 to 14) (size 15 to 20)
#    0.000    0.000    6.667    4.000    0.000    1.333 
#    0.000    3.333    0.000    0.000    0.000    0.000 
#    0.000    0.000    0.000    0.000    0.000    0.000 
#
# Total GULP energy -67179.497755 kJ/mol
# GULP energy per Si atom -5598.291480 kJ/mol
# Density = 2.110009 g / cm^3
# Si number density = 21.148222 Si / 1000 Ang^3
#
#
#
# Elastic Constant Matrix: (Units=GPa)
#
#
# Indices 1 2 3 4 5 6 
#
# 1 134.1565 40.1817 77.8302 0.0000 18.2458 0.0000
# 2 40.1817 162.5391 55.8829 0.0000 10.1435 0.0000
# 3 77.8302 55.8829 139.8028 0.0000 29.2203 0.0000
# 4 0.0000 0.0000 0.0000 54.1313 0.0000 -11.9830
# 5 18.2458 10.1435 29.2203 0.0000 24.3677 0.0000
# 6 0.0000 0.0000 0.0000 -11.9830 0.0000 36.1674
#
#
#
# Elastic Compliance Matrix: (Units=1/GPa)
#
#
# Indices 1 2 3 4 5 6 
#
# 1 0.011111 -0.000733 -0.005628 0.000000 -0.001265 0.000000
# 2 -0.000733 0.007188 -0.002608 0.000000 0.000684 0.000000
# 3 -0.005628 -0.002608 0.013639 0.000000 -0.011056 0.000000
# 4 0.000000 0.000000 0.000000 0.019936 0.000000 0.006605
# 5 -0.001265 0.000684 -0.011056 0.000000 0.054958 0.000000
# 6 0.000000 0.000000 0.000000 0.006605 0.000000 0.029838
#
#
# Mechanical properties :
#
#
# Convention : Reuss Voigt Hill
#
# Bulk Modulus (GPa) = 71.42958 87.14312 79.28635
# Shear Modulus (GPa) = 31.39252 40.44020 35.91636
#
# Velocity S-wave (km/s) = 3.85698 4.37765 4.12553
# Velocity P-wave (km/s) = 7.32694 8.17600 7.76309
#
# Compressibility (1/GPa) = 0.01399980
#
# Stress axis : x y z
#
# Youngs Moduli (GPa) = 90.00383 139.13027 73.31655
#
# Poissons Ratio (x) = 0.10194 0.41263
# Poissons Ratio (y) = 0.06595 0.19122
# Poissons Ratio (z) = 0.50655 0.36287
#
# Static dielectric constant tensor:
#      x y z
#    x 1.675420 0.000000 0.093250 
#    y 0.000000 1.739510 0.000000 
#    z 0.093250 0.000000 1.687810 
# 
# From -- ./inp_files/30969.got.cif
#   From: 2010.05.17/outbox.cif.g08.bks.cpg/sg13_16_cif.got.tgz:30969.got - 2010.06.03 16:44:36.
