data_PCOD9238340
_publ_section_title
;
Structure prediction by ZEFSAII (Michael W. Deem and Ramdas Pophale) SiO2 
 PCOD9238340
Probable space group: P 2/C
;
_chemical_formula_sum "Si O2"
_cell_formula_units_Z 22
_cell_length_a 15.427525
_cell_length_b 10.100978
_cell_length_c 12.302884
_cell_angle_alpha 90.000000
_cell_angle_beta 150.897680
_cell_angle_gamma 90.000000
_cell_volume 932.468289
_symmetry_space_group_name_H-M "P 2/C"
_symmetry_group_IT_number 13
_symmetry_cell_setting 'monoclinic'
loop_
_space_group_symop_operation_xyz
x,y,z
-x,y,1/2-z
-x,-y,-z
x,-y,1/2+z
loop_
_atom_site_type_symbol
_atom_site_label
_atom_site_fract_x
_atom_site_fract_y
_atom_site_fract_z
Si Si1 0.429779 0.480116 0.548798
Si Si2 0.011399 0.859718 0.635441
Si Si3 0.405639 0.835048 0.993767
Si Si4 0.707061 0.046277 0.344672
Si Si5 0.081659 0.364774 0.632105
Si Si6 0.000000 0.212116 0.750000
O O1 0.500000 0.499942 0.750000
O O2 0.500000 0.500000 0.500000
O O3 0.405884 0.320060 0.520647
O O4 0.273969 0.588726 0.378451
O O5 0.216406 0.883641 0.832442
O O6 0.000000 0.824822 0.750000
O O7 0.931985 0.741744 0.477564
O O8 0.880889 0.983209 0.477047
O O9 0.395115 0.859720 0.852014
O O10 0.571549 0.924406 0.216872
O O11 0.814748 0.128252 0.554427
O O12 0.980050 0.302121 0.622475
O O13 0.000000 0.500000 0.500000
#
# Coordination Sequence:
#
# PCOD9238340 Si02
#       6
#     4   4   4   4   4   2
#     4  12  30  51  77 117 160 209 273 330 403 486
#     4  12  26  47  77 117 156 207 258 325 401 475
#     4  11  26  49  79 109 160 206 260 324 398 473
#     4  11  25  48  79 114 157 200 265 321 399 480
#     4  12  28  48  82 108 160 205 269 326 401 475
#     4  12  26  50  80 120 152 208 266 332 398 470
#
# _framework density 23.593295999999999
#
# number of rings (size 3 to 8) (size 9 to 14) (size 15 to 20)
#    0.000    0.364    4.545    1.636   11.455    0.000 
#    0.000    0.000    0.000    0.000    0.000    0.000 
#    0.000    0.000    0.000    0.000    0.000    0.000 
#
# Total GULP energy -122780.367579 kJ/mol
# GULP energy per Si atom -5580.925799 kJ/mol
# Density = 2.353960 g / cm^3
# Si number density = 23.593296 Si / 1000 Ang^3
#
#
#
# Elastic Constant Matrix: (Units=GPa)
#
#
# Indices 1 2 3 4 5 6 
#
# 1 102.6861 28.6402 44.9663 0.0000 -17.8175 0.0000
# 2 28.6402 94.4265 45.9237 0.0000 -11.6456 0.0000
# 3 44.9663 45.9237 149.6718 0.0000 -15.7205 0.0000
# 4 0.0000 0.0000 0.0000 47.9329 0.0000 8.7960
# 5 -17.8175 -11.6456 -15.7205 0.0000 56.7966 0.0000
# 6 0.0000 0.0000 0.0000 8.7960 0.0000 4.3191
#
#
#
# Elastic Compliance Matrix: (Units=1/GPa)
#
#
# Indices 1 2 3 4 5 6 
#
# 1 0.011924 -0.001983 -0.002702 0.000000 0.002586 0.000000
# 2 -0.001983 0.012910 -0.003247 0.000000 0.001126 0.000000
# 3 -0.002702 -0.003247 0.008580 0.000000 0.000861 0.000000
# 4 0.000000 0.000000 0.000000 0.033311 0.000000 -0.067839
# 5 0.002586 0.001126 0.000861 0.000000 0.018887 0.000000
# 6 0.000000 0.000000 0.000000 -0.067839 0.000000 0.369682
#
#
# Mechanical properties :
#
#
# Convention : Reuss Voigt Hill
#
# Bulk Modulus (GPa) = 56.98549 65.09386 61.03967
# Shear Modulus (GPa) = 10.48201 36.95999 23.72100
#
# Velocity S-wave (km/s) = 2.11008 3.96226 3.17426
# Velocity P-wave (km/s) = 5.49020 6.97012 6.27395
#
# Compressibility (1/GPa) = 0.01754833
#
# Stress axis : x y z
#
# Youngs Moduli (GPa) = 83.86773 77.46013 116.55294
#
# Poissons Ratio (x) = 0.15364 0.31493
# Poissons Ratio (y) = 0.16635 0.37844
# Poissons Ratio (z) = 0.22661 0.25151
#
# Static dielectric constant tensor:
#      x y z
#    x 2.025970 0.000000 -0.110180 
#    y 0.000000 1.896530 0.000000 
#    z -0.110180 0.000000 1.922910 
# 
# From -- ./inp_files/37257.got.cif
#   From: 2010.05.17/outbox.cif.g08.bks.cpg/sg13_19_cif.got.tgz:37257.got - 2010.06.03 16:44:36.
