data_PCOD9238267
_publ_section_title
;
Structure prediction by ZEFSAII (Michael W. Deem and Ramdas Pophale) SiO2 
 PCOD9238267
Probable space group: P 2/C
;
_chemical_formula_sum "Si O2"
_cell_formula_units_Z 18
_cell_length_a 6.888111
_cell_length_b 7.041142
_cell_length_c 18.186995
_cell_angle_alpha 90.000000
_cell_angle_beta 53.012056
_cell_angle_gamma 90.000000
_cell_volume 704.565950
_symmetry_space_group_name_H-M "P 2/C"
_symmetry_group_IT_number 13
_symmetry_cell_setting 'monoclinic'
loop_
_space_group_symop_operation_xyz
x,y,z
-x,y,1/2-z
-x,-y,-z
x,-y,1/2+z
loop_
_atom_site_type_symbol
_atom_site_label
_atom_site_fract_x
_atom_site_fract_y
_atom_site_fract_z
Si Si1 0.275936 0.325190 0.846343
Si Si2 0.000000 0.998737 0.750000
Si Si3 0.217530 0.255417 0.328428
Si Si4 0.213791 0.840412 0.999845
Si Si5 0.530846 0.218211 0.921684
O O1 0.500000 0.241640 0.750000
O O2 0.186176 0.517080 0.828541
O O3 0.396665 0.364466 0.898522
O O4 0.053496 0.184528 0.905716
O O5 0.932795 0.860546 0.697266
O O6 0.769623 0.127464 0.827335
O O7 0.500000 0.215334 0.250000
O O8 0.183740 0.216896 0.422469
O O9 0.337225 0.046590 0.974009
O O10 0.385879 0.721879 0.016191
#
# Coordination Sequence:
#
# PCOD9238267 Si02
#       5
#     4   2   4   4   4
#     4  11  26  45  70 102 141 186 232 294 347 418
#     4  12  26  46  76 108 142 194 234 290 358 428
#     4  11  26  46  71 101 147 187 231 292 360 418
#     4  11  25  45  71 106 139 184 236 291 352 419
#     4  11  26  42  73 104 138 182 241 288 348 421
#
# _framework density 25.547646
#
# number of rings (size 3 to 8) (size 9 to 14) (size 15 to 20)
#    0.000    0.889    2.222    2.667   12.444    4.444 
#    0.000    0.000    0.000    0.000    0.000    0.000 
#    0.000    0.000    0.000    0.000    0.000    0.000 
#
# Total GULP energy -100821.851140 kJ/mol
# GULP energy per Si atom -5601.213952 kJ/mol
# Density = 2.548950 g / cm^3
# Si number density = 25.547646 Si / 1000 Ang^3
#
#
#
# Elastic Constant Matrix: (Units=GPa)
#
#
# Indices 1 2 3 4 5 6 
#
# 1 152.8638 42.8371 52.8122 0.0000 22.1824 0.0000
# 2 42.8371 89.6013 41.0891 0.0000 -1.6889 0.0000
# 3 52.8122 41.0891 147.3478 0.0000 -10.1687 0.0000
# 4 0.0000 0.0000 0.0000 15.6580 0.0000 19.0288
# 5 22.1824 -1.6889 -10.1687 0.0000 58.9368 0.0000
# 6 0.0000 0.0000 0.0000 19.0288 0.0000 36.0787
#
#
#
# Elastic Compliance Matrix: (Units=1/GPa)
#
#
# Indices 1 2 3 4 5 6 
#
# 1 0.008871 -0.003134 -0.002573 0.000000 -0.003872 0.000000
# 2 -0.003134 0.013908 -0.002678 0.000000 0.001116 0.000000
# 3 -0.002573 -0.002678 0.008620 0.000000 0.002379 0.000000
# 4 0.000000 0.000000 0.000000 0.177883 0.000000 -0.093820
# 5 -0.003872 0.001116 0.002379 0.000000 0.018867 0.000000
# 6 0.000000 0.000000 0.000000 -0.093820 0.000000 0.077200
#
#
# Mechanical properties :
#
#
# Convention : Reuss Voigt Hill
#
# Bulk Modulus (GPa) = 68.35838 73.69885 71.02862
# Shear Modulus (GPa) = 15.29075 39.00633 27.14854
#
# Velocity S-wave (km/s) = 2.44912 3.91168 3.26339
# Velocity P-wave (km/s) = 5.90024 7.02224 6.48555
#
# Compressibility (1/GPa) = 0.01462878
#
# Stress axis : x y z
#
# Youngs Moduli (GPa) = 112.72857 71.90062 116.01308
#
# Poissons Ratio (x) = 0.22535 0.29847
# Poissons Ratio (y) = 0.35332 0.31068
# Poissons Ratio (z) = 0.29002 0.19255
#
# Static dielectric constant tensor:
#      x y z
#    x 1.999920 0.000000 0.044080 
#    y 0.000000 2.007350 0.000000 
#    z 0.044080 0.000000 2.058750 
# 
# From -- ./inp_files/60524.got.cif
#   From: 2010.05.17/outbox.cif.g08.bks.cpg/sg13_31_cif.got.tgz:60524.got - 2010.06.03 16:44:36.
