data_PCOD9238065
_publ_section_title
;
Structure prediction by ZEFSAII (Michael W. Deem and Ramdas Pophale) SiO2 
 PCOD9238065
Probable space group: P 2/C
;
_chemical_formula_sum "Si O2"
_cell_formula_units_Z 18
_cell_length_a 5.203008
_cell_length_b 4.865789
_cell_length_c 24.495176
_cell_angle_alpha 90.000000
_cell_angle_beta 84.915378
_cell_angle_gamma 90.000000
_cell_volume 617.697668
_symmetry_space_group_name_H-M "P 2/C"
_symmetry_group_IT_number 13
_symmetry_cell_setting 'monoclinic'
loop_
_space_group_symop_operation_xyz
x,y,z
-x,y,1/2-z
-x,-y,-z
x,-y,1/2+z
loop_
_atom_site_type_symbol
_atom_site_label
_atom_site_fract_x
_atom_site_fract_y
_atom_site_fract_z
Si Si1 0.000000 0.348794 0.250000
Si Si2 0.529654 0.504929 0.911905
Si Si3 0.193129 0.040599 0.947031
Si Si4 0.041618 0.850551 0.646474
Si Si5 0.667506 0.766801 0.194004
O O1 0.821393 0.170856 0.296056
O O2 0.904530 0.565688 0.205183
O O3 0.341862 0.763797 0.926863
O O4 0.806929 0.642829 0.896321
O O5 0.472219 0.349333 0.856232
O O6 0.411137 0.271511 0.954449
O O7 0.004126 0.093829 0.898125
O O8 0.000000 0.000000 0.000000
O O9 0.765606 0.925484 0.681036
O O10 0.500000 0.737264 0.250000
#
# Coordination Sequence:
#
# PCOD9238065 Si02
#       5
#     2   4   4   4   4
#     4  12  22  42  68 104 144 194 244 302 386 462
#     4  11  25  45  74 104 147 190 251 317 380 454
#     4  11  26  47  72 106 145 194 254 318 383 454
#     4  11  26  41  73 106 145 197 252 303 388 461
#     4  11  24  43  70 105 152 198 249 314 384 465
#
# _framework density 29.140471999999999
#
# number of rings (size 3 to 8) (size 9 to 14) (size 15 to 20)
#    0.000    0.889    4.444    1.333    3.111    6.222 
#    0.000    0.000    0.000    0.000    0.000    0.000 
#    0.000    0.000    0.000    0.000    0.000    0.000 
#
# Total GULP energy -100218.737929 kJ/mol
# GULP energy per Si atom -5567.707663 kJ/mol
# Density = 2.907415 g / cm^3
# Si number density = 29.140472 Si / 1000 Ang^3
#
#
#
# Elastic Constant Matrix: (Units=GPa)
#
#
# Indices 1 2 3 4 5 6 
#
# 1 125.4753 68.9700 32.6565 0.0000 -32.0164 0.0000
# 2 68.9700 176.9228 18.4527 0.0000 -35.6269 0.0000
# 3 32.6565 18.4527 178.4232 0.0000 -31.3659 0.0000
# 4 0.0000 0.0000 0.0000 20.9356 0.0000 0.0399
# 5 -32.0164 -35.6269 -31.3659 0.0000 64.9219 0.0000
# 6 0.0000 0.0000 0.0000 0.0399 0.0000 46.1155
#
#
#
# Elastic Compliance Matrix: (Units=1/GPa)
#
#
# Indices 1 2 3 4 5 6 
#
# 1 0.010968 -0.003574 -0.001128 0.000000 0.002903 0.000000
# 2 -0.003574 0.007519 0.000319 0.000000 0.002518 0.000000
# 3 -0.001128 0.000319 0.006241 0.000000 0.002634 0.000000
# 4 0.000000 0.000000 0.000000 0.047766 0.000000 -0.000041
# 5 0.002903 0.002518 0.002634 0.000000 0.019489 0.000000
# 6 0.000000 0.000000 0.000000 -0.000041 0.000000 0.021685
#
#
# Mechanical properties :
#
#
# Convention : Reuss Voigt Hill
#
# Bulk Modulus (GPa) = 62.63933 80.10886 71.37410
# Shear Modulus (GPa) = 39.13787 50.44407 44.79097
#
# Velocity S-wave (km/s) = 3.66878 4.16512 3.92480
# Velocity P-wave (km/s) = 6.28402 7.11908 6.71454
#
# Compressibility (1/GPa) = 0.01596441
#
# Stress axis : x y z
#
# Youngs Moduli (GPa) = 91.17263 132.99574 160.22739
#
# Poissons Ratio (x) = 0.47526 0.18066
# Poissons Ratio (y) = 0.32581 -0.05113
# Poissons Ratio (z) = 0.10280 -0.04244
#
# Static dielectric constant tensor:
#      x y z
#    x 3.426350 0.000000 0.435970 
#    y 0.000000 2.623550 0.000000 
#    z 0.435970 0.000000 2.516250 
# 
# From -- ./inp_files/89891.got.cif
#   From: 2010.05.17/outbox.cif.g08.bks.cpg/sg13_45_cif.got.tgz:89891.got - 2010.06.03 16:44:36.
