data_PCOD9238066
_publ_section_title
;
Structure prediction by ZEFSAII (Michael W. Deem and Ramdas Pophale) SiO2 
 PCOD9238066
Probable space group: P 2/C
;
_chemical_formula_sum "Si O2"
_cell_formula_units_Z 16
_cell_length_a 15.429326
_cell_length_b 4.842418
_cell_length_c 24.591597
_cell_angle_alpha 90.000000
_cell_angle_beta 18.433093
_cell_angle_gamma 90.000000
_cell_volume 580.970072
_symmetry_space_group_name_H-M "P 2/C"
_symmetry_group_IT_number 13
_symmetry_cell_setting 'monoclinic'
loop_
_space_group_symop_operation_xyz
x,y,z
-x,y,1/2-z
-x,-y,-z
x,-y,1/2+z
loop_
_atom_site_type_symbol
_atom_site_label
_atom_site_fract_x
_atom_site_fract_y
_atom_site_fract_z
Si Si1 0.025633 0.864272 0.424831
Si Si2 0.669115 0.797867 0.360693
Si Si3 0.739847 0.349960 0.567054
Si Si4 0.803115 0.500292 0.906925
O O1 0.989879 0.535948 0.441539
O O2 0.260009 0.933647 0.240845
O O3 0.768803 0.021236 0.551141
O O4 0.000000 0.000000 0.500000
O O5 0.484719 0.530409 0.453744
O O6 0.957075 0.722220 0.219005
O O7 0.500000 0.000000 0.500000
O O8 0.500000 0.429792 0.750000
O O9 0.714372 0.416602 0.519754
O O10 0.000000 0.682250 0.750000
#
# Coordination Sequence:
#
# PCOD9238066 Si02
#       4
#     4   4   4   4
#     4  11  24  44  71 106 147 197 252 313 381 457
#     4  11  26  48  76 109 152 203 258 320 390 466
#     4  11  24  43  70 108 148 196 250 313 383 457
#     4  11  25  47  73 107 150 196 253 316 381 458
#
# _framework density 27.540143
#
# number of rings (size 3 to 8) (size 9 to 14) (size 15 to 20)
#    0.000    1.000    0.000    5.250    0.000   11.000 
#    0.000    1.250    0.000    0.000    0.000    0.000 
#    0.000    0.000    0.000    0.000    0.000    0.000 
#
# Total GULP energy -89082.220374 kJ/mol
# GULP energy per Si atom -5567.638773 kJ/mol
# Density = 2.747746 g / cm^3
# Si number density = 27.540143 Si / 1000 Ang^3
#
#
#
# Elastic Constant Matrix: (Units=GPa)
#
#
# Indices 1 2 3 4 5 6 
#
# 1 230.5058 51.5134 79.2615 0.0000 28.2338 0.0000
# 2 51.5134 115.6773 39.3440 0.0000 3.7387 0.0000
# 3 79.2615 39.3440 161.3161 0.0000 57.8598 0.0000
# 4 0.0000 0.0000 0.0000 155.3329 0.0000 137.1511
# 5 28.2338 3.7387 57.8598 0.0000 52.5631 0.0000
# 6 0.0000 0.0000 0.0000 137.1511 0.0000 179.8419
#
#
#
# Elastic Compliance Matrix: (Units=1/GPa)
#
#
# Indices 1 2 3 4 5 6 
#
# 1 0.005509 -0.001723 -0.002097 0.000000 -0.000528 0.000000
# 2 -0.001723 0.010276 -0.002858 0.000000 0.003340 0.000000
# 3 -0.002097 -0.002858 0.012310 0.000000 -0.012220 0.000000
# 4 0.000000 0.000000 0.000000 0.019709 0.000000 -0.015030
# 5 -0.000528 0.003340 -0.012220 0.000000 0.032522 0.000000
# 6 0.000000 0.000000 0.000000 -0.015030 0.000000 0.017023
#
#
# Mechanical properties :
#
#
# Convention : Reuss Voigt Hill
#
# Bulk Modulus (GPa) = 67.84862 94.19301 81.02081
# Shear Modulus (GPa) = 43.24590 100.03958 71.64274
#
# Velocity S-wave (km/s) = 3.96698 6.03356 5.10592
# Velocity P-wave (km/s) = 6.75813 9.10026 8.01521
#
# Compressibility (1/GPa) = 0.01473869
#
# Stress axis : x y z
#
# Youngs Moduli (GPa) = 181.51524 97.31376 81.23772
#
# Poissons Ratio (x) = 0.16767 0.17038
# Poissons Ratio (y) = 0.31274 0.23216
# Poissons Ratio (z) = 0.38069 0.27810
#
# Static dielectric constant tensor:
#      x y z
#    x 2.259370 0.000000 0.000140 
#    y 0.000000 2.225280 0.000000 
#    z 0.000140 0.000000 2.189630 
# 
# From -- ./inp_files/86924.got.cif
#   From: 2010.05.17/outbox.cif.g08.bks.cpg/sg13_44_cif.got.tgz:86924.got - 2010.06.03 16:44:36.
