data_PCOD9238351
_publ_section_title
;
Structure prediction by ZEFSAII (Michael W. Deem and Ramdas Pophale) SiO2 
 PCOD9238351
Probable space group: P 2/C
;
_chemical_formula_sum "Si O2"
_cell_formula_units_Z 20
_cell_length_a 9.953572
_cell_length_b 5.625820
_cell_length_c 17.856639
_cell_angle_alpha 90.000000
_cell_angle_beta 54.806301
_cell_angle_gamma 90.000000
_cell_volume 817.141514
_symmetry_space_group_name_H-M "P 2/C"
_symmetry_group_IT_number 13
_symmetry_cell_setting 'monoclinic'
loop_
_space_group_symop_operation_xyz
x,y,z
-x,y,1/2-z
-x,-y,-z
x,-y,1/2+z
loop_
_atom_site_type_symbol
_atom_site_label
_atom_site_fract_x
_atom_site_fract_y
_atom_site_fract_z
Si Si1 0.730436 0.984851 0.573152
Si Si2 0.997008 0.828484 0.609995
Si Si3 0.500000 0.295076 0.750000
Si Si4 0.000000 0.828066 0.250000
Si Si5 0.764401 0.527855 0.771822
Si Si6 0.490482 0.250110 0.047751
O O1 0.593493 0.129609 0.661178
O O2 0.828101 0.161106 0.486088
O O3 0.861838 0.889654 0.590567
O O4 0.642983 0.774459 0.556049
O O5 0.928292 0.599577 0.674110
O O6 0.996694 0.022208 0.675352
O O7 0.630803 0.446604 0.754513
O O8 0.169276 0.679403 0.196893
O O9 0.677854 0.729667 0.849510
O O10 0.500000 0.500000 0.000000
O O11 0.500000 0.000000 0.000000
#
# Coordination Sequence:
#
# PCOD9238351 Si02
#       6
#     4   4   2   2   4   4
#     4  11  25  49  79 113 162 207 274 339 419 489
#     4  11  26  48  76 113 155 211 269 342 413 504
#     4  12  24  52  80 120 162 216 280 350 412 506
#     4  12  26  50  76 114 160 206 276 344 410 504
#     4  12  27  47  80 108 159 214 274 335 421 488
#     4  12  28  48  79 118 162 213 272 342 408 496
#
# _framework density 24.475563999999999
#
# number of rings (size 3 to 8) (size 9 to 14) (size 15 to 20)
#    0.000    0.400    2.000    5.400    8.400    0.800 
#    3.600    0.000    0.000    0.000    0.000    0.000 
#    0.000    0.000    0.000    0.000    0.000    0.000 
#
# Total GULP energy -112116.462089 kJ/mol
# GULP energy per Si atom -5605.823104 kJ/mol
# Density = 2.441986 g / cm^3
# Si number density = 24.475564 Si / 1000 Ang^3
#
#
#
# Elastic Constant Matrix: (Units=GPa)
#
#
# Indices 1 2 3 4 5 6 
#
# 1 156.8999 65.5709 43.1722 0.0000 21.7399 0.0000
# 2 65.5709 117.3269 57.7076 0.0000 9.0683 0.0000
# 3 43.1722 57.7076 162.5717 0.0000 -14.7471 0.0000
# 4 0.0000 0.0000 0.0000 24.0043 0.0000 4.4330
# 5 21.7399 9.0683 -14.7471 0.0000 42.4371 0.0000
# 6 0.0000 0.0000 0.0000 4.4330 0.0000 69.6671
#
#
#
# Elastic Compliance Matrix: (Units=1/GPa)
#
#
# Indices 1 2 3 4 5 6 
#
# 1 0.009022 -0.004058 -0.001338 0.000000 -0.004220 0.000000
# 2 -0.004058 0.012711 -0.003606 0.000000 -0.001890 0.000000
# 3 -0.001338 -0.003606 0.008176 0.000000 0.004297 0.000000
# 4 0.000000 0.000000 0.000000 0.042155 0.000000 -0.002682
# 5 -0.004220 -0.001890 0.004297 0.000000 0.027623 0.000000
# 6 0.000000 0.000000 0.000000 -0.002682 0.000000 0.014525
#
#
# Mechanical properties :
#
#
# Convention : Reuss Voigt Hill
#
# Bulk Modulus (GPa) = 83.99607 85.52222 84.75915
# Shear Modulus (GPa) = 36.71495 45.24487 40.97991
#
# Velocity S-wave (km/s) = 3.87727 4.30417 4.09628
# Velocity P-wave (km/s) = 7.37815 7.72780 7.55500
#
# Compressibility (1/GPa) = 0.01190532
#
# Stress axis : x y z
#
# Youngs Moduli (GPa) = 110.83625 78.67417 122.30515
#
# Poissons Ratio (x) = 0.31925 0.16368
# Poissons Ratio (y) = 0.44976 0.44100
# Poissons Ratio (z) = 0.14833 0.28368
#
# Static dielectric constant tensor:
#      x y z
#    x 1.887800 0.000000 0.007040 
#    y 0.000000 1.951480 0.000000 
#    z 0.007040 0.000000 1.954620 
# 
# From -- ./inp_files/65263.got.cif
#   From: 2010.05.17/outbox.cif.g08.bks.cpg/sg13_33_cif.got.tgz:65263.got - 2010.06.03 16:44:36.
