data_PCOD9238323
_publ_section_title
;
Structure prediction by ZEFSAII (Michael W. Deem and Ramdas Pophale) SiO2 
 PCOD9238323
Probable space group: P 2/C
;
_chemical_formula_sum "Si O2"
_cell_formula_units_Z 18
_cell_length_a 9.877492
_cell_length_b 6.464979
_cell_length_c 14.115107
_cell_angle_alpha 90.000000
_cell_angle_beta 46.931470
_cell_angle_gamma 90.000000
_cell_volume 658.476786
_symmetry_space_group_name_H-M "P 2/C"
_symmetry_group_IT_number 13
_symmetry_cell_setting 'monoclinic'
loop_
_space_group_symop_operation_xyz
x,y,z
-x,y,1/2-z
-x,-y,-z
x,-y,1/2+z
loop_
_atom_site_type_symbol
_atom_site_label
_atom_site_fract_x
_atom_site_fract_y
_atom_site_fract_z
Si Si1 0.649398 0.646415 0.553569
Si Si2 0.500000 0.994422 0.250000
Si Si3 0.884513 0.833391 0.134652
Si Si4 0.000000 0.886371 0.750000
Si Si5 0.000000 0.500000 0.500000
Si Si6 0.750050 0.486042 0.314104
O O1 0.602084 0.863710 0.623372
O O2 0.729016 0.649270 0.408800
O O3 0.448011 0.544407 0.637402
O O4 0.786662 0.511942 0.550434
O O5 0.671509 0.882667 0.219206
O O6 0.004867 0.770004 0.987466
O O7 0.887683 0.582380 0.169022
O O8 0.979088 0.962836 0.170702
O O9 0.828802 0.725091 0.820163
#
# Coordination Sequence:
#
# PCOD9238323 Si02
#       6
#     4   2   4   2   2   4
#     4  11  25  47  78 107 157 200 259 315 390 458
#     4  12  26  50  76 118 154 204 266 322 386 458
#     4  12  27  49  77 109 160 198 260 321 385 465
#     4  12  24  50  80 110 154 208 258 312 378 488
#     4  12  26  48  74 114 150 202 248 326 394 432
#     4  11  25  51  73 111 157 209 251 319 388 464
#
# _framework density 27.335818
#
# number of rings (size 3 to 8) (size 9 to 14) (size 15 to 20)
#    0.000    0.444    2.222    6.000    3.111    1.778 
#   16.000    0.000    0.000    0.000    0.000    0.000 
#    0.000    0.000    0.000    0.000    0.000    0.000 
#
# Total GULP energy -100617.272758 kJ/mol
# GULP energy per Si atom -5589.848487 kJ/mol
# Density = 2.727360 g / cm^3
# Si number density = 27.335818 Si / 1000 Ang^3
#
#
#
# Elastic Constant Matrix: (Units=GPa)
#
#
# Indices 1 2 3 4 5 6 
#
# 1 276.5250 104.6540 77.9269 0.0000 -39.4940 0.0000
# 2 104.6540 128.0511 64.7496 0.0000 21.0622 0.0000
# 3 77.9269 64.7496 146.6193 0.0000 4.4544 0.0000
# 4 0.0000 0.0000 0.0000 62.0836 0.0000 -3.1153
# 5 -39.4940 21.0622 4.4544 0.0000 52.2618 0.0000
# 6 0.0000 0.0000 0.0000 -3.1153 0.0000 62.8756
#
#
#
# Elastic Compliance Matrix: (Units=1/GPa)
#
#
# Indices 1 2 3 4 5 6 
#
# 1 0.008177 -0.007568 -0.001288 0.000000 0.009339 0.000000
# 2 -0.007568 0.017820 -0.003464 0.000000 -0.012606 0.000000
# 3 -0.001288 -0.003464 0.009045 0.000000 -0.000348 0.000000
# 4 0.000000 0.000000 0.000000 0.016147 0.000000 0.000800
# 5 0.009339 -0.012606 -0.000348 0.000000 0.031302 0.000000
# 6 0.000000 0.000000 0.000000 0.000800 0.000000 0.015944
#
#
# Mechanical properties :
#
#
# Convention : Reuss Voigt Hill
#
# Bulk Modulus (GPa) = 96.13280 116.20626 106.16953
# Shear Modulus (GPa) = 39.51202 55.70186 47.60694
#
# Velocity S-wave (km/s) = 3.80601 4.51897 4.17773
# Velocity P-wave (km/s) = 7.38633 8.35650 7.88635
#
# Compressibility (1/GPa) = 0.01040228
#
# Stress axis : x y z
#
# Youngs Moduli (GPa) = 122.28846 56.11696 110.55659
#
# Poissons Ratio (x) = 0.42471 0.14236
# Poissons Ratio (y) = 0.92552 0.38298
# Poissons Ratio (z) = 0.15746 0.19440
#
# Static dielectric constant tensor:
#      x y z
#    x 2.063110 0.000000 0.122270 
#    y 0.000000 2.429980 0.000000 
#    z 0.122270 0.000000 2.267040 
# 
# From -- ./inp_files/62290.got.cif
#   From: 2010.05.17/outbox.cif.g08.bks.cpg/sg13_32_cif.got.tgz:62290.got - 2010.06.03 16:44:36.
