data_PCOD9238721
_publ_section_title
;
Structure prediction by ZEFSAII (Michael W. Deem and Ramdas Pophale) SiO2 
 PCOD9238721
Probable space group: P 2/C
;
_chemical_formula_sum "Si O2"
_cell_formula_units_Z 20
_cell_length_a 9.381834
_cell_length_b 5.165035
_cell_length_c 15.296806
_cell_angle_alpha 90.000000
_cell_angle_beta 90.000000
_cell_angle_gamma 90.000000
_cell_volume 741.244992
_symmetry_space_group_name_H-M "P 2/C"
_symmetry_group_IT_number 13
_symmetry_cell_setting 'monoclinic'
loop_
_space_group_symop_operation_xyz
x,y,z
-x,y,1/2-z
-x,-y,-z
x,-y,1/2+z
loop_
_atom_site_type_symbol
_atom_site_label
_atom_site_fract_x
_atom_site_fract_y
_atom_site_fract_z
Si Si1 0.609419 0.656892 0.557065
Si Si2 0.597595 0.872390 0.819638
Si Si3 0.890581 0.156892 0.057065
Si Si4 0.097595 0.627611 0.680362
Si Si5 0.250000 0.250000 0.807163
O O1 0.500000 0.500000 0.500000
O O2 0.511620 0.882521 0.600015
O O3 0.750000 0.750000 0.506160
O O4 0.679860 0.466903 0.630085
O O5 0.500000 0.712290 0.750000
O O6 0.750000 0.750000 0.844769
O O7 0.643064 0.113062 0.760447
O O8 0.988380 0.382520 0.100015
O O9 0.820140 0.966902 0.130085
O O10 0.000000 0.000000 0.000000
O O11 0.000000 0.787710 0.750000
O O12 0.856936 0.386938 0.760448
#
# Coordination Sequence:
#
# PCOD9238721 Si02
#       5
#     4   4   4   4   4
#     4  12  30  53  78 124 168 216 273 342 430 497
#     4  12  25  48  81 118 149 213 282 330 403 493
#     4  12  30  53  78 124 168 216 273 342 430 497
#     4  12  25  48  81 118 149 213 282 330 403 493
#     4  12  26  50  90 106 168 210 276 342 394 494
#
# _framework density 26.981628000000001
#
# number of rings (size 3 to 8) (size 9 to 14) (size 15 to 20)
#    0.000    0.000    8.000    0.000    8.400    4.800 
#    0.000    0.000    4.400    0.000    0.000    0.000 
#    0.000    0.000    0.000    0.000    0.000    0.000 
#
# Total GULP energy -111810.471883 kJ/mol
# GULP energy per Si atom -5590.523594 kJ/mol
# Density = 2.692022 g / cm^3
# Si number density = 26.981628 Si / 1000 Ang^3
#
#
#
# Elastic Constant Matrix: (Units=GPa)
#
#
# Indices 1 2 3 4 5 6 
#
# 1 302.4355 54.2295 67.4856 0.0000 -13.6860 0.0000
# 2 54.2295 79.1648 20.7349 0.0000 -3.2617 0.0000
# 3 67.4856 20.7349 64.9284 0.0000 -9.4416 0.0000
# 4 0.0000 0.0000 0.0000 25.1923 0.0000 -3.0106
# 5 -13.6860 -3.2617 -9.4416 0.0000 47.6149 0.0000
# 6 0.0000 0.0000 0.0000 -3.0106 0.0000 56.1105
#
#
#
# Elastic Compliance Matrix: (Units=1/GPa)
#
#
# Indices 1 2 3 4 5 6 
#
# 1 0.004603 -0.002072 -0.004068 0.000000 0.000374 0.000000
# 2 -0.002072 0.014718 -0.002560 0.000000 -0.000095 0.000000
# 3 -0.004068 -0.002560 0.020853 0.000000 0.002790 0.000000
# 4 0.000000 0.000000 0.000000 0.039951 0.000000 0.002144
# 5 0.000374 -0.000095 0.002790 0.000000 0.021656 0.000000
# 6 0.000000 0.000000 0.000000 0.002144 0.000000 0.017937
#
#
# Mechanical properties :
#
#
# Convention : Reuss Voigt Hill
#
# Bulk Modulus (GPa) = 43.91118 81.26983 62.59050
# Shear Modulus (GPa) = 34.55207 46.05546 40.30377
#
# Velocity S-wave (km/s) = 3.58240 4.13597 3.86910
# Velocity P-wave (km/s) = 5.78111 7.27971 6.57326
#
# Compressibility (1/GPa) = 0.02277324
#
# Stress axis : x y z
#
# Youngs Moduli (GPa) = 217.26584 67.94415 47.95482
#
# Poissons Ratio (x) = 0.14078 0.19507
# Poissons Ratio (y) = 0.45019 0.12278
# Poissons Ratio (z) = 0.88379 0.17396
#
# Static dielectric constant tensor:
#      x y z
#    x 2.180470 0.000000 -0.002880 
#    y 0.000000 2.237470 0.000000 
#    z -0.002880 0.000000 2.150860 
# 
# From -- ./inp_files/62308.got.cif
#   From: 2010.05.17/outbox.cif.g08.bks.cpg/sg13_32_cif.got.tgz:62308.got - 2010.06.03 16:44:36.
