data_PCOD9238794
_publ_section_title
;
Structure prediction by ZEFSAII (Michael W. Deem and Ramdas Pophale) SiO2 
 PCOD9238794
Probable space group: P 2/C
;
_chemical_formula_sum "Si O2"
_cell_formula_units_Z 16
_cell_length_a 15.787506
_cell_length_b 4.214800
_cell_length_c 7.839474
_cell_angle_alpha 90.000000
_cell_angle_beta 90.000043
_cell_angle_gamma 90.000000
_cell_volume 521.647853
_symmetry_space_group_name_H-M "P 2/C"
_symmetry_group_IT_number 13
_symmetry_cell_setting 'monoclinic'
loop_
_space_group_symop_operation_xyz
x,y,z
-x,y,1/2-z
-x,-y,-z
x,-y,1/2+z
loop_
_atom_site_type_symbol
_atom_site_label
_atom_site_fract_x
_atom_site_fract_y
_atom_site_fract_z
Si Si1 0.810293 0.263644 0.890055
Si Si2 0.310293 0.736355 0.390055
Si Si3 0.439707 0.263644 0.390055
Si Si4 0.939707 0.263644 0.390055
O O1 0.750000 0.500000 1.000000
O O2 0.875000 0.500000 0.797721
O O3 0.750000 0.894704 0.250000
O O4 0.875000 1.000000 0.966473
O O5 0.375000 0.500000 0.297721
O O6 0.375000 1.000000 0.466473
O O7 0.500000 0.105296 0.250000
O O8 0.500000 0.500000 0.500000
O O9 0.000000 0.105296 0.250000
O O10 0.000000 0.500000 0.500000
#
# Coordination Sequence:
#
# PCOD9238794 Si02
#       4
#     4   4   4   4
#     4  12  27  50  78 116 162 216 272 334 407 492
#     4  12  27  50  78 116 162 216 272 334 407 492
#     4  12  27  50  78 116 162 216 272 334 407 492
#     4  12  27  50  78 116 162 216 272 334 407 492
#
# _framework density 30.672034
#
# number of rings (size 3 to 8) (size 9 to 14) (size 15 to 20)
#    0.000    0.000    0.000    9.000    0.000    8.000 
#    0.000    0.000    0.000    0.000    0.000    0.000 
#    0.000    0.000    0.000    0.000    0.000    0.000 
#
# Total GULP energy -89373.755478 kJ/mol
# GULP energy per Si atom -5585.859717 kJ/mol
# Density = 3.060222 g / cm^3
# Si number density = 30.672034 Si / 1000 Ang^3
#
#
#
# Elastic Constant Matrix: (Units=GPa)
#
#
# Indices 1 2 3 4 5 6 
#
# 1 264.1994 135.9279 118.5157 0.0000 8.0626 0.0000
# 2 135.9279 201.5622 76.1651 0.0000 -12.0158 0.0000
# 3 118.5157 76.1651 111.6017 0.0000 -38.7433 0.0000
# 4 0.0000 0.0000 0.0000 44.6578 0.0000 -20.2365
# 5 8.0626 -12.0158 -38.7433 0.0000 83.4814 0.0000
# 6 0.0000 0.0000 0.0000 -20.2365 0.0000 145.3079
#
#
#
# Elastic Compliance Matrix: (Units=1/GPa)
#
#
# Indices 1 2 3 4 5 6 
#
# 1 0.011110 -0.003403 -0.011942 0.000000 -0.007105 0.000000
# 2 -0.003403 0.007863 -0.001485 0.000000 0.000771 0.000000
# 3 -0.011942 -0.001485 0.027396 0.000000 0.013654 0.000000
# 4 0.000000 0.000000 0.000000 0.023901 0.000000 0.003329
# 5 -0.007105 0.000771 0.013654 0.000000 0.019113 0.000000
# 6 0.000000 0.000000 0.000000 0.003329 0.000000 0.007345
#
#
# Mechanical properties :
#
#
# Convention : Reuss Voigt Hill
#
# Bulk Modulus (GPa) = 78.68541 137.62007 108.15274
# Shear Modulus (GPa) = 37.14067 71.13973 54.14020
#
# Velocity S-wave (km/s) = 3.48357 4.82121 4.20591
# Velocity P-wave (km/s) = 6.47224 8.71537 7.67618
#
# Compressibility (1/GPa) = 0.01270884
#
# Stress axis : x y z
#
# Youngs Moduli (GPa) = 90.01179 127.17477 36.50219
#
# Poissons Ratio (x) = 0.43278 0.43591
# Poissons Ratio (y) = 0.30631 0.05420
# Poissons Ratio (z) = 1.07492 0.18883
#
# Static dielectric constant tensor:
#      x y z
#    x 2.316740 0.000000 -0.001540 
#    y 0.000000 2.365670 0.000000 
#    z -0.001540 0.000000 2.309080 
# 
# From -- ./inp_files/17585.got.cif
#   From: 2010.05.17/outbox.cif.g08.bks.cpg/sg13_9_cif.got.tgz:17585.got - 2010.06.03 16:44:36.
