data_PCOD9238159
_publ_section_title
;
Structure prediction by ZEFSAII (Michael W. Deem and Ramdas Pophale) SiO2 
 PCOD9238159
Probable space group: P 2/C
;
_chemical_formula_sum "Si O2"
_cell_formula_units_Z 20
_cell_length_a 11.046618
_cell_length_b 6.996907
_cell_length_c 18.529930
_cell_angle_alpha 90.000000
_cell_angle_beta 36.619685
_cell_angle_gamma 90.000000
_cell_volume 854.319160
_symmetry_space_group_name_H-M "P 2/C"
_symmetry_group_IT_number 13
_symmetry_cell_setting 'monoclinic'
loop_
_space_group_symop_operation_xyz
x,y,z
-x,y,1/2-z
-x,-y,-z
x,-y,1/2+z
loop_
_atom_site_type_symbol
_atom_site_label
_atom_site_fract_x
_atom_site_fract_y
_atom_site_fract_z
Si Si1 0.534430 0.466090 0.400181
Si Si2 0.648892 0.855547 0.270344
Si Si3 0.057386 0.280360 0.990416
Si Si4 0.913406 0.176937 0.210527
Si Si5 0.644546 0.794271 0.619548
O O1 0.500000 0.500000 0.500000
O O2 0.569089 0.670105 0.348313
O O3 0.353356 0.349400 0.448359
O O4 0.731293 0.331599 0.294955
O O5 0.749323 0.778755 0.148637
O O6 0.475194 0.014655 0.343978
O O7 0.139397 0.828282 0.948288
O O8 0.000000 0.500000 0.000000
O O9 0.061375 0.237726 0.073879
O O10 0.000000 0.175408 0.250000
O O11 0.820287 0.970611 0.233854
O O12 0.500000 0.700464 0.750000
#
# Coordination Sequence:
#
# PCOD9238159 Si02
#       5
#     4   4   4   4   4
#     4  11  26  46  69 104 149 198 239 308 374 430
#     4  11  25  48  75 107 148 193 249 303 369 438
#     4  12  24  49  80 108 146 197 250 305 366 448
#     4  11  26  46  68 109 145 188 252 300 372 439
#     4  11  24  46  72 109 146 183 254 295 363 442
#
# _framework density 23.410456
#
# number of rings (size 3 to 8) (size 9 to 14) (size 15 to 20)
#    0.000    0.800    6.000    0.600    2.800    9.600 
#    0.000    0.000    0.000    0.000    0.000    0.000 
#    0.000    0.000    0.000    0.000    0.000    0.000 
#
# Total GULP energy -112095.136092 kJ/mol
# GULP energy per Si atom -5604.756805 kJ/mol
# Density = 2.335717 g / cm^3
# Si number density = 23.410456 Si / 1000 Ang^3
#
#
#
# Elastic Constant Matrix: (Units=GPa)
#
#
# Indices 1 2 3 4 5 6 
#
# 1 123.2000 47.7678 55.3501 0.0000 33.8027 0.0000
# 2 47.7678 170.1137 63.7874 0.0000 19.1668 0.0000
# 3 55.3501 63.7874 167.9880 0.0000 33.5348 0.0000
# 4 0.0000 0.0000 0.0000 38.1468 0.0000 6.4006
# 5 33.8027 19.1668 33.5348 0.0000 48.7361 0.0000
# 6 0.0000 0.0000 0.0000 6.4006 0.0000 34.9065
#
#
#
# Elastic Compliance Matrix: (Units=1/GPa)
#
#
# Indices 1 2 3 4 5 6 
#
# 1 0.011247 -0.001806 -0.001860 0.000000 -0.005811 0.000000
# 2 -0.001806 0.007191 -0.002111 0.000000 -0.000123 0.000000
# 3 -0.001860 -0.002111 0.008050 0.000000 -0.003419 0.000000
# 4 0.000000 0.000000 0.000000 0.027047 0.000000 -0.004959
# 5 -0.005811 -0.000123 -0.003419 0.000000 0.026950 0.000000
# 6 0.000000 0.000000 0.000000 -0.004959 0.000000 0.029557
#
#
# Mechanical properties :
#
#
# Convention : Reuss Voigt Hill
#
# Bulk Modulus (GPa) = 66.96248 88.34578 77.65413
# Shear Modulus (GPa) = 39.50288 43.98429 41.74359
#
# Velocity S-wave (km/s) = 4.11226 4.33925 4.22728
# Velocity P-wave (km/s) = 7.15635 7.93254 7.55442
#
# Compressibility (1/GPa) = 0.01493374
#
# Stress axis : x y z
#
# Youngs Moduli (GPa) = 88.91193 139.06431 124.22900
#
# Poissons Ratio (x) = 0.25115 0.23107
# Poissons Ratio (y) = 0.16058 0.26223
# Poissons Ratio (z) = 0.16538 0.29355
#
# Static dielectric constant tensor:
#      x y z
#    x 1.937240 0.000000 -0.022870 
#    y 0.000000 1.904840 0.000000 
#    z -0.022870 0.000000 1.858720 
# 
# From -- ./inp_files/49501.got.cif
#   From: 2010.05.17/outbox.cif.g08.bks.cpg/sg13_25_cif.got.tgz:49501.got - 2010.06.03 16:44:36.
