data_PCOD9238058
_publ_section_title
;
Structure prediction by ZEFSAII (Michael W. Deem and Ramdas Pophale) SiO2 
 PCOD9238058
Probable space group: P 2/C
;
_chemical_formula_sum "Si O2"
_cell_formula_units_Z 16
_cell_length_a 20.783957
_cell_length_b 8.203636
_cell_length_c 13.133111
_cell_angle_alpha 90.000000
_cell_angle_beta 18.583496
_cell_angle_gamma 90.000000
_cell_volume 713.617704
_symmetry_space_group_name_H-M "P 2/C"
_symmetry_group_IT_number 13
_symmetry_cell_setting 'monoclinic'
loop_
_space_group_symop_operation_xyz
x,y,z
-x,y,1/2-z
-x,-y,-z
x,-y,1/2+z
loop_
_atom_site_type_symbol
_atom_site_label
_atom_site_fract_x
_atom_site_fract_y
_atom_site_fract_z
Si Si1 0.956057 0.026091 0.448235
Si Si2 0.736930 0.275417 0.166153
Si Si3 0.263055 0.224585 0.876944
Si Si4 0.956098 0.526091 0.183537
O O1 0.818295 0.178606 0.614415
O O2 0.174494 0.068953 0.071754
O O3 0.000000 0.000000 0.500000
O O4 0.839939 0.872318 0.573902
O O5 0.499992 0.249997 0.522151
O O6 0.818343 0.321396 0.930654
O O7 0.825456 0.431049 0.095337
O O8 0.160013 0.372320 0.093767
O O9 0.000000 0.500000 0.000000
#
# Coordination Sequence:
#
# PCOD9238058 Si02
#       4
#     4   4   4   4
#     4  11  24  43  69 104 141 181 233 291 346 412
#     4  11  24  46  71 101 142 185 231 287 347 416
#     4  11  24  46  71 101 142 185 231 287 347 416
#     4  11  24  43  69 104 141 181 233 291 346 412
#
# _framework density 22.420968999999999
#
# number of rings (size 3 to 8) (size 9 to 14) (size 15 to 20)
#    0.000    1.000    0.000    9.000    0.000    4.000 
#    0.000    5.000    0.000    3.000    0.000    0.000 
#    0.000    0.000    0.000    0.000    0.000    0.000 
#
# Total GULP energy -89102.218892 kJ/mol
# GULP energy per Si atom -5568.888681 kJ/mol
# Density = 2.236994 g / cm^3
# Si number density = 22.420969 Si / 1000 Ang^3
#
#
#
# Elastic Constant Matrix: (Units=GPa)
#
#
# Indices 1 2 3 4 5 6 
#
# 1 216.8513 84.3818 125.6701 0.0000 12.7552 0.0000
# 2 84.3818 137.1313 73.8983 0.0000 1.7489 0.0000
# 3 125.6701 73.8983 238.1372 0.0000 -16.4842 0.0000
# 4 0.0000 0.0000 0.0000 39.8470 0.0000 -1.4185
# 5 12.7552 1.7489 -16.4842 0.0000 12.8276 0.0000
# 6 0.0000 0.0000 0.0000 -1.4185 0.0000 31.5065
#
#
#
# Elastic Compliance Matrix: (Units=1/GPa)
#
#
# Indices 1 2 3 4 5 6 
#
# 1 0.009863 -0.002935 -0.005428 0.000000 -0.016382 0.000000
# 2 -0.002935 0.009950 -0.001571 0.000000 -0.000457 0.000000
# 3 -0.005428 -0.001571 0.008715 0.000000 0.016810 0.000000
# 4 0.000000 0.000000 0.000000 0.025136 0.000000 0.001132
# 5 -0.016382 -0.000457 0.016810 0.000000 0.115911 0.000000
# 6 0.000000 0.000000 0.000000 0.001132 0.000000 0.031790
#
#
# Mechanical properties :
#
#
# Convention : Reuss Voigt Hill
#
# Bulk Modulus (GPa) = 115.46131 128.89113 122.17622
# Shear Modulus (GPa) = 22.30951 37.38086 29.84519
#
# Velocity S-wave (km/s) = 3.15783 4.08760 3.65242
# Velocity P-wave (km/s) = 8.05634 8.93810 8.50865
#
# Compressibility (1/GPa) = 0.00866091
#
# Stress axis : x y z
#
# Youngs Moduli (GPa) = 101.39157 100.49825 114.74743
#
# Poissons Ratio (x) = 0.29495 0.62285
# Poissons Ratio (y) = 0.29757 0.18022
# Poissons Ratio (z) = 0.55036 0.15784
#
# Static dielectric constant tensor:
#      x y z
#    x 1.864390 0.000000 0.008370 
#    y 0.000000 2.079570 0.000000 
#    z 0.008370 0.000000 1.814910 
# 
# From -- ./inp_files/56961.got.cif
#   From: 2010.05.17/outbox.cif.g08.bks.cpg/sg13_29_cif.got.tgz:56961.got - 2010.06.03 16:44:36.
