data_PCOD9238200
_publ_section_title
;
Structure prediction by ZEFSAII (Michael W. Deem and Ramdas Pophale) SiO2 
 PCOD9238200
Probable space group: P 2/C
;
_chemical_formula_sum "Si O2"
_cell_formula_units_Z 14
_cell_length_a 9.001088
_cell_length_b 15.125452
_cell_length_c 5.389445
_cell_angle_alpha 90.000000
_cell_angle_beta 125.563915
_cell_angle_gamma 90.000000
_cell_volume 596.880611
_symmetry_space_group_name_H-M "P 2/C"
_symmetry_group_IT_number 13
_symmetry_cell_setting 'monoclinic'
loop_
_space_group_symop_operation_xyz
x,y,z
-x,y,1/2-z
-x,-y,-z
x,-y,1/2+z
loop_
_atom_site_type_symbol
_atom_site_label
_atom_site_fract_x
_atom_site_fract_y
_atom_site_fract_z
Si Si1 0.724797 0.943208 0.746743
Si Si2 0.297030 0.296739 0.666508
Si Si3 0.000000 0.441882 0.250000
Si Si4 0.000000 0.152841 0.250000
Si Si5 0.500000 0.790096 0.750000
O O1 0.588075 0.859782 0.642933
O O2 0.928336 0.904575 0.909020
O O3 0.699980 0.997521 0.467370
O O4 0.500000 0.300911 0.750000
O O5 0.177476 0.379453 0.461793
O O6 0.170172 0.213628 0.480475
O O7 0.343002 0.275276 0.998180
O O8 0.000000 0.500000 0.500000
#
# Coordination Sequence:
#
# PCOD9238200 Si02
#       5
#     4   4   2   2   2
#     4  12  26  44  69 106 155 208 266 335 379 418
#     4  11  26  50  79 111 153 203 249 308 381 462
#     4  11  30  54  84 121 154 186 240 307 384 474
#     4  11  24  48  72 105 152 208 274 313 376 456
#     4  12  26  46  76 110 154 208 272 308 380 464
#
# _framework density 23.455276000000001
#
# number of rings (size 3 to 8) (size 9 to 14) (size 15 to 20)
#    0.000    0.571    2.857    3.429    4.000    4.571 
#    0.000    0.000    0.000    0.000    0.000    0.000 
#    0.000    0.000    0.000    0.000    0.000    0.000 
#
# Total GULP energy -78216.262654 kJ/mol
# GULP energy per Si atom -5586.875904 kJ/mol
# Density = 2.340189 g / cm^3
# Si number density = 23.455276 Si / 1000 Ang^3
#
#
#
# Elastic Constant Matrix: (Units=GPa)
#
#
# Indices 1 2 3 4 5 6 
#
# 1 150.9081 76.5391 81.9613 0.0000 16.7566 0.0000
# 2 76.5391 137.8831 97.3074 0.0000 3.5223 0.0000
# 3 81.9613 97.3074 176.5651 0.0000 -2.8305 0.0000
# 4 0.0000 0.0000 0.0000 38.2112 0.0000 -10.5572
# 5 16.7566 3.5223 -2.8305 0.0000 53.3440 0.0000
# 6 0.0000 0.0000 0.0000 -10.5572 0.0000 7.7301
#
#
#
# Elastic Compliance Matrix: (Units=1/GPa)
#
#
# Indices 1 2 3 4 5 6 
#
# 1 0.010390 -0.003677 -0.002848 0.000000 -0.003172 0.000000
# 2 -0.003677 0.013239 -0.005589 0.000000 -0.000016 0.000000
# 3 -0.002848 -0.005589 0.010095 0.000000 0.001799 0.000000
# 4 0.000000 0.000000 0.000000 0.042029 0.000000 0.057400
# 5 -0.003172 -0.000016 0.001799 0.000000 0.019839 0.000000
# 6 0.000000 0.000000 0.000000 0.057400 0.000000 0.207757
#
#
# Mechanical properties :
#
#
# Convention : Reuss Voigt Hill
#
# Bulk Modulus (GPa) = 105.31096 108.55242 106.93169
# Shear Modulus (GPa) = 15.11755 33.82697 24.47226
#
# Velocity S-wave (km/s) = 2.54151 3.80174 3.23361
# Velocity P-wave (km/s) = 7.32178 8.10259 7.72206
#
# Compressibility (1/GPa) = 0.00949569
#
# Stress axis : x y z
#
# Youngs Moduli (GPa) = 96.24357 75.53685 99.06245
#
# Poissons Ratio (x) = 0.27775 0.28208
# Poissons Ratio (y) = 0.35389 0.55369
# Poissons Ratio (z) = 0.27406 0.42220
#
# Static dielectric constant tensor:
#      x y z
#    x 1.953400 0.000000 -0.026830 
#    y 0.000000 1.887040 0.000000 
#    z -0.026830 0.000000 1.921310 
# 
# From -- ./inp_files/1176.got.cif
#   From: 2010.05.17/outbox.cif.g08.bks.cpg/sg13_1_cif.got.tgz:1176.got - 2010.06.03 16:44:36.
