data_PCOD9238184
_publ_section_title
;
Structure prediction by ZEFSAII (Michael W. Deem and Ramdas Pophale) SiO2 
 PCOD9238184
Probable space group: P 2/C
;
_chemical_formula_sum "Si O2"
_cell_formula_units_Z 16
_cell_length_a 8.716662
_cell_length_b 7.655481
_cell_length_c 13.911465
_cell_angle_alpha 90.000000
_cell_angle_beta 125.195358
_cell_angle_gamma 90.000000
_cell_volume 758.611547
_symmetry_space_group_name_H-M "P 2/C"
_symmetry_group_IT_number 13
_symmetry_cell_setting 'monoclinic'
loop_
_space_group_symop_operation_xyz
x,y,z
-x,y,1/2-z
-x,-y,-z
x,-y,1/2+z
loop_
_atom_site_type_symbol
_atom_site_label
_atom_site_fract_x
_atom_site_fract_y
_atom_site_fract_z
Si Si1 0.682580 0.882578 0.749102
Si Si2 0.690259 0.432853 0.117136
Si Si3 0.958106 0.321411 0.040900
Si Si4 0.701798 0.266426 0.775053
O O1 0.500000 0.885015 0.750000
O O2 0.642740 0.748161 0.650656
O O3 0.864487 0.797667 0.867135
O O4 0.706770 0.081132 0.722827
O O5 0.845587 0.383178 0.094532
O O6 0.750128 0.575988 0.219648
O O7 0.500000 0.500000 0.000000
O O8 0.829522 0.229392 0.914607
O O9 0.000000 0.500000 0.000000
O O10 0.500000 0.309087 0.750000
#
# Coordination Sequence:
#
# PCOD9238184 Si02
#       4
#     4   4   4   4
#     4  11  25  46  68 102 140 181 228 283 339 410
#     4  12  24  45  72 101 138 181 231 281 344 409
#     4  12  24  45  72 100 137 184 228 283 345 402
#     4  11  24  47  72 101 139 181 228 286 345 403
#
# _framework density 21.091165
#
# number of rings (size 3 to 8) (size 9 to 14) (size 15 to 20)
#    0.000    0.500    5.000    3.750    0.000    1.000 
#   13.500    0.000    0.000    0.000    0.000    0.000 
#    0.000    0.000    0.000    0.000    0.000    0.000 
#
# Total GULP energy -89383.313481 kJ/mol
# GULP energy per Si atom -5586.457093 kJ/mol
# Density = 2.104316 g / cm^3
# Si number density = 21.091165 Si / 1000 Ang^3
#
#
#
# Elastic Constant Matrix: (Units=GPa)
#
#
# Indices 1 2 3 4 5 6 
#
# 1 79.6624 37.1536 19.4392 0.0000 -0.2993 0.0000
# 2 37.1536 142.2862 10.8347 0.0000 -32.4966 0.0000
# 3 19.4392 10.8347 86.7670 0.0000 4.8188 0.0000
# 4 0.0000 0.0000 0.0000 21.8099 0.0000 -6.7265
# 5 -0.2993 -32.4966 4.8188 0.0000 40.0268 0.0000
# 6 0.0000 0.0000 0.0000 -6.7265 0.0000 19.1955
#
#
#
# Elastic Compliance Matrix: (Units=1/GPa)
#
#
# Indices 1 2 3 4 5 6 
#
# 1 0.015310 -0.004534 -0.002684 0.000000 -0.003244 0.000000
# 2 -0.004534 0.010163 -0.000714 0.000000 0.008303 0.000000
# 3 -0.002684 -0.000714 0.012331 0.000000 -0.002085 0.000000
# 4 0.000000 0.000000 0.000000 0.051407 0.000000 0.018014
# 5 -0.003244 0.008303 -0.002085 0.000000 0.031951 0.000000
# 6 0.000000 0.000000 0.000000 0.018014 0.000000 0.058408
#
#
# Mechanical properties :
#
#
# Convention : Reuss Voigt Hill
#
# Bulk Modulus (GPa) = 45.57931 49.28563 47.43247
# Shear Modulus (GPa) = 24.66117 32.29232 28.47674
#
# Velocity S-wave (km/s) = 3.42316 3.91715 3.67846
# Velocity P-wave (km/s) = 6.10586 6.62400 6.37020
#
# Compressibility (1/GPa) = 0.02193978
#
# Stress axis : x y z
#
# Youngs Moduli (GPa) = 65.31499 98.39834 81.09402
#
# Poissons Ratio (x) = 0.44617 0.21764
# Poissons Ratio (y) = 0.29616 0.05793
# Poissons Ratio (z) = 0.17529 0.07029
#
# Static dielectric constant tensor:
#      x y z
#    x 1.675970 0.000000 0.084680 
#    y 0.000000 1.800020 0.000000 
#    z 0.084680 0.000000 1.901110 
# 
# From -- ./inp_files/27513.got.cif
#   From: 2010.05.17/outbox.cif.g08.bks.cpg/sg13_14_cif.got.tgz:27513.got - 2010.06.03 16:44:36.
