data_PCOD9238680
_publ_section_title
;
Structure prediction by ZEFSAII (Michael W. Deem and Ramdas Pophale) SiO2 
 PCOD9238680
Probable space group: P 2/C
;
_chemical_formula_sum "Si O2"
_cell_formula_units_Z 16
_cell_length_a 27.232544
_cell_length_b 4.857567
_cell_length_c 10.955679
_cell_angle_alpha 90.000000
_cell_angle_beta 154.744704
_cell_angle_gamma 90.000000
_cell_volume 618.330179
_symmetry_space_group_name_H-M "P 2/C"
_symmetry_group_IT_number 13
_symmetry_cell_setting 'monoclinic'
loop_
_space_group_symop_operation_xyz
x,y,z
-x,y,1/2-z
-x,-y,-z
x,-y,1/2+z
loop_
_atom_site_type_symbol
_atom_site_label
_atom_site_fract_x
_atom_site_fract_y
_atom_site_fract_z
Si Si1 0.130439 0.427703 0.080080
Si Si2 0.507874 0.160984 0.140005
Si Si3 0.291998 0.320303 0.764923
Si Si4 0.868775 0.064942 0.749839
O O1 0.199251 0.474734 0.110305
O O2 0.146566 0.121643 0.163874
O O3 0.151352 0.628851 0.243527
O O4 0.000000 0.480034 0.750000
O O5 0.500000 0.986190 0.250000
O O6 0.633193 0.281568 0.442293
O O7 0.399137 0.366479 0.912389
O O8 0.500000 0.000000 0.000000
O O9 0.222487 0.065534 0.550107
O O10 0.000000 0.000000 0.000000
#
# Coordination Sequence:
#
# PCOD9238680 Si02
#       4
#     4   4   4   4
#     4  12  25  42  67 105 146 194 246 302 373 448
#     4   8  18  40  69 105 146 194 252 306 375 439
#     4   9  22  39  71 102 147 195 244 311 370 447
#     4  12  25  43  67 103 149 191 246 297 376 443
#
# _framework density 25.876142999999999
#
# number of rings (size 3 to 8) (size 9 to 14) (size 15 to 20)
#    1.500    0.000    2.500    3.000    0.000    0.000 
#    0.000    5.000    0.000   12.000    0.000    0.000 
#    0.000    0.000    0.000    0.000    0.000    0.000 
#
# Total GULP energy -89294.542142 kJ/mol
# GULP energy per Si atom -5580.908884 kJ/mol
# Density = 2.581725 g / cm^3
# Si number density = 25.876143 Si / 1000 Ang^3
#
#
#
# Elastic Constant Matrix: (Units=GPa)
#
#
# Indices 1 2 3 4 5 6 
#
# 1 142.9618 26.7403 34.0593 0.0000 -4.9689 0.0000
# 2 26.7403 48.0942 -2.6283 0.0000 -0.0566 0.0000
# 3 34.0593 -2.6283 129.9516 0.0000 28.0379 0.0000
# 4 0.0000 0.0000 0.0000 -28.4332 0.0000 -39.5278
# 5 -4.9689 -0.0566 28.0379 0.0000 40.9946 0.0000
# 6 0.0000 0.0000 0.0000 -39.5278 0.0000 32.2303
#
#
#
# Elastic Compliance Matrix: (Units=1/GPa)
#
#
# Indices 1 2 3 4 5 6 
#
# 1 0.008785 -0.005050 -0.003089 0.000000 0.003170 0.000000
# 2 -0.005050 0.023721 0.002262 0.000000 -0.002126 0.000000
# 3 -0.003089 0.002262 0.010125 0.000000 -0.007296 0.000000
# 4 0.000000 0.000000 0.000000 -0.013002 0.000000 -0.015946
# 5 0.003170 -0.002126 -0.007296 0.000000 0.029765 0.000000
# 6 0.000000 0.000000 0.000000 -0.015946 0.000000 0.011470
#
#
# Mechanical properties :
#
#
# Convention : Reuss Voigt Hill
#
# Bulk Modulus (GPa) = 32.38510 48.59446 40.48978
# Shear Modulus (GPa) = 53.81542 26.48076 40.14809
#
# Velocity S-wave (km/s) = 4.56535 3.20248 3.94324
# Velocity P-wave (km/s) = 6.35079 5.70043 6.03438
#
# Compressibility (1/GPa) = 0.03087840
#
# Stress axis : x y z
#
# Youngs Moduli (GPa) = 113.82418 42.15622 98.76925
#
# Poissons Ratio (x) = 0.21288 0.30508
# Poissons Ratio (y) = 0.57479 -0.22342
# Poissons Ratio (z) = 0.35158 -0.09536
#
# Static dielectric constant tensor:
#      x y z
#    x 2.030830 0.000000 -0.031740 
#    y 0.000000 2.110240 0.000000 
#    z -0.031740 0.000000 2.081430 
# 
# From -- ./inp_files/35063.got.cif
#   From: 2010.05.17/outbox.cif.g08.bks.cpg/sg13_18_cif.got.tgz:35063.got - 2010.06.03 16:44:36.
