data_PCOD9238638
_publ_section_title
;
Structure prediction by ZEFSAII (Michael W. Deem and Ramdas Pophale) SiO2 
 PCOD9238638
Probable space group: P 2/C
;
_chemical_formula_sum "Si O2"
_cell_formula_units_Z 24
_cell_length_a 14.371876
_cell_length_b 8.250907
_cell_length_c 13.678516
_cell_angle_alpha 90.000000
_cell_angle_beta 38.693445
_cell_angle_gamma 90.000000
_cell_volume 1014.006433
_symmetry_space_group_name_H-M "P 2/C"
_symmetry_group_IT_number 13
_symmetry_cell_setting 'monoclinic'
loop_
_space_group_symop_operation_xyz
x,y,z
-x,y,1/2-z
-x,-y,-z
x,-y,1/2+z
loop_
_atom_site_type_symbol
_atom_site_label
_atom_site_fract_x
_atom_site_fract_y
_atom_site_fract_z
Si Si1 0.644809 0.856956 0.332900
Si Si2 0.294069 0.584836 0.517742
Si Si3 0.500000 0.822625 0.250000
Si Si4 0.207497 0.800071 0.774080
Si Si5 0.000000 0.384525 0.750000
Si Si6 0.480604 0.710997 0.654817
Si Si7 0.935266 0.675456 0.086257
O O1 0.546718 0.895648 0.316762
O O2 0.548914 0.805677 0.505679
O O3 0.761175 0.711152 0.217339
O O4 0.738296 0.016826 0.281347
O O5 0.357302 0.713199 0.390815
O O6 0.247049 0.686751 0.650753
O O7 0.430377 0.459413 0.422573
O O8 0.146943 0.489900 0.608087
O O9 0.304355 0.716283 0.780950
O O10 0.034528 0.795294 0.940616
O O11 0.965098 0.295622 0.677249
O O12 0.500000 0.772872 0.750000
O O13 0.000000 0.500000 0.000000
#
# Coordination Sequence:
#
# PCOD9238638 Si02
#       7
#     4   4   2   4   2   4   4
#     4  12  28  50  72 110 156 198 247 308 383 449
#     4  12  25  45  76 106 146 195 254 307 367 438
#     4  12  28  46  76 108 146 200 254 314 368 434
#     4  12  27  46  74 108 151 196 243 310 378 450
#     4  12  24  46  74 112 140 196 248 314 362 446
#     4  12  25  46  76 110 146 194 251 310 368 440
#     4  12  25  48  78 105 147 193 256 305 366 447
#
# _framework density 23.668488
#
# number of rings (size 3 to 8) (size 9 to 14) (size 15 to 20)
#    0.000    0.000    5.833    3.500    3.500    0.000 
#    0.000    0.000    0.000    0.000    0.000    0.000 
#    0.000    0.000    0.000    0.000    0.000    0.000 
#
# Total GULP energy -134244.654813 kJ/mol
# GULP energy per Si atom -5593.527284 kJ/mol
# Density = 2.361462 g / cm^3
# Si number density = 23.668488 Si / 1000 Ang^3
#
#
#
# Elastic Constant Matrix: (Units=GPa)
#
#
# Indices 1 2 3 4 5 6 
#
# 1 102.6706 16.3240 35.0814 0.0000 43.0253 0.0000
# 2 16.3240 68.5820 16.3443 0.0000 9.5744 0.0000
# 3 35.0814 16.3443 135.4522 0.0000 14.9484 0.0000
# 4 0.0000 0.0000 0.0000 40.8222 0.0000 -0.8112
# 5 43.0253 9.5744 14.9484 0.0000 48.4764 0.0000
# 6 0.0000 0.0000 0.0000 -0.8112 0.0000 13.7615
#
#
#
# Elastic Compliance Matrix: (Units=1/GPa)
#
#
# Indices 1 2 3 4 5 6 
#
# 1 0.016565 -0.001419 -0.002617 0.000000 -0.013615 0.000000
# 2 -0.001419 0.015431 -0.001343 0.000000 -0.001375 0.000000
# 3 -0.002617 -0.001343 0.008216 0.000000 0.000054 0.000000
# 4 0.000000 0.000000 0.000000 0.024525 0.000000 0.001446
# 5 -0.013615 -0.001375 0.000054 0.000000 0.032968 0.000000
# 6 0.000000 0.000000 0.000000 0.001446 0.000000 0.072752
#
#
# Mechanical properties :
#
#
# Convention : Reuss Voigt Hill
#
# Bulk Modulus (GPa) = 33.94843 49.13380 41.54111
# Shear Modulus (GPa) = 26.17367 36.54236 31.35801
#
# Velocity S-wave (km/s) = 3.32903 3.93354 3.64385
# Velocity P-wave (km/s) = 5.39917 6.43697 5.94078
#
# Compressibility (1/GPa) = 0.02945645
#
# Stress axis : x y z
#
# Youngs Moduli (GPa) = 60.36770 64.80610 121.70724
#
# Poissons Ratio (x) = 0.09193 0.31845
# Poissons Ratio (y) = 0.08563 0.16344
# Poissons Ratio (z) = 0.15795 0.08703
#
# Static dielectric constant tensor:
#      x y z
#    x 1.912590 0.000000 0.007650 
#    y 0.000000 1.948730 0.000000 
#    z 0.007650 0.000000 1.890980 
# 
# From -- ./inp_files/52910.got.cif
#   From: 2010.05.17/outbox.cif.g08.bks.cpg/sg13_27_cif.got.tgz:52910.got - 2010.06.03 16:44:36.
