data_PCOD9238354
_publ_section_title
;
Structure prediction by ZEFSAII (Michael W. Deem and Ramdas Pophale) SiO2 
 PCOD9238354
Probable space group: P 2/C
;
_chemical_formula_sum "Si O2"
_cell_formula_units_Z 32
_cell_length_a 27.162813
_cell_length_b 4.877777
_cell_length_c 17.178098
_cell_angle_alpha 90.000000
_cell_angle_beta 31.118073
_cell_angle_gamma 90.000000
_cell_volume 1176.243190
_symmetry_space_group_name_H-M "P 2/C"
_symmetry_group_IT_number 13
_symmetry_cell_setting 'monoclinic'
loop_
_space_group_symop_operation_xyz
x,y,z
-x,y,1/2-z
-x,-y,-z
x,-y,1/2+z
loop_
_atom_site_type_symbol
_atom_site_label
_atom_site_fract_x
_atom_site_fract_y
_atom_site_fract_z
Si Si1 0.777509 0.212336 0.922355
Si Si2 0.385170 0.381926 0.521894
Si Si3 0.735442 0.517250 0.625209
Si Si4 0.903041 0.842046 0.835591
Si Si5 0.101263 0.392176 0.333557
Si Si6 0.457812 0.223500 0.616778
Si Si7 0.406610 0.018419 0.850111
Si Si8 0.747585 0.862819 0.764066
O O1 0.826752 0.358271 0.783934
O O2 0.858617 0.134766 0.874844
O O3 0.713003 0.393889 0.066319
O O4 0.709529 0.959058 0.993521
O O5 0.473749 0.523944 0.448803
O O6 0.412911 0.235428 0.403060
O O7 0.323573 0.654872 0.595788
O O8 0.308720 0.150190 0.656299
O O9 0.826535 0.321812 0.490820
O O10 0.640354 0.358334 0.776582
O O11 0.752452 0.745213 0.668914
O O12 0.913618 0.729777 0.732986
O O13 0.000000 0.854746 0.750000
O O14 0.151532 0.190093 0.328363
O O15 0.000000 0.500000 0.500000
O O16 0.500000 0.000000 0.500000
O O17 0.430059 0.034034 0.727465
O O18 0.500000 0.193679 0.750000
#
# Coordination Sequence:
#
# PCOD9238354 Si02
#       8
#     4   4   4   4   4   4   4   4
#     4  11  25  49  81 121 169 227 293 371 459 553
#     4  12  30  52  85 128 174 240 299 382 471 556
#     4  11  28  49  83 118 174 230 295 377 455 555
#     4  11  25  49  83 122 171 232 295 375 470 554
#     4  11  26  51  83 127 175 231 302 378 468 560
#     4  12  31  56  90 133 182 242 318 392 469 564
#     4  12  26  51  84 120 172 232 301 370 456 552
#     4  12  29  51  84 123 177 228 306 374 458 555
#
# _framework density 27.205259999999999
#
# number of rings (size 3 to 8) (size 9 to 14) (size 15 to 20)
#    0.000    0.500    2.500    3.000    8.750    7.000 
#    0.000    0.000    0.000    0.000    0.000    0.000 
#    0.000    0.000    0.000    0.000    0.000    0.000 
#
# Total GULP energy -178825.006468 kJ/mol
# GULP energy per Si atom -5588.281452 kJ/mol
# Density = 2.714334 g / cm^3
# Si number density = 27.205260 Si / 1000 Ang^3
#
#
#
# Elastic Constant Matrix: (Units=GPa)
#
#
# Indices 1 2 3 4 5 6 
#
# 1 210.2351 80.2561 87.3637 0.0000 -19.3965 0.0000
# 2 80.2561 153.0359 52.8342 0.0000 -2.3462 0.0000
# 3 87.3637 52.8342 174.2850 0.0000 -1.3021 0.0000
# 4 0.0000 0.0000 0.0000 32.8917 0.0000 7.4692
# 5 -19.3965 -2.3462 -1.3021 0.0000 60.6686 0.0000
# 6 0.0000 0.0000 0.0000 7.4692 0.0000 57.4720
#
#
#
# Elastic Compliance Matrix: (Units=1/GPa)
#
#
# Indices 1 2 3 4 5 6 
#
# 1 0.007142 -0.002773 -0.002724 0.000000 0.002118 0.000000
# 2 -0.002773 0.008378 -0.001154 0.000000 -0.000587 0.000000
# 3 -0.002724 -0.001154 0.007447 0.000000 -0.000756 0.000000
# 4 0.000000 0.000000 0.000000 0.031327 0.000000 -0.004071
# 5 0.002118 -0.000587 -0.000756 0.000000 0.017121 0.000000
# 6 0.000000 0.000000 0.000000 -0.004071 0.000000 0.017929
#
#
# Mechanical properties :
#
#
# Convention : Reuss Voigt Hill
#
# Bulk Modulus (GPa) = 103.45581 108.71821 106.08701
# Shear Modulus (GPa) = 47.22816 51.34659 49.28738
#
# Velocity S-wave (km/s) = 4.17105 4.34911 4.26101
# Velocity P-wave (km/s) = 7.82990 8.07890 7.95537
#
# Compressibility (1/GPa) = 0.00966596
#
# Stress axis : x y z
#
# Youngs Moduli (GPa) = 140.00937 119.35973 134.27530
#
# Poissons Ratio (x) = 0.33096 0.36575
# Poissons Ratio (y) = 0.38822 0.15499
# Poissons Ratio (z) = 0.38137 0.13777
#
# Static dielectric constant tensor:
#      x y z
#    x 2.262690 0.000000 0.071540 
#    y 0.000000 2.291470 0.000000 
#    z 0.071540 0.000000 2.226060 
# 
# From -- ./inp_files/72202.got.cif
#   From: 2010.05.17/outbox.cif.g08.bks.cpg/sg13_37_cif.got.tgz:72202.got - 2010.06.03 16:44:36.
