data_PCOD9238449
_publ_section_title
;
Structure prediction by ZEFSAII (Michael W. Deem and Ramdas Pophale) SiO2 
 PCOD9238449
Probable space group: P 2/C
;
_chemical_formula_sum "Si O2"
_cell_formula_units_Z 24
_cell_length_a 26.295224
_cell_length_b 4.755929
_cell_length_c 18.951022
_cell_angle_alpha 90.000000
_cell_angle_beta 155.345083
_cell_angle_gamma 90.000000
_cell_volume 988.642542
_symmetry_space_group_name_H-M "P 2/C"
_symmetry_group_IT_number 13
_symmetry_cell_setting 'monoclinic'
loop_
_space_group_symop_operation_xyz
x,y,z
-x,y,1/2-z
-x,-y,-z
x,-y,1/2+z
loop_
_atom_site_type_symbol
_atom_site_label
_atom_site_fract_x
_atom_site_fract_y
_atom_site_fract_z
Si Si1 0.500000 0.832612 0.250000
Si Si2 0.068855 0.642905 0.978633
Si Si3 0.000000 0.642431 0.250000
Si Si4 0.774962 0.022284 0.925010
Si Si5 0.702268 0.243398 0.557970
Si Si6 0.160827 0.248947 0.211231
Si Si7 0.673680 0.442027 0.373857
O O1 0.566847 0.618244 0.279759
O O2 0.580526 0.054314 0.397701
O O3 0.002964 0.543208 0.823995
O O4 0.960161 0.741371 0.892581
O O5 0.127042 0.380627 0.093675
O O6 0.175448 0.853194 0.086553
O O7 0.113506 0.846461 0.403793
O O8 0.664295 0.797720 0.800408
O O9 0.747890 0.303503 0.934010
O O10 0.733308 0.724331 0.014586
O O11 0.727962 0.555920 0.618943
O O12 0.793486 0.064478 0.720533
#
# Coordination Sequence:
#
# PCOD9238449 Si02
#       7
#     2   4   2   4   4   4   4
#     4  12  26  44  76 110 136 182 252 322 362 414
#     4  11  28  45  69 107 151 197 235 287 355 448
#     4  12  26  42  70 108 142 198 236 294 336 454
#     4  12  26  40  68 102 148 183 238 290 363 415
#     4  12  25  44  73 104 140 184 241 305 362 421
#     4  11  28  45  70 103 153 192 238 288 366 433
#     4  12  25  43  68 110 135 180 237 315 353 422
#
# _framework density 24.275711000000001
#
# number of rings (size 3 to 8) (size 9 to 14) (size 15 to 20)
#    0.000    0.333    5.000    2.000   11.667    1.333 
#    0.000    0.000    0.000    6.000    0.000    0.000 
#    0.000    0.000    0.000    0.000    0.000    0.000 
#
# Total GULP energy -133898.025491 kJ/mol
# GULP energy per Si atom -5579.084395 kJ/mol
# Density = 2.422046 g / cm^3
# Si number density = 24.275711 Si / 1000 Ang^3
#
#
#
# Elastic Constant Matrix: (Units=GPa)
#
#
# Indices 1 2 3 4 5 6 
#
# 1 147.7010 58.2325 36.7378 0.0000 6.3218 0.0000
# 2 58.2325 147.3500 6.1065 0.0000 10.4469 0.0000
# 3 36.7378 6.1065 52.2263 0.0000 1.6543 0.0000
# 4 0.0000 0.0000 0.0000 42.4616 0.0000 5.6284
# 5 6.3218 10.4469 1.6543 0.0000 35.3182 0.0000
# 6 0.0000 0.0000 0.0000 5.6284 0.0000 52.0102
#
#
#
# Elastic Compliance Matrix: (Units=1/GPa)
#
#
# Indices 1 2 3 4 5 6 
#
# 1 0.009807 -0.003580 -0.006468 0.000000 -0.000394 0.000000
# 2 -0.003580 0.008268 0.001611 0.000000 -0.001880 0.000000
# 3 -0.006468 0.001611 0.023522 0.000000 -0.000421 0.000000
# 4 0.000000 0.000000 0.000000 0.023893 0.000000 -0.002586
# 5 -0.000394 -0.001880 -0.000421 0.000000 0.028960 0.000000
# 6 0.000000 0.000000 0.000000 -0.002586 0.000000 0.019507
#
#
# Mechanical properties :
#
#
# Convention : Reuss Voigt Hill
#
# Bulk Modulus (GPa) = 40.44647 61.04789 50.74718
# Shear Modulus (GPa) = 35.95239 42.37136 39.16187
#
# Velocity S-wave (km/s) = 3.85255 4.18236 4.02084
# Velocity P-wave (km/s) = 6.04045 6.96600 6.51967
#
# Compressibility (1/GPa) = 0.02472403
#
# Stress axis : x y z
#
# Youngs Moduli (GPa) = 101.96321 120.94982 42.51323
#
# Poissons Ratio (x) = 0.43299 0.27497
# Poissons Ratio (y) = 0.36502 -0.06849
# Poissons Ratio (z) = 0.65948 -0.19486
#
# Static dielectric constant tensor:
#      x y z
#    x 1.993010 0.000000 0.078750 
#    y 0.000000 1.951090 0.000000 
#    z 0.078750 0.000000 2.023780 
# 
# From -- ./inp_files/70990.got.cif
#   From: 2010.05.17/outbox.cif.g08.bks.cpg/sg13_36_cif.got.tgz:70990.got - 2010.06.03 16:44:36.
