data_PCOD9238450
_publ_section_title
;
Structure prediction by ZEFSAII (Michael W. Deem and Ramdas Pophale) SiO2 
 PCOD9238450
Probable space group: P 2/C
;
_chemical_formula_sum "Si O2"
_cell_formula_units_Z 18
_cell_length_a 8.597557
_cell_length_b 9.856902
_cell_length_c 11.148688
_cell_angle_alpha 90.000000
_cell_angle_beta 126.203990
_cell_angle_gamma 90.000000
_cell_volume 762.376153
_symmetry_space_group_name_H-M "P 2/C"
_symmetry_group_IT_number 13
_symmetry_cell_setting 'monoclinic'
loop_
_space_group_symop_operation_xyz
x,y,z
-x,y,1/2-z
-x,-y,-z
x,-y,1/2+z
loop_
_atom_site_type_symbol
_atom_site_label
_atom_site_fract_x
_atom_site_fract_y
_atom_site_fract_z
Si Si1 0.299443 0.289777 0.083077
Si Si2 0.316585 0.436019 0.481022
Si Si3 0.500000 0.769295 0.250000
Si Si4 0.807504 0.807232 0.727710
Si Si5 0.762477 0.898367 0.165809
O O1 0.500000 0.309132 0.250000
O O2 0.219461 0.434593 0.001359
O O3 0.173844 0.207319 0.121501
O O4 0.324014 0.196009 0.978536
O O5 0.500000 0.500000 0.500000
O O6 0.380339 0.328267 0.608263
O O7 0.230181 0.343987 0.337380
O O8 0.662267 0.846261 0.244099
O O9 0.000000 0.841067 0.750000
O O10 0.697198 0.943640 0.637933
O O11 0.000000 0.882629 0.250000
#
# Coordination Sequence:
#
# PCOD9238450 Si02
#       5
#     4   4   2   4   4
#     4  12  25  48  74 106 147 187 250 303 359 450
#     4  12  23  46  70 107 143 192 247 298 368 444
#     4  12  24  44  78 100 148 198 238 302 376 424
#     4  11  28  47  72 108 148 189 242 309 369 436
#     4  11  29  48  74 112 151 193 249 305 369 448
#
# _framework density 23.610391
#
# number of rings (size 3 to 8) (size 9 to 14) (size 15 to 20)
#    0.000    0.444    5.556    0.000    7.778    5.333 
#    0.000    0.000    0.000    0.000    0.000    0.000 
#    0.000    0.000    0.000    0.000    0.000    0.000 
#
# Total GULP energy -100297.101326 kJ/mol
# GULP energy per Si atom -5572.061185 kJ/mol
# Density = 2.355665 g / cm^3
# Si number density = 23.610391 Si / 1000 Ang^3
#
#
#
# Elastic Constant Matrix: (Units=GPa)
#
#
# Indices 1 2 3 4 5 6 
#
# 1 141.3689 52.9487 35.4644 0.0000 -29.2266 0.0000
# 2 52.9487 181.7102 42.5323 0.0000 -10.3637 0.0000
# 3 35.4644 42.5323 57.0524 0.0000 -25.6650 0.0000
# 4 0.0000 0.0000 0.0000 67.5777 0.0000 -52.7597
# 5 -29.2266 -10.3637 -25.6650 0.0000 33.1033 0.0000
# 6 0.0000 0.0000 0.0000 -52.7597 0.0000 48.6968
#
#
#
# Elastic Compliance Matrix: (Units=1/GPa)
#
#
# Indices 1 2 3 4 5 6 
#
# 1 0.009597 -0.002091 -0.001366 0.000000 0.006760 0.000000
# 2 -0.002091 0.007285 -0.006043 0.000000 -0.004251 0.000000
# 3 -0.001366 -0.006043 0.032996 0.000000 0.022484 0.000000
# 4 0.000000 0.000000 0.000000 0.096005 0.000000 0.104015
# 5 0.006760 -0.004251 0.022484 0.000000 0.052278 0.000000
# 6 0.000000 0.000000 0.000000 0.104015 0.000000 0.133228
#
#
# Mechanical properties :
#
#
# Convention : Reuss Voigt Hill
#
# Bulk Modulus (GPa) = 32.38559 71.33581 51.86070
# Shear Modulus (GPa) = 13.86263 46.48797 30.17530
#
# Velocity S-wave (km/s) = 2.42573 4.44211 3.57886
# Velocity P-wave (km/s) = 4.64672 7.52258 6.25225
#
# Compressibility (1/GPa) = 0.03087793
#
# Stress axis : x y z
#
# Youngs Moduli (GPa) = 104.19850 137.27469 30.30631
#
# Poissons Ratio (x) = 0.28708 0.04139
# Poissons Ratio (y) = 0.21791 0.18314
# Poissons Ratio (z) = 0.14232 0.82955
#
# Static dielectric constant tensor:
#      x y z
#    x 1.951000 0.000000 0.121120 
#    y 0.000000 1.974630 0.000000 
#    z 0.121120 0.000000 1.857920 
# 
# From -- ./inp_files/28041.got.cif
#   From: 2010.05.17/outbox.cif.g08.bks.cpg/sg13_15_cif.got.tgz:28041.got - 2010.06.03 16:44:36.
