data_PCOD9238479
_publ_section_title
;
Structure prediction by ZEFSAII (Michael W. Deem and Ramdas Pophale) SiO2 
 PCOD9238479
Probable space group: P 2/C
;
_chemical_formula_sum "Si O2"
_cell_formula_units_Z 22
_cell_length_a 15.667874
_cell_length_b 11.157670
_cell_length_c 11.952769
_cell_angle_alpha 90.000000
_cell_angle_beta 29.451972
_cell_angle_gamma 90.000000
_cell_volume 1027.417252
_symmetry_space_group_name_H-M "P 2/C"
_symmetry_group_IT_number 13
_symmetry_cell_setting 'monoclinic'
loop_
_space_group_symop_operation_xyz
x,y,z
-x,y,1/2-z
-x,-y,-z
x,-y,1/2+z
loop_
_atom_site_type_symbol
_atom_site_label
_atom_site_fract_x
_atom_site_fract_y
_atom_site_fract_z
Si Si1 0.312315 0.621393 0.415039
Si Si2 0.682677 0.880461 0.507119
Si Si3 0.796150 0.199030 0.651640
Si Si4 0.916072 0.367363 0.108468
Si Si5 0.000000 0.972757 0.750000
Si Si6 0.207522 0.352152 0.484945
O O1 0.500000 0.645716 0.250000
O O2 0.285226 0.700826 0.336146
O O3 0.169292 0.648642 0.673075
O O4 0.288019 0.480655 0.420684
O O5 0.677498 0.863067 0.379399
O O6 0.700717 0.753863 0.552599
O O7 0.853827 0.951689 0.351071
O O8 0.500000 0.939047 0.750000
O O9 0.896406 0.106853 0.458003
O O10 0.933177 0.270693 0.571381
O O11 0.783961 0.342013 0.159011
O O12 0.000000 0.500000 0.000000
O O13 0.000000 0.354463 0.750000
#
# Coordination Sequence:
#
# PCOD9238479 Si02
#       6
#     4   4   4   4   2   4
#     4  12  26  40  65 111 146 182 235 301 361 435
#     4  12  28  48  74 108 142 193 249 300 360 423
#     4  12  24  48  75 103 140 190 241 295 368 435
#     4  12  21  41  71  97 141 189 230 282 363 439
#     4  12  26  52  76 102 144 192 248 304 358 418
#     4  12  22  42  70 100 144 189 230 288 362 430
#
# _framework density 21.412915999999999
#
# number of rings (size 3 to 8) (size 9 to 14) (size 15 to 20)
#    0.000    0.000    8.182    1.091    2.545    2.182 
#    0.000    0.000    0.000    0.000    0.000    0.000 
#    0.000    0.000    0.000    0.000    0.000    0.000 
#
# Total GULP energy -123102.888218 kJ/mol
# GULP energy per Si atom -5595.585828 kJ/mol
# Density = 2.136418 g / cm^3
# Si number density = 21.412916 Si / 1000 Ang^3
#
#
#
# Elastic Constant Matrix: (Units=GPa)
#
#
# Indices 1 2 3 4 5 6 
#
# 1 85.6171 17.0067 4.5850 0.0000 13.8497 0.0000
# 2 17.0067 72.9710 -1.0030 0.0000 -2.2002 0.0000
# 3 4.5850 -1.0030 47.9532 0.0000 0.9537 0.0000
# 4 0.0000 0.0000 0.0000 7.8502 0.0000 19.4295
# 5 13.8497 -2.2002 0.9537 0.0000 41.2131 0.0000
# 6 0.0000 0.0000 0.0000 19.4295 0.0000 9.8492
#
#
#
# Elastic Compliance Matrix: (Units=1/GPa)
#
#
# Indices 1 2 3 4 5 6 
#
# 1 0.013120 -0.003212 -0.001231 0.000000 -0.004552 0.000000
# 2 -0.003212 0.014516 0.000574 0.000000 0.001841 0.000000
# 3 -0.001231 0.000574 0.020984 0.000000 -0.000041 0.000000
# 4 0.000000 0.000000 0.000000 -0.032810 0.000000 0.064725
# 5 -0.004552 0.001841 -0.000041 0.000000 0.025893 0.000000
# 6 0.000000 0.000000 0.000000 0.064725 0.000000 -0.026151
#
#
# Mechanical properties :
#
#
# Convention : Reuss Voigt Hill
#
# Bulk Modulus (GPa) = 24.46034 27.52429 25.99231
# Shear Modulus (GPa) = 135.43617 24.17936 79.80777
#
# Velocity S-wave (km/s) = 7.96160 3.36400 6.11161
# Velocity P-wave (km/s) = 9.79612 5.28872 7.87193
#
# Compressibility (1/GPa) = 0.04088251
#
# Stress axis : x y z
#
# Youngs Moduli (GPa) = 76.21830 68.88923 47.65491
#
# Poissons Ratio (x) = 0.22127 0.05867
# Poissons Ratio (y) = 0.24481 -0.02736
# Poissons Ratio (z) = 0.09383 -0.03955
#
# Static dielectric constant tensor:
#      x y z
#    x 1.779000 0.000000 0.045300 
#    y 0.000000 1.767810 0.000000 
#    z 0.045300 0.000000 1.826930 
# 
# From -- ./inp_files/29553.got.cif
#   From: 2010.05.17/outbox.cif.g08.bks.cpg/sg13_15_cif.got.tgz:29553.got - 2010.06.03 16:44:36.
