data_PCOD9238927
_publ_section_title
;
Structure prediction by ZEFSAII (Michael W. Deem and Ramdas Pophale) SiO2 
 PCOD9238927
Probable space group: P 2/C
;
_chemical_formula_sum "Si O2"
_cell_formula_units_Z 32
_cell_length_a 12.000000
_cell_length_b 12.000000
_cell_length_c 12.000000
_cell_angle_alpha 90.000000
_cell_angle_beta 70.000000
_cell_angle_gamma 90.000000
_cell_volume 1623.788849
_symmetry_space_group_name_H-M "P 2/C"
_symmetry_group_IT_number 13
_symmetry_cell_setting 'monoclinic'
loop_
_space_group_symop_operation_xyz
x,y,z
-x,y,1/2-z
-x,-y,-z
x,-y,1/2+z
loop_
_atom_site_type_symbol
_atom_site_label
_atom_site_fract_x
_atom_site_fract_y
_atom_site_fract_z
Si Si1 0.112919 0.171321 0.139642
Si Si2 0.247367 0.819903 0.912562
Si Si3 0.644213 0.723934 0.986333
Si Si4 0.359249 0.372361 0.774948
Si Si5 0.988089 0.125536 0.553261
Si Si6 0.791705 0.980899 0.253282
Si Si7 0.629145 0.621556 0.763593
Si Si8 0.391228 0.181446 0.588236
O O1 0.239216 0.226552 0.109248
O O2 0.000000 0.208471 0.250000
O O3 0.143177 0.045573 0.168272
O O4 0.074835 0.187048 0.026868
O O5 0.286564 0.713767 0.824533
O O6 0.236292 0.927336 0.833578
O O7 0.118174 0.820439 0.017879
O O8 0.343596 0.825399 0.978427
O O9 0.604379 0.638256 0.904181
O O10 0.682316 0.677341 0.093157
O O11 0.534133 0.808780 0.040935
O O12 0.500000 0.380538 0.750000
O O13 0.317824 0.498031 0.769671
O O14 0.346619 0.289835 0.673943
O O15 0.889669 0.109744 0.681699
O O16 0.000000 0.000000 0.500000
O O17 0.669824 0.922856 0.329766
O O18 0.500000 0.630327 0.750000
#
# Coordination Sequence:
#
# PCOD9238927 Si02
#       8
#     4   4   4   4   4   4   4   4
#     4  12  21  38  62  85 121 170 216 247 298 379
#     4  11  22  38  63  97 125 166 209 267 308 367
#     4  11  23  42  63  95 127 161 201 267 321 367
#     4   9  23  40  65  92 122 169 206 254 313 383
#     4  10  20  36  58  85 117 165 218 249 290 360
#     4  11  22  38  61  93 124 174 212 248 310 377
#     4  11  21  40  66  95 125 161 213 254 319 382
#     4  11  24  40  62  96 133 158 207 261 326 367
#
# _framework density 19.706996
#
# number of rings (size 3 to 8) (size 9 to 14) (size 15 to 20)
#    0.000    1.250    5.000    2.250    1.750    2.000 
#    0.000    5.625    0.000    6.750    0.000    0.000 
#    0.000    0.000    0.000    0.000    0.000    0.000 
#
# Total GULP energy -178336.546503 kJ/mol
# GULP energy per Si atom -5573.017078 kJ/mol
# Density = 1.966214 g / cm^3
# Si number density = 19.706996 Si / 1000 Ang^3
#
#
#
# Elastic Constant Matrix: (Units=GPa)
#
#
# Indices 1 2 3 4 5 6 
#
# 1 80.9734 26.7872 24.7655 0.0000 -19.1150 0.0000
# 2 26.7872 58.2427 32.6939 0.0000 -15.8591 0.0000
# 3 24.7655 32.6939 78.7085 0.0000 -13.7731 0.0000
# 4 0.0000 0.0000 0.0000 13.6217 0.0000 -1.0723
# 5 -19.1150 -15.8591 -13.7731 0.0000 31.4127 0.0000
# 6 0.0000 0.0000 0.0000 -1.0723 0.0000 15.5306
#
#
#
# Elastic Compliance Matrix: (Units=1/GPa)
#
#
# Indices 1 2 3 4 5 6 
#
# 1 0.015994 -0.004408 -0.002045 0.000000 0.006610 0.000000
# 2 -0.004408 0.025535 -0.008051 0.000000 0.006679 0.000000
# 3 -0.002045 -0.008051 0.017074 0.000000 0.002177 0.000000
# 4 0.000000 0.000000 0.000000 0.073813 0.000000 0.005096
# 5 0.006610 0.006679 0.002177 0.000000 0.040184 0.000000
# 6 0.000000 0.000000 0.000000 0.005096 0.000000 0.064741
#
#
# Mechanical properties :
#
#
# Convention : Reuss Voigt Hill
#
# Bulk Modulus (GPa) = 33.78945 42.93530 38.36238
# Shear Modulus (GPa) = 18.10198 21.02486 19.56342
#
# Velocity S-wave (km/s) = 3.03406 3.26985 3.15416
# Velocity P-wave (km/s) = 5.42744 6.00749 5.72482
#
# Compressibility (1/GPa) = 0.02959503
#
# Stress axis : x y z
#
# Youngs Moduli (GPa) = 62.52386 39.16196 58.56993
#
# Poissons Ratio (x) = 0.17264 0.11975
# Poissons Ratio (y) = 0.27562 0.47154
# Poissons Ratio (z) = 0.12784 0.31529
#
# Static dielectric constant tensor:
#      x y z
#    x 1.677320 0.000000 0.016710 
#    y 0.000000 1.730290 0.000000 
#    z 0.016710 0.000000 1.769490 
# 
# From -- ./inp_files/34149.got.cif
#   From: 2010.05.17/outbox.ucp.g08.bks.cvg/sg13_18_cif.got.tgz:34149.got - 2010.06.11 12:23:55.
