data_PCOD9238250
_publ_section_title
;
Structure prediction by ZEFSAII (Michael W. Deem and Ramdas Pophale) SiO2 
 PCOD9238250
Probable space group: P 2/C
;
_chemical_formula_sum "Si O2"
_cell_formula_units_Z 12
_cell_length_a 5.232590
_cell_length_b 7.004958
_cell_length_c 13.948306
_cell_angle_alpha 90.000000
_cell_angle_beta 119.356887
_cell_angle_gamma 90.000000
_cell_volume 445.607443
_symmetry_space_group_name_H-M "P 2/C"
_symmetry_group_IT_number 13
_symmetry_cell_setting 'monoclinic'
loop_
_space_group_symop_operation_xyz
x,y,z
-x,y,1/2-z
-x,-y,-z
x,-y,1/2+z
loop_
_atom_site_type_symbol
_atom_site_label
_atom_site_fract_x
_atom_site_fract_y
_atom_site_fract_z
Si Si1 0.802415 0.166278 0.849466
Si Si2 0.526725 0.725832 0.024296
Si Si3 0.707637 0.770217 0.719397
O O1 0.500000 0.249353 0.750000
O O2 0.719855 0.202216 0.945895
O O3 0.131583 0.236331 0.889072
O O4 0.797980 0.953813 0.800400
O O5 0.500000 0.500000 0.000000
O O6 0.451044 0.821234 0.907988
O O7 0.500000 0.654388 0.750000
O O8 0.000000 0.659362 0.750000
#
# Coordination Sequence:
#
# PCOD9238250 Si02
#       3
#     4   4   4
#     4  11  25  45  73 103 140 188 239 287 347 427
#     4  12  27  47  71 106 147 184 231 297 362 413
#     4  11  25  44  71 103 140 188 241 289 345 422
#
# _framework density 26.929534
#
# number of rings (size 3 to 8) (size 9 to 14) (size 15 to 20)
#    0.000    0.667    0.000    8.000    0.000   22.667 
#    0.000    0.000    0.000    0.000    0.000    0.000 
#    0.000    0.000    0.000    0.000    0.000    0.000 
#
# Total GULP energy -67109.954694 kJ/mol
# GULP energy per Si atom -5592.496225 kJ/mol
# Density = 2.686824 g / cm^3
# Si number density = 26.929534 Si / 1000 Ang^3
#
#
#
# Elastic Constant Matrix: (Units=GPa)
#
#
# Indices 1 2 3 4 5 6 
#
# 1 232.8374 27.0828 45.3102 0.0000 13.3890 0.0000
# 2 27.0828 149.7899 22.2949 0.0000 0.9655 0.0000
# 3 45.3102 22.2949 133.8524 0.0000 1.1873 0.0000
# 4 0.0000 0.0000 0.0000 557.2741 0.0000 -154.4225
# 5 13.3890 0.9655 1.1873 0.0000 82.0880 0.0000
# 6 0.0000 0.0000 0.0000 -154.4225 0.0000 31.3195
#
#
#
# Elastic Compliance Matrix: (Units=1/GPa)
#
#
# Indices 1 2 3 4 5 6 
#
# 1 0.004698 -0.000624 -0.001480 0.000000 -0.000737 0.000000
# 2 -0.000624 0.006929 -0.000943 0.000000 0.000034 0.000000
# 3 -0.001480 -0.000943 0.008128 0.000000 0.000135 0.000000
# 4 0.000000 0.000000 0.000000 -0.004899 0.000000 -0.024156
# 5 -0.000737 0.000034 0.000135 0.000000 0.012300 0.000000
# 6 0.000000 0.000000 0.000000 -0.024156 0.000000 -0.087173
#
#
# Mechanical properties :
#
#
# Convention : Reuss Voigt Hill
#
# Bulk Modulus (GPa) = 73.20516 78.42837 75.81677
# Shear Modulus (GPa) = -101.27717 162.25576 30.48929
#
# Velocity S-wave (km/s) = -6.13921 7.77064 3.36845
# Velocity P-wave (km/s) = 4.79689 10.47364 6.58358
#
# Compressibility (1/GPa) = 0.01366024
#
# Stress axis : x y z
#
# Youngs Moduli (GPa) = 212.86415 144.31968 123.03615
#
# Poissons Ratio (x) = 0.09011 0.18206
# Poissons Ratio (y) = 0.13291 0.11603
# Poissons Ratio (z) = 0.31498 0.13610
#
# Static dielectric constant tensor:
#      x y z
#    x 2.266670 0.000000 -0.068090 
#    y 0.000000 2.107280 0.000000 
#    z -0.068090 0.000000 2.176540 
# 
# From -- ./inp_files/25218.got.cif
#   From: 2010.05.17/outbox.cif.g08.bks.cpg/sg13_13_cif.got.tgz:25218.got - 2010.06.03 16:44:36.
