data_PCOD9238715
_publ_section_title
;
Structure prediction by ZEFSAII (Michael W. Deem and Ramdas Pophale) SiO2 
 PCOD9238715
Probable space group: P 2/C
;
_chemical_formula_sum "Si O2"
_cell_formula_units_Z 22
_cell_length_a 11.011695
_cell_length_b 5.626489
_cell_length_c 14.052963
_cell_angle_alpha 90.000000
_cell_angle_beta 87.922072
_cell_angle_gamma 90.000000
_cell_volume 870.109440
_symmetry_space_group_name_H-M "P 2/C"
_symmetry_group_IT_number 13
_symmetry_cell_setting 'monoclinic'
loop_
_space_group_symop_operation_xyz
x,y,z
-x,y,1/2-z
-x,-y,-z
x,-y,1/2+z
loop_
_atom_site_type_symbol
_atom_site_label
_atom_site_fract_x
_atom_site_fract_y
_atom_site_fract_z
Si Si1 0.972835 0.082402 0.107862
Si Si2 0.120189 0.560026 0.688198
Si Si3 0.500000 0.852585 0.250000
Si Si4 0.247419 0.774437 0.321257
Si Si5 0.796482 0.575201 0.520381
Si Si6 0.552473 0.250033 0.961419
O O1 0.890458 0.314786 0.091503
O O2 0.091896 0.161304 0.163455
O O3 0.879422 0.908999 0.161571
O O4 0.000000 0.000000 0.000000
O O5 0.228530 0.440775 0.745522
O O6 0.135566 0.469375 0.580358
O O7 0.000000 0.491438 0.750000
O O8 0.362696 0.938233 0.286945
O O9 0.463161 0.733641 0.151644
O O10 0.262325 0.650838 0.424608
O O11 0.690330 0.752714 0.494641
O O12 0.500000 0.500000 0.000000
O O13 0.500000 0.000000 0.000000
#
# Coordination Sequence:
#
# PCOD9238715 Si02
#       6
#     4   4   2   4   4   4
#     4  12  26  47  78 108 159 207 262 337 409 486
#     4  12  25  47  75 115 154 200 266 331 404 488
#     4  12  26  54  80 120 162 222 284 338 414 516
#     4  12  26  51  78 115 161 211 268 335 413 489
#     4  12  25  50  74 114 158 200 270 334 411 485
#     4  12  28  52  83 117 165 219 275 344 408 489
#
# _framework density 25.284177
#
# number of rings (size 3 to 8) (size 9 to 14) (size 15 to 20)
#    0.000    0.000    7.273    2.727    0.000    2.909 
#    6.545    0.000    0.000    0.000    0.000    0.000 
#    0.000    0.000    0.000    0.000    0.000    0.000 
#
# Total GULP energy -122662.599061 kJ/mol
# GULP energy per Si atom -5575.572685 kJ/mol
# Density = 2.522663 g / cm^3
# Si number density = 25.284177 Si / 1000 Ang^3
#
#
#
# Elastic Constant Matrix: (Units=GPa)
#
#
# Indices 1 2 3 4 5 6 
#
# 1 116.5662 49.4465 36.7617 0.0000 -0.2116 0.0000
# 2 49.4465 99.2079 63.3430 0.0000 -14.0974 0.0000
# 3 36.7617 63.3430 168.7842 0.0000 5.7501 0.0000
# 4 0.0000 0.0000 0.0000 39.8910 0.0000 2.1350
# 5 -0.2116 -14.0974 5.7501 0.0000 44.1186 0.0000
# 6 0.0000 0.0000 0.0000 2.1350 0.0000 24.7982
#
#
#
# Elastic Compliance Matrix: (Units=1/GPa)
#
#
# Indices 1 2 3 4 5 6 
#
# 1 0.011019 -0.005573 -0.000251 0.000000 -0.001695 0.000000
# 2 -0.005573 0.017223 -0.005461 0.000000 0.006188 0.000000
# 3 -0.000251 -0.005461 0.008124 0.000000 -0.002805 0.000000
# 4 0.000000 0.000000 0.000000 0.025184 0.000000 -0.002168
# 5 -0.001695 0.006188 -0.002805 0.000000 0.025001 0.000000
# 6 0.000000 0.000000 0.000000 -0.002168 0.000000 0.040512
#
#
# Mechanical properties :
#
#
# Convention : Reuss Voigt Hill
#
# Bulk Modulus (GPa) = 72.47509 75.96230 74.21870
# Shear Modulus (GPa) = 32.41875 37.42870 34.92372
#
# Velocity S-wave (km/s) = 3.58463 3.85167 3.72055
# Velocity P-wave (km/s) = 6.77194 7.06322 6.91912
#
# Compressibility (1/GPa) = 0.01379784
#
# Stress axis : x y z
#
# Youngs Moduli (GPa) = 90.75484 58.06068 123.08728
#
# Poissons Ratio (x) = 0.32355 0.03087
# Poissons Ratio (y) = 0.50574 0.67216
# Poissons Ratio (z) = 0.02276 0.31706
#
# Static dielectric constant tensor:
#      x y z
#    x 2.004890 0.000000 -0.081010 
#    y 0.000000 2.174740 0.000000 
#    z -0.081010 0.000000 1.887000 
# 
# From -- ./inp_files/48851.got.cif
#   From: 2010.05.17/outbox.cif.g08.bks.cpg/sg13_25_cif.got.tgz:48851.got - 2010.06.03 16:44:36.
