data_PCOD9238399
_publ_section_title
;
Structure prediction by ZEFSAII (Michael W. Deem and Ramdas Pophale) SiO2 
 PCOD9238399
Probable space group: P 2/C
;
_chemical_formula_sum "Si O2"
_cell_formula_units_Z 24
_cell_length_a 9.905641
_cell_length_b 6.618995
_cell_length_c 14.807325
_cell_angle_alpha 90.000000
_cell_angle_beta 104.038221
_cell_angle_gamma 90.000000
_cell_volume 941.852791
_symmetry_space_group_name_H-M "P 2/C"
_symmetry_group_IT_number 13
_symmetry_cell_setting 'monoclinic'
loop_
_space_group_symop_operation_xyz
x,y,z
-x,y,1/2-z
-x,-y,-z
x,-y,1/2+z
loop_
_atom_site_type_symbol
_atom_site_label
_atom_site_fract_x
_atom_site_fract_y
_atom_site_fract_z
Si Si1 0.500000 0.768104 0.250000
Si Si2 0.452457 0.871625 0.885512
Si Si3 0.679935 0.536477 0.904370
Si Si4 0.784280 0.842222 0.511620
Si Si5 0.935722 0.021885 0.862694
Si Si6 0.791357 0.304874 0.255373
Si Si7 0.000000 0.623686 0.250000
O O1 0.394874 0.615852 0.180400
O O2 0.531511 0.925874 0.172414
O O3 0.581714 0.718428 0.923599
O O4 0.360173 0.728021 0.805864
O O5 0.352341 0.915632 0.955399
O O6 0.748009 0.392570 0.989610
O O7 0.796295 0.638025 0.861109
O O8 0.818560 0.940107 0.419975
O O9 0.929680 0.896077 0.583776
O O10 0.982279 0.238632 0.834457
O O11 0.862747 0.912174 0.767021
O O12 0.870289 0.476979 0.216031
#
# Coordination Sequence:
#
# PCOD9238399 Si02
#       7
#     2   4   4   4   4   4   2
#     4  12  24  46  72 100 134 194 242 280 362 424
#     4  12  25  46  74 105 142 192 239 303 359 432
#     4  12  25  47  69 104 143 187 241 298 359 436
#     4  11  26  47  70 107 149 183 236 304 371 420
#     4  11  26  48  70 108 145 191 238 300 361 426
#     4  12  24  47  73 105 138 190 247 289 353 443
#     4  12  24  44  78  98 140 196 242 294 354 436
#
# _framework density 25.481691000000001
#
# number of rings (size 3 to 8) (size 9 to 14) (size 15 to 20)
#    0.000    0.333    5.000    4.000    2.333    1.333 
#    9.000    0.000    0.000    0.000    0.000    0.000 
#    0.000    0.000    0.000    0.000    0.000    0.000 
#
# Total GULP energy -134192.900405 kJ/mol
# GULP energy per Si atom -5591.370850 kJ/mol
# Density = 2.542369 g / cm^3
# Si number density = 25.481691 Si / 1000 Ang^3
#
#
#
# Elastic Constant Matrix: (Units=GPa)
#
#
# Indices 1 2 3 4 5 6 
#
# 1 143.5295 69.6212 27.5100 0.0000 -29.9822 0.0000
# 2 69.6212 154.9439 42.8157 0.0000 -7.4058 0.0000
# 3 27.5100 42.8157 66.2689 0.0000 -18.2364 0.0000
# 4 0.0000 0.0000 0.0000 44.5115 0.0000 -4.4203
# 5 -29.9822 -7.4058 -18.2364 0.0000 51.9989 0.0000
# 6 0.0000 0.0000 0.0000 -4.4203 0.0000 44.9365
#
#
#
# Elastic Compliance Matrix: (Units=1/GPa)
#
#
# Indices 1 2 3 4 5 6 
#
# 1 0.010153 -0.004316 0.000017 0.000000 0.005246 0.000000
# 2 -0.004316 0.009717 -0.005302 0.000000 -0.002964 0.000000
# 3 0.000017 -0.005302 0.020258 0.000000 0.006360 0.000000
# 4 0.000000 0.000000 0.000000 0.022688 0.000000 0.002232
# 5 0.005246 -0.002964 0.006360 0.000000 0.024064 0.000000
# 6 0.000000 0.000000 0.000000 0.002232 0.000000 0.022473
#
#
# Mechanical properties :
#
#
# Convention : Reuss Voigt Hill
#
# Bulk Modulus (GPa) = 47.78521 71.62623 59.70572
# Shear Modulus (GPa) = 36.89200 43.27573 40.08386
#
# Velocity S-wave (km/s) = 3.80910 4.12552 3.97047
# Velocity P-wave (km/s) = 6.17569 7.13184 6.67092
#
# Compressibility (1/GPa) = 0.02092698
#
# Stress axis : x y z
#
# Youngs Moduli (GPa) = 98.48959 102.91485 49.36217
#
# Poissons Ratio (x) = 0.44421 -0.00086
# Poissons Ratio (y) = 0.42511 0.26171
# Poissons Ratio (z) = -0.00171 0.54564
#
# Static dielectric constant tensor:
#      x y z
#    x 2.043090 0.000000 -0.070340 
#    y 0.000000 1.970880 0.000000 
#    z -0.070340 0.000000 2.153930 
# 
# From -- ./inp_files/77323.got.cif
#   From: 2010.05.17/outbox.cif.g08.bks.cpg/sg13_39_cif.got.tgz:77323.got - 2010.06.03 16:44:36.
