data_PCOD9238584
_publ_section_title
;
Structure prediction by ZEFSAII (Michael W. Deem and Ramdas Pophale) SiO2 
 PCOD9238584
Probable space group: P 2/C
;
_chemical_formula_sum "Si O2"
_cell_formula_units_Z 20
_cell_length_a 28.363960
_cell_length_b 6.204490
_cell_length_c 9.673618
_cell_angle_alpha 90.000000
_cell_angle_beta 150.416813
_cell_angle_gamma 90.000000
_cell_volume 840.452770
_symmetry_space_group_name_H-M "P 2/C"
_symmetry_group_IT_number 13
_symmetry_cell_setting 'monoclinic'
loop_
_space_group_symop_operation_xyz
x,y,z
-x,y,1/2-z
-x,-y,-z
x,-y,1/2+z
loop_
_atom_site_type_symbol
_atom_site_label
_atom_site_fract_x
_atom_site_fract_y
_atom_site_fract_z
Si Si1 0.150835 0.355020 0.260778
Si Si2 0.303330 0.622283 0.813051
Si Si3 0.269888 0.996493 0.410764
Si Si4 0.911206 0.697449 0.609288
Si Si5 0.404163 0.619814 0.804538
O O1 0.212659 0.535000 0.499916
O O2 0.222510 0.162670 0.400134
O O3 0.075898 0.297886 0.191730
O O4 0.107229 0.465733 0.013074
O O5 0.291952 0.866179 0.830171
O O6 0.389115 0.578585 0.927092
O O7 0.325612 0.497073 0.009413
O O8 0.368088 0.869322 0.698176
O O9 0.183600 0.835356 0.159441
O O10 0.000000 0.791522 0.750000
O O11 0.500000 0.500000 0.000000
#
# Coordination Sequence:
#
# PCOD9238584 Si02
#       5
#     4   4   4   4   4
#     4  12  23  48  74 101 149 192 242 302 362 427
#     4  12  23  49  72 104 147 190 236 303 365 426
#     4  12  24  45  81 101 146 194 245 294 372 428
#     4  12  27  44  72 108 148 193 245 302 362 436
#     4  12  27  46  74 108 146 183 243 298 366 442
#
# _framework density 23.796696000000001
#
# number of rings (size 3 to 8) (size 9 to 14) (size 15 to 20)
#    0.000    0.000    8.000    2.400    0.000    2.400 
#    0.000    2.000    0.000    0.000    0.000    0.000 
#    0.000    0.000    0.000    0.000    0.000    0.000 
#
# Total GULP energy -111633.455455 kJ/mol
# GULP energy per Si atom -5581.672773 kJ/mol
# Density = 2.374253 g / cm^3
# Si number density = 23.796696 Si / 1000 Ang^3
#
#
#
# Elastic Constant Matrix: (Units=GPa)
#
#
# Indices 1 2 3 4 5 6 
#
# 1 206.4235 58.6267 29.8760 0.0000 22.0418 0.0000
# 2 58.6267 92.1421 26.5458 0.0000 1.3141 0.0000
# 3 29.8760 26.5458 71.7538 0.0000 19.0424 0.0000
# 4 0.0000 0.0000 0.0000 20.0558 0.0000 3.9678
# 5 22.0418 1.3141 19.0424 0.0000 47.7700 0.0000
# 6 0.0000 0.0000 0.0000 3.9678 0.0000 49.4766
#
#
#
# Elastic Compliance Matrix: (Units=1/GPa)
#
#
# Indices 1 2 3 4 5 6 
#
# 1 0.006277 -0.003807 -0.000519 0.000000 -0.002585 0.000000
# 2 -0.003807 0.014571 -0.004658 0.000000 0.003213 0.000000
# 3 -0.000519 -0.004658 0.017645 0.000000 -0.006666 0.000000
# 4 0.000000 0.000000 0.000000 0.050665 0.000000 -0.004063
# 5 -0.002585 0.003213 -0.006666 0.000000 0.024695 0.000000
# 6 0.000000 0.000000 0.000000 -0.004063 0.000000 0.020537
#
#
# Mechanical properties :
#
#
# Convention : Reuss Voigt Hill
#
# Bulk Modulus (GPa) = 48.72275 66.71295 57.71785
# Shear Modulus (GPa) = 31.40679 40.47852 35.94266
#
# Velocity S-wave (km/s) = 3.63684 4.12881 3.89061
# Velocity P-wave (km/s) = 6.17693 7.12915 6.67006
#
# Compressibility (1/GPa) = 0.02052429
#
# Stress axis : x y z
#
# Youngs Moduli (GPa) = 159.31584 68.62729 56.67306
#
# Poissons Ratio (x) = 0.26129 0.02941
# Poissons Ratio (y) = 0.60657 0.26399
# Poissons Ratio (z) = 0.08269 0.31968
#
# Static dielectric constant tensor:
#      x y z
#    x 1.981600 0.000000 0.076880 
#    y 0.000000 1.983380 0.000000 
#    z 0.076880 0.000000 1.945020 
# 
# From -- ./inp_files/42565.got.cif
#   From: 2010.05.17/outbox.cif.g08.bks.cpg/sg13_22_cif.got.tgz:42565.got - 2010.06.03 16:44:36.
