data_PCOD9238356
_publ_section_title
;
Structure prediction by ZEFSAII (Michael W. Deem and Ramdas Pophale) SiO2 
 PCOD9238356
Probable space group: P 2/C
;
_chemical_formula_sum "Si O2"
_cell_formula_units_Z 26
_cell_length_a 15.930278
_cell_length_b 6.471962
_cell_length_c 22.474523
_cell_angle_alpha 90.000000
_cell_angle_beta 149.688297
_cell_angle_gamma 90.000000
_cell_volume 1169.463077
_symmetry_space_group_name_H-M "P 2/C"
_symmetry_group_IT_number 13
_symmetry_cell_setting 'monoclinic'
loop_
_space_group_symop_operation_xyz
x,y,z
-x,y,1/2-z
-x,-y,-z
x,-y,1/2+z
loop_
_atom_site_type_symbol
_atom_site_label
_atom_site_fract_x
_atom_site_fract_y
_atom_site_fract_z
Si Si1 0.628173 0.690832 0.582682
Si Si2 0.110582 0.496813 0.682442
Si Si3 0.500000 0.369592 0.250000
Si Si4 0.064140 0.850473 0.987618
Si Si5 0.640402 0.294806 0.754333
Si Si6 0.197902 0.199749 0.995860
Si Si7 0.443878 0.981958 0.561332
O O1 0.500000 0.500000 0.500000
O O2 0.805401 0.597318 0.708726
O O3 0.621715 0.832974 0.520517
O O4 0.569112 0.841659 0.600004
O O5 0.248373 0.353546 0.734881
O O6 0.066210 0.674465 0.607917
O O7 0.941112 0.375582 0.591163
O O8 0.466994 0.514553 0.287318
O O9 0.334043 0.245302 0.130964
O O10 0.232598 0.750855 0.114852
O O11 0.103851 0.989134 0.955173
O O12 0.000000 0.000000 0.000000
O O13 0.533511 0.095869 0.671220
O O14 0.298651 0.161940 0.997422
#
# Coordination Sequence:
#
# PCOD9238356 Si02
#       7
#     4   4   2   4   4   4   4
#     4  11  25  50  77  99 135 191 245 296 354 414
#     4  12  25  44  73 104 143 185 236 299 356 422
#     4  12  24  42  72 104 150 194 226 292 358 434
#     4  12  23  41  68 106 145 183 223 287 357 429
#     4  12  22  44  73 103 143 186 235 285 360 428
#     4  12  26  44  69 108 148 183 232 292 359 430
#     4  11  26  46  77 102 138 191 243 294 352 428
#
# _framework density 22.232424000000002
#
# number of rings (size 3 to 8) (size 9 to 14) (size 15 to 20)
#    0.000    0.308    4.615    5.077    0.000    0.000 
#    0.000    4.615    0.000    0.000    0.000    0.000 
#    0.000    0.000    0.000    0.000    0.000    0.000 
#
# Total GULP energy -145613.194182 kJ/mol
# GULP energy per Si atom -5600.507469 kJ/mol
# Density = 2.218182 g / cm^3
# Si number density = 22.232424 Si / 1000 Ang^3
#
#
#
# Elastic Constant Matrix: (Units=GPa)
#
#
# Indices 1 2 3 4 5 6 
#
# 1 55.2897 9.0780 19.7294 0.0000 13.4411 0.0000
# 2 9.0780 80.4124 37.1677 0.0000 6.5683 0.0000
# 3 19.7294 37.1677 105.5156 0.0000 3.3537 0.0000
# 4 0.0000 0.0000 0.0000 38.5104 0.0000 -6.5360
# 5 13.4411 6.5683 3.3537 0.0000 26.7039 0.0000
# 6 0.0000 0.0000 0.0000 -6.5360 0.0000 37.4220
#
#
#
# Elastic Compliance Matrix: (Units=1/GPa)
#
#
# Indices 1 2 3 4 5 6 
#
# 1 0.022015 0.000155 -0.003833 0.000000 -0.010638 0.000000
# 2 0.000155 0.015100 -0.005248 0.000000 -0.003133 0.000000
# 3 -0.003833 -0.005248 0.011988 0.000000 0.001715 0.000000
# 4 0.000000 0.000000 0.000000 0.026760 0.000000 0.004674
# 5 -0.010638 -0.003133 0.001715 0.000000 0.043357 0.000000
# 6 0.000000 0.000000 0.000000 0.004674 0.000000 0.027539
#
#
# Mechanical properties :
#
#
# Convention : Reuss Voigt Hill
#
# Bulk Modulus (GPa) = 31.99902 41.46309 36.73105
# Shear Modulus (GPa) = 28.56671 32.21009 30.38840
#
# Velocity S-wave (km/s) = 3.58846 3.81043 3.70111
# Velocity P-wave (km/s) = 5.62081 6.16842 5.90097
#
# Compressibility (1/GPa) = 0.03125096
#
# Stress axis : x y z
#
# Youngs Moduli (GPa) = 45.42386 66.22422 83.41517
#
# Poissons Ratio (x) = -0.01028 0.31972
# Poissons Ratio (y) = -0.00705 0.43780
# Poissons Ratio (z) = 0.17411 0.34758
#
# Static dielectric constant tensor:
#      x y z
#    x 1.898300 0.000000 0.003520 
#    y 0.000000 1.827190 0.000000 
#    z 0.003520 0.000000 1.799560 
# 
# From -- ./inp_files/87768.got.cif
#   From: 2010.05.17/outbox.cif.g08.bks.cpg/sg13_44_cif.got.tgz:87768.got - 2010.06.03 16:44:36.
