data_PCOD9238119
_publ_section_title
;
Structure prediction by ZEFSAII (Michael W. Deem and Ramdas Pophale) SiO2 
 PCOD9238119
Probable space group: P 2/C
;
_chemical_formula_sum "Si O2"
_cell_formula_units_Z 20
_cell_length_a 16.018746
_cell_length_b 6.469544
_cell_length_c 23.043070
_cell_angle_alpha 90.000000
_cell_angle_beta 158.446118
_cell_angle_gamma 90.000000
_cell_volume 877.310568
_symmetry_space_group_name_H-M "P 2/C"
_symmetry_group_IT_number 13
_symmetry_cell_setting 'monoclinic'
loop_
_space_group_symop_operation_xyz
x,y,z
-x,y,1/2-z
-x,-y,-z
x,-y,1/2+z
loop_
_atom_site_type_symbol
_atom_site_label
_atom_site_fract_x
_atom_site_fract_y
_atom_site_fract_z
Si Si1 0.599379 0.561182 0.153795
Si Si2 0.086887 0.459985 0.991328
Si Si3 0.448936 0.222315 0.991240
Si Si4 0.000000 0.046924 0.750000
Si Si5 0.278665 0.802728 0.029116
Si Si6 0.500000 0.853379 0.750000
O O1 0.477827 0.650570 0.018544
O O2 0.462096 0.647589 0.118826
O O3 0.858027 0.632431 0.315348
O O4 0.584791 0.315627 0.133834
O O5 0.158319 0.664216 0.001245
O O6 0.289057 0.297318 0.125276
O O7 0.000000 0.500000 0.000000
O O8 0.191234 0.197677 0.846633
O O9 0.500000 0.000000 0.000000
O O10 0.888523 0.900840 0.627764
O O11 0.417314 0.992965 0.145980
#
# Coordination Sequence:
#
# PCOD9238119 Si02
#       6
#     4   4   4   2   4   2
#     4  11  26  44  74 107 151 189 251 303 374 446
#     4  12  28  48  76 107 147 201 251 316 370 452
#     4  11  24  45  68 110 151 195 234 303 377 451
#     4  12  26  44  80 110 156 196 250 310 386 448
#     4  12  28  48  75 116 148 197 259 310 379 457
#     4  12  28  52  76 104 150 204 254 306 386 448
#
# _framework density 22.796942999999999
#
# number of rings (size 3 to 8) (size 9 to 14) (size 15 to 20)
#    0.000    0.400    2.000    5.400   11.200    4.800 
#    0.000    0.000    0.000    0.000    0.000    0.000 
#    0.000    0.000    0.000    0.000    0.000    0.000 
#
# Total GULP energy -111661.889232 kJ/mol
# GULP energy per Si atom -5583.094462 kJ/mol
# Density = 2.274506 g / cm^3
# Si number density = 22.796943 Si / 1000 Ang^3
#
#
#
# Elastic Constant Matrix: (Units=GPa)
#
#
# Indices 1 2 3 4 5 6 
#
# 1 144.3022 57.8693 50.8421 0.0000 14.7046 0.0000
# 2 57.8693 76.5850 29.8526 0.0000 -10.3484 0.0000
# 3 50.8421 29.8526 117.7413 0.0000 6.1171 0.0000
# 4 0.0000 0.0000 0.0000 38.9427 0.0000 -3.8293
# 5 14.7046 -10.3484 6.1171 0.0000 51.4438 0.0000
# 6 0.0000 0.0000 0.0000 -3.8293 0.0000 47.4928
#
#
#
# Elastic Compliance Matrix: (Units=1/GPa)
#
#
# Indices 1 2 3 4 5 6 
#
# 1 0.011760 -0.008483 -0.002681 0.000000 -0.004749 0.000000
# 2 -0.008483 0.021214 -0.002076 0.000000 0.006939 0.000000
# 3 -0.002681 -0.002076 0.010222 0.000000 -0.000867 0.000000
# 4 0.000000 0.000000 0.000000 0.025884 0.000000 0.002087
# 5 -0.004749 0.006939 -0.000867 0.000000 0.022295 0.000000
# 6 0.000000 0.000000 0.000000 0.002087 0.000000 0.021224
#
#
# Mechanical properties :
#
#
# Convention : Reuss Voigt Hill
#
# Bulk Modulus (GPa) = 59.81970 68.41741 64.11856
# Shear Modulus (GPa) = 34.56560 40.91349 37.73954
#
# Velocity S-wave (km/s) = 3.89811 4.24098 4.07315
# Velocity P-wave (km/s) = 6.82331 7.35241 7.09280
#
# Compressibility (1/GPa) = 0.01671690
#
# Stress axis : x y z
#
# Youngs Moduli (GPa) = 85.03154 47.13776 97.82657
#
# Poissons Ratio (x) = 0.39988 0.26224
# Poissons Ratio (y) = 0.72134 0.20310
# Poissons Ratio (z) = 0.22794 0.09787
#
# Static dielectric constant tensor:
#      x y z
#    x 1.068270 0.000000 0.902520 
#    y 0.000000 2.771800 0.000000 
#    z 0.902520 0.000000 0.898460 
# 
# From -- ./inp_files/91919.got.cif
#   From: 2010.05.17/outbox.cif.g08.bks.cpg/sg13_46_cif.got.tgz:91919.got - 2010.06.03 16:44:36.
