data_PCOD9238750
_publ_section_title
;
Structure prediction by ZEFSAII (Michael W. Deem and Ramdas Pophale) SiO2 
 PCOD9238750
Probable space group: P 2/C
;
_chemical_formula_sum "Si O2"
_cell_formula_units_Z 16
_cell_length_a 27.703960
_cell_length_b 6.827587
_cell_length_c 11.805230
_cell_angle_alpha 90.000000
_cell_angle_beta 160.652061
_cell_angle_gamma 90.000000
_cell_volume 739.792901
_symmetry_space_group_name_H-M "P 2/C"
_symmetry_group_IT_number 13
_symmetry_cell_setting 'monoclinic'
loop_
_space_group_symop_operation_xyz
x,y,z
-x,y,1/2-z
-x,-y,-z
x,-y,1/2+z
loop_
_atom_site_type_symbol
_atom_site_label
_atom_site_fract_x
_atom_site_fract_y
_atom_site_fract_z
Si Si1 0.500000 0.438109 0.250000
Si Si2 0.124467 0.006040 0.870245
Si Si3 0.000000 0.670806 0.750000
Si Si4 0.387479 0.860144 0.313848
Si Si5 0.774777 0.650480 0.750048
O O1 0.536285 0.301230 0.438152
O O2 0.641005 0.564949 0.527918
O O3 0.280359 0.982510 0.156780
O O4 0.123374 0.475143 0.569430
O O5 0.134760 0.198064 0.971269
O O6 0.000000 0.000000 0.500000
O O7 0.912656 0.814642 0.638774
O O8 0.500000 0.000000 0.500000
O O9 0.291070 0.760922 0.003068
#
# Coordination Sequence:
#
# PCOD9238750 Si02
#       5
#     2   4   2   4   4
#     4  12  26  48  74 108 150 198 244 302 370 440
#     4  12  27  47  75 107 149 196 242 308 368 433
#     4  12  26  48  72 108 148 188 252 294 374 436
#     4  12  26  47  76 108 151 191 245 305 366 437
#     4  12  27  47  74 109 145 194 248 302 368 440
#
# _framework density 21.627673999999999
#
# number of rings (size 3 to 8) (size 9 to 14) (size 15 to 20)
#    0.000    0.000    2.500    7.500    7.000    2.000 
#    0.000    0.000    0.000    0.000    0.000    0.000 
#    0.000    0.000    0.000    0.000    0.000    0.000 
#
# Total GULP energy -89601.454459 kJ/mol
# GULP energy per Si atom -5600.090904 kJ/mol
# Density = 2.157845 g / cm^3
# Si number density = 21.627674 Si / 1000 Ang^3
#
#
#
# Elastic Constant Matrix: (Units=GPa)
#
#
# Indices 1 2 3 4 5 6 
#
# 1 121.0365 47.8886 26.8355 0.0000 21.4310 0.0000
# 2 47.8886 94.8647 31.6255 0.0000 -1.3389 0.0000
# 3 26.8355 31.6255 82.0647 0.0000 -7.3791 0.0000
# 4 0.0000 0.0000 0.0000 52.2173 0.0000 20.2681
# 5 21.4310 -1.3389 -7.3791 0.0000 61.6425 0.0000
# 6 0.0000 0.0000 0.0000 20.2681 0.0000 35.8934
#
#
#
# Elastic Compliance Matrix: (Units=1/GPa)
#
#
# Indices 1 2 3 4 5 6 
#
# 1 0.011573 -0.005176 -0.002185 0.000000 -0.004398 0.000000
# 2 -0.005176 0.014415 -0.003713 0.000000 0.001668 0.000000
# 3 -0.002185 -0.003713 0.014549 0.000000 0.002421 0.000000
# 4 0.000000 0.000000 0.000000 0.024526 0.000000 -0.013849
# 5 -0.004398 0.001668 0.002421 0.000000 0.018077 0.000000
# 6 0.000000 0.000000 0.000000 -0.013849 0.000000 0.035681
#
#
# Mechanical properties :
#
#
# Convention : Reuss Voigt Hill
#
# Bulk Modulus (GPa) = 54.37931 56.74056 55.55993
# Shear Modulus (GPa) = 33.99083 42.72506 38.35794
#
# Velocity S-wave (km/s) = 3.96869 4.44946 4.21593
# Velocity P-wave (km/s) = 6.79696 7.25872 7.03163
#
# Compressibility (1/GPa) = 0.01838935
#
# Stress axis : x y z
#
# Youngs Moduli (GPa) = 86.40906 69.37051 68.73532
#
# Poissons Ratio (x) = 0.35904 0.15020
# Poissons Ratio (y) = 0.44722 0.25520
# Poissons Ratio (z) = 0.18882 0.25756
#
# Static dielectric constant tensor:
#      x y z
#    x 1.766880 0.000000 -0.001380 
#    y 0.000000 1.725930 0.000000 
#    z -0.001380 0.000000 1.694890 
# 
# From -- ./inp_files/42609.got.cif
#   From: 2010.05.17/outbox.cif.g08.bks.cpg/sg13_22_cif.got.tgz:42609.got - 2010.06.03 16:44:36.
