data_PCOD9238520
_publ_section_title
;
Structure prediction by ZEFSAII (Michael W. Deem and Ramdas Pophale) SiO2 
 PCOD9238520
Probable space group: P 2/C
;
_chemical_formula_sum "Si O2"
_cell_formula_units_Z 20
_cell_length_a 9.030982
_cell_length_b 12.151190
_cell_length_c 8.812009
_cell_angle_alpha 90.000000
_cell_angle_beta 95.856680
_cell_angle_gamma 90.000000
_cell_volume 961.957479
_symmetry_space_group_name_H-M "P 2/C"
_symmetry_group_IT_number 13
_symmetry_cell_setting 'monoclinic'
loop_
_space_group_symop_operation_xyz
x,y,z
-x,y,1/2-z
-x,-y,-z
x,-y,1/2+z
loop_
_atom_site_type_symbol
_atom_site_label
_atom_site_fract_x
_atom_site_fract_y
_atom_site_fract_z
Si Si1 0.154315 0.757887 0.345055
Si Si2 0.390896 0.299873 0.374723
Si Si3 0.143215 0.645785 0.665855
Si Si4 0.666453 0.423109 0.834412
Si Si5 0.554596 0.887857 0.082943
O O1 0.116506 0.693057 0.496403
O O2 0.243449 0.672929 0.244369
O O3 0.270508 0.855806 0.395488
O O4 0.000000 0.791937 0.250000
O O5 0.500000 0.331158 0.250000
O O6 0.240045 0.267107 0.273596
O O7 0.351425 0.393895 0.490435
O O8 0.472198 0.207605 0.480526
O O9 0.241200 0.535288 0.665953
O O10 0.000000 0.620325 0.750000
O O11 0.500000 0.426485 0.750000
O O12 0.500000 0.886815 0.250000
O O13 0.500000 0.000000 0.000000
#
# Coordination Sequence:
#
# PCOD9238520 Si02
#       5
#     4   4   4   4   4
#     4  12  25  47  71 104 148 188 230 293 361 419
#     4  12  22  44  70 103 138 187 241 289 349 416
#     4  12  27  41  67 107 148 193 236 288 343 422
#     4  12  23  43  69 104 149 194 242 284 342 421
#     4  12  26  50  78 107 133 180 235 301 362 428
#
# _framework density 20.790939000000002
#
# number of rings (size 3 to 8) (size 9 to 14) (size 15 to 20)
#    0.000    0.000    6.000    4.200    0.000    4.800 
#    0.000    4.000    0.000    0.000    0.000    0.000 
#    0.000    0.000    0.000    0.000    0.000    0.000 
#
# Total GULP energy -111910.568865 kJ/mol
# GULP energy per Si atom -5595.528443 kJ/mol
# Density = 2.074362 g / cm^3
# Si number density = 20.790939 Si / 1000 Ang^3
#
#
#
# Elastic Constant Matrix: (Units=GPa)
#
#
# Indices 1 2 3 4 5 6 
#
# 1 164.0332 73.3702 76.4535 0.0000 6.5391 0.0000
# 2 73.3702 82.6795 50.2589 0.0000 4.1661 0.0000
# 3 76.4535 50.2589 181.0028 0.0000 -13.1017 0.0000
# 4 0.0000 0.0000 0.0000 4.7280 0.0000 9.9485
# 5 6.5391 4.1661 -13.1017 0.0000 56.0334 0.0000
# 6 0.0000 0.0000 0.0000 9.9485 0.0000 16.6805
#
#
#
# Elastic Compliance Matrix: (Units=1/GPa)
#
#
# Indices 1 2 3 4 5 6 
#
# 1 0.010931 -0.008153 -0.002443 0.000000 -0.001241 0.000000
# 2 -0.008153 0.020869 -0.002436 0.000000 -0.001170 0.000000
# 3 -0.002443 -0.002436 0.007392 0.000000 0.002195 0.000000
# 4 0.000000 0.000000 0.000000 -0.829539 0.000000 0.494752
# 5 -0.001241 -0.001170 0.002195 0.000000 0.018591 0.000000
# 6 0.000000 0.000000 0.000000 0.494752 0.000000 -0.235129
#
#
# Mechanical properties :
#
#
# Convention : Reuss Voigt Hill
#
# Bulk Modulus (GPa) = 76.16793 91.98675 84.07734
# Shear Modulus (GPa) = -5.12062 30.66390 12.77164
#
# Velocity S-wave (km/s) = -1.57107 3.84457 2.48117
# Velocity P-wave (km/s) = 5.78132 8.00296 6.98108
#
# Compressibility (1/GPa) = 0.01312888
#
# Stress axis : x y z
#
# Youngs Moduli (GPa) = 91.48192 47.91759 135.28144
#
# Poissons Ratio (x) = 0.39065 0.33053
# Poissons Ratio (y) = 0.74581 0.32952
# Poissons Ratio (z) = 0.22351 0.11672
#
# Static dielectric constant tensor:
#      x y z
#    x 1.932320 0.000000 -0.048450 
#    y 0.000000 1.750670 0.000000 
#    z -0.048450 0.000000 1.800520 
# 
# From -- ./inp_files/11868.got.cif
#   From: 2010.05.17/outbox.cif.g08.bks.cpg/sg13_6_cif.got.tgz:11868.got - 2010.06.03 16:44:36.
