data_PCOD9238633
_publ_section_title
;
Structure prediction by ZEFSAII (Michael W. Deem and Ramdas Pophale) SiO2 
 PCOD9238633
Probable space group: P 2/C
;
_chemical_formula_sum "Si O2"
_cell_formula_units_Z 24
_cell_length_a 14.137167
_cell_length_b 5.838560
_cell_length_c 16.500719
_cell_angle_alpha 90.000000
_cell_angle_beta 124.564990
_cell_angle_gamma 90.000000
_cell_volume 1121.568343
_symmetry_space_group_name_H-M "P 2/C"
_symmetry_group_IT_number 13
_symmetry_cell_setting 'monoclinic'
loop_
_space_group_symop_operation_xyz
x,y,z
-x,y,1/2-z
-x,-y,-z
x,-y,1/2+z
loop_
_atom_site_type_symbol
_atom_site_label
_atom_site_fract_x
_atom_site_fract_y
_atom_site_fract_z
Si Si1 0.153702 0.983679 0.237015
Si Si2 0.819584 0.326994 0.596830
Si Si3 0.627134 0.819375 0.735347
Si Si4 0.000000 0.689999 0.750000
Si Si5 0.602958 0.587059 0.893025
Si Si6 0.999387 0.249344 0.954351
Si Si7 0.500000 0.797721 0.250000
O O1 0.184921 0.870164 0.337912
O O2 0.114011 0.781625 0.157211
O O3 0.254735 0.140666 0.251666
O O4 0.045126 0.146901 0.200862
O O5 0.692954 0.398809 0.507932
O O6 0.895297 0.532309 0.670647
O O7 0.890983 0.253912 0.552033
O O8 0.640662 0.750684 0.836491
O O9 0.529675 0.651956 0.651658
O O10 0.563234 0.060283 0.711712
O O11 0.594725 0.347167 0.843449
O O12 0.000000 0.500000 0.000000
O O13 0.000000 0.000000 0.000000
#
# Coordination Sequence:
#
# PCOD9238633 Si02
#       7
#     4   4   4   2   4   4   2
#     4  12  25  45  66  97 146 182 230 301 360 431
#     4  12  25  43  67  98 141 184 232 298 359 433
#     4   9  21  42  68  96 132 175 232 292 355 422
#     4  12  24  46  62  94 152 184 232 288 372 432
#     4   9  21  41  65 100 128 176 235 286 353 423
#     4  12  26  44  72 106 138 190 253 293 361 430
#     4   8  18  40  66  94 130 162 234 280 354 410
#
# _framework density 21.398606999999998
#
# number of rings (size 3 to 8) (size 9 to 14) (size 15 to 20)
#    0.000    1.667    3.333    2.000    2.333    6.000 
#    0.000    1.667    0.000    0.000    0.000    0.000 
#    0.000    0.000    0.000    0.000    0.000    0.000 
#
# Total GULP energy -133877.192706 kJ/mol
# GULP energy per Si atom -5578.216363 kJ/mol
# Density = 2.134990 g / cm^3
# Si number density = 21.398607 Si / 1000 Ang^3
#
#
#
# Elastic Constant Matrix: (Units=GPa)
#
#
# Indices 1 2 3 4 5 6 
#
# 1 89.9112 9.0603 10.5236 0.0000 -1.7400 0.0000
# 2 9.0603 79.0699 19.7970 0.0000 -6.9257 0.0000
# 3 10.5236 19.7970 94.5797 0.0000 21.9646 0.0000
# 4 0.0000 0.0000 0.0000 5.6946 0.0000 -7.1106
# 5 -1.7400 -6.9257 21.9646 0.0000 36.0007 0.0000
# 6 0.0000 0.0000 0.0000 -7.1106 0.0000 3.1320
#
#
#
# Elastic Compliance Matrix: (Units=1/GPa)
#
#
# Indices 1 2 3 4 5 6 
#
# 1 0.011393 -0.000854 -0.001373 0.000000 0.001224 0.000000
# 2 -0.000854 0.014223 -0.004087 0.000000 0.005188 0.000000
# 3 -0.001373 -0.004087 0.013724 0.000000 -0.009226 0.000000
# 4 0.000000 0.000000 0.000000 -0.095706 0.000000 -0.217282
# 5 0.001224 0.005188 -0.009226 0.000000 0.034463 0.000000
# 6 0.000000 0.000000 0.000000 -0.217282 0.000000 -0.174013
#
#
# Mechanical properties :
#
#
# Convention : Reuss Voigt Hill
#
# Bulk Modulus (GPa) = 37.43858 38.03585 37.73722
# Shear Modulus (GPa) = -28.67229 23.91079 -2.38075
#
# Velocity S-wave (km/s) = -3.66445 3.34638 -1.05593
# Velocity P-wave (km/s) = 0.60870 5.72228 4.02331
#
# Compressibility (1/GPa) = 0.02671041
#
# Stress axis : x y z
#
# Youngs Moduli (GPa) = 87.77650 70.31051 72.86605
#
# Poissons Ratio (x) = 0.06008 0.10004
# Poissons Ratio (y) = 0.07500 0.29779
# Poissons Ratio (z) = 0.12052 0.28735
#
# Static dielectric constant tensor:
#      x y z
#    x 1.776840 0.000000 -0.006650 
#    y 0.000000 1.871180 0.000000 
#    z -0.006650 0.000000 1.822140 
# 
# From -- ./inp_files/52385.got.cif
#   From: 2010.05.17/outbox.cif.g08.bks.cpg/sg13_27_cif.got.tgz:52385.got - 2010.06.03 16:44:36.
