data_PCOD9238814
_publ_section_title
;
Structure prediction by ZEFSAII (Michael W. Deem and Ramdas Pophale) SiO2 
 PCOD9238814
Probable space group: P 2/C
;
_chemical_formula_sum "Si O2"
_cell_formula_units_Z 22
_cell_length_a 7.052785
_cell_length_b 14.470467
_cell_length_c 9.617499
_cell_angle_alpha 90.000000
_cell_angle_beta 80.497033
_cell_angle_gamma 90.000000
_cell_volume 968.064448
_symmetry_space_group_name_H-M "P 2/C"
_symmetry_group_IT_number 13
_symmetry_cell_setting 'monoclinic'
loop_
_space_group_symop_operation_xyz
x,y,z
-x,y,1/2-z
-x,-y,-z
x,-y,1/2+z
loop_
_atom_site_type_symbol
_atom_site_label
_atom_site_fract_x
_atom_site_fract_y
_atom_site_fract_z
Si Si1 0.205564 0.601169 0.553788
Si Si2 0.891708 0.810442 0.969792
Si Si3 0.000000 0.788152 0.250000
Si Si4 0.253011 0.560753 0.859825
Si Si5 0.556610 0.912242 0.902938
Si Si6 0.718222 0.254698 0.009629
O O1 0.212841 0.710718 0.528116
O O2 0.284009 0.567995 0.692612
O O3 0.292545 0.538045 0.422308
O O4 0.975559 0.580200 0.588452
O O5 0.779003 0.885662 0.897059
O O6 0.113537 0.786321 0.908896
O O7 0.904371 0.840316 0.131455
O O8 0.834191 0.732017 0.350863
O O9 0.349144 0.647731 0.925336
O O10 0.500000 0.924361 0.750000
O O11 0.438789 0.824313 0.976604
O O12 0.500000 0.000000 0.000000
#
# Coordination Sequence:
#
# PCOD9238814 Si02
#       6
#     4   4   2   4   4   4
#     4   9  17  28  53  85 123 163 206 249 297 361
#     4   9  21  41  64  90 129 164 205 253 313 363
#     4   8  20  38  70  92 122 170 206 258 308 364
#     4   9  17  28  53  85 123 163 206 249 297 361
#     4  12  28  44  69  94 122 161 208 261 317 379
#     4   9  21  41  64  90 129 164 205 253 313 363
#
# _framework density 22.725760000000001
#
# number of rings (size 3 to 8) (size 9 to 14) (size 15 to 20)
#    1.091    1.455    0.000    1.091    5.091    2.909 
#    0.000    0.909    0.000    0.000    0.000    0.000 
#    0.000    0.000    0.000    0.000    0.000    0.000 
#
# Total GULP energy -122777.090744 kJ/mol
# GULP energy per Si atom -5580.776852 kJ/mol
# Density = 2.267404 g / cm^3
# Si number density = 22.725760 Si / 1000 Ang^3
#
#
#
# Elastic Constant Matrix: (Units=GPa)
#
#
# Indices 1 2 3 4 5 6 
#
# 1 66.9946 31.0039 13.0518 0.0000 -5.2565 0.0000
# 2 31.0039 79.2133 23.2824 0.0000 1.0861 0.0000
# 3 13.0518 23.2824 121.6790 0.0000 8.7735 0.0000
# 4 0.0000 0.0000 0.0000 12.2937 0.0000 -0.8724
# 5 -5.2565 1.0861 8.7735 0.0000 24.6368 0.0000
# 6 0.0000 0.0000 0.0000 -0.8724 0.0000 26.7134
#
#
#
# Elastic Compliance Matrix: (Units=1/GPa)
#
#
# Indices 1 2 3 4 5 6 
#
# 1 0.018783 -0.007125 -0.000988 0.000000 0.004674 0.000000
# 2 -0.007125 0.016082 -0.002209 0.000000 -0.001443 0.000000
# 3 -0.000988 -0.002209 0.008986 0.000000 -0.003314 0.000000
# 4 0.000000 0.000000 0.000000 0.081531 0.000000 0.002663
# 5 0.004674 -0.001443 -0.003314 0.000000 0.042830 0.000000
# 6 0.000000 0.000000 0.000000 0.002663 0.000000 0.037521
#
#
# Mechanical properties :
#
#
# Convention : Reuss Voigt Hill
#
# Bulk Modulus (GPa) = 43.09213 44.72922 43.91067
# Shear Modulus (GPa) = 21.35704 26.09871 23.72788
#
# Velocity S-wave (km/s) = 3.06890 3.39251 3.23475
# Velocity P-wave (km/s) = 5.61787 5.92203 5.77195
#
# Compressibility (1/GPa) = 0.02320609
#
# Stress axis : x y z
#
# Youngs Moduli (GPa) = 53.23866 62.18130 111.28514
#
# Poissons Ratio (x) = 0.44306 0.10999
# Poissons Ratio (y) = 0.37934 0.24581
# Poissons Ratio (z) = 0.05262 0.13735
#
# Static dielectric constant tensor:
#      x y z
#    x 1.946730 0.000000 0.029680 
#    y 0.000000 1.778480 0.000000 
#    z 0.029680 0.000000 1.855420 
# 
# From -- ./inp_files/12540.got.cif
#   From: 2010.05.17/outbox.cif.g08.bks.cpg/sg13_7_cif.got.tgz:12540.got - 2010.06.03 16:44:36.
