data_PCOD9238348
_publ_section_title
;
Structure prediction by ZEFSAII (Michael W. Deem and Ramdas Pophale) SiO2 
 PCOD9238348
Probable space group: P 2/C
;
_chemical_formula_sum "Si O2"
_cell_formula_units_Z 14
_cell_length_a 9.846068
_cell_length_b 5.351589
_cell_length_c 15.433201
_cell_angle_alpha 90.000000
_cell_angle_beta 133.950973
_cell_angle_gamma 90.000000
_cell_volume 585.455980
_symmetry_space_group_name_H-M "P 2/C"
_symmetry_group_IT_number 13
_symmetry_cell_setting 'monoclinic'
loop_
_space_group_symop_operation_xyz
x,y,z
-x,y,1/2-z
-x,-y,-z
x,-y,1/2+z
loop_
_atom_site_type_symbol
_atom_site_label
_atom_site_fract_x
_atom_site_fract_y
_atom_site_fract_z
Si Si1 0.990098 0.697863 0.917737
Si Si2 0.679895 0.992324 0.877122
Si Si3 0.000000 0.601179 0.250000
Si Si4 0.601259 0.751268 0.011250
O O1 0.948713 0.567321 0.809567
O O2 0.827772 0.892545 0.871640
O O3 0.000000 0.500000 0.000000
O O4 0.194871 0.826077 0.008417
O O5 0.500000 0.107061 0.750000
O O6 0.609856 0.774027 0.910516
O O7 0.815587 0.751946 0.140856
O O8 0.500000 0.500000 0.000000
O O9 0.500000 0.000000 0.000000
#
# Coordination Sequence:
#
# PCOD9238348 Si02
#       4
#     4   4   2   4
#     4  11  25  49  75 112 149 213 256 325 402 458
#     4  11  26  46  76 110 158 200 265 324 392 474
#     4  12  26  52  80 106 166 192 268 328 384 474
#     4  12  28  47  77 116 150 207 258 317 394 460
#
# _framework density 23.912986
#
# number of rings (size 3 to 8) (size 9 to 14) (size 15 to 20)
#    0.000    0.571    2.857    3.429    4.000    5.714 
#    0.000    0.000    0.000    0.000    0.000    0.000 
#    0.000    0.000    0.000    0.000    0.000    0.000 
#
# Total GULP energy -78497.687622 kJ/mol
# GULP energy per Si atom -5606.977687 kJ/mol
# Density = 2.385856 g / cm^3
# Si number density = 23.912986 Si / 1000 Ang^3
#
#
#
# Elastic Constant Matrix: (Units=GPa)
#
#
# Indices 1 2 3 4 5 6 
#
# 1 94.0735 23.6403 31.5260 0.0000 -0.9004 0.0000
# 2 23.6403 82.1289 9.3530 0.0000 5.7213 0.0000
# 3 31.5260 9.3530 122.3898 0.0000 11.3838 0.0000
# 4 0.0000 0.0000 0.0000 40.7203 0.0000 9.8442
# 5 -0.9004 5.7213 11.3838 0.0000 61.7805 0.0000
# 6 0.0000 0.0000 0.0000 9.8442 0.0000 32.5997
#
#
#
# Elastic Compliance Matrix: (Units=1/GPa)
#
#
# Indices 1 2 3 4 5 6 
#
# 1 0.012502 -0.003323 -0.003065 0.000000 0.001055 0.000000
# 2 -0.003323 0.013225 -0.000037 0.000000 -0.001266 0.000000
# 3 -0.003065 -0.000037 0.009123 0.000000 -0.001722 0.000000
# 4 0.000000 0.000000 0.000000 0.026492 0.000000 -0.008000
# 5 0.001055 -0.001266 -0.001722 0.000000 0.016636 0.000000
# 6 0.000000 0.000000 0.000000 -0.008000 0.000000 0.033091
#
#
# Mechanical properties :
#
#
# Convention : Reuss Voigt Hill
#
# Bulk Modulus (GPa) = 45.45239 47.51453 46.48346
# Shear Modulus (GPa) = 38.09472 42.62494 40.35983
#
# Velocity S-wave (km/s) = 3.99564 4.22655 4.11272
# Velocity P-wave (km/s) = 6.35103 6.61296 6.48331
#
# Compressibility (1/GPa) = 0.02200104
#
# Stress axis : x y z
#
# Youngs Moduli (GPa) = 79.98612 75.61465 109.61289
#
# Poissons Ratio (x) = 0.25128 0.33591
# Poissons Ratio (y) = 0.26581 0.00404
# Poissons Ratio (z) = 0.24512 0.00279
#
# Static dielectric constant tensor:
#      x y z
#    x 2.001390 0.000000 -0.066830 
#    y 0.000000 1.929910 0.000000 
#    z -0.066830 0.000000 1.919660 
# 
# From -- ./inp_files/45080.got.cif
#   From: 2010.05.17/outbox.cif.g08.bks.cpg/sg13_23_cif.got.tgz:45080.got - 2010.06.03 16:44:36.
