data_PCOD9238120
_publ_section_title
;
Structure prediction by ZEFSAII (Michael W. Deem and Ramdas Pophale) SiO2 
 PCOD9238120
Probable space group: P 2/C
;
_chemical_formula_sum "Si O2"
_cell_formula_units_Z 24
_cell_length_a 9.010295
_cell_length_b 14.614319
_cell_length_c 16.636082
_cell_angle_alpha 90.000000
_cell_angle_beta 150.172911
_cell_angle_gamma 90.000000
_cell_volume 1089.583735
_symmetry_space_group_name_H-M "P 2/C"
_symmetry_group_IT_number 13
_symmetry_cell_setting 'monoclinic'
loop_
_space_group_symop_operation_xyz
x,y,z
-x,y,1/2-z
-x,-y,-z
x,-y,1/2+z
loop_
_atom_site_type_symbol
_atom_site_label
_atom_site_fract_x
_atom_site_fract_y
_atom_site_fract_z
Si Si1 0.708737 0.203118 0.662445
Si Si2 0.275222 0.294433 0.330705
Si Si3 0.577589 0.966267 0.379855
Si Si4 0.863092 0.104649 0.274911
Si Si5 0.690785 0.380738 0.760876
Si Si6 0.636276 0.444742 0.403979
O O1 0.465666 0.236936 0.484230
O O2 0.592676 0.119013 0.659648
O O3 0.761650 0.291722 0.742664
O O4 0.000000 0.177119 0.750000
O O5 0.150936 0.213351 0.215109
O O6 0.477824 0.367042 0.381693
O O7 0.000000 0.337430 0.250000
O O8 0.500000 0.970626 0.250000
O O9 0.920670 0.946445 0.561221
O O10 0.457298 0.057677 0.366316
O O11 0.000000 0.091225 0.250000
O O12 0.500000 0.353850 0.750000
O O13 0.475847 0.456021 0.617919
O O14 0.008660 0.428813 0.929329
O O15 0.500000 0.439086 0.250000
#
# Coordination Sequence:
#
# PCOD9238120 Si02
#       6
#     4   4   4   4   4   4
#     4  12  25  45  66  98 132 174 227 274 339 397
#     4  11  25  44  68  98 133 177 223 275 336 400
#     4  12  26  43  69 100 134 175 223 278 337 398
#     4  11  24  45  68  98 132 178 220 274 339 397
#     4  11  25  43  68  97 134 176 221 276 338 397
#     4  11  25  43  67  98 132 179 220 278 336 400
#
# _framework density 22.026759999999999
#
# number of rings (size 3 to 8) (size 9 to 14) (size 15 to 20)
#    0.000    0.667    5.000    4.000    7.000    3.333 
#    0.000    0.000    0.000    0.000    0.000    0.000 
#    0.000    0.000    0.000    0.000    0.000    0.000 
#
# Total GULP energy -134309.540807 kJ/mol
# GULP energy per Si atom -5596.230867 kJ/mol
# Density = 2.197663 g / cm^3
# Si number density = 22.026760 Si / 1000 Ang^3
#
#
#
# Elastic Constant Matrix: (Units=GPa)
#
#
# Indices 1 2 3 4 5 6 
#
# 1 84.3719 30.8506 13.6506 0.0000 15.8331 0.0000
# 2 30.8506 79.0875 -13.4083 0.0000 5.4688 0.0000
# 3 13.6506 -13.4083 73.8333 0.0000 21.5274 0.0000
# 4 0.0000 0.0000 0.0000 47.4142 0.0000 12.8320
# 5 15.8331 5.4688 21.5274 0.0000 37.5491 0.0000
# 6 0.0000 0.0000 0.0000 12.8320 0.0000 36.3090
#
#
#
# Elastic Compliance Matrix: (Units=1/GPa)
#
#
# Indices 1 2 3 4 5 6 
#
# 1 0.015302 -0.006170 -0.002798 0.000000 -0.003950 0.000000
# 2 -0.006170 0.016031 0.004772 0.000000 -0.002469 0.000000
# 3 -0.002798 0.004772 0.017754 0.000000 -0.009694 0.000000
# 4 0.000000 0.000000 0.000000 0.023321 0.000000 -0.008242
# 5 -0.003950 -0.002469 -0.009694 0.000000 0.034214 0.000000
# 6 0.000000 0.000000 0.000000 -0.008242 0.000000 0.030454
#
#
# Mechanical properties :
#
#
# Convention : Reuss Voigt Hill
#
# Bulk Modulus (GPa) = 24.57358 33.27540 28.92449
# Shear Modulus (GPa) = 31.43943 38.00111 34.72027
#
# Velocity S-wave (km/s) = 3.78210 4.15809 3.97454
# Velocity P-wave (km/s) = 5.50026 6.18001 5.85002
#
# Compressibility (1/GPa) = 0.04069412
#
# Stress axis : x y z
#
# Youngs Moduli (GPa) = 65.34908 62.37932 56.32417
#
# Poissons Ratio (x) = 0.38491 0.15761
# Poissons Ratio (y) = 0.40324 -0.26877
# Poissons Ratio (z) = 0.18286 -0.29767
#
# Static dielectric constant tensor:
#      x y z
#    x 1.775570 0.000000 -0.011040 
#    y 0.000000 1.810870 0.000000 
#    z -0.011040 0.000000 1.856170 
# 
# From -- ./inp_files/64693.got.cif
#   From: 2010.05.17/outbox.cif.g08.bks.cpg/sg13_33_cif.got.tgz:64693.got - 2010.06.03 16:44:36.
