data_PCOD9238222
_publ_section_title
;
Structure prediction by ZEFSAII (Michael W. Deem and Ramdas Pophale) SiO2 
 PCOD9238222
Probable space group: P 2/C
;
_chemical_formula_sum "Si O2"
_cell_formula_units_Z 20
_cell_length_a 11.831669
_cell_length_b 4.963456
_cell_length_c 19.057333
_cell_angle_alpha 90.000000
_cell_angle_beta 43.242053
_cell_angle_gamma 90.000000
_cell_volume 766.716555
_symmetry_space_group_name_H-M "P 2/C"
_symmetry_group_IT_number 13
_symmetry_cell_setting 'monoclinic'
loop_
_space_group_symop_operation_xyz
x,y,z
-x,y,1/2-z
-x,-y,-z
x,-y,1/2+z
loop_
_atom_site_type_symbol
_atom_site_label
_atom_site_fract_x
_atom_site_fract_y
_atom_site_fract_z
Si Si1 0.808538 0.374074 0.417067
Si Si2 0.164886 0.427837 0.243957
Si Si3 0.881701 0.756627 0.039424
Si Si4 0.530963 0.789279 0.423956
Si Si5 0.630169 0.067811 0.244485
O O1 0.828359 0.245381 0.330336
O O2 0.830988 0.227498 0.480896
O O3 0.613425 0.438256 0.508577
O O4 0.980657 0.541981 0.339621
O O5 0.289761 0.659316 0.164335
O O6 0.239672 0.264772 0.275488
O O7 0.727135 0.826469 0.160297
O O8 0.000000 0.500000 0.000000
O O9 0.000000 0.000000 0.000000
O O10 0.520105 0.951019 0.356531
O O11 0.500000 0.000000 0.500000
O O12 0.500000 0.202691 0.250000
#
# Coordination Sequence:
#
# PCOD9238222 Si02
#       5
#     4   4   4   4   4
#     4  11  24  49  77 111 162 214 268 343 421 488
#     4  11  26  49  75 119 156 212 284 334 419 512
#     4  12  27  49  76 114 161 212 274 342 416 492
#     4  12  26  48  77 116 161 212 275 345 423 500
#     4  12  26  46  77 114 162 213 277 339 412 508
#
# _framework density 26.085259000000001
#
# number of rings (size 3 to 8) (size 9 to 14) (size 15 to 20)
#    0.000    0.400    6.000    1.800    0.000    4.000 
#    7.200    0.000    0.000    0.000    0.000    0.000 
#    0.000    0.000    0.000    0.000    0.000    0.000 
#
# Total GULP energy -111542.850638 kJ/mol
# GULP energy per Si atom -5577.142532 kJ/mol
# Density = 2.602589 g / cm^3
# Si number density = 26.085259 Si / 1000 Ang^3
#
#
#
# Elastic Constant Matrix: (Units=GPa)
#
#
# Indices 1 2 3 4 5 6 
#
# 1 185.3080 51.0192 78.2660 0.0000 5.2541 0.0000
# 2 51.0192 106.2484 45.3365 0.0000 -6.8124 0.0000
# 3 78.2660 45.3365 195.0270 0.0000 -17.1820 0.0000
# 4 0.0000 0.0000 0.0000 45.8740 0.0000 -2.3443
# 5 5.2541 -6.8124 -17.1820 0.0000 89.4880 0.0000
# 6 0.0000 0.0000 0.0000 -2.3443 0.0000 14.1285
#
#
#
# Elastic Compliance Matrix: (Units=1/GPa)
#
#
# Indices 1 2 3 4 5 6 
#
# 1 0.007108 -0.002469 -0.002372 0.000000 -0.001061 0.000000
# 2 -0.002469 0.011316 -0.001578 0.000000 0.000703 0.000000
# 3 -0.002372 -0.001578 0.006559 0.000000 0.001278 0.000000
# 4 0.000000 0.000000 0.000000 0.021985 0.000000 0.003648
# 5 -0.001061 0.000703 0.001278 0.000000 0.011536 0.000000
# 6 0.000000 0.000000 0.000000 0.003648 0.000000 0.071384
#
#
# Mechanical properties :
#
#
# Convention : Reuss Voigt Hill
#
# Bulk Modulus (GPa) = 82.33723 92.86964 87.60343
# Shear Modulus (GPa) = 34.06590 50.69555 42.38072
#
# Velocity S-wave (km/s) = 3.61771 4.41325 4.03513
# Velocity P-wave (km/s) = 7.00597 7.85166 7.44084
#
# Compressibility (1/GPa) = 0.01214517
#
# Stress axis : x y z
#
# Youngs Moduli (GPa) = 140.68389 88.37177 152.46702
#
# Poissons Ratio (x) = 0.21820 0.36166
# Poissons Ratio (y) = 0.34736 0.24054
# Poissons Ratio (z) = 0.33371 0.13942
#
# Static dielectric constant tensor:
#      x y z
#    x 2.166370 0.000000 0.019630 
#    y 0.000000 2.094530 0.000000 
#    z 0.019630 0.000000 2.082800 
# 
# From -- ./inp_files/77114.got.cif
#   From: 2010.05.17/outbox.cif.g08.bks.cpg/sg13_39_cif.got.tgz:77114.got - 2010.06.03 16:44:36.
