data_PCOD9238810
_publ_section_title
;
Structure prediction by ZEFSAII (Michael W. Deem and Ramdas Pophale) SiO2 
 PCOD9238810
Probable space group: P 2/C
;
_chemical_formula_sum "Si O2"
_cell_formula_units_Z 14
_cell_length_a 15.403411
_cell_length_b 5.375447
_cell_length_c 15.369789
_cell_angle_alpha 90.000000
_cell_angle_beta 27.820970
_cell_angle_gamma 90.000000
_cell_volume 593.945828
_symmetry_space_group_name_H-M "P 2/C"
_symmetry_group_IT_number 13
_symmetry_cell_setting 'monoclinic'
loop_
_space_group_symop_operation_xyz
x,y,z
-x,y,1/2-z
-x,-y,-z
x,-y,1/2+z
loop_
_atom_site_type_symbol
_atom_site_label
_atom_site_fract_x
_atom_site_fract_y
_atom_site_fract_z
Si Si1 0.494064 0.645684 0.594986
Si Si2 0.893022 0.755058 0.622794
Si Si3 0.810357 0.011712 0.374463
Si Si4 0.500000 0.717855 0.250000
O O1 0.500000 0.500000 0.500000
O O2 0.302689 0.791233 0.753529
O O3 0.678055 0.807660 0.446544
O O4 0.467066 0.456285 0.697117
O O5 0.000000 0.500000 0.500000
O O6 0.858885 0.783069 0.757272
O O7 0.000000 0.000000 0.500000
O O8 0.000000 0.916916 0.250000
O O9 0.679106 0.121878 0.566081
#
# Coordination Sequence:
#
# PCOD9238810 Si02
#       4
#     4   4   4   2
#     4  12  27  54  81 117 169 223 280 349 427 514
#     4  12  28  50  84 118 165 220 279 343 425 501
#     4  12  29  50  81 122 168 217 286 355 426 505
#     4  12  28  50  84 116 170 212 292 348 428 500
#
# _framework density 23.571173999999999
#
# number of rings (size 3 to 8) (size 9 to 14) (size 15 to 20)
#    0.000    0.000    2.857    5.143   12.000    1.143 
#    0.000    0.000    0.000    0.000    0.000    0.000 
#    0.000    0.000    0.000    0.000    0.000    0.000 
#
# Total GULP energy -78448.129820 kJ/mol
# GULP energy per Si atom -5603.437844 kJ/mol
# Density = 2.351753 g / cm^3
# Si number density = 23.571174 Si / 1000 Ang^3
#
#
#
# Elastic Constant Matrix: (Units=GPa)
#
#
# Indices 1 2 3 4 5 6 
#
# 1 185.6651 75.4528 95.2613 0.0000 -21.0751 0.0000
# 2 75.4528 142.0120 89.5823 0.0000 -9.1045 0.0000
# 3 95.2613 89.5823 183.8314 0.0000 -13.1772 0.0000
# 4 0.0000 0.0000 0.0000 23.9628 0.0000 7.6531
# 5 -21.0751 -9.1045 -13.1772 0.0000 78.4170 0.0000
# 6 0.0000 0.0000 0.0000 7.6531 0.0000 45.9495
#
#
#
# Elastic Compliance Matrix: (Units=1/GPa)
#
#
# Indices 1 2 3 4 5 6 
#
# 1 0.007975 -0.002316 -0.002905 0.000000 0.001386 0.000000
# 2 -0.002316 0.010849 -0.004090 0.000000 -0.000050 0.000000
# 3 -0.002905 -0.004090 0.008956 0.000000 0.000249 0.000000
# 4 0.000000 0.000000 0.000000 0.044076 0.000000 -0.007341
# 5 0.001386 -0.000050 0.000249 0.000000 0.013161 0.000000
# 6 0.000000 0.000000 0.000000 -0.007341 0.000000 0.022986
#
#
# Mechanical properties :
#
#
# Convention : Reuss Voigt Hill
#
# Bulk Modulus (GPa) = 109.19126 114.67794 111.93460
# Shear Modulus (GPa) = 38.55723 46.41334 42.48528
#
# Velocity S-wave (km/s) = 4.04886 4.44224 4.25010
# Velocity P-wave (km/s) = 8.26331 8.66422 8.46614
#
# Compressibility (1/GPa) = 0.00915824
#
# Stress axis : x y z
#
# Youngs Moduli (GPa) = 125.39296 92.17283 111.65652
#
# Poissons Ratio (x) = 0.21348 0.32432
# Poissons Ratio (y) = 0.29042 0.45671
# Poissons Ratio (z) = 0.36422 0.37701
#
# Static dielectric constant tensor:
#      x y z
#    x 1.882580 0.000000 -0.003680 
#    y 0.000000 1.961990 0.000000 
#    z -0.003680 0.000000 1.976370 
# 
# From -- ./inp_files/51756.got.cif
#   From: 2010.05.17/outbox.cif.g08.bks.cpg/sg13_26_cif.got.tgz:51756.got - 2010.06.03 16:44:36.
