data_PCOD9238742
_publ_section_title
;
Structure prediction by ZEFSAII (Michael W. Deem and Ramdas Pophale) SiO2 
 PCOD9238742
Probable space group: P 2/C
;
_chemical_formula_sum "Si O2"
_cell_formula_units_Z 14
_cell_length_a 5.507541
_cell_length_b 11.139396
_cell_length_c 9.442104
_cell_angle_alpha 90.000000
_cell_angle_beta 76.001541
_cell_angle_gamma 90.000000
_cell_volume 562.076195
_symmetry_space_group_name_H-M "P 2/C"
_symmetry_group_IT_number 13
_symmetry_cell_setting 'monoclinic'
loop_
_space_group_symop_operation_xyz
x,y,z
-x,y,1/2-z
-x,-y,-z
x,-y,1/2+z
loop_
_atom_site_type_symbol
_atom_site_label
_atom_site_fract_x
_atom_site_fract_y
_atom_site_fract_z
Si Si1 0.500000 0.388644 0.750000
Si Si2 0.000000 0.461419 0.250000
Si Si3 0.125976 0.267772 0.003283
Si Si4 0.652432 0.060142 0.351877
Si Si5 0.000000 0.853585 0.250000
O O1 0.741291 0.464605 0.768525
O O2 0.385362 0.308457 0.892481
O O3 0.977203 0.377045 0.391049
O O4 0.960127 0.225677 0.893950
O O5 0.166124 0.154068 0.098291
O O6 0.500000 0.126261 0.250000
O O7 0.500000 0.000000 0.500000
O O8 0.778181 0.947182 0.255692
#
# Coordination Sequence:
#
# PCOD9238742 Si02
#       5
#     2   2   4   4   2
#     4  12  28  56  76 116 156 204 270 334 384 456
#     4  12  30  52  84 114 152 204 278 330 384 456
#     4  12  27  49  82 111 155 210 252 324 396 458
#     4  12  26  46  74 113 157 197 250 309 384 479
#     4  12  26  50  72 116 158 196 250 312 392 478
#
# _framework density 24.907654999999998
#
# number of rings (size 3 to 8) (size 9 to 14) (size 15 to 20)
#    0.000    0.000    2.857    6.000    6.000    2.286 
#    0.000    0.000    0.000    0.000    0.000    0.000 
#    0.000    0.000    0.000    0.000    0.000    0.000 
#
# Total GULP energy -78473.462859 kJ/mol
# GULP energy per Si atom -5605.247347 kJ/mol
# Density = 2.485096 g / cm^3
# Si number density = 24.907655 Si / 1000 Ang^3
#
#
#
# Elastic Constant Matrix: (Units=GPa)
#
#
# Indices 1 2 3 4 5 6 
#
# 1 98.2092 50.7256 25.6740 0.0000 15.2687 0.0000
# 2 50.7256 127.3808 51.3106 0.0000 5.8539 0.0000
# 3 25.6740 51.3106 145.2978 0.0000 14.5945 0.0000
# 4 0.0000 0.0000 0.0000 24.7994 0.0000 0.6133
# 5 15.2687 5.8539 14.5945 0.0000 59.3018 0.0000
# 6 0.0000 0.0000 0.0000 0.6133 0.0000 26.1580
#
#
#
# Elastic Compliance Matrix: (Units=1/GPa)
#
#
# Indices 1 2 3 4 5 6 
#
# 1 0.013312 -0.005057 -0.000279 0.000000 -0.002860 0.000000
# 2 -0.005057 0.011074 -0.003115 0.000000 0.000976 0.000000
# 3 -0.000279 -0.003115 0.008196 0.000000 -0.001638 0.000000
# 4 0.000000 0.000000 0.000000 0.040347 0.000000 -0.000946
# 5 -0.002860 0.000976 -0.001638 0.000000 0.017906 0.000000
# 6 0.000000 0.000000 0.000000 -0.000946 0.000000 0.038251
#
#
# Mechanical properties :
#
#
# Convention : Reuss Voigt Hill
#
# Bulk Modulus (GPa) = 63.77688 69.58981 66.68334
# Shear Modulus (GPa) = 33.06514 38.26368 35.66441
#
# Velocity S-wave (km/s) = 3.64745 3.92372 3.78810
# Velocity P-wave (km/s) = 6.58783 6.96615 6.77963
#
# Compressibility (1/GPa) = 0.01567966
#
# Stress axis : x y z
#
# Youngs Moduli (GPa) = 75.12014 90.29833 122.00567
#
# Poissons Ratio (x) = 0.45667 0.03405
# Poissons Ratio (y) = 0.37990 0.38007
# Poissons Ratio (z) = 0.02096 0.28130
#
# Static dielectric constant tensor:
#      x y z
#    x 2.049190 0.000000 -0.011910 
#    y 0.000000 1.917640 0.000000 
#    z -0.011910 0.000000 1.899050 
# 
# From -- ./inp_files/8426.got.cif
#   From: 2010.05.17/outbox.cif.g08.bks.cpg/sg13_5_cif.got.tgz:8426.got - 2010.06.03 16:44:36.
