data_PCOD9238679
_publ_section_title
;
Structure prediction by ZEFSAII (Michael W. Deem and Ramdas Pophale) SiO2 
 PCOD9238679
Probable space group: P 2/C
;
_chemical_formula_sum "Si O2"
_cell_formula_units_Z 16
_cell_length_a 9.193021
_cell_length_b 13.111184
_cell_length_c 8.069531
_cell_angle_alpha 90.000000
_cell_angle_beta 132.958194
_cell_angle_gamma 90.000000
_cell_volume 711.821671
_symmetry_space_group_name_H-M "P 2/C"
_symmetry_group_IT_number 13
_symmetry_cell_setting 'monoclinic'
loop_
_space_group_symop_operation_xyz
x,y,z
-x,y,1/2-z
-x,-y,-z
x,-y,1/2+z
loop_
_atom_site_type_symbol
_atom_site_label
_atom_site_fract_x
_atom_site_fract_y
_atom_site_fract_z
Si Si1 0.212361 0.359673 0.859333
Si Si2 0.000000 0.747884 0.750000
Si Si3 0.075196 0.889334 0.498639
Si Si4 0.726185 0.584586 0.455790
Si Si5 0.500000 0.202090 0.250000
O O1 0.178708 0.393218 0.646060
O O2 0.000000 0.319587 0.750000
O O3 0.254283 0.467647 0.980098
O O4 0.385603 0.278860 0.033418
O O5 0.983172 0.815579 0.570829
O O6 0.820795 0.668725 0.647153
O O7 0.315040 0.864815 0.679196
O O8 0.000000 0.117210 0.750000
O O9 0.000000 0.000000 0.500000
O O10 0.500000 0.607668 0.250000
#
# Coordination Sequence:
#
# PCOD9238679 Si02
#       5
#     4   2   4   4   2
#     4  12  25  43  69 107 157 193 240 289 357 442
#     4  12  26  48  76 104 154 194 240 310 366 428
#     4  12  28  55  78 109 143 190 254 316 373 433
#     4  12  25  41  68 108 147 201 240 285 357 440
#     4  12  26  46  80 106 150 198 236 310 374 430
#
# _framework density 22.477540999999999
#
# number of rings (size 3 to 8) (size 9 to 14) (size 15 to 20)
#    0.000    0.000    3.750    6.750    3.500    1.000 
#    2.250    0.000    0.000    0.000    0.000    0.000 
#    0.000    0.000    0.000    0.000    0.000    0.000 
#
# Total GULP energy -89349.763475 kJ/mol
# GULP energy per Si atom -5584.360217 kJ/mol
# Density = 2.242638 g / cm^3
# Si number density = 22.477541 Si / 1000 Ang^3
#
#
#
# Elastic Constant Matrix: (Units=GPa)
#
#
# Indices 1 2 3 4 5 6 
#
# 1 90.2341 53.9432 39.6603 0.0000 1.6875 0.0000
# 2 53.9432 203.0007 68.5664 0.0000 10.8576 0.0000
# 3 39.6603 68.5664 132.8577 0.0000 10.3986 0.0000
# 4 0.0000 0.0000 0.0000 19.7978 0.0000 -30.1460
# 5 1.6875 10.8576 10.3986 0.0000 52.1044 0.0000
# 6 0.0000 0.0000 0.0000 -30.1460 0.0000 -92.8941
#
#
#
# Elastic Compliance Matrix: (Units=1/GPa)
#
#
# Indices 1 2 3 4 5 6 
#
# 1 0.013969 -0.002812 -0.002772 0.000000 0.000687 0.000000
# 2 -0.002812 0.006553 -0.002482 0.000000 -0.000779 0.000000
# 3 -0.002772 -0.002482 0.009740 0.000000 -0.001337 0.000000
# 4 0.000000 0.000000 0.000000 0.033806 0.000000 -0.010971
# 5 0.000687 -0.000779 -0.001337 0.000000 0.019599 0.000000
# 6 0.000000 0.000000 0.000000 -0.010971 0.000000 -0.007205
#
#
# Mechanical properties :
#
#
# Convention : Reuss Voigt Hill
#
# Bulk Modulus (GPa) = 70.77283 83.38137 77.07710
# Shear Modulus (GPa) = 51.38485 13.39646 32.39066
#
# Velocity S-wave (km/s) = 4.78646 2.44395 3.80020
# Velocity P-wave (km/s) = 7.88043 6.71861 7.32260
#
# Compressibility (1/GPa) = 0.01412972
#
# Stress axis : x y z
#
# Youngs Moduli (GPa) = 71.58584 152.59556 102.67157
#
# Poissons Ratio (x) = 0.42915 0.28465
# Poissons Ratio (y) = 0.20132 0.25478
# Poissons Ratio (z) = 0.19846 0.37867
#
# Static dielectric constant tensor:
#      x y z
#    x 1.772410 0.000000 0.068010 
#    y 0.000000 1.884110 0.000000 
#    z 0.068010 0.000000 1.831620 
# 
# From -- ./inp_files/11995.got.cif
#   From: 2010.05.17/outbox.cif.g08.bks.cpg/sg13_6_cif.got.tgz:11995.got - 2010.06.03 16:44:36.
