data_PCOD9238592
_publ_section_title
;
Structure prediction by ZEFSAII (Michael W. Deem and Ramdas Pophale) SiO2 
 PCOD9238592
Probable space group: P 2/C
;
_chemical_formula_sum "Si O2"
_cell_formula_units_Z 24
_cell_length_a 7.630519
_cell_length_b 7.450382
_cell_length_c 19.946311
_cell_angle_alpha 90.000000
_cell_angle_beta 122.188592
_cell_angle_gamma 90.000000
_cell_volume 959.663905
_symmetry_space_group_name_H-M "P 2/C"
_symmetry_group_IT_number 13
_symmetry_cell_setting 'monoclinic'
loop_
_space_group_symop_operation_xyz
x,y,z
-x,y,1/2-z
-x,-y,-z
x,-y,1/2+z
loop_
_atom_site_type_symbol
_atom_site_label
_atom_site_fract_x
_atom_site_fract_y
_atom_site_fract_z
Si Si1 0.810029 0.666520 0.442780
Si Si2 0.169778 0.832706 0.423065
Si Si3 0.388304 0.953502 0.591231
Si Si4 0.220043 0.224542 0.282495
Si Si5 0.039498 0.783103 0.611466
Si Si6 0.412323 0.467886 0.906959
O O1 0.618452 0.528170 0.400656
O O2 0.974996 0.730521 0.419894
O O3 0.929415 0.643565 0.538387
O O4 0.669048 0.841419 0.428025
O O5 0.359618 0.857353 0.514295
O O6 0.263783 0.707986 0.384000
O O7 0.101553 0.041394 0.397849
O O8 0.596723 0.914717 0.672863
O O9 0.203750 0.875445 0.596910
O O10 0.174263 0.299511 0.199066
O O11 0.267895 0.375989 0.347252
O O12 0.000000 0.134608 0.250000
O O13 0.500000 0.500000 0.000000
#
# Coordination Sequence:
#
# PCOD9238592 Si02
#       6
#     4   4   4   4   4   4
#     4   9  21  42  73  94 122 173 228 272 325 391
#     4   9  20  42  70 100 126 170 226 275 322 398
#     4   9  19  42  70  96 122 166 230 272 325 393
#     4  12  25  40  59  99 137 169 214 272 339 390
#     4   9  20  41  70  97 124 169 225 284 326 384
#     4  12  24  41  64  98 141 176 218 264 331 413
#
# _framework density 25.008755000000001
#
# number of rings (size 3 to 8) (size 9 to 14) (size 15 to 20)
#    0.000    2.000    1.667    3.500    2.333    2.000 
#    9.000    0.000    0.000    0.000    0.000    0.000 
#    0.000    0.000    0.000    0.000    0.000    0.000 
#
# Total GULP energy -133895.031401 kJ/mol
# GULP energy per Si atom -5578.959642 kJ/mol
# Density = 2.495183 g / cm^3
# Si number density = 25.008755 Si / 1000 Ang^3
#
#
#
# Elastic Constant Matrix: (Units=GPa)
#
#
# Indices 1 2 3 4 5 6 
#
# 1 97.6838 3.2464 6.0574 0.0000 19.1620 0.0000
# 2 3.2464 51.1634 0.6617 0.0000 10.2943 0.0000
# 3 6.0574 0.6617 112.5520 0.0000 12.3264 0.0000
# 4 0.0000 0.0000 0.0000 21.8747 0.0000 11.2940
# 5 19.1620 10.2943 12.3264 0.0000 43.5101 0.0000
# 6 0.0000 0.0000 0.0000 11.2940 0.0000 25.0309
#
#
#
# Elastic Compliance Matrix: (Units=1/GPa)
#
#
# Indices 1 2 3 4 5 6 
#
# 1 0.011210 0.000293 -0.000059 0.000000 -0.004990 0.000000
# 2 0.000293 0.020549 0.000423 0.000000 -0.005111 0.000000
# 3 -0.000059 0.000423 0.009178 0.000000 -0.002675 0.000000
# 4 0.000000 0.000000 0.000000 0.059599 0.000000 -0.026891
# 5 -0.004990 -0.005111 -0.002675 0.000000 0.027148 0.000000
# 6 0.000000 0.000000 0.000000 -0.026891 0.000000 0.052084
#
#
# Mechanical properties :
#
#
# Convention : Reuss Voigt Hill
#
# Bulk Modulus (GPa) = 23.66663 31.25892 27.46278
# Shear Modulus (GPa) = 25.96907 34.84538 30.40723
#
# Velocity S-wave (km/s) = 3.22592 3.73678 3.49071
# Velocity P-wave (km/s) = 4.83314 5.58071 5.22033
#
# Compressibility (1/GPa) = 0.04225358
#
# Stress axis : x y z
#
# Youngs Moduli (GPa) = 89.20781 48.66302 108.95202
#
# Poissons Ratio (x) = -0.01428 0.00638
# Poissons Ratio (y) = -0.02617 -0.04610
# Poissons Ratio (z) = 0.00522 -0.02059
#
# Static dielectric constant tensor:
#      x y z
#    x 2.080540 0.000000 -0.045690 
#    y 0.000000 2.052000 0.000000 
#    z -0.045690 0.000000 1.993340 
# 
# From -- ./inp_files/75745.got.cif
#   From: 2010.05.17/outbox.cif.g08.bks.cpg/sg13_38_cif.got.tgz:75745.got - 2010.06.03 16:44:36.
