data_PCOD9238939
_publ_section_title
;
Structure prediction by ZEFSAII (Michael W. Deem and Ramdas Pophale) SiO2 
 PCOD9238939
Probable space group: P 2/C
;
_chemical_formula_sum "Si O2"
_cell_formula_units_Z 24
_cell_length_a 9.000000
_cell_length_b 9.000000
_cell_length_c 21.000000
_cell_angle_alpha 90.000000
_cell_angle_beta 50.000000
_cell_angle_gamma 90.000000
_cell_volume 1303.041598
_symmetry_space_group_name_H-M "P 2/C"
_symmetry_group_IT_number 13
_symmetry_cell_setting 'monoclinic'
loop_
_space_group_symop_operation_xyz
x,y,z
-x,y,1/2-z
-x,-y,-z
x,-y,1/2+z
loop_
_atom_site_type_symbol
_atom_site_label
_atom_site_fract_x
_atom_site_fract_y
_atom_site_fract_z
Si Si1 0.105141 0.186011 0.524977
Si Si2 0.488141 0.627048 0.449802
Si Si3 0.176447 0.360486 0.305760
Si Si4 0.418048 0.616378 0.868831
Si Si5 0.061465 0.657125 0.164398
Si Si6 0.875817 0.839434 0.956905
O O1 0.298936 0.271971 0.447671
O O2 0.011382 0.262603 0.612314
O O3 0.960607 0.195515 0.504300
O O4 0.148434 0.016647 0.533259
O O5 0.500000 0.500000 0.500000
O O6 0.440500 0.540177 0.397904
O O7 0.707923 0.678568 0.392460
O O8 0.321796 0.750176 0.503484
O O9 0.361884 0.331960 0.208706
O O10 0.287072 0.401672 0.341512
O O11 0.036699 0.492577 0.317916
O O12 0.038328 0.222075 0.362644
O O13 0.000000 0.715570 0.250000
#
# Coordination Sequence:
#
# PCOD9238939 Si02
#       6
#     4   4   4   4   4   4
#     4  10  22  42  61  85 122 163 204 243 300 367
#     4  12  21  36  61  88 114 155 198 246 305 358
#     4  10  20  37  61  86 116 152 203 249 298 356
#     4  10  20  37  61  87 113 156 203 249 294 359
#     4  12  23  38  58  89 121 150 195 252 303 359
#     4  10  22  41  63  85 119 164 202 245 301 368
#
# _framework density 18.418444999999998
#
# number of rings (size 3 to 8) (size 9 to 14) (size 15 to 20)
#    0.000    1.333    5.000    1.000    0.000    3.333 
#    3.000    0.833    0.000    0.000    0.000    0.000 
#    0.000    0.000    0.000    0.000    0.000    0.000 
#
# Total GULP energy -133703.540042 kJ/mol
# GULP energy per Si atom -5570.980835 kJ/mol
# Density = 1.837652 g / cm^3
# Si number density = 18.418445 Si / 1000 Ang^3
#
#
#
# Elastic Constant Matrix: (Units=GPa)
#
#
# Indices 1 2 3 4 5 6 
#
# 1 59.5510 25.0384 17.1946 0.0000 -18.3382 0.0000
# 2 25.0384 62.7293 25.0574 0.0000 0.1537 0.0000
# 3 17.1946 25.0574 94.8202 0.0000 6.6229 0.0000
# 4 0.0000 0.0000 0.0000 8.7307 0.0000 2.0175
# 5 -18.3382 0.1537 6.6229 0.0000 31.6444 0.0000
# 6 0.0000 0.0000 0.0000 2.0175 0.0000 31.2343
#
#
#
# Elastic Compliance Matrix: (Units=1/GPa)
#
#
# Indices 1 2 3 4 5 6 
#
# 1 0.026733 -0.009302 -0.003526 0.000000 0.016276 0.000000
# 2 -0.009302 0.021085 -0.003554 0.000000 -0.004749 0.000000
# 3 -0.003526 -0.003554 0.012448 0.000000 -0.004632 0.000000
# 4 0.000000 0.000000 0.000000 0.116274 0.000000 -0.007510
# 5 0.016276 -0.004749 -0.004632 0.000000 0.042025 0.000000
# 6 0.000000 0.000000 0.000000 -0.007510 0.000000 0.032501
#
#
# Mechanical properties :
#
#
# Convention : Reuss Voigt Hill
#
# Bulk Modulus (GPa) = 36.35915 39.07570 37.71742
# Shear Modulus (GPa) = 17.06485 24.30922 20.68703
#
# Velocity S-wave (km/s) = 3.04716 3.63689 3.35501
# Velocity P-wave (km/s) = 5.67131 6.23679 5.96076
#
# Compressibility (1/GPa) = 0.02750340
#
# Stress axis : x y z
#
# Youngs Moduli (GPa) = 37.40633 47.42601 80.33188
#
# Poissons Ratio (x) = 0.44115 0.28329
# Poissons Ratio (y) = 0.34795 0.28547
# Poissons Ratio (z) = 0.13191 0.16853
#
# Static dielectric constant tensor:
#      x y z
#    x 1.633210 0.000000 0.038930 
#    y 0.000000 1.629490 0.000000 
#    z 0.038930 0.000000 1.529690 
# 
# From -- ./inp_files/46116.got.cif
#   From: 2010.05.17/outbox.ucp.g08.bks.cvg/sg13_24_cif.got.tgz:46116.got - 2010.06.11 12:23:55.
