data_PCOD9238377
_publ_section_title
;
Structure prediction by ZEFSAII (Michael W. Deem and Ramdas Pophale) SiO2 
 PCOD9238377
Probable space group: P 2/C
;
_chemical_formula_sum "Si O2"
_cell_formula_units_Z 20
_cell_length_a 9.547794
_cell_length_b 18.477503
_cell_length_c 5.056036
_cell_angle_alpha 90.000000
_cell_angle_beta 76.278165
_cell_angle_gamma 90.000000
_cell_volume 866.524532
_symmetry_space_group_name_H-M "P 2/C"
_symmetry_group_IT_number 13
_symmetry_cell_setting 'monoclinic'
loop_
_space_group_symop_operation_xyz
x,y,z
-x,y,1/2-z
-x,-y,-z
x,-y,1/2+z
loop_
_atom_site_type_symbol
_atom_site_label
_atom_site_fract_x
_atom_site_fract_y
_atom_site_fract_z
Si Si1 0.500000 0.332216 0.250000
Si Si2 0.500000 0.055340 0.250000
Si Si3 0.500000 0.231380 0.750000
Si Si4 0.000000 0.635902 0.750000
Si Si5 0.000000 0.049022 0.750000
Si Si6 0.000000 0.732236 0.250000
Si Si7 0.253166 0.155158 0.569649
Si Si8 0.268533 0.451983 0.296770
O O1 0.526149 0.281582 0.486979
O O2 0.366809 0.385548 0.339187
O O3 0.361640 0.110631 0.324531
O O4 0.500000 0.000000 0.500000
O O5 0.362064 0.184156 0.740557
O O6 0.111661 0.582638 0.843968
O O7 0.054158 0.685768 0.480072
O O8 0.858233 0.096115 0.785503
O O9 0.000000 0.000000 0.500000
O O10 0.862702 0.778826 0.428597
O O11 0.295347 0.515246 0.495066
#
# Coordination Sequence:
#
# PCOD9238377 Si02
#       8
#     2   2   2   2   2   2   4   4
#     4  12  25  43  66  97 137 180 230 284 346 414
#     4  12  26  44  70 102 138 178 226 282 340 406
#     4  12  25  43  68 101 137 180 230 290 346 412
#     4  12  24  44  68 100 136 180 234 292 348 414
#     4  11  26  47  72 101 138 181 228 282 342 413
#     4  11  26  45  70 101 140 185 234 290 352 419
#     4  11  26  46  72 103 140 183 232 286 349 416
#     4  12  24  42  67  97 135 181 230 286 346 413
#
# _framework density 23.08071
#
# number of rings (size 3 to 8) (size 9 to 14) (size 15 to 20)
#    0.000    0.400    0.000    8.400    0.000    9.600 
#    0.000    0.000    0.000    0.000    0.000    0.000 
#    0.000    0.000    0.000    0.000    0.000    0.000 
#
# Total GULP energy -111773.332301 kJ/mol
# GULP energy per Si atom -5588.666615 kJ/mol
# Density = 2.302818 g / cm^3
# Si number density = 23.080710 Si / 1000 Ang^3
#
#
#
# Elastic Constant Matrix: (Units=GPa)
#
#
# Indices 1 2 3 4 5 6 
#
# 1 114.7277 45.8026 -9.2399 0.0000 -12.6602 0.0000
# 2 45.8026 97.4201 38.9373 0.0000 12.3395 0.0000
# 3 -9.2399 38.9373 98.4404 0.0000 9.6915 0.0000
# 4 0.0000 0.0000 0.0000 7579.2654 0.0000-1234.9321
# 5 -12.6602 12.3395 9.6915 0.0000 28.9136 0.0000
# 6 0.0000 0.0000 0.0000-1234.9321 0.0000 219.2656
#
#
#
# Elastic Compliance Matrix: (Units=1/GPa)
#
#
# Indices 1 2 3 4 5 6 
#
# 1 0.013603 -0.009082 0.004034 0.000000 0.008480 0.000000
# 2 -0.009082 0.018653 -0.007296 0.000000 -0.009492 0.000000
# 3 0.004034 -0.007296 0.013384 0.000000 0.000394 0.000000
# 4 0.000000 0.000000 0.000000 0.001603 0.000000 0.009026
# 5 0.008480 -0.009492 0.000394 0.000000 0.042218 0.000000
# 6 0.000000 0.000000 0.000000 0.009026 0.000000 0.055398
#
#
# Mechanical properties :
#
#
# Convention : Reuss Voigt Hill
#
# Bulk Modulus (GPa) = 47.72694 51.28759 49.50727
# Shear Modulus (GPa) = 28.32386 1581.16146 804.74266
#
# Velocity S-wave (km/s) = 3.50689 26.20200 18.69282
# Velocity P-wave (km/s) = 6.09269 30.62127 22.07695
#
# Compressibility (1/GPa) = 0.02095253
#
# Stress axis : x y z
#
# Youngs Moduli (GPa) = 73.51488 53.61039 74.71486
#
# Poissons Ratio (x) = 0.48688 -0.30142
# Poissons Ratio (y) = 0.66765 0.54513
# Poissons Ratio (z) = -0.29657 0.39115
#
# Static dielectric constant tensor:
#      x y z
#    x 1.908460 0.000000 -0.029050 
#    y 0.000000 1.895930 0.000000 
#    z -0.029050 0.000000 1.830630 
# 
# From -- ./inp_files/1589.got.cif
#   From: 2010.05.17/outbox.cif.g08.bks.cpg/sg13_1_cif.got.tgz:1589.got - 2010.06.03 16:44:36.
