data_PCOD9238190
_publ_section_title
;
Structure prediction by ZEFSAII (Michael W. Deem and Ramdas Pophale) SiO2 
 PCOD9238190
Probable space group: P 2/C
;
_chemical_formula_sum "Si O2"
_cell_formula_units_Z 26
_cell_length_a 16.225595
_cell_length_b 12.571849
_cell_length_c 10.577003
_cell_angle_alpha 90.000000
_cell_angle_beta 32.035420
_cell_angle_gamma 90.000000
_cell_volume 1144.462281
_symmetry_space_group_name_H-M "P 2/C"
_symmetry_group_IT_number 13
_symmetry_cell_setting 'monoclinic'
loop_
_space_group_symop_operation_xyz
x,y,z
-x,y,1/2-z
-x,-y,-z
x,-y,1/2+z
loop_
_atom_site_type_symbol
_atom_site_label
_atom_site_fract_x
_atom_site_fract_y
_atom_site_fract_z
Si Si1 0.543079 0.421400 0.824934
Si Si2 0.918858 0.886641 0.485687
Si Si3 0.178607 0.713546 0.480692
Si Si4 0.899137 0.484188 0.508316
Si Si5 0.306747 0.308420 0.272089
Si Si6 0.500000 0.786754 0.750000
Si Si7 0.777791 0.103599 0.743729
O O1 0.500000 0.476487 0.750000
O O2 0.709589 0.363485 0.583294
O O3 0.500000 0.500000 0.000000
O O4 0.433539 0.321030 0.997573
O O5 0.817182 0.783770 0.589096
O O6 0.000000 0.923678 0.250000
O O7 0.059635 0.863089 0.399396
O O8 0.806648 0.979712 0.681315
O O9 0.180201 0.630456 0.360719
O O10 0.240376 0.827339 0.360193
O O11 0.000000 0.732081 0.750000
O O12 0.789345 0.581756 0.614382
O O13 0.000000 0.471650 0.250000
O O14 0.000000 0.500000 0.500000
O O15 0.405364 0.282922 0.269905
O O16 0.630519 0.861978 0.517063
#
# Coordination Sequence:
#
# PCOD9238190 Si02
#       7
#     4   4   4   4   4   2   4
#     4  12  29  48  69 108 152 197 246 303 378 449
#     4  11  24  47  73 107 143 197 256 312 384 458
#     4  11  25  45  69 101 144 191 247 297 373 442
#     4  11  26  41  71 108 143 192 244 301 363 454
#     4  12  26  46  76 106 152 191 253 310 385 451
#     4  12  26  46  74 114 144 200 250 320 388 458
#     4  11  25  47  73 103 147 194 251 317 380 455
#
# _framework density 22.718091999999999
#
# number of rings (size 3 to 8) (size 9 to 14) (size 15 to 20)
#    0.000    0.615    4.615    1.846    9.692    0.615 
#    1.385    0.000    0.000    0.000    0.000    0.000 
#    0.000    0.000    0.000    0.000    0.000    0.000 
#
# Total GULP energy -144916.397757 kJ/mol
# GULP energy per Si atom -5573.707606 kJ/mol
# Density = 2.266638 g / cm^3
# Si number density = 22.718092 Si / 1000 Ang^3
#
#
#
# Elastic Constant Matrix: (Units=GPa)
#
#
# Indices 1 2 3 4 5 6 
#
# 1 85.4220 23.4011 25.3599 0.0000 8.5316 0.0000
# 2 23.4011 105.2010 48.1329 0.0000 -8.7556 0.0000
# 3 25.3599 48.1329 137.2754 0.0000 -8.9391 0.0000
# 4 0.0000 0.0000 0.0000 42.7469 0.0000 -2.4744
# 5 8.5316 -8.7556 -8.9391 0.0000 28.3041 0.0000
# 6 0.0000 0.0000 0.0000 -2.4744 0.0000 20.0828
#
#
#
# Elastic Compliance Matrix: (Units=1/GPa)
#
#
# Indices 1 2 3 4 5 6 
#
# 1 0.013542 -0.002574 -0.001957 0.000000 -0.005496 0.000000
# 2 -0.002574 0.011959 -0.003498 0.000000 0.003371 0.000000
# 3 -0.001957 -0.003498 0.009026 0.000000 0.002358 0.000000
# 4 0.000000 0.000000 0.000000 0.023562 0.000000 0.002903
# 5 -0.005496 0.003371 0.002358 0.000000 0.038775 0.000000
# 6 0.000000 0.000000 0.000000 0.002903 0.000000 0.050152
#
#
# Mechanical properties :
#
#
# Convention : Reuss Voigt Hill
#
# Bulk Modulus (GPa) = 54.14658 57.96513 56.05585
# Shear Modulus (GPa) = 29.54551 33.62705 31.58628
#
# Velocity S-wave (km/s) = 3.61020 3.85150 3.73280
# Velocity P-wave (km/s) = 6.42370 6.73417 6.58076
#
# Compressibility (1/GPa) = 0.01846839
#
# Stress axis : x y z
#
# Youngs Moduli (GPa) = 73.84583 83.61662 110.78723
#
# Poissons Ratio (x) = 0.21526 0.21680
# Poissons Ratio (y) = 0.19010 0.38756
# Poissons Ratio (z) = 0.14451 0.29251
#
# Static dielectric constant tensor:
#      x y z
#    x 2.021300 0.000000 -0.116670 
#    y 0.000000 1.861310 0.000000 
#    z -0.116670 0.000000 1.918090 
# 
# From -- ./inp_files/39155.got.cif
#   From: 2010.05.17/outbox.cif.g08.bks.cpg/sg13_20_cif.got.tgz:39155.got - 2010.06.03 16:44:36.
