data_PCOD9238227
_publ_section_title
;
Structure prediction by ZEFSAII (Michael W. Deem and Ramdas Pophale) SiO2 
 PCOD9238227
Probable space group: P 2/C
;
_chemical_formula_sum "Si O2"
_cell_formula_units_Z 14
_cell_length_a 11.533250
_cell_length_b 8.722535
_cell_length_c 11.750505
_cell_angle_alpha 90.000000
_cell_angle_beta 24.979001
_cell_angle_gamma 90.000000
_cell_volume 499.180618
_symmetry_space_group_name_H-M "P 2/C"
_symmetry_group_IT_number 13
_symmetry_cell_setting 'monoclinic'
loop_
_space_group_symop_operation_xyz
x,y,z
-x,y,1/2-z
-x,-y,-z
x,-y,1/2+z
loop_
_atom_site_type_symbol
_atom_site_label
_atom_site_fract_x
_atom_site_fract_y
_atom_site_fract_z
Si Si1 0.528112 0.344512 0.544284
Si Si2 0.194644 0.886927 0.472236
Si Si3 0.246796 0.774367 0.883755
Si Si4 0.000000 0.486838 0.750000
O O1 0.500000 0.500000 0.500000
O O2 0.069139 0.629097 0.084354
O O3 0.655795 0.236210 0.333244
O O4 0.736218 0.409839 0.454875
O O5 0.500000 0.908629 0.250000
O O6 0.108327 0.058902 0.513822
O O7 0.261054 0.746714 0.327119
O O8 0.000000 0.852544 0.750000
O O9 0.500000 0.768678 0.750000
#
# Coordination Sequence:
#
# PCOD9238227 Si02
#       4
#     4   4   4   2
#     4  12  28  50  88 126 173 224 284 362 430 510
#     4  11  28  53  87 121 170 227 287 350 430 518
#     4  11  24  53  83 124 169 226 285 349 423 519
#     4  12  26  50  88 130 174 218 294 354 438 496
#
# _framework density 28.045960000000001
#
# number of rings (size 3 to 8) (size 9 to 14) (size 15 to 20)
#    0.000    0.571    4.286    1.714    6.000    2.286 
#    0.000    5.714    0.000    0.000    0.000    0.000 
#    0.000    0.000    0.000    0.000    0.000    0.000 
#
# Total GULP energy -78421.280401 kJ/mol
# GULP energy per Si atom -5601.520029 kJ/mol
# Density = 2.798213 g / cm^3
# Si number density = 28.045960 Si / 1000 Ang^3
#
#
#
# Elastic Constant Matrix: (Units=GPa)
#
#
# Indices 1 2 3 4 5 6 
#
# 1 130.0229 56.1249 60.5734 0.0000 22.9657 0.0000
# 2 56.1249 249.6181 100.0107 0.0000 32.9379 0.0000
# 3 60.5734 100.0107 223.9293 0.0000 53.2765 0.0000
# 4 0.0000 0.0000 0.0000 82.2877 0.0000 22.2500
# 5 22.9657 32.9379 53.2765 0.0000 65.8112 0.0000
# 6 0.0000 0.0000 0.0000 22.2500 0.0000 46.8998
#
#
#
# Elastic Compliance Matrix: (Units=1/GPa)
#
#
# Indices 1 2 3 4 5 6 
#
# 1 0.009215 -0.001251 -0.001632 0.000000 -0.001268 0.000000
# 2 -0.001251 0.005087 -0.001773 0.000000 -0.000674 0.000000
# 3 -0.001632 -0.001773 0.006629 0.000000 -0.003910 0.000000
# 4 0.000000 0.000000 0.000000 0.013941 0.000000 -0.006614
# 5 -0.001268 -0.000674 -0.003910 0.000000 0.019140 0.000000
# 6 0.000000 0.000000 0.000000 -0.006614 0.000000 0.024460
#
#
# Mechanical properties :
#
#
# Convention : Reuss Voigt Hill
#
# Bulk Modulus (GPa) = 86.06648 115.22092 100.64370
# Shear Modulus (GPa) = 54.55119 64.79050 59.67084
#
# Velocity S-wave (km/s) = 4.41507 4.81162 4.61761
# Velocity P-wave (km/s) = 7.53291 8.48770 8.02452
#
# Compressibility (1/GPa) = 0.01161893
#
# Stress axis : x y z
#
# Youngs Moduli (GPa) = 108.51509 196.59264 150.84426
#
# Poissons Ratio (x) = 0.24585 0.24625
# Poissons Ratio (y) = 0.13571 0.26747
# Poissons Ratio (z) = 0.17715 0.34859
#
# Static dielectric constant tensor:
#      x y z
#    x 0.871960 0.000000 -1.916940 
#    y 0.000000 2.263610 0.000000 
#    z -1.916940 0.000000 -0.250570 
# 
# From -- ./inp_files/52724.got.cif
#   From: 2010.05.17/outbox.cif.g08.bks.cpg/sg13_27_cif.got.tgz:52724.got - 2010.06.03 16:44:36.
