data_PCOD9238118
_publ_section_title
;
Structure prediction by ZEFSAII (Michael W. Deem and Ramdas Pophale) SiO2 
 PCOD9238118
Probable space group: P 2/C
;
_chemical_formula_sum "Si O2"
_cell_formula_units_Z 18
_cell_length_a 8.764978
_cell_length_b 9.498068
_cell_length_c 12.137519
_cell_angle_alpha 90.000000
_cell_angle_beta 126.577994
_cell_angle_gamma 90.000000
_cell_volume 811.440488
_symmetry_space_group_name_H-M "P 2/C"
_symmetry_group_IT_number 13
_symmetry_cell_setting 'monoclinic'
loop_
_space_group_symop_operation_xyz
x,y,z
-x,y,1/2-z
-x,-y,-z
x,-y,1/2+z
loop_
_atom_site_type_symbol
_atom_site_label
_atom_site_fract_x
_atom_site_fract_y
_atom_site_fract_z
Si Si1 0.099132 0.147954 0.677129
Si Si2 0.500000 0.257571 0.750000
Si Si3 0.117419 0.828296 0.638878
Si Si4 0.348026 0.497468 0.030975
Si Si5 0.500000 0.255536 0.250000
Si Si6 0.000000 0.413826 0.250000
O O1 0.325459 0.182199 0.745963
O O2 0.000000 0.196610 0.750000
O O3 0.986668 0.202630 0.520992
O O4 0.052454 0.980083 0.653079
O O5 0.615007 0.362192 0.881365
O O6 0.341774 0.844506 0.728703
O O7 0.098607 0.693755 0.708664
O O8 0.392718 0.360825 0.121674
O O9 0.500000 0.500000 0.000000
O O10 0.145720 0.499474 0.885562
#
# Coordination Sequence:
#
# PCOD9238118 Si02
#       6
#     4   2   4   4   2   2
#     4  11  25  44  73 105 141 187 232 287 362 416
#     4  11  25  46  66 106 141 177 240 290 336 435
#     4  11  24  45  68 105 139 178 235 293 351 420
#     4  11  25  43  68  99 136 185 232 282 356 406
#     4  11  25  44  68 100 137 179 230 292 342 417
#     4  12  22  46  70  96 144 178 226 302 338 420
#
# _framework density 22.182770999999999
#
# number of rings (size 3 to 8) (size 9 to 14) (size 15 to 20)
#    0.000    0.889    5.556    0.667    3.111    2.667 
#    0.000    4.444    0.000    0.000    0.000    0.000 
#    0.000    0.000    0.000    0.000    0.000    0.000 
#
# Total GULP energy -100372.709232 kJ/mol
# GULP energy per Si atom -5576.261624 kJ/mol
# Density = 2.213228 g / cm^3
# Si number density = 22.182771 Si / 1000 Ang^3
#
#
#
# Elastic Constant Matrix: (Units=GPa)
#
#
# Indices 1 2 3 4 5 6 
#
# 1 110.7290 -0.6965 36.6181 0.0000 -2.1507 0.0000
# 2 -0.6965 53.0535 35.0821 0.0000 -5.6479 0.0000
# 3 36.6181 35.0821 146.9207 0.0000 10.2543 0.0000
# 4 0.0000 0.0000 0.0000 11.4475 0.0000 -11.3880
# 5 -2.1507 -5.6479 10.2543 0.0000 44.3950 0.0000
# 6 0.0000 0.0000 0.0000 -11.3880 0.0000 76.7832
#
#
#
# Elastic Compliance Matrix: (Units=1/GPa)
#
#
# Indices 1 2 3 4 5 6 
#
# 1 0.010139 0.002422 -0.003213 0.000000 0.001541 0.000000
# 2 0.002422 0.023740 -0.006597 0.000000 0.004661 0.000000
# 3 -0.003213 -0.006597 0.009404 0.000000 -0.003167 0.000000
# 4 0.000000 0.000000 0.000000 0.102475 0.000000 0.015198
# 5 0.001541 0.004661 -0.003167 0.000000 0.023924 0.000000
# 6 0.000000 0.000000 0.000000 0.015198 0.000000 0.015278
#
#
# Mechanical properties :
#
#
# Convention : Reuss Voigt Hill
#
# Bulk Modulus (GPa) = 35.08209 50.30117 42.69163
# Shear Modulus (GPa) = 23.89630 42.50511 33.20071
#
# Velocity S-wave (km/s) = 3.28570 4.38211 3.87290
# Velocity P-wave (km/s) = 5.49944 6.95190 6.26788
#
# Compressibility (1/GPa) = 0.02850457
#
# Stress axis : x y z
#
# Youngs Moduli (GPa) = 98.63210 42.12381 106.34307
#
# Poissons Ratio (x) = -0.10201 0.34165
# Poissons Ratio (y) = -0.23885 0.70160
# Poissons Ratio (z) = 0.31688 0.27791
#
# Static dielectric constant tensor:
#      x y z
#    x 1.191160 0.000000 -0.104990 
#    y 0.000000 1.915460 0.000000 
#    z -0.104990 0.000000 1.788950 
# 
# From -- ./inp_files/28378.got.cif
#   From: 2010.05.17/outbox.cif.g08.bks.cpg/sg13_15_cif.got.tgz:28378.got - 2010.06.03 16:44:36.
