data_PCOD9238426
_publ_section_title
;
Structure prediction by ZEFSAII (Michael W. Deem and Ramdas Pophale) SiO2 
 PCOD9238426
Probable space group: P 2/C
;
_chemical_formula_sum "Si O2"
_cell_formula_units_Z 12
_cell_length_a 8.502941
_cell_length_b 4.827728
_cell_length_c 14.337106
_cell_angle_alpha 90.000000
_cell_angle_beta 51.790230
_cell_angle_gamma 90.000000
_cell_volume 462.443454
_symmetry_space_group_name_H-M "P 2/C"
_symmetry_group_IT_number 13
_symmetry_cell_setting 'monoclinic'
loop_
_space_group_symop_operation_xyz
x,y,z
-x,y,1/2-z
-x,-y,-z
x,-y,1/2+z
loop_
_atom_site_type_symbol
_atom_site_label
_atom_site_fract_x
_atom_site_fract_y
_atom_site_fract_z
Si Si1 0.693821 0.312934 0.905720
Si Si2 0.128834 0.218254 0.058152
Si Si3 0.282252 0.094548 0.808959
O O1 0.734157 0.023111 0.944596
O O2 0.697875 0.253886 0.795185
O O3 0.865296 0.510070 0.882642
O O4 0.500000 0.500000 0.000000
O O5 0.902937 0.112816 0.133379
O O6 0.220087 0.271844 0.922463
O O7 0.500000 0.964728 0.750000
#
# Coordination Sequence:
#
# PCOD9238426 Si02
#       3
#     4   4   4
#     4  12  26  52  79 115 159 211 263 327 397 469
#     4  11  28  52  77 118 159 208 265 322 403 468
#     4  11  26  51  81 117 156 212 259 334 386 478
#
# _framework density 25.949120000000001
#
# number of rings (size 3 to 8) (size 9 to 14) (size 15 to 20)
#    0.000    0.667    3.333    2.000    0.000   13.333 
#    0.000    0.000    0.000    0.000    0.000    0.000 
#    0.000    0.000    0.000    0.000    0.000    0.000 
#
# Total GULP energy -67346.452425 kJ/mol
# GULP energy per Si atom -5612.204369 kJ/mol
# Density = 2.589006 g / cm^3
# Si number density = 25.949120 Si / 1000 Ang^3
#
#
#
# Elastic Constant Matrix: (Units=GPa)
#
#
# Indices 1 2 3 4 5 6 
#
# 1 161.5928 43.3353 86.7972 0.0000 12.4329 0.0000
# 2 43.3353 126.4853 48.7983 0.0000 33.2414 0.0000
# 3 86.7972 48.7983 214.3915 0.0000 38.0644 0.0000
# 4 0.0000 0.0000 0.0000 17.6321 0.0000 5.1073
# 5 12.4329 33.2414 38.0644 0.0000 68.8381 0.0000
# 6 0.0000 0.0000 0.0000 5.1073 0.0000 30.6144
#
#
#
# Elastic Compliance Matrix: (Units=1/GPa)
#
#
# Indices 1 2 3 4 5 6 
#
# 1 0.008298 -0.001945 -0.003124 0.000000 0.001168 0.000000
# 2 -0.001945 0.009921 -0.000757 0.000000 -0.004021 0.000000
# 3 -0.003124 -0.000757 0.006583 0.000000 -0.002710 0.000000
# 4 0.000000 0.000000 0.000000 0.059594 0.000000 -0.009942
# 5 0.001168 -0.004021 -0.002710 0.000000 0.017756 0.000000
# 6 0.000000 0.000000 0.000000 -0.009942 0.000000 0.034323
#
#
# Mechanical properties :
#
#
# Convention : Reuss Voigt Hill
#
# Bulk Modulus (GPa) = 76.04414 95.59235 85.81825
# Shear Modulus (GPa) = 32.78459 44.98619 38.88539
#
# Velocity S-wave (km/s) = 3.55832 4.16821 3.87528
# Velocity P-wave (km/s) = 6.80080 7.75136 7.29159
#
# Compressibility (1/GPa) = 0.01315026
#
# Stress axis : x y z
#
# Youngs Moduli (GPa) = 120.50792 100.79511 151.91302
#
# Poissons Ratio (x) = 0.19601 0.47462
# Poissons Ratio (y) = 0.23434 0.11499
# Poissons Ratio (z) = 0.37650 0.07630
#
# Static dielectric constant tensor:
#      x y z
#    x 2.111800 0.000000 -0.052830 
#    y 0.000000 1.979200 0.000000 
#    z -0.052830 0.000000 2.021180 
# 
# From -- ./inp_files/44679.got.cif
#   From: 2010.05.17/outbox.cif.g08.bks.cpg/sg13_23_cif.got.tgz:44679.got - 2010.06.03 16:44:36.
