data_PCOD9238936
_publ_section_title
;
Structure prediction by ZEFSAII (Michael W. Deem and Ramdas Pophale) SiO2 
 PCOD9238936
Probable space group: P 2/C
;
_chemical_formula_sum "Si O2"
_cell_formula_units_Z 28
_cell_length_a 9.000000
_cell_length_b 12.000000
_cell_length_c 15.000000
_cell_angle_alpha 90.000000
_cell_angle_beta 120.000000
_cell_angle_gamma 90.000000
_cell_volume 1402.961154
_symmetry_space_group_name_H-M "P 2/C"
_symmetry_group_IT_number 13
_symmetry_cell_setting 'monoclinic'
loop_
_space_group_symop_operation_xyz
x,y,z
-x,y,1/2-z
-x,-y,-z
x,-y,1/2+z
loop_
_atom_site_type_symbol
_atom_site_label
_atom_site_fract_x
_atom_site_fract_y
_atom_site_fract_z
Si Si1 0.896381 0.336546 0.037078
Si Si2 0.083373 0.936034 0.176290
Si Si3 0.885726 0.132330 0.440098
Si Si4 0.482511 0.632438 0.009792
Si Si5 0.156629 0.491949 0.637565
Si Si6 0.800508 0.700671 0.221771
Si Si7 0.393691 0.317323 0.133190
O O1 0.963124 0.210789 0.055065
O O2 0.015214 0.420072 0.131591
O O3 0.695336 0.342745 0.994838
O O4 0.927578 0.397896 0.951411
O O5 0.193128 0.821251 0.225532
O O6 0.000000 0.959202 0.250000
O O7 0.169761 0.042646 0.152397
O O8 0.946447 0.913148 0.055019
O O9 0.742624 0.221450 0.420844
O O10 0.650818 0.690988 0.103279
O O11 0.500000 0.500000 0.000000
O O12 0.476225 0.676435 0.908191
O O13 0.239860 0.411635 0.734904
O O14 0.293484 0.566867 0.624594
O O15 0.000000 0.689071 0.250000
O O16 0.500000 0.288097 0.250000
#
# Coordination Sequence:
#
# PCOD9238936 Si02
#       7
#     4   4   4   4   4   4   4
#     4  10  21  37  62  90 126 162 203 252 309 383
#     4  10  21  40  67  92 117 164 219 272 314 372
#     4  10  22  43  65  88 123 167 217 262 320 376
#     4  12  23  37  61  97 134 164 206 261 321 399
#     4  10  20  37  60  88 126 163 197 246 314 382
#     4  11  22  37  64  94 125 164 210 260 324 380
#     4  11  23  39  60  88 127 168 201 254 315 380
#
# _framework density 19.957787
#
# number of rings (size 3 to 8) (size 9 to 14) (size 15 to 20)
#    0.000    1.429    2.857    3.429    2.000    1.143 
#    0.000    5.714    0.000    8.571    0.000    0.000 
#    0.000    0.000    0.000    0.000    0.000    0.000 
#
# Total GULP energy -155918.123632 kJ/mol
# GULP energy per Si atom -5568.504415 kJ/mol
# Density = 1.991236 g / cm^3
# Si number density = 19.957787 Si / 1000 Ang^3
#
#
#
# Elastic Constant Matrix: (Units=GPa)
#
#
# Indices 1 2 3 4 5 6 
#
# 1 69.9906 14.1832 14.8492 0.0000 1.9471 0.0000
# 2 14.1832 80.7460 -0.5304 0.0000 -18.8554 0.0000
# 3 14.8492 -0.5304 52.9299 0.0000 -24.4601 0.0000
# 4 0.0000 0.0000 0.0000 43.2240 0.0000 8.3910
# 5 1.9471 -18.8554 -24.4601 0.0000 22.8629 0.0000
# 6 0.0000 0.0000 0.0000 8.3910 0.0000 18.5092
#
#
#
# Elastic Compliance Matrix: (Units=1/GPa)
#
#
# Indices 1 2 3 4 5 6 
#
# 1 0.023729 -0.013939 -0.025798 0.000000 -0.041117 0.000000
# 2 -0.013939 0.028522 0.030885 0.000000 0.057752 0.000000
# 3 -0.025798 0.030885 0.077584 0.000000 0.110673 0.000000
# 4 0.000000 0.000000 0.000000 0.025368 0.000000 -0.011500
# 5 -0.041117 0.057752 0.110673 0.000000 0.213274 0.000000
# 6 0.000000 0.000000 0.000000 -0.011500 0.000000 0.059241
#
#
# Mechanical properties :
#
#
# Convention : Reuss Voigt Hill
#
# Bulk Modulus (GPa) = 8.91809 28.96340 18.94074
# Shear Modulus (GPa) = 10.35627 28.59687 19.47657
#
# Velocity S-wave (km/s) = 2.28043 3.78943 3.12731
# Velocity P-wave (km/s) = 3.37816 5.80433 4.74880
#
# Compressibility (1/GPa) = 0.11213161
#
# Stress axis : x y z
#
# Youngs Moduli (GPa) = 42.14176 35.06090 12.88921
#
# Poissons Ratio (x) = 0.48871 0.33251
# Poissons Ratio (y) = 0.58741 -0.39808
# Poissons Ratio (z) = 1.08717 -1.08285
#
# Static dielectric constant tensor:
#      x y z
#    x 1.741220 0.000000 0.029390 
#    y 0.000000 1.777520 0.000000 
#    z 0.029390 0.000000 1.835570 
# 
# From -- ./inp_files/47138.got.cif
#   From: 2010.05.17/outbox.ucp.g08.bks.cvg/sg13_24_cif.got.tgz:47138.got - 2010.06.11 12:23:55.
