data_PCOD9238846
_publ_section_title
;
Structure prediction by ZEFSAII (Michael W. Deem and Ramdas Pophale) SiO2 
 PCOD9238846
Probable space group: P 2/C
;
_chemical_formula_sum "Si O2"
_cell_formula_units_Z 24
_cell_length_a 12.055827
_cell_length_b 7.256783
_cell_length_c 13.422131
_cell_angle_alpha 90.000000
_cell_angle_beta 135.914012
_cell_angle_gamma 90.000000
_cell_volume 816.973206
_symmetry_space_group_name_H-M "P 2/C"
_symmetry_group_IT_number 13
_symmetry_cell_setting 'monoclinic'
loop_
_space_group_symop_operation_xyz
x,y,z
-x,y,1/2-z
-x,-y,-z
x,-y,1/2+z
loop_
_atom_site_type_symbol
_atom_site_label
_atom_site_fract_x
_atom_site_fract_y
_atom_site_fract_z
Si Si1 0.794317 0.010948 0.268936
Si Si2 0.145025 0.583767 0.216675
Si Si3 0.467773 0.465689 0.863170
Si Si4 0.202062 0.501206 0.983518
Si Si5 0.858981 0.920976 0.534816
Si Si6 0.532913 0.973581 0.385767
O O1 0.806224 0.795885 0.250703
O O2 0.833353 0.022339 0.412985
O O3 0.608158 0.070205 0.141138
O O4 0.952986 0.093037 0.321682
O O5 0.278882 0.488625 0.232522
O O6 0.166897 0.502548 0.341174
O O7 0.957082 0.586889 0.073162
O O8 0.496006 0.246358 0.865434
O O9 0.500000 0.500000 0.000000
O O10 0.613177 0.560956 0.897297
O O11 0.194155 0.711600 0.013091
O O12 0.723420 0.002526 0.521509
O O13 0.500000 0.025742 0.250000
#
# Coordination Sequence:
#
# PCOD9238846 Si02
#       6
#     4   4   4   4   4   4
#     4   9  17  30  49  72  97 125 157 194 236 282
#     4   9  17  30  47  69  94 124 159 195 236 280
#     4   8  14  26  45  64  88 121 157 193 230 278
#     4   9  17  30  47  69  94 124 159 195 236 280
#     4   9  17  30  49  72  97 125 157 194 236 282
#     4   8  14  26  45  68  94 123 153 187 232 282
#
# _framework density 29.376729000000001
#
# number of rings (size 3 to 8) (size 9 to 14) (size 15 to 20)
#    0.000    3.333    0.000    0.000    0.000    0.667 
#    0.000    5.000    0.000    0.000    0.000   35.000 
#    0.000    0.000    0.000    0.000    0.000    0.000 
#
# Total GULP energy -134242.854639 kJ/mol
# GULP energy per Si atom -5593.452277 kJ/mol
# Density = 2.930987 g / cm^3
# Si number density = 29.376729 Si / 1000 Ang^3
#
#
#
# Elastic Constant Matrix: (Units=GPa)
#
#
# Indices 1 2 3 4 5 6 
#
# 1 292.7722 27.7321 95.1680 0.0000 84.6274 0.0000
# 2 27.7321 65.7283 22.0824 0.0000 -2.1722 0.0000
# 3 95.1680 22.0824 210.3791 0.0000 78.1359 0.0000
# 4 0.0000 0.0000 0.0000 0.1330 0.0000 7.6151
# 5 84.6274 -2.1722 78.1359 0.0000 86.9437 0.0000
# 6 0.0000 0.0000 0.0000 7.6151 0.0000 27.5146
#
#
#
# Elastic Compliance Matrix: (Units=1/GPa)
#
#
# Indices 1 2 3 4 5 6 
#
# 1 0.005094 -0.002199 -0.000318 0.000000 -0.004727 0.000000
# 2 -0.002199 0.017195 -0.002649 0.000000 0.004950 0.000000
# 3 -0.000318 -0.002649 0.007632 0.000000 -0.006616 0.000000
# 4 0.000000 0.000000 0.000000 -0.506431 0.000000 0.140162
# 5 -0.004727 0.004950 -0.006616 0.000000 0.022173 0.000000
# 6 0.000000 0.000000 0.000000 0.140162 0.000000 -0.002447
#
#
# Mechanical properties :
#
#
# Convention : Reuss Voigt Hill
#
# Bulk Modulus (GPa) = 51.04365 95.42718 73.23542
# Shear Modulus (GPa) = -11.36561 51.17807 19.90623
#
# Velocity S-wave (km/s) = -1.96909 4.17841 2.60594
# Velocity P-wave (km/s) = 3.49907 7.47217 5.83424
#
# Compressibility (1/GPa) = 0.01959107
#
# Stress axis : x y z
#
# Youngs Moduli (GPa) = 196.32456 58.15546 131.02203
#
# Poissons Ratio (x) = 0.12786 0.04161
# Poissons Ratio (y) = 0.43164 0.34706
# Poissons Ratio (z) = 0.06235 0.15404
#
# Static dielectric constant tensor:
#      x y z
#    x 2.325450 0.000000 0.046450 
#    y 0.000000 2.233290 0.000000 
#    z 0.046450 0.000000 2.397200 
# 
# From -- ./inp_files/66114.got.cif
#   From: 2010.05.17/outbox.cif.g08.bks.cpg/sg13_34_cif.got.tgz:66114.got - 2010.06.03 16:44:36.
