data_PCOD9238720
_publ_section_title
;
Structure prediction by ZEFSAII (Michael W. Deem and Ramdas Pophale) SiO2 
 PCOD9238720
Probable space group: P 2/C
;
_chemical_formula_sum "Si O2"
_cell_formula_units_Z 18
_cell_length_a 5.162588
_cell_length_b 8.375223
_cell_length_c 17.548724
_cell_angle_alpha 90.000000
_cell_angle_beta 80.593906
_cell_angle_gamma 90.000000
_cell_volume 748.566862
_symmetry_space_group_name_H-M "P 2/C"
_symmetry_group_IT_number 13
_symmetry_cell_setting 'monoclinic'
loop_
_space_group_symop_operation_xyz
x,y,z
-x,y,1/2-z
-x,-y,-z
x,-y,1/2+z
loop_
_atom_site_type_symbol
_atom_site_label
_atom_site_fract_x
_atom_site_fract_y
_atom_site_fract_z
Si Si1 0.773885 0.957368 0.452335
Si Si2 0.694718 0.349097 0.867299
Si Si3 0.090882 0.148781 0.327939
Si Si4 0.144445 0.532897 0.911495
Si Si5 0.500000 0.888971 0.250000
O O1 0.762424 0.773769 0.431346
O O2 0.500000 0.000000 0.500000
O O3 0.000000 0.000000 0.500000
O O4 0.837850 0.064553 0.376346
O O5 0.422496 0.441733 0.895539
O O6 0.942444 0.465222 0.857466
O O7 0.654633 0.232865 0.797566
O O8 0.185459 0.284754 0.381881
O O9 0.300809 0.006294 0.304249
O O10 0.000000 0.212023 0.250000
O O11 0.000000 0.500000 0.000000
#
# Coordination Sequence:
#
# PCOD9238720 Si02
#       5
#     4   4   4   4   2
#     4  12  25  48  79 112 153 208 261 324 391 476
#     4  12  27  48  77 112 155 203 263 322 395 476
#     4  12  28  49  78 116 161 208 273 331 404 475
#     4  12  29  50  78 115 162 209 263 331 412 482
#     4  12  28  50  78 118 158 212 272 332 398 474
#
# _framework density 24.045949
#
# number of rings (size 3 to 8) (size 9 to 14) (size 15 to 20)
#    0.000    0.000    2.222    7.333    6.222    0.000 
#    0.000    0.000    0.000    0.000    0.000    0.000 
#    0.000    0.000    0.000    0.000    0.000    0.000 
#
# Total GULP energy -100873.109466 kJ/mol
# GULP energy per Si atom -5604.061637 kJ/mol
# Density = 2.399122 g / cm^3
# Si number density = 24.045949 Si / 1000 Ang^3
#
#
#
# Elastic Constant Matrix: (Units=GPa)
#
#
# Indices 1 2 3 4 5 6 
#
# 1 169.7925 64.5375 46.6377 0.0000 -0.8871 0.0000
# 2 64.5375 155.3124 58.8131 0.0000 -6.8435 0.0000
# 3 46.6377 58.8131 117.5027 0.0000 1.5216 0.0000
# 4 0.0000 0.0000 0.0000 44.2859 0.0000 8.5092
# 5 -0.8871 -6.8435 1.5216 0.0000 49.1111 0.0000
# 6 0.0000 0.0000 0.0000 8.5092 0.0000 61.5425
#
#
#
# Elastic Compliance Matrix: (Units=1/GPa)
#
#
# Indices 1 2 3 4 5 6 
#
# 1 0.007258 -0.002384 -0.001685 0.000000 -0.000149 0.000000
# 2 -0.002384 0.008803 -0.003476 0.000000 0.001291 0.000000
# 3 -0.001685 -0.003476 0.010930 0.000000 -0.000854 0.000000
# 4 0.000000 0.000000 0.000000 0.023197 0.000000 -0.003207
# 5 -0.000149 0.001291 -0.000854 0.000000 0.020566 0.000000
# 6 0.000000 0.000000 0.000000 -0.003207 0.000000 0.016692
#
#
# Mechanical properties :
#
#
# Convention : Reuss Voigt Hill
#
# Bulk Modulus (GPa) = 84.04059 86.95382 85.49721
# Shear Modulus (GPa) = 46.94640 49.16250 48.05445
#
# Velocity S-wave (km/s) = 4.42335 4.52655 4.47524
# Velocity P-wave (km/s) = 7.81754 7.97242 7.89536
#
# Compressibility (1/GPa) = 0.01189901
#
# Stress axis : x y z
#
# Youngs Moduli (GPa) = 137.77988 113.60171 91.48749
#
# Poissons Ratio (x) = 0.27086 0.15420
# Poissons Ratio (y) = 0.32850 0.31804
# Poissons Ratio (z) = 0.23222 0.39492
#
# Static dielectric constant tensor:
#      x y z
#    x 1.890980 0.000000 0.061390 
#    y 0.000000 1.994630 0.000000 
#    z 0.061390 0.000000 2.001840 
# 
# From -- ./inp_files/60216.got.cif
#   From: 2010.05.17/outbox.cif.g08.bks.cpg/sg13_31_cif.got.tgz:60216.got - 2010.06.03 16:44:36.
