data_PCOD9238503
_publ_section_title
;
Structure prediction by ZEFSAII (Michael W. Deem and Ramdas Pophale) SiO2 
 PCOD9238503
Probable space group: P 2/C
;
_chemical_formula_sum "Si O2"
_cell_formula_units_Z 20
_cell_length_a 7.702693
_cell_length_b 8.621598
_cell_length_c 16.952889
_cell_angle_alpha 90.000000
_cell_angle_beta 114.898771
_cell_angle_gamma 90.000000
_cell_volume 1021.190491
_symmetry_space_group_name_H-M "P 2/C"
_symmetry_group_IT_number 13
_symmetry_cell_setting 'monoclinic'
loop_
_space_group_symop_operation_xyz
x,y,z
-x,y,1/2-z
-x,-y,-z
x,-y,1/2+z
loop_
_atom_site_type_symbol
_atom_site_label
_atom_site_fract_x
_atom_site_fract_y
_atom_site_fract_z
Si Si1 0.382310 0.302228 0.147553
Si Si2 0.982626 0.834739 0.538862
Si Si3 0.731290 0.660147 0.374033
Si Si4 0.372083 0.151437 0.791386
Si Si5 0.638524 0.095229 0.085560
O O1 0.500000 0.295917 0.250000
O O2 0.314526 0.480451 0.126762
O O3 0.514226 0.228701 0.104224
O O4 0.187422 0.205463 0.112683
O O5 0.911115 0.713654 0.459026
O O6 0.818713 0.840551 0.573021
O O7 0.000000 0.000000 0.500000
O O8 0.746030 0.728701 0.286619
O O9 0.537696 0.748370 0.366056
O O10 0.500000 0.061303 0.750000
O O11 0.287515 0.029040 0.834828
O O12 0.500000 0.000000 0.000000
#
# Coordination Sequence:
#
# PCOD9238503 Si02
#       5
#     4   4   4   4   4
#     4  12  25  44  70  95 139 174 217 287 335 393
#     4  12  25  43  69 102 130 178 231 268 333 408
#     4   9  20  43  67  94 135 177 215 276 339 389
#     4   8  17  39  68  91 127 172 217 259 333 385
#     4  12  22  41  69 101 129 177 225 271 333 401
#
# _framework density 19.584985
#
# number of rings (size 3 to 8) (size 9 to 14) (size 15 to 20)
#    1.200    0.000    6.000    1.200    2.800    1.600 
#    0.000    0.000    4.400    0.000    0.000    0.000 
#    0.000    0.000    0.000    0.000    0.000    0.000 
#
# Total GULP energy -111473.265341 kJ/mol
# GULP energy per Si atom -5573.663267 kJ/mol
# Density = 1.954041 g / cm^3
# Si number density = 19.584985 Si / 1000 Ang^3
#
#
#
# Elastic Constant Matrix: (Units=GPa)
#
#
# Indices 1 2 3 4 5 6 
#
# 1 105.1447 35.7612 52.5971 0.0000 6.9256 0.0000
# 2 35.7612 131.8758 56.2190 0.0000 -0.2770 0.0000
# 3 52.5971 56.2190 115.4555 0.0000 12.3238 0.0000
# 4 0.0000 0.0000 0.0000 36.0782 0.0000 7.4465
# 5 6.9256 -0.2770 12.3238 0.0000 30.8428 0.0000
# 6 0.0000 0.0000 0.0000 7.4465 0.0000 8.3003
#
#
#
# Elastic Compliance Matrix: (Units=1/GPa)
#
#
# Indices 1 2 3 4 5 6 
#
# 1 0.012489 -0.001262 -0.004987 0.000000 -0.000823 0.000000
# 2 -0.001262 0.009821 -0.004436 0.000000 0.002144 0.000000
# 3 -0.004987 -0.004436 0.013556 0.000000 -0.004337 0.000000
# 4 0.000000 0.000000 0.000000 0.034016 0.000000 -0.030517
# 5 -0.000823 0.002144 -0.004337 0.000000 0.034359 0.000000
# 6 0.000000 0.000000 0.000000 -0.030517 0.000000 0.147855
#
#
# Mechanical properties :
#
#
# Convention : Reuss Voigt Hill
#
# Bulk Modulus (GPa) = 68.98737 71.29229 70.13983
# Shear Modulus (GPa) = 17.96631 28.90418 23.43524
#
# Velocity S-wave (km/s) = 3.03207 3.84583 3.46293
# Velocity P-wave (km/s) = 6.89630 7.49673 7.20278
#
# Compressibility (1/GPa) = 0.01449541
#
# Stress axis : x y z
#
# Youngs Moduli (GPa) = 80.07106 101.82559 73.76821
#
# Poissons Ratio (x) = 0.12855 0.36787
# Poissons Ratio (y) = 0.10109 0.32722
# Poissons Ratio (z) = 0.39930 0.45167
#
# Static dielectric constant tensor:
#      x y z
#    x 1.664050 0.000000 -0.012930 
#    y 0.000000 1.727390 0.000000 
#    z -0.012930 0.000000 1.719610 
# 
# From -- ./inp_files/75077.got.cif
#   From: 2010.05.17/outbox.cif.g08.bks.cpg/sg13_38_cif.got.tgz:75077.got - 2010.06.03 16:44:36.
