data_PCOD9238325
_publ_section_title
;
Structure prediction by ZEFSAII (Michael W. Deem and Ramdas Pophale) SiO2 
 PCOD9238325
Probable space group: P 2/C
;
_chemical_formula_sum "Si O2"
_cell_formula_units_Z 12
_cell_length_a 12.104729
_cell_length_b 4.810941
_cell_length_c 7.966967
_cell_angle_alpha 90.000000
_cell_angle_beta 63.203012
_cell_angle_gamma 90.000000
_cell_volume 414.132805
_symmetry_space_group_name_H-M "P 2/C"
_symmetry_group_IT_number 13
_symmetry_cell_setting 'monoclinic'
loop_
_space_group_symop_operation_xyz
x,y,z
-x,y,1/2-z
-x,-y,-z
x,-y,1/2+z
loop_
_atom_site_type_symbol
_atom_site_label
_atom_site_fract_x
_atom_site_fract_y
_atom_site_fract_z
Si Si1 0.595175 0.842714 0.817407
Si Si2 0.906538 0.748019 0.594043
Si Si3 0.742034 0.326791 0.510609
O O1 0.500000 0.710289 0.750000
O O2 0.792480 0.612887 0.557810
O O3 0.649967 0.631528 0.918246
O O4 0.500000 0.000000 0.000000
O O5 0.146057 0.790032 0.682403
O O6 0.684905 0.092730 0.675609
O O7 0.000000 0.000000 0.500000
O O8 0.000000 0.500000 0.500000
#
# Coordination Sequence:
#
# PCOD9238325 Si02
#       3
#     4   4   4
#     4   9  21  48  84 126 169 221 287 355 430 516
#     4  12  29  51  80 123 171 230 292 354 430 521
#     4  11  25  47  83 123 173 229 286 359 435 515
#
# _framework density 28.976213999999999
#
# number of rings (size 3 to 8) (size 9 to 14) (size 15 to 20)
#    0.000    1.333    0.000    3.000    0.000   18.667 
#    0.000   21.667    0.000    0.000    0.000    0.000 
#    0.000    0.000    0.000    0.667    0.000    0.000 
#
# Total GULP energy -66844.342176 kJ/mol
# GULP energy per Si atom -5570.361848 kJ/mol
# Density = 2.891026 g / cm^3
# Si number density = 28.976214 Si / 1000 Ang^3
#
#
#
# Elastic Constant Matrix: (Units=GPa)
#
#
# Indices 1 2 3 4 5 6 
#
# 1 204.5739 109.3841 61.0862 0.0000 62.3185 0.0000
# 2 109.3841 253.7395 117.9424 0.0000 -4.6856 0.0000
# 3 61.0862 117.9424 271.3190 0.0000 -34.4803 0.0000
# 4 0.0000 0.0000 0.0000 73.8741 0.0000 -2.8243
# 5 62.3185 -4.6856 -34.4803 0.0000 74.3238 0.0000
# 6 0.0000 0.0000 0.0000 -2.8243 0.0000 53.3088
#
#
#
# Elastic Compliance Matrix: (Units=1/GPa)
#
#
# Indices 1 2 3 4 5 6 
#
# 1 0.010589 -0.003821 -0.002000 0.000000 -0.010047 0.000000
# 2 -0.003821 0.006355 -0.001535 0.000000 0.002892 0.000000
# 3 -0.002000 -0.001535 0.005317 0.000000 0.004047 0.000000
# 4 0.000000 0.000000 0.000000 0.013564 0.000000 0.000719
# 5 -0.010047 0.002892 0.004047 0.000000 0.023939 0.000000
# 6 0.000000 0.000000 0.000000 0.000719 0.000000 0.018797
#
#
# Mechanical properties :
#
#
# Convention : Reuss Voigt Hill
#
# Bulk Modulus (GPa) = 132.44262 145.16197 138.80229
# Shear Modulus (GPa) = 52.19825 69.71598 60.95712
#
# Velocity S-wave (km/s) = 4.24892 4.91039 4.59158
# Velocity P-wave (km/s) = 8.35928 9.07496 8.72447
#
# Compressibility (1/GPa) = 0.00755044
#
# Stress axis : x y z
#
# Youngs Moduli (GPa) = 94.43774 157.36000 188.05951
#
# Poissons Ratio (x) = 0.60122 0.37613
# Poissons Ratio (y) = 0.36081 0.28862
# Poissons Ratio (z) = 0.18888 0.24150
#
# Static dielectric constant tensor:
#      x y z
#    x 2.791590 0.000000 -0.236880 
#    y 0.000000 2.551140 0.000000 
#    z -0.236880 0.000000 2.440830 
# 
# From -- ./inp_files/27099.got.cif
#   From: 2010.05.17/outbox.cif.g08.bks.cpg/sg13_14_cif.got.tgz:27099.got - 2010.06.03 16:44:36.
