data_PCOD9238471
_publ_section_title
;
Structure prediction by ZEFSAII (Michael W. Deem and Ramdas Pophale) SiO2 
 PCOD9238471
Probable space group: P 2/C
;
_chemical_formula_sum "Si O2"
_cell_formula_units_Z 20
_cell_length_a 8.975545
_cell_length_b 5.485914
_cell_length_c 18.222034
_cell_angle_alpha 90.000000
_cell_angle_beta 60.868076
_cell_angle_gamma 90.000000
_cell_volume 783.736618
_symmetry_space_group_name_H-M "P 2/C"
_symmetry_group_IT_number 13
_symmetry_cell_setting 'monoclinic'
loop_
_space_group_symop_operation_xyz
x,y,z
-x,y,1/2-z
-x,-y,-z
x,-y,1/2+z
loop_
_atom_site_type_symbol
_atom_site_label
_atom_site_fract_x
_atom_site_fract_y
_atom_site_fract_z
Si Si1 0.827585 0.099228 0.835443
Si Si2 0.018759 0.791225 0.583942
Si Si3 0.270217 0.393567 0.119641
Si Si4 0.344557 0.315755 0.939478
Si Si5 0.619217 0.182124 0.150648
O O1 0.709947 0.334718 0.857908
O O2 0.000000 0.131320 0.750000
O O3 0.888215 0.033621 0.904325
O O4 0.736643 0.848865 0.830457
O O5 0.820579 0.813310 0.622408
O O6 0.072883 0.602488 0.635294
O O7 0.134910 0.708566 0.487692
O O8 0.370811 0.324056 0.021240
O O9 0.404236 0.572166 0.891882
O O10 0.404773 0.071820 0.886042
O O11 0.500000 0.195046 0.250000
#
# Coordination Sequence:
#
# PCOD9238471 Si02
#       5
#     4   4   4   4   4
#     4   9  16  29  47  76  97 113 155 213 242 261
#     4   8  21  30  52  70  98 128 165 183 243 285
#     4   8  18  28  50  69  93 124 161 184 241 284
#     4   9  20  34  48  67  99 134 159 192 231 290
#     4  12  21  31  48  74 101 129 158 196 236 280
#
# _framework density 25.518775000000002
#
# number of rings (size 3 to 8) (size 9 to 14) (size 15 to 20)
#    2.400    0.000    0.000    4.800    2.800    0.000 
#    0.000    0.000    0.000    0.000    0.000   19.600 
#    0.000    0.000    0.000    0.000    0.000    0.000 
#
# Total GULP energy -111585.837054 kJ/mol
# GULP energy per Si atom -5579.291853 kJ/mol
# Density = 2.546069 g / cm^3
# Si number density = 25.518775 Si / 1000 Ang^3
#
#
#
# Elastic Constant Matrix: (Units=GPa)
#
#
# Indices 1 2 3 4 5 6 
#
# 1 71.0083 36.4222 11.4559 0.0000 -13.7443 0.0000
# 2 36.4222 230.9564 88.5354 0.0000 -0.2294 0.0000
# 3 11.4559 88.5354 157.9795 0.0000 -7.4175 0.0000
# 4 0.0000 0.0000 0.0000 46.6946 0.0000 -5.2083
# 5 -13.7443 -0.2294 -7.4175 0.0000 26.5637 0.0000
# 6 0.0000 0.0000 0.0000 -5.2083 0.0000 37.1098
#
#
#
# Elastic Compliance Matrix: (Units=1/GPa)
#
#
# Indices 1 2 3 4 5 6 
#
# 1 0.017281 -0.003058 0.000891 0.000000 0.009164 0.000000
# 2 -0.003058 0.006073 -0.003297 0.000000 -0.002450 0.000000
# 3 0.000891 -0.003297 0.008241 0.000000 0.002734 0.000000
# 4 0.000000 0.000000 0.000000 0.021756 0.000000 0.003053
# 5 0.009164 -0.002450 0.002734 0.000000 0.043129 0.000000
# 6 0.000000 0.000000 0.000000 0.003053 0.000000 0.027376
#
#
# Mechanical properties :
#
#
# Convention : Reuss Voigt Hill
#
# Bulk Modulus (GPa) = 48.38349 81.41901 64.90125
# Shear Modulus (GPa) = 35.29217 43.64233 39.46725
#
# Velocity S-wave (km/s) = 3.72289 4.13995 3.93695
# Velocity P-wave (km/s) = 6.12217 7.40453 6.79367
#
# Compressibility (1/GPa) = 0.02066821
#
# Stress axis : x y z
#
# Youngs Moduli (GPa) = 57.86618 164.65046 121.33801
#
# Poissons Ratio (x) = 0.50344 -0.10807
# Poissons Ratio (y) = 0.17693 0.40006
# Poissons Ratio (z) = -0.05154 0.54286
#
# Static dielectric constant tensor:
#      x y z
#    x 2.245050 0.000000 -0.065470 
#    y 0.000000 2.064080 0.000000 
#    z -0.065470 0.000000 1.975110 
# 
# From -- ./inp_files/86945.got.cif
#   From: 2010.05.17/outbox.cif.g08.bks.cpg/sg13_44_cif.got.tgz:86945.got - 2010.06.03 16:44:36.
