data_PCOD9238571
_publ_section_title
;
Structure prediction by ZEFSAII (Michael W. Deem and Ramdas Pophale) SiO2 
 PCOD9238571
Probable space group: P 2/C
;
_chemical_formula_sum "Si O2"
_cell_formula_units_Z 12
_cell_length_a 8.163466
_cell_length_b 7.153419
_cell_length_c 18.917664
_cell_angle_alpha 90.000000
_cell_angle_beta 150.467869
_cell_angle_gamma 90.000000
_cell_volume 544.533713
_symmetry_space_group_name_H-M "P 2/C"
_symmetry_group_IT_number 13
_symmetry_cell_setting 'monoclinic'
loop_
_space_group_symop_operation_xyz
x,y,z
-x,y,1/2-z
-x,-y,-z
x,-y,1/2+z
loop_
_atom_site_type_symbol
_atom_site_label
_atom_site_fract_x
_atom_site_fract_y
_atom_site_fract_z
Si Si1 0.299667 0.781332 0.307999
Si Si2 0.133040 0.950056 0.472088
Si Si3 0.635459 0.413577 0.376515
O O1 0.407465 0.580781 0.319001
O O2 0.000000 0.765418 0.250000
O O3 0.165860 0.907816 0.193133
O O4 0.621160 0.886331 0.459880
O O5 0.330443 0.755571 0.556158
O O6 0.000000 0.000000 0.500000
O O7 0.500000 0.346215 0.250000
O O8 0.000000 0.500000 0.500000
#
# Coordination Sequence:
#
# PCOD9238571 Si02
#       3
#     4   4   4
#     4  12  27  44  66 104 138 173 223 285 342 386
#     4  12  24  45  73  95 134 181 229 273 327 411
#     4  12  23  44  70  98 131 177 232 271 327 409
#
# _framework density 22.037203999999999
#
# number of rings (size 3 to 8) (size 9 to 14) (size 15 to 20)
#    0.000    0.000    6.667    4.000    0.000    2.667 
#    0.000    0.000    0.000    0.000    0.000    0.000 
#    0.000    0.000    0.000    0.000    0.000    0.000 
#
# Total GULP energy -67247.847501 kJ/mol
# GULP energy per Si atom -5603.987292 kJ/mol
# Density = 2.198705 g / cm^3
# Si number density = 22.037204 Si / 1000 Ang^3
#
#
#
# Elastic Constant Matrix: (Units=GPa)
#
#
# Indices 1 2 3 4 5 6 
#
# 1 105.3007 9.4297 -1.9826 0.0000 29.8786 0.0000
# 2 9.4297 84.9840 -1.6020 0.0000 9.4451 0.0000
# 3 -1.9826 -1.6020 62.6468 0.0000 -0.7134 0.0000
# 4 0.0000 0.0000 0.0000 47.3340 0.0000 8.3235
# 5 29.8786 9.4451 -0.7134 0.0000 34.7851 0.0000
# 6 0.0000 0.0000 0.0000 8.3235 0.0000 30.2181
#
#
#
# Elastic Compliance Matrix: (Units=1/GPa)
#
#
# Indices 1 2 3 4 5 6 
#
# 1 0.012565 -0.000196 0.000270 0.000000 -0.010734 0.000000
# 2 -0.000196 0.012141 0.000269 0.000000 -0.003123 0.000000
# 3 0.000270 0.000269 0.015978 0.000000 0.000022 0.000000
# 4 0.000000 0.000000 0.000000 0.022202 0.000000 -0.006115
# 5 -0.010734 -0.003123 0.000022 0.000000 0.038816 0.000000
# 6 0.000000 0.000000 0.000000 -0.006115 0.000000 0.034777
#
#
# Mechanical properties :
#
#
# Convention : Reuss Voigt Hill
#
# Bulk Modulus (GPa) = 24.17219 29.40241 26.78730
# Shear Modulus (GPa) = 33.42621 38.93984 36.18302
#
# Velocity S-wave (km/s) = 3.89885 4.20814 4.05644
# Velocity P-wave (km/s) = 5.59112 6.08131 5.84136
#
# Compressibility (1/GPa) = 0.04136986
#
# Stress axis : x y z
#
# Youngs Moduli (GPa) = 79.58643 82.36697 62.58526
#
# Poissons Ratio (x) = 0.01615 -0.01692
# Poissons Ratio (y) = 0.01561 -0.01682
# Poissons Ratio (z) = -0.02152 -0.02213
#
# Static dielectric constant tensor:
#      x y z
#    x 1.773560 0.000000 -0.009130 
#    y 0.000000 1.800250 0.000000 
#    z -0.009130 0.000000 1.860880 
# 
# From -- ./inp_files/10419.got.cif
#   From: 2010.05.17/outbox.cif.g08.bks.cpg/sg13_6_cif.got.tgz:10419.got - 2010.06.03 16:44:36.
