data_PCOD9238856
_publ_section_title
;
Structure prediction by ZEFSAII (Michael W. Deem and Ramdas Pophale) SiO2 
 PCOD9238856
Probable space group: P 2/C
;
_chemical_formula_sum "Si O2"
_cell_formula_units_Z 18
_cell_length_a 13.243724
_cell_length_b 6.372551
_cell_length_c 19.788023
_cell_angle_alpha 90.000000
_cell_angle_beta 29.604463
_cell_angle_gamma 90.000000
_cell_volume 825.013834
_symmetry_space_group_name_H-M "P 2/C"
_symmetry_group_IT_number 13
_symmetry_cell_setting 'monoclinic'
loop_
_space_group_symop_operation_xyz
x,y,z
-x,y,1/2-z
-x,-y,-z
x,-y,1/2+z
loop_
_atom_site_type_symbol
_atom_site_label
_atom_site_fract_x
_atom_site_fract_y
_atom_site_fract_z
Si Si1 0.727564 0.953993 0.625511
Si Si2 0.665526 0.814061 0.900516
Si Si3 0.500000 0.364985 0.750000
Si Si4 0.547574 0.564681 0.372468
Si Si5 0.887793 0.075045 0.675011
O O1 0.500000 0.870012 0.750000
O O2 0.692365 0.203376 0.632494
O O3 0.807072 0.945434 0.655984
O O4 0.885245 0.864555 0.479751
O O5 0.590096 0.642731 0.890037
O O6 0.864144 0.927890 0.754272
O O7 0.645372 0.689936 0.982714
O O8 0.500000 0.000000 0.000000
O O9 0.480553 0.474713 0.689926
O O10 0.740467 0.723976 0.267948
#
# Coordination Sequence:
#
# PCOD9238856 Si02
#       5
#     4   4   2   4   4
#     4   8  16  31  54  78 115 149 191 244 291 331
#     4   9  18  32  55  80 108 155 191 233 294 355
#     4   8  16  32  52  78 112 150 188 252 290 330
#     4   9  17  33  55  80 113 148 195 237 291 351
#     4   9  16  32  56  78 107 160 190 230 299 342
#
# _framework density 21.817815
#
# number of rings (size 3 to 8) (size 9 to 14) (size 15 to 20)
#    0.667    2.667    0.000    0.000    0.000    0.000 
#    2.000   12.222    0.000    0.000    5.778    0.000 
#    0.000    0.000    0.000    0.000    0.000    0.222 
#
# Total GULP energy -100265.536375 kJ/mol
# GULP energy per Si atom -5570.307576 kJ/mol
# Density = 2.176816 g / cm^3
# Si number density = 21.817815 Si / 1000 Ang^3
#
#
#
# Elastic Constant Matrix: (Units=GPa)
#
#
# Indices 1 2 3 4 5 6 
#
# 1 68.8528 28.6014 42.4441 0.0000 21.6009 0.0000
# 2 28.6014 92.3751 46.6032 0.0000 25.9495 0.0000
# 3 42.4441 46.6032 157.5417 0.0000 9.4902 0.0000
# 4 0.0000 0.0000 0.0000 13.0146 0.0000 21.7764
# 5 21.6009 25.9495 9.4902 0.0000 34.5781 0.0000
# 6 0.0000 0.0000 0.0000 21.7764 0.0000 21.3900
#
#
#
# Elastic Compliance Matrix: (Units=1/GPa)
#
#
# Indices 1 2 3 4 5 6 
#
# 1 0.021459 -0.001054 -0.004789 0.000000 -0.011300 0.000000
# 2 -0.001054 0.015965 -0.003820 0.000000 -0.010274 0.000000
# 3 -0.004789 -0.003820 0.008556 0.000000 0.003510 0.000000
# 4 0.000000 0.000000 0.000000 -0.109228 0.000000 0.111201
# 5 -0.011300 -0.010274 0.003510 0.000000 0.042726 0.000000
# 6 0.000000 0.000000 0.000000 0.111201 0.000000 -0.066459
#
#
# Mechanical properties :
#
#
# Convention : Reuss Voigt Hill
#
# Bulk Modulus (GPa) = 37.51641 61.56302 49.53971
# Shear Modulus (GPa) = -85.07715 27.20460 -28.93628
#
# Velocity S-wave (km/s) = -6.25132 3.53498 -3.64575
# Velocity P-wave (km/s) = 5.90531 6.70369 2.24353
#
# Compressibility (1/GPa) = 0.02665501
#
# Stress axis : x y z
#
# Youngs Moduli (GPa) = 46.60116 62.63674 116.87351
#
# Poissons Ratio (x) = 0.06600 0.55969
# Poissons Ratio (y) = 0.04911 0.44644
# Poissons Ratio (z) = 0.22317 0.23926
#
# Static dielectric constant tensor:
#      x y z
#    x 1.800580 0.000000 -0.016760 
#    y 0.000000 1.838830 0.000000 
#    z -0.016760 0.000000 1.851450 
# 
# From -- ./inp_files/79186.got.cif
#   From: 2010.05.17/outbox.cif.g08.bks.cpg/sg13_40_cif.got.tgz:79186.got - 2010.06.03 16:44:36.
