data_PCOD9238717
_publ_section_title
;
Structure prediction by ZEFSAII (Michael W. Deem and Ramdas Pophale) SiO2 
 PCOD9238717
Probable space group: P 2/C
;
_chemical_formula_sum "Si O2"
_cell_formula_units_Z 10
_cell_length_a 5.035837
_cell_length_b 13.372907
_cell_length_c 7.917767
_cell_angle_alpha 90.000000
_cell_angle_beta 122.181973
_cell_angle_gamma 90.000000
_cell_volume 451.290029
_symmetry_space_group_name_H-M "P 2/C"
_symmetry_group_IT_number 13
_symmetry_cell_setting 'monoclinic'
loop_
_space_group_symop_operation_xyz
x,y,z
-x,y,1/2-z
-x,-y,-z
x,-y,1/2+z
loop_
_atom_site_type_symbol
_atom_site_label
_atom_site_fract_x
_atom_site_fract_y
_atom_site_fract_z
Si Si1 0.785876 0.426745 0.528696
Si Si2 0.378691 0.891563 0.397063
Si Si3 0.500000 0.750034 0.750000
O O1 0.500000 0.500000 0.500000
O O2 0.750184 0.332589 0.391677
O O3 0.000000 0.386081 0.750000
O O4 0.000000 0.500000 0.500000
O O5 0.500000 0.868989 0.250000
O O6 0.516474 0.817996 0.588419
O O7 0.000000 0.890376 0.250000
O O8 0.500000 0.000000 0.500000
#
# Coordination Sequence:
#
# PCOD9238717 Si02
#       3
#     4   4   2
#     4  12  25  48  73 107 150 198 254 308 368 450
#     4  12  28  51  80 114 155 200 257 316 384 461
#     4  12  28  48  84 108 160 204 252 316 394 436
#
# _framework density 22.158698999999999
#
# number of rings (size 3 to 8) (size 9 to 14) (size 15 to 20)
#    0.000    0.000    6.000    2.400    0.000    9.600 
#    0.000    0.000    0.000    0.000    0.000    0.000 
#    0.000    0.000    0.000    0.000    0.000    0.000 
#
# Total GULP energy -55685.124071 kJ/mol
# GULP energy per Si atom -5568.512407 kJ/mol
# Density = 2.210826 g / cm^3
# Si number density = 22.158699 Si / 1000 Ang^3
#
#
#
# Elastic Constant Matrix: (Units=GPa)
#
#
# Indices 1 2 3 4 5 6 
#
# 1 177.1927 51.3970 61.7956 0.0000 -12.8594 0.0000
# 2 51.3970 195.8809 82.1881 0.0000 -21.7800 0.0000
# 3 61.7956 82.1881 223.2991 0.0000 -25.0475 0.0000
# 4 0.0000 0.0000 0.0000 78.6836 0.0000 -8.7704
# 5 -12.8594 -21.7800 -25.0475 0.0000 41.5806 0.0000
# 6 0.0000 0.0000 0.0000 -8.7704 0.0000 26.2847
#
#
#
# Elastic Compliance Matrix: (Units=1/GPa)
#
#
# Indices 1 2 3 4 5 6 
#
# 1 0.006462 -0.001069 -0.001323 0.000000 0.000642 0.000000
# 2 -0.001069 0.006367 -0.001834 0.000000 0.001899 0.000000
# 3 -0.001323 -0.001834 0.005755 0.000000 0.002097 0.000000
# 4 0.000000 0.000000 0.000000 0.013200 0.000000 0.004404
# 5 0.000642 0.001899 0.002097 0.000000 0.026506 0.000000
# 6 0.000000 0.000000 0.000000 0.004404 0.000000 0.039515
#
#
# Mechanical properties :
#
#
# Convention : Reuss Voigt Hill
#
# Bulk Modulus (GPa) = 98.71342 109.68157 104.19749
# Shear Modulus (GPa) = 45.60695 56.04257 50.82476
#
# Velocity S-wave (km/s) = 4.54166 5.03452 4.79442
# Velocity P-wave (km/s) = 8.49396 9.13240 8.81896
#
# Compressibility (1/GPa) = 0.01013034
#
# Stress axis : x y z
#
# Youngs Moduli (GPa) = 154.76207 157.07197 173.77144
#
# Poissons Ratio (x) = 0.16793 0.22985
# Poissons Ratio (y) = 0.16546 0.31876
# Poissons Ratio (z) = 0.20470 0.28813
#
# Static dielectric constant tensor:
#      x y z
#    x 1.854520 0.000000 -0.380520 
#    y 0.000000 1.742400 0.000000 
#    z -0.380520 0.000000 5.443930 
# 
# From -- ./inp_files/8364.got.cif
#   From: 2010.05.17/outbox.cif.g08.bks.cpg/sg13_5_cif.got.tgz:8364.got - 2010.06.03 16:44:36.
