data_PCOD9238405
_publ_section_title
;
Structure prediction by ZEFSAII (Michael W. Deem and Ramdas Pophale) SiO2 
 PCOD9238405
Probable space group: P 2/C
;
_chemical_formula_sum "Si O2"
_cell_formula_units_Z 20
_cell_length_a 5.211625
_cell_length_b 11.007246
_cell_length_c 14.885022
_cell_angle_alpha 90.000000
_cell_angle_beta 77.300431
_cell_angle_gamma 90.000000
_cell_volume 832.999424
_symmetry_space_group_name_H-M "P 2/C"
_symmetry_group_IT_number 13
_symmetry_cell_setting 'monoclinic'
loop_
_space_group_symop_operation_xyz
x,y,z
-x,y,1/2-z
-x,-y,-z
x,-y,1/2+z
loop_
_atom_site_type_symbol
_atom_site_label
_atom_site_fract_x
_atom_site_fract_y
_atom_site_fract_z
Si Si1 0.113147 0.187360 0.546486
Si Si2 0.719428 0.203940 0.310313
Si Si3 0.000000 0.725133 0.250000
Si Si4 0.577082 0.405232 0.070101
Si Si5 0.283017 0.063145 0.018310
Si Si6 0.500000 0.441938 0.750000
O O1 0.220357 0.308198 0.488389
O O2 0.060578 0.197393 0.656168
O O3 0.814172 0.180543 0.530520
O O4 0.379219 0.089342 0.515524
O O5 0.500000 0.186989 0.250000
O O6 0.649583 0.316636 0.377642
O O7 0.747236 0.089212 0.373304
O O8 0.000000 0.228067 0.250000
O O9 0.258291 0.641334 0.237739
O O10 0.625953 0.478535 0.159017
O O11 0.500000 0.500000 0.000000
O O12 0.000000 0.000000 0.000000
#
# Coordination Sequence:
#
# PCOD9238405 Si02
#       6
#     4   4   2   4   4   2
#     4  11  27  50  76 114 157 204 265 327 402 472
#     4  12  28  49  76 113 151 201 258 320 394 477
#     4  12  30  50  76 116 160 208 260 332 394 486
#     4  12  26  51  79 112 158 209 262 332 393 484
#     4  11  26  47  78 110 151 204 257 328 398 473
#     4  12  30  50  76 116 156 212 266 318 410 476
#
# _framework density 24.009619000000001
#
# number of rings (size 3 to 8) (size 9 to 14) (size 15 to 20)
#    0.000    0.400    5.000    1.200   11.200    0.800 
#    0.000    0.000    0.000    0.000    0.000    0.000 
#    0.000    0.000    0.000    0.000    0.000    0.000 
#
# Total GULP energy -111434.738339 kJ/mol
# GULP energy per Si atom -5571.736917 kJ/mol
# Density = 2.395497 g / cm^3
# Si number density = 24.009619 Si / 1000 Ang^3
#
#
#
# Elastic Constant Matrix: (Units=GPa)
#
#
# Indices 1 2 3 4 5 6 
#
# 1 237.5159 82.8308 89.9941 0.0000 11.7194 0.0000
# 2 82.8308 101.4142 54.3565 0.0000 19.7175 0.0000
# 3 89.9941 54.3565 192.1476 0.0000 9.8042 0.0000
# 4 0.0000 0.0000 0.0000 72.9686 0.0000 -15.5116
# 5 11.7194 19.7175 9.8042 0.0000 47.8339 0.0000
# 6 0.0000 0.0000 0.0000 -15.5116 0.0000 48.9964
#
#
#
# Elastic Compliance Matrix: (Units=1/GPa)
#
#
# Indices 1 2 3 4 5 6 
#
# 1 0.006381 -0.004374 -0.001782 0.000000 0.000605 0.000000
# 2 -0.004374 0.015503 -0.002087 0.000000 -0.004891 0.000000
# 3 -0.001782 -0.002087 0.006633 0.000000 -0.000062 0.000000
# 4 0.000000 0.000000 0.000000 0.014693 0.000000 0.004652
# 5 0.000605 -0.004891 -0.000062 0.000000 0.022786 0.000000
# 6 0.000000 0.000000 0.000000 0.004652 0.000000 0.021882
#
#
# Mechanical properties :
#
#
# Convention : Reuss Voigt Hill
#
# Bulk Modulus (GPa) = 83.13005 109.49340 96.31173
# Shear Modulus (GPa) = 46.13572 54.21952 50.17762
#
# Velocity S-wave (km/s) = 4.38831 4.75725 4.57650
# Velocity P-wave (km/s) = 7.77014 8.71081 8.25389
#
# Compressibility (1/GPa) = 0.01202934
#
# Stress axis : x y z
#
# Youngs Moduli (GPa) = 156.71305 64.50379 150.76908
#
# Poissons Ratio (x) = 0.28216 0.26868
# Poissons Ratio (y) = 0.68550 0.31471
# Poissons Ratio (z) = 0.27928 0.13464
#
# Static dielectric constant tensor:
#      x y z
#    x 2.178540 0.000000 0.133800 
#    y 0.000000 1.848600 0.000000 
#    z 0.133800 0.000000 2.012560 
# 
# From -- ./inp_files/43702.got.cif
#   From: 2010.05.17/outbox.cif.g08.bks.cpg/sg13_22_cif.got.tgz:43702.got - 2010.06.03 16:44:36.
