data_PCOD9238756
_publ_section_title
;
Structure prediction by ZEFSAII (Michael W. Deem and Ramdas Pophale) SiO2 
 PCOD9238756
Probable space group: P 2/C
;
_chemical_formula_sum "Si O2"
_cell_formula_units_Z 16
_cell_length_a 11.111293
_cell_length_b 9.272695
_cell_length_c 8.285515
_cell_angle_alpha 90.000000
_cell_angle_beta 48.198416
_cell_angle_gamma 90.000000
_cell_volume 636.374859
_symmetry_space_group_name_H-M "P 2/C"
_symmetry_group_IT_number 13
_symmetry_cell_setting 'monoclinic'
loop_
_space_group_symop_operation_xyz
x,y,z
-x,y,1/2-z
-x,-y,-z
x,-y,1/2+z
loop_
_atom_site_type_symbol
_atom_site_label
_atom_site_fract_x
_atom_site_fract_y
_atom_site_fract_z
Si Si1 0.409646 0.747609 0.004387
Si Si2 0.281919 0.775122 0.577362
Si Si3 0.874845 0.470976 0.751880
Si Si4 0.809890 0.022068 0.642830
O O1 0.285459 0.616817 0.134186
O O2 0.500000 0.740764 0.750000
O O3 0.532439 0.741596 0.046227
O O4 0.298697 0.888934 0.129990
O O5 0.184714 0.627982 0.636120
O O6 0.243236 0.857770 0.780601
O O7 0.229396 0.884741 0.482021
O O8 0.000000 0.382517 0.750000
O O9 0.000000 0.500000 0.500000
O O10 0.000000 0.000000 0.500000
#
# Coordination Sequence:
#
# PCOD9238756 Si02
#       4
#     4   4   4   4
#     4  12  27  48  76 114 155 202 255 321 390 458
#     4  12  26  48  76 112 153 202 256 319 384 458
#     4  12  26  48  77 113 154 202 258 318 384 462
#     4  12  26  48  78 113 153 202 256 316 384 462
#
# _framework density 25.142412
#
# number of rings (size 3 to 8) (size 9 to 14) (size 15 to 20)
#    0.000    0.000    0.000   10.500    0.000    4.000 
#    0.000    0.000    0.000    0.000    0.000    0.000 
#    0.000    0.000    0.000    0.000    0.000    0.000 
#
# Total GULP energy -89305.453463 kJ/mol
# GULP energy per Si atom -5581.590841 kJ/mol
# Density = 2.508519 g / cm^3
# Si number density = 25.142412 Si / 1000 Ang^3
#
#
#
# Elastic Constant Matrix: (Units=GPa)
#
#
# Indices 1 2 3 4 5 6 
#
# 1 215.8807 67.3731 95.1111 0.0000 -35.7530 0.0000
# 2 67.3731 95.6525 16.6673 0.0000 -42.3630 0.0000
# 3 95.1111 16.6673 150.6071 0.0000 -27.5561 0.0000
# 4 0.0000 0.0000 0.0000 -106.3177 0.0000 39.3289
# 5 -35.7530 -42.3630 -27.5561 0.0000 36.8467 0.0000
# 6 0.0000 0.0000 0.0000 39.3289 0.0000 24.2021
#
#
#
# Elastic Compliance Matrix: (Units=1/GPa)
#
#
# Indices 1 2 3 4 5 6 
#
# 1 0.008374 -0.006328 -0.005135 0.000000 -0.002990 0.000000
# 2 -0.006328 0.026899 0.006435 0.000000 0.029598 0.000000
# 3 -0.005135 0.006435 0.011136 0.000000 0.010744 0.000000
# 4 0.000000 0.000000 0.000000 -0.005874 0.000000 0.009546
# 5 -0.002990 0.029598 0.010744 0.000000 0.066303 0.000000
# 6 0.000000 0.000000 0.000000 0.009546 0.000000 0.025806
#
#
# Mechanical properties :
#
#
# Convention : Reuss Voigt Hill
#
# Bulk Modulus (GPa) = 27.50802 91.16035 59.33418
# Shear Modulus (GPa) = 32.29596 9.81214 21.05405
#
# Velocity S-wave (km/s) = 3.58791 1.97765 2.89691
# Velocity P-wave (km/s) = 5.30366 6.44601 5.90254
#
# Compressibility (1/GPa) = 0.03635304
#
# Stress axis : x y z
#
# Youngs Moduli (GPa) = 119.41286 37.17625 89.79507
#
# Poissons Ratio (x) = 0.23525 0.46112
# Poissons Ratio (y) = 0.75563 -0.57782
# Poissons Ratio (z) = 0.61322 -0.23922
#
# Static dielectric constant tensor:
#      x y z
#    x 2.156250 0.000000 0.180800 
#    y 0.000000 1.963720 0.000000 
#    z 0.180800 0.000000 0.587710 
# 
# From -- ./inp_files/11486.got.cif
#   From: 2010.05.17/outbox.cif.g08.bks.cpg/sg13_6_cif.got.tgz:11486.got - 2010.06.03 16:44:36.
