data_PCOD9238063
_publ_section_title
;
Structure prediction by ZEFSAII (Michael W. Deem and Ramdas Pophale) SiO2 
 PCOD9238063
Probable space group: P 2/C
;
_chemical_formula_sum "Si O2"
_cell_formula_units_Z 32
_cell_length_a 9.092092
_cell_length_b 22.902625
_cell_length_c 15.184167
_cell_angle_alpha 90.000000
_cell_angle_beta 150.631670
_cell_angle_gamma 90.000000
_cell_volume 1550.636865
_symmetry_space_group_name_H-M "P 2/C"
_symmetry_group_IT_number 13
_symmetry_cell_setting 'monoclinic'
loop_
_space_group_symop_operation_xyz
x,y,z
-x,y,1/2-z
-x,-y,-z
x,-y,1/2+z
loop_
_atom_site_type_symbol
_atom_site_label
_atom_site_fract_x
_atom_site_fract_y
_atom_site_fract_z
Si Si1 0.777271 0.767174 0.218292
Si Si2 0.194273 0.368762 0.761589
Si Si3 0.472489 0.977326 0.340300
Si Si4 0.207480 0.145657 0.445067
Si Si5 0.878001 0.074357 0.592272
Si Si6 0.706216 0.459154 0.050506
Si Si7 0.176709 0.548962 0.538789
Si Si8 0.155192 0.821568 0.564862
O O1 0.709119 0.698446 0.183193
O O2 0.000000 0.777196 0.250000
O O3 0.954781 0.778757 0.401651
O O4 0.483841 0.809221 0.069035
O O5 0.000000 0.379466 0.750000
O O6 0.987494 0.391110 0.572814
O O7 0.490789 0.407947 0.906720
O O8 0.500000 0.986541 0.250000
O O9 0.644823 0.917391 0.455659
O O10 0.129797 0.968423 0.186071
O O11 0.589189 0.034262 0.451664
O O12 0.000000 0.142490 0.250000
O O13 0.008053 0.164604 0.427019
O O14 0.000000 0.096143 0.750000
O O15 0.832185 0.122058 0.493219
O O16 0.000000 0.434069 0.250000
O O17 0.500000 0.500000 0.000000
O O18 0.807128 0.509483 0.038383
O O19 0.500000 0.559929 0.750000
O O20 0.000000 0.500000 0.500000
O O21 0.500000 0.801224 0.750000
#
# Coordination Sequence:
#
# PCOD9238063 Si02
#       8
#     4   4   4   4   4   4   4   4
#     4  11  25  50  73  98 138 186 241 293 352 416
#     4  11  24  43  70 100 133 181 228 278 338 419
#     4  12  24  44  67 104 145 182 226 290 351 416
#     4  12  26  47  74 102 138 185 236 288 353 423
#     4  12  26  42  70 105 146 180 228 287 353 422
#     4  12  20  39  67  93 136 182 216 268 336 407
#     4  12  22  37  61 101 139 174 218 274 338 393
#     4  12  26  46  74 101 140 185 231 292 355 418
#
# _framework density 20.636683999999999
#
# number of rings (size 3 to 8) (size 9 to 14) (size 15 to 20)
#    0.000    0.250    6.250    3.000    3.500    1.000 
#    4.500    0.000    0.000    0.000    0.000    0.000 
#    0.000    0.000    0.000    0.000    0.000    0.000 
#
# Total GULP energy -178624.323533 kJ/mol
# GULP energy per Si atom -5582.010110 kJ/mol
# Density = 2.058971 g / cm^3
# Si number density = 20.636684 Si / 1000 Ang^3
#
#
#
# Elastic Constant Matrix: (Units=GPa)
#
#
# Indices 1 2 3 4 5 6 
#
# 1 78.1425 -9.0274 -10.7758 0.0000 -11.8822 0.0000
# 2 -9.0274 100.3415 16.0881 0.0000 -4.6369 0.0000
# 3 -10.7758 16.0881 128.4365 0.0000 -6.0679 0.0000
# 4 0.0000 0.0000 0.0000 14.6685 0.0000 6.8208
# 5 -11.8822 -4.6369 -6.0679 0.0000 32.7891 0.0000
# 6 0.0000 0.0000 0.0000 6.8208 0.0000 32.6590
#
#
#
# Elastic Compliance Matrix: (Units=1/GPa)
#
#
# Indices 1 2 3 4 5 6 
#
# 1 0.013955 0.001306 0.001266 0.000000 0.005476 0.000000
# 2 0.001306 0.010340 -0.001104 0.000000 0.001731 0.000000
# 3 0.001266 -0.001104 0.008116 0.000000 0.001805 0.000000
# 4 0.000000 0.000000 0.000000 0.075506 0.000000 -0.015769
# 5 0.005476 0.001731 0.001805 0.000000 0.033061 0.000000
# 6 0.000000 0.000000 0.000000 -0.015769 0.000000 0.033913
#
#
# Mechanical properties :
#
#
# Convention : Reuss Voigt Hill
#
# Bulk Modulus (GPa) = 28.29119 33.27669 30.78394
# Shear Modulus (GPa) = 27.21259 36.73234 31.97247
#
# Velocity S-wave (km/s) = 3.63526 4.22353 3.94039
# Velocity P-wave (km/s) = 5.59992 6.32015 5.97090
#
# Compressibility (1/GPa) = 0.03534669
#
# Stress axis : x y z
#
# Youngs Moduli (GPa) = 71.65772 96.70789 123.21790
#
# Poissons Ratio (x) = -0.12626 -0.15600
# Poissons Ratio (y) = -0.09355 0.13602
# Poissons Ratio (z) = -0.09072 0.10676
#
# Static dielectric constant tensor:
#      x y z
#    x 1.735090 0.000000 -0.005110 
#    y 0.000000 1.716400 0.000000 
#    z -0.005110 0.000000 1.740180 
# 
# From -- ./inp_files/48312.got.cif
#   From: 2010.05.17/outbox.cif.g08.bks.cpg/sg13_25_cif.got.tgz:48312.got - 2010.06.03 16:44:36.
