data_PCOD9238899
_publ_section_title
;
Structure prediction by ZEFSAII (Michael W. Deem and Ramdas Pophale) SiO2 
 PCOD9238899
Probable space group: P 2/C
;
_chemical_formula_sum "Si O2"
_cell_formula_units_Z 28
_cell_length_a 30.000000
_cell_length_b 9.000000
_cell_length_c 30.000000
_cell_angle_alpha 90.000000
_cell_angle_beta 10.000000
_cell_angle_gamma 90.000000
_cell_volume 1406.550239
_symmetry_space_group_name_H-M "P 2/C"
_symmetry_group_IT_number 13
_symmetry_cell_setting 'monoclinic'
loop_
_space_group_symop_operation_xyz
x,y,z
-x,y,1/2-z
-x,-y,-z
x,-y,1/2+z
loop_
_atom_site_type_symbol
_atom_site_label
_atom_site_fract_x
_atom_site_fract_y
_atom_site_fract_z
Si Si1 0.023840 0.773290 0.278805
Si Si2 0.520878 0.595538 0.781751
Si Si3 0.277898 0.247980 0.123922
Si Si4 0.751934 0.093938 0.863949
Si Si5 0.235532 0.269390 0.351402
Si Si6 0.229884 0.398252 0.898670
Si Si7 0.247716 0.601099 0.747897
O O1 0.140483 0.908541 0.191371
O O2 0.000000 0.800421 0.250000
O O3 0.745787 0.717797 0.568461
O O4 0.240075 0.645860 0.074658
O O5 0.500000 0.584199 0.750000
O O6 0.630561 0.445137 0.693400
O O7 0.225398 0.317865 0.223401
O O8 0.047868 0.324842 0.322189
O O9 0.257696 0.071807 0.144029
O O10 0.565810 0.292796 0.826690
O O11 0.968382 0.192377 0.626613
O O12 0.480627 0.177158 0.127212
O O13 0.226049 0.442167 0.376731
O O14 0.266539 0.279247 0.268153
O O15 0.500000 0.500000 0.500000
O O16 0.000000 0.500000 0.000000
#
# Coordination Sequence:
#
# PCOD9238899 Si02
#       7
#     4   4   4   4   4   4   4
#     4  10  19  35  59  87 117 153 196 245 291 358
#     4  10  20  34  61  92 115 147 207 255 285 348
#     4  12  26  40  62  90 130 157 197 256 309 356
#     4  12  24  41  59  95 121 159 199 249 308 358
#     4  12  23  39  69  84 121 162 208 245 290 366
#     4  12  21  41  64  90 116 165 199 244 304 356
#     4  12  23  40  62  92 118 157 210 250 299 356
#
# _framework density 19.906860999999999
#
# number of rings (size 3 to 8) (size 9 to 14) (size 15 to 20)
#    0.000    0.571    5.714    3.429    0.000    1.143 
#    0.000    1.429    0.000    0.000    0.000    0.000 
#    0.000    0.000    0.000    0.000    0.000    0.000 
#
# Total GULP energy -156275.669005 kJ/mol
# GULP energy per Si atom -5581.273893 kJ/mol
# Density = 1.986155 g / cm^3
# Si number density = 19.906861 Si / 1000 Ang^3
#
#
#
# Elastic Constant Matrix: (Units=GPa)
#
#
# Indices 1 2 3 4 5 6 
#
# 1 70.5496 22.8095 29.8256 0.0000 -10.6437 0.0000
# 2 22.8095 73.5245 59.3907 0.0000 -5.7676 0.0000
# 3 29.8256 59.3907 105.3872 0.0000 6.5412 0.0000
# 4 0.0000 0.0000 0.0000 23.0690 0.0000 -4.7051
# 5 -10.6437 -5.7676 6.5412 0.0000 17.1515 0.0000
# 6 0.0000 0.0000 0.0000 -4.7051 0.0000 15.5859
#
#
#
# Elastic Compliance Matrix: (Units=1/GPa)
#
#
# Indices 1 2 3 4 5 6 
#
# 1 0.018956 0.000575 -0.006587 0.000000 0.014469 0.000000
# 2 0.000575 0.028821 -0.017441 0.000000 0.016700 0.000000
# 3 -0.006587 -0.017441 0.022328 0.000000 -0.018468 0.000000
# 4 0.000000 0.000000 0.000000 0.046192 0.000000 0.013945
# 5 0.014469 0.016700 -0.018468 0.000000 0.079942 0.000000
# 6 0.000000 0.000000 0.000000 0.013945 0.000000 0.068370
#
#
# Mechanical properties :
#
#
# Convention : Reuss Voigt Hill
#
# Bulk Modulus (GPa) = 43.10541 52.61253 47.85897
# Shear Modulus (GPa) = 15.66177 20.32367 17.99272
#
# Velocity S-wave (km/s) = 2.80795 3.19868 3.00966
# Velocity P-wave (km/s) = 5.67568 6.33473 6.01424
#
# Compressibility (1/GPa) = 0.02319894
#
# Stress axis : x y z
#
# Youngs Moduli (GPa) = 52.75358 34.69682 44.78646
#
# Poissons Ratio (x) = -0.01994 0.29500
# Poissons Ratio (y) = -0.03032 0.78113
# Poissons Ratio (z) = 0.34747 0.60516
#
# Static dielectric constant tensor:
#      x y z
#    x 1.827420 0.000000 -0.001490 
#    y 0.000000 1.659460 0.000000 
#    z -0.001490 0.000000 1.631830 
# 
# From -- ./inp_files/98022.got.cif
#   From: 2010.05.17/outbox.ucp.g08.bks.cvg/sg13_50_cif.got.tgz:98022.got - 2010.06.11 12:23:55.
