data_PCOD9238445
_publ_section_title
;
Structure prediction by ZEFSAII (Michael W. Deem and Ramdas Pophale) SiO2 
 PCOD9238445
Probable space group: P 2/C
;
_chemical_formula_sum "Si O2"
_cell_formula_units_Z 16
_cell_length_a 24.386418
_cell_length_b 5.062483
_cell_length_c 13.586078
_cell_angle_alpha 90.000000
_cell_angle_beta 21.604025
_cell_angle_gamma 90.000000
_cell_volume 617.557682
_symmetry_space_group_name_H-M "P 2/C"
_symmetry_group_IT_number 13
_symmetry_cell_setting 'monoclinic'
loop_
_space_group_symop_operation_xyz
x,y,z
-x,y,1/2-z
-x,-y,-z
x,-y,1/2+z
loop_
_atom_site_type_symbol
_atom_site_label
_atom_site_fract_x
_atom_site_fract_y
_atom_site_fract_z
Si Si1 0.235023 0.436410 0.198582
Si Si2 0.454759 0.311406 0.485635
Si Si3 0.041708 0.067950 0.068804
Si Si4 0.287183 0.926258 0.436481
O O1 0.368175 0.531505 0.046545
O O2 0.118507 0.676301 0.393114
O O3 0.289079 0.332518 0.002343
O O4 0.151437 0.180535 0.382008
O O5 0.500000 0.500000 0.500000
O O6 0.339752 0.121627 0.736691
O O7 0.593268 0.132537 0.220405
O O8 0.884833 0.993941 0.280556
O O9 0.000000 0.139663 0.250000
#
# Coordination Sequence:
#
# PCOD9238445 Si02
#       4
#     4   4   4   4
#     4  12  28  50  83 119 159 219 273 337 408 496
#     4  11  27  52  78 118 168 213 272 339 408 490
#     4  12  25  50  83 119 165 210 274 338 411 483
#     4  11  27  51  82 120 165 218 273 340 414 486
#
# _framework density 25.908508999999999
#
# number of rings (size 3 to 8) (size 9 to 14) (size 15 to 20)
#    0.000    0.500    2.500    3.750   10.500    1.000 
#    0.000    0.000    0.000    0.000    0.000    0.000 
#    0.000    0.000    0.000    0.000    0.000    0.000 
#
# Total GULP energy -89828.246577 kJ/mol
# GULP energy per Si atom -5614.265411 kJ/mol
# Density = 2.584954 g / cm^3
# Si number density = 25.908509 Si / 1000 Ang^3
#
#
#
# Elastic Constant Matrix: (Units=GPa)
#
#
# Indices 1 2 3 4 5 6 
#
# 1 148.5162 57.6440 75.8952 0.0000 -4.4896 0.0000
# 2 57.6440 182.4978 98.9839 0.0000 -4.3785 0.0000
# 3 75.8952 98.9839 197.4846 0.0000 -10.2697 0.0000
# 4 0.0000 0.0000 0.0000 60.0192 0.0000 -4.7636
# 5 -4.4896 -4.3785 -10.2697 0.0000 48.4351 0.0000
# 6 0.0000 0.0000 0.0000 -4.7636 0.0000 59.7742
#
#
#
# Elastic Compliance Matrix: (Units=1/GPa)
#
#
# Indices 1 2 3 4 5 6 
#
# 1 0.008588 -0.001268 -0.002659 0.000000 0.000118 0.000000
# 2 -0.001268 0.007713 -0.003386 0.000000 -0.000138 0.000000
# 3 -0.002659 -0.003386 0.007840 0.000000 0.001110 0.000000
# 4 0.000000 0.000000 0.000000 0.016767 0.000000 0.001336
# 5 0.000118 -0.000138 0.001110 0.000000 0.020880 0.000000
# 6 0.000000 0.000000 0.000000 0.001336 0.000000 0.016836
#
#
# Mechanical properties :
#
#
# Convention : Reuss Voigt Hill
#
# Bulk Modulus (GPa) = 105.08413 110.39385 107.73899
# Shear Modulus (GPa) = 51.85575 53.37741 52.61658
#
# Velocity S-wave (km/s) = 4.47866 4.54390 4.51140
# Velocity P-wave (km/s) = 8.20928 8.38039 8.29528
#
# Compressibility (1/GPa) = 0.00951618
#
# Stress axis : x y z
#
# Youngs Moduli (GPa) = 116.44803 129.64940 127.54481
#
# Poissons Ratio (x) = 0.16434 0.33912
# Poissons Ratio (y) = 0.14760 0.43187
# Poissons Ratio (z) = 0.30962 0.43900
#
# Static dielectric constant tensor:
#      x y z
#    x 2.010540 0.000000 0.020770 
#    y 0.000000 2.011930 0.000000 
#    z 0.020770 0.000000 2.103550 
# 
# From -- ./inp_files/59061.got.cif
#   From: 2010.05.17/outbox.cif.g08.bks.cpg/sg13_30_cif.got.tgz:59061.got - 2010.06.03 16:44:36.
