data_PCOD9238764
_publ_section_title
;
Structure prediction by ZEFSAII (Michael W. Deem and Ramdas Pophale) SiO2 
 PCOD9238764
Probable space group: P 2/C
;
_chemical_formula_sum "Si O2"
_cell_formula_units_Z 16
_cell_length_a 13.486011
_cell_length_b 4.873310
_cell_length_c 13.122835
_cell_angle_alpha 90.000000
_cell_angle_beta 43.916350
_cell_angle_gamma 90.000000
_cell_volume 598.203494
_symmetry_space_group_name_H-M "P 2/C"
_symmetry_group_IT_number 13
_symmetry_cell_setting 'monoclinic'
loop_
_space_group_symop_operation_xyz
x,y,z
-x,y,1/2-z
-x,-y,-z
x,-y,1/2+z
loop_
_atom_site_type_symbol
_atom_site_label
_atom_site_fract_x
_atom_site_fract_y
_atom_site_fract_z
Si Si1 0.808326 0.466126 0.575656
Si Si2 0.151628 0.992542 0.814166
Si Si3 0.500000 0.526749 0.750000
Si Si4 0.000000 0.649443 0.750000
Si Si5 0.584961 0.751917 0.482124
O O1 0.794361 0.743134 0.652968
O O2 0.643322 0.366512 0.680155
O O3 0.891018 0.510063 0.406807
O O4 0.899861 0.225501 0.565807
O O5 0.084253 0.841950 0.766597
O O6 0.259827 0.199673 0.675783
O O7 0.568303 0.718750 0.613625
O O8 0.500000 0.500000 0.500000
O O9 0.500000 0.000000 0.500000
#
# Coordination Sequence:
#
# PCOD9238764 Si02
#       5
#     4   4   2   2   4
#     4  12  30  52  83 124 167 220 286 343 418 506
#     4  12  28  54  81 123 167 221 283 346 411 508
#     4  12  28  50  88 120 166 216 278 342 442 470
#     4  12  32  52  88 118 180 230 276 342 426 492
#     4  12  26  49  80 119 163 208 274 347 414 490
#
# _framework density 26.746751
#
# number of rings (size 3 to 8) (size 9 to 14) (size 15 to 20)
#    0.000    0.000    5.000    1.500   10.500    4.000 
#    0.000    0.000    0.000    0.000    0.000    0.000 
#    0.000    0.000    0.000    0.000    0.000    0.000 
#
# Total GULP energy -89491.008043 kJ/mol
# GULP energy per Si atom -5593.188003 kJ/mol
# Density = 2.668587 g / cm^3
# Si number density = 26.746751 Si / 1000 Ang^3
#
#
#
# Elastic Constant Matrix: (Units=GPa)
#
#
# Indices 1 2 3 4 5 6 
#
# 1 124.7056 39.8666 51.7239 0.0000 14.9876 0.0000
# 2 39.8666 170.8891 31.6502 0.0000 26.1857 0.0000
# 3 51.7239 31.6502 191.9574 0.0000 44.8636 0.0000
# 4 0.0000 0.0000 0.0000 29.5068 0.0000 13.1769
# 5 14.9876 26.1857 44.8636 0.0000 48.6342 0.0000
# 6 0.0000 0.0000 0.0000 13.1769 0.0000 39.0762
#
#
#
# Elastic Compliance Matrix: (Units=1/GPa)
#
#
# Indices 1 2 3 4 5 6 
#
# 1 0.009539 -0.001824 -0.002310 0.000000 0.000174 0.000000
# 2 -0.001824 0.006742 0.000124 0.000000 -0.003182 0.000000
# 3 -0.002310 0.000124 0.007217 0.000000 -0.006012 0.000000
# 4 0.000000 0.000000 0.000000 0.039899 0.000000 -0.013454
# 5 0.000174 -0.003182 -0.006012 0.000000 0.027767 0.000000
# 6 0.000000 0.000000 0.000000 -0.013454 0.000000 0.030128
#
#
# Mechanical properties :
#
#
# Convention : Reuss Voigt Hill
#
# Bulk Modulus (GPa) = 64.61459 81.55928 73.08694
# Shear Modulus (GPa) = 37.18241 47.73085 42.45663
#
# Velocity S-wave (km/s) = 3.73254 4.22897 3.98849
# Velocity P-wave (km/s) = 6.54111 7.37597 6.97105
#
# Compressibility (1/GPa) = 0.01547638
#
# Stress axis : x y z
#
# Youngs Moduli (GPa) = 104.82844 148.32433 138.56821
#
# Poissons Ratio (x) = 0.27057 0.32012
# Poissons Ratio (y) = 0.19122 -0.01712
# Poissons Ratio (z) = 0.24218 -0.01833
#
# Static dielectric constant tensor:
#      x y z
#    x 2.032810 0.000000 0.142850 
#    y 0.000000 2.032010 0.000000 
#    z 0.142850 0.000000 1.928040 
# 
# From -- ./inp_files/34974.got.cif
#   From: 2010.05.17/outbox.cif.g08.bks.cpg/sg13_18_cif.got.tgz:34974.got - 2010.06.03 16:44:36.
