data_PCOD9238292
_publ_section_title
;
Structure prediction by ZEFSAII (Michael W. Deem and Ramdas Pophale) SiO2 
 PCOD9238292
Probable space group: P 2/C
;
_chemical_formula_sum "Si O2"
_cell_formula_units_Z 24
_cell_length_a 10.942955
_cell_length_b 11.959302
_cell_length_c 11.709305
_cell_angle_alpha 90.000000
_cell_angle_beta 51.895625
_cell_angle_gamma 90.000000
_cell_volume 1205.825418
_symmetry_space_group_name_H-M "P 2/C"
_symmetry_group_IT_number 13
_symmetry_cell_setting 'monoclinic'
loop_
_space_group_symop_operation_xyz
x,y,z
-x,y,1/2-z
-x,-y,-z
x,-y,1/2+z
loop_
_atom_site_type_symbol
_atom_site_label
_atom_site_fract_x
_atom_site_fract_y
_atom_site_fract_z
Si Si1 0.668675 0.631515 0.483204
Si Si2 0.905948 0.109004 0.598120
Si Si3 0.431689 0.614849 0.411306
Si Si4 0.654089 0.959922 0.846930
Si Si5 0.836038 0.787726 0.897325
Si Si6 0.500000 0.197286 0.250000
Si Si7 0.000000 0.736848 0.250000
O O1 0.567658 0.625832 0.425866
O O2 0.637216 0.510365 0.556863
O O3 0.600952 0.725070 0.607725
O O4 0.845333 0.662192 0.351161
O O5 0.867098 0.180081 0.509551
O O6 0.991205 0.182811 0.644189
O O7 0.747983 0.064980 0.745760
O O8 0.000000 0.000000 0.500000
O O9 0.500000 0.649301 0.250000
O O10 0.293278 0.693324 0.532663
O O11 0.767121 0.892927 0.867223
O O12 0.606148 0.880304 0.769479
O O13 0.500000 0.000000 0.000000
O O14 0.000000 0.753327 0.750000
#
# Coordination Sequence:
#
# PCOD9238292 Si02
#       7
#     4   4   4   4   4   2   2
#     4  11  25  46  71 101 135 178 226 289 346 417
#     4  12  24  45  65  98 143 178 227 284 335 411
#     4  11  25  48  71  99 135 177 233 286 350 410
#     4  12  25  43  69 102 136 185 230 279 344 410
#     4  12  26  44  68 101 137 182 229 286 343 408
#     4  12  22  46  70 100 138 180 232 280 344 408
#     4  12  26  44  70 102 136 182 226 282 354 404
#
# _framework density 19.903379999999999
#
# number of rings (size 3 to 8) (size 9 to 14) (size 15 to 20)
#    0.000    0.333    4.167    5.000    3.500    0.000 
#    0.000    1.667    0.000    0.000    0.000    0.000 
#    0.000    0.000    0.000    0.000    0.000    0.000 
#
# Total GULP energy -134350.216553 kJ/mol
# GULP energy per Si atom -5597.925690 kJ/mol
# Density = 1.985808 g / cm^3
# Si number density = 19.903380 Si / 1000 Ang^3
#
#
#
# Elastic Constant Matrix: (Units=GPa)
#
#
# Indices 1 2 3 4 5 6 
#
# 1 99.0408 28.6939 43.5129 0.0000 -4.4364 0.0000
# 2 28.6939 58.7437 24.4879 0.0000 -10.7381 0.0000
# 3 43.5129 24.4879 115.1211 0.0000 -23.8621 0.0000
# 4 0.0000 0.0000 0.0000 -62.0338 0.0000 -72.9587
# 5 -4.4364 -10.7381 -23.8621 0.0000 53.2308 0.0000
# 6 0.0000 0.0000 0.0000 -72.9587 0.0000 -33.2344
#
#
#
# Elastic Compliance Matrix: (Units=1/GPa)
#
#
# Indices 1 2 3 4 5 6 
#
# 1 0.013403 -0.005064 -0.004376 0.000000 -0.001866 0.000000
# 2 -0.005064 0.020827 -0.001910 0.000000 0.002923 0.000000
# 3 -0.004376 -0.001910 0.011676 0.000000 0.004484 0.000000
# 4 0.000000 0.000000 0.000000 0.010190 0.000000 -0.022371
# 5 -0.001866 0.002923 0.004484 0.000000 0.021230 0.000000
# 6 0.000000 0.000000 0.000000 -0.022371 0.000000 0.019021
#
#
# Mechanical properties :
#
#
# Convention : Reuss Voigt Hill
#
# Bulk Modulus (GPa) = 43.09097 51.81055 47.45076
# Shear Modulus (GPa) = 39.43749 3.33993 21.38871
#
# Velocity S-wave (km/s) = 4.45617 1.29681 3.28171
# Velocity P-wave (km/s) = 6.94073 5.32258 6.18480
#
# Compressibility (1/GPa) = 0.02320672
#
# Stress axis : x y z
#
# Youngs Moduli (GPa) = 74.61191 48.01413 85.64461
#
# Poissons Ratio (x) = 0.24313 0.37474
# Poissons Ratio (y) = 0.37782 0.16361
# Poissons Ratio (z) = 0.32647 0.09173
#
# Static dielectric constant tensor:
#      x y z
#    x 1.670060 0.000000 0.001360 
#    y 0.000000 1.701760 0.000000 
#    z 0.001360 0.000000 1.663430 
# 
# From -- ./inp_files/33756.got.cif
#   From: 2010.05.17/outbox.cif.g08.bks.cpg/sg13_17_cif.got.tgz:33756.got - 2010.06.03 16:44:36.
