data_PCOD9238535
_publ_section_title
;
Structure prediction by ZEFSAII (Michael W. Deem and Ramdas Pophale) SiO2 
 PCOD9238535
Probable space group: P 2/C
;
_chemical_formula_sum "Si O2"
_cell_formula_units_Z 24
_cell_length_a 8.720153
_cell_length_b 8.516926
_cell_length_c 21.711526
_cell_angle_alpha 90.000000
_cell_angle_beta 133.638889
_cell_angle_gamma 90.000000
_cell_volume 1166.965653
_symmetry_space_group_name_H-M "P 2/C"
_symmetry_group_IT_number 13
_symmetry_cell_setting 'monoclinic'
loop_
_space_group_symop_operation_xyz
x,y,z
-x,y,1/2-z
-x,-y,-z
x,-y,1/2+z
loop_
_atom_site_type_symbol
_atom_site_label
_atom_site_fract_x
_atom_site_fract_y
_atom_site_fract_z
Si Si1 0.425474 0.093695 0.288038
Si Si2 0.260274 0.860297 0.074055
Si Si3 0.235848 0.670337 0.822920
Si Si4 0.400994 0.603185 0.290092
Si Si5 0.268955 0.081507 0.437460
Si Si6 0.908630 0.841096 0.344781
O O1 0.500000 0.192252 0.250000
O O2 0.263244 0.185199 0.284126
O O3 0.621557 0.026689 0.380717
O O4 0.296185 0.950676 0.222830
O O5 0.441651 0.730645 0.136004
O O6 0.086633 0.827652 0.079191
O O7 0.196063 0.865385 0.985498
O O8 0.383795 0.536685 0.834710
O O9 0.272622 0.760063 0.897422
O O10 0.000000 0.608738 0.750000
O O11 0.500000 0.565090 0.250000
O O12 0.170594 0.682175 0.210341
O O13 0.500000 0.000000 0.500000
O O14 0.106493 0.940257 0.374284
#
# Coordination Sequence:
#
# PCOD9238535 Si02
#       6
#     4   4   4   4   4   4
#     4   9  17  35  61  81 108 155 207 246 277 344
#     4   9  19  38  62  87 114 155 202 249 294 351
#     4  12  23  37  56  90 125 156 194 247 305 362
#     4   9  21  42  65  86 115 160 208 249 294 353
#     4  12  23  35  59  92 128 158 191 248 308 359
#     4   9  19  39  63  83 112 158 212 245 282 352
#
# _framework density 20.566158000000001
#
# number of rings (size 3 to 8) (size 9 to 14) (size 15 to 20)
#    0.000    2.000    3.333    3.000    0.000    2.000 
#    0.000    0.000    0.000    4.000    0.000    0.000 
#    0.000    0.000    0.000    0.000    0.000    0.000 
#
# Total GULP energy -133606.867305 kJ/mol
# GULP energy per Si atom -5566.952804 kJ/mol
# Density = 2.051935 g / cm^3
# Si number density = 20.566158 Si / 1000 Ang^3
#
#
#
# Elastic Constant Matrix: (Units=GPa)
#
#
# Indices 1 2 3 4 5 6 
#
# 1 56.2867 32.4467 26.0269 0.0000 -3.4698 0.0000
# 2 32.4467 86.4249 31.7828 0.0000 -7.9556 0.0000
# 3 26.0269 31.7828 57.3834 0.0000 -11.2736 0.0000
# 4 0.0000 0.0000 0.0000 32.7028 0.0000 -0.0166
# 5 -3.4698 -7.9556 -11.2736 0.0000 41.9897 0.0000
# 6 0.0000 0.0000 0.0000 -0.0166 0.0000 41.6936
#
#
#
# Elastic Compliance Matrix: (Units=1/GPa)
#
#
# Indices 1 2 3 4 5 6 
#
# 1 0.025222 -0.006641 -0.008022 0.000000 -0.001328 0.000000
# 2 -0.006641 0.016295 -0.005821 0.000000 0.000976 0.000000
# 3 -0.008022 -0.005821 0.025276 0.000000 0.005020 0.000000
# 4 0.000000 0.000000 0.000000 0.030578 0.000000 0.000012
# 5 -0.001328 0.000976 0.005020 0.000000 0.025238 0.000000
# 6 0.000000 0.000000 0.000000 0.000012 0.000000 0.023985
#
#
# Mechanical properties :
#
#
# Convention : Reuss Voigt Hill
#
# Bulk Modulus (GPa) = 38.72514 42.28976 40.50745
# Shear Modulus (GPa) = 25.48793 30.59978 28.04386
#
# Velocity S-wave (km/s) = 3.52421 3.86148 3.69669
# Velocity P-wave (km/s) = 5.95235 6.36308 6.16114
#
# Compressibility (1/GPa) = 0.02582302
#
# Stress axis : x y z
#
# Youngs Moduli (GPa) = 39.64751 61.36982 39.56365
#
# Poissons Ratio (x) = 0.40757 0.31739
# Poissons Ratio (y) = 0.26331 0.23031
# Poissons Ratio (z) = 0.31807 0.35725
#
# Static dielectric constant tensor:
#      x y z
#    x 1.857980 0.000000 -0.011330 
#    y 0.000000 1.741890 0.000000 
#    z -0.011330 0.000000 1.815670 
# 
# From -- ./inp_files/75772.got.cif
#   From: 2010.05.17/outbox.cif.g08.bks.cpg/sg13_38_cif.got.tgz:75772.got - 2010.06.03 16:44:36.
