data_PCOD9238194
_publ_section_title
;
Structure prediction by ZEFSAII (Michael W. Deem and Ramdas Pophale) SiO2 
 PCOD9238194
Probable space group: P 2/C
;
_chemical_formula_sum "Si O2"
_cell_formula_units_Z 28
_cell_length_a 9.602752
_cell_length_b 15.548238
_cell_length_c 10.873549
_cell_angle_alpha 90.000000
_cell_angle_beta 59.204412
_cell_angle_gamma 90.000000
_cell_volume 1394.572287
_symmetry_space_group_name_H-M "P 2/C"
_symmetry_group_IT_number 13
_symmetry_cell_setting 'monoclinic'
loop_
_space_group_symop_operation_xyz
x,y,z
-x,y,1/2-z
-x,-y,-z
x,-y,1/2+z
loop_
_atom_site_type_symbol
_atom_site_label
_atom_site_fract_x
_atom_site_fract_y
_atom_site_fract_z
Si Si1 0.291187 0.040049 0.201067
Si Si2 0.236864 0.173192 0.020059
Si Si3 0.681204 0.320442 0.166917
Si Si4 0.810269 0.635379 0.870503
Si Si5 0.500000 0.080605 0.750000
Si Si6 0.901076 0.845720 0.546881
Si Si7 0.605009 0.492887 0.077878
Si Si8 0.000000 0.920264 0.250000
O O1 0.303274 0.123149 0.109256
O O2 0.220052 0.077872 0.360638
O O3 0.444145 0.982149 0.165397
O O4 0.155849 0.979514 0.202215
O O5 0.235283 0.274251 0.045698
O O6 0.050565 0.150450 0.074455
O O7 0.350493 0.139667 0.859070
O O8 0.500000 0.281945 0.250000
O O9 0.717680 0.364446 0.281634
O O10 0.810856 0.245343 0.091629
O O11 0.674543 0.397018 0.070308
O O12 0.000000 0.632026 0.750000
O O13 0.749938 0.559747 0.986586
O O14 0.971137 0.863240 0.382052
O O15 0.500000 0.512421 0.250000
O O16 0.500000 0.500000 0.000000
#
# Coordination Sequence:
#
# PCOD9238194 Si02
#       8
#     4   4   4   4   2   4   4   2
#     4  12  23  44  71  94 136 193 236 293 356 417
#     4  12  24  46  69  98 144 185 232 298 363 411
#     4  11  24  47  75 103 136 182 239 279 363 439
#     4  12  24  46  77 105 140 191 239 289 363 443
#     4  12  28  40  64 114 138 182 252 292 348 424
#     4  12  24  46  68 100 139 189 230 301 357 417
#     4  11  24  50  77 108 147 184 229 303 367 430
#     4  12  24  42  68  94 142 184 242 288 352 412
#
# _framework density 20.077839000000001
#
# number of rings (size 3 to 8) (size 9 to 14) (size 15 to 20)
#    0.000    0.286    8.571    1.714    2.000    1.714 
#    3.857    0.000    0.000    0.000    0.000    0.000 
#    0.000    0.000    0.000    0.000    0.000    0.000 
#
# Total GULP energy -156493.600626 kJ/mol
# GULP energy per Si atom -5589.057165 kJ/mol
# Density = 2.003214 g / cm^3
# Si number density = 20.077839 Si / 1000 Ang^3
#
#
#
# Elastic Constant Matrix: (Units=GPa)
#
#
# Indices 1 2 3 4 5 6 
#
# 1 92.9892 36.3879 18.6161 0.0000 -3.3454 0.0000
# 2 36.3879 109.4916 33.9284 0.0000 -13.0943 0.0000
# 3 18.6161 33.9284 64.3236 0.0000 5.8752 0.0000
# 4 0.0000 0.0000 0.0000 28.4724 0.0000 -1.0687
# 5 -3.3454 -13.0943 5.8752 0.0000 35.6973 0.0000
# 6 0.0000 0.0000 0.0000 -1.0687 0.0000 33.3424
#
#
#
# Elastic Compliance Matrix: (Units=1/GPa)
#
#
# Indices 1 2 3 4 5 6 
#
# 1 0.012517 -0.003607 -0.001732 0.000000 0.000135 0.000000
# 2 -0.003607 0.012925 -0.006270 0.000000 0.005435 0.000000
# 3 -0.001732 -0.006270 0.019879 0.000000 -0.005734 0.000000
# 4 0.000000 0.000000 0.000000 0.035164 0.000000 0.001127
# 5 0.000135 0.005435 -0.005734 0.000000 0.030963 0.000000
# 6 0.000000 0.000000 0.000000 0.001127 0.000000 0.030028
#
#
# Mechanical properties :
#
#
# Convention : Reuss Voigt Hill
#
# Bulk Modulus (GPa) = 45.24468 49.40768 47.32618
# Shear Modulus (GPa) = 29.05946 31.36056 30.21001
#
# Velocity S-wave (km/s) = 3.80852 3.95644 3.88318
# Velocity P-wave (km/s) = 6.47482 6.74779 6.61272
#
# Compressibility (1/GPa) = 0.02210204
#
# Stress axis : x y z
#
# Youngs Moduli (GPa) = 79.89108 77.37187 50.30535
#
# Poissons Ratio (x) = 0.27907 0.08715
# Poissons Ratio (y) = 0.28816 0.31540
# Poissons Ratio (z) = 0.13841 0.48511
#
# Static dielectric constant tensor:
#      x y z
#    x 1.721080 0.000000 -0.005190 
#    y 0.000000 1.692480 0.000000 
#    z -0.005190 0.000000 1.737160 
# 
# From -- ./inp_files/30337.got.cif
#   From: 2010.05.17/outbox.cif.g08.bks.cpg/sg13_16_cif.got.tgz:30337.got - 2010.06.03 16:44:36.
