data_PCOD9238133
_publ_section_title
;
Structure prediction by ZEFSAII (Michael W. Deem and Ramdas Pophale) SiO2 
 PCOD9238133
Probable space group: P 2/C
;
_chemical_formula_sum "Si O2"
_cell_formula_units_Z 20
_cell_length_a 5.440547
_cell_length_b 12.238543
_cell_length_c 17.138980
_cell_angle_alpha 90.000000
_cell_angle_beta 48.877168
_cell_angle_gamma 90.000000
_cell_volume 859.658606
_symmetry_space_group_name_H-M "P 2/C"
_symmetry_group_IT_number 13
_symmetry_cell_setting 'monoclinic'
loop_
_space_group_symop_operation_xyz
x,y,z
-x,y,1/2-z
-x,-y,-z
x,-y,1/2+z
loop_
_atom_site_type_symbol
_atom_site_label
_atom_site_fract_x
_atom_site_fract_y
_atom_site_fract_z
Si Si1 0.570368 0.961590 0.652814
Si Si2 0.705182 0.139351 0.510791
Si Si3 0.622692 0.523260 0.563073
Si Si4 0.377537 0.311135 0.688248
Si Si5 0.328037 0.748920 0.649849
O O1 0.500000 0.020326 0.750000
O O2 0.360121 0.852063 0.699898
O O3 0.933059 0.912026 0.566832
O O4 0.499298 0.040770 0.594290
O O5 0.624671 0.240117 0.584089
O O6 0.645583 0.190511 0.438761
O O7 0.500000 0.500000 0.500000
O O8 0.420173 0.437968 0.657139
O O9 0.576015 0.649583 0.595189
O O10 0.000000 0.500000 0.500000
O O11 0.500000 0.295359 0.750000
O O12 0.000000 0.279174 0.750000
O O13 0.000000 0.694084 0.750000
#
# Coordination Sequence:
#
# PCOD9238133 Si02
#       5
#     4   4   4   4   4
#     4  11  24  45  72 109 146 195 254 312 385 454
#     4  11  25  46  72 103 153 195 249 316 376 454
#     4  12  26  48  78 107 153 198 249 316 380 445
#     4  12  27  48  74 110 150 201 253 306 378 453
#     4  12  25  44  74 107 145 198 252 314 380 456
#
# _framework density 23.265052000000001
#
# number of rings (size 3 to 8) (size 9 to 14) (size 15 to 20)
#    0.000    0.400    4.000    4.200    2.800    1.600 
#    0.000    0.000    0.000    0.000    0.000    0.000 
#    0.000    0.000    0.000    0.000    0.000    0.000 
#
# Total GULP energy -111700.191553 kJ/mol
# GULP energy per Si atom -5585.009578 kJ/mol
# Density = 2.321210 g / cm^3
# Si number density = 23.265052 Si / 1000 Ang^3
#
#
#
# Elastic Constant Matrix: (Units=GPa)
#
#
# Indices 1 2 3 4 5 6 
#
# 1 112.5246 24.8234 55.0310 0.0000 6.8947 0.0000
# 2 24.8234 140.7073 34.8627 0.0000 0.2615 0.0000
# 3 55.0310 34.8627 118.9203 0.0000 18.2636 0.0000
# 4 0.0000 0.0000 0.0000 35.8464 0.0000 -5.9906
# 5 6.8947 0.2615 18.2636 0.0000 50.0993 0.0000
# 6 0.0000 0.0000 0.0000 -5.9906 0.0000 22.1660
#
#
#
# Elastic Compliance Matrix: (Units=1/GPa)
#
#
# Indices 1 2 3 4 5 6 
#
# 1 0.011568 -0.000759 -0.005176 0.000000 0.000299 0.000000
# 2 -0.000759 0.007746 -0.002044 0.000000 0.000809 0.000000
# 3 -0.005176 -0.002044 0.011962 0.000000 -0.003638 0.000000
# 4 0.000000 0.000000 0.000000 0.029216 0.000000 0.007896
# 5 0.000299 0.000809 -0.003638 0.000000 0.021241 0.000000
# 6 0.000000 0.000000 0.000000 0.007896 0.000000 0.047248
#
#
# Mechanical properties :
#
#
# Convention : Reuss Voigt Hill
#
# Bulk Modulus (GPa) = 65.28511 66.84294 66.06402
# Shear Modulus (GPa) = 33.32330 38.78469 36.05400
#
# Velocity S-wave (km/s) = 3.78872 4.08742 3.94090
# Velocity P-wave (km/s) = 6.87471 7.14629 7.01181
#
# Compressibility (1/GPa) = 0.01531743
#
# Stress axis : x y z
#
# Youngs Moduli (GPa) = 86.44841 129.10369 83.59600
#
# Poissons Ratio (x) = 0.09796 0.43273
# Poissons Ratio (y) = 0.06559 0.17086
# Poissons Ratio (z) = 0.44750 0.26387
#
# Static dielectric constant tensor:
#      x y z
#    x 2.009540 0.000000 -0.012710 
#    y 0.000000 1.852460 0.000000 
#    z -0.012710 0.000000 1.885060 
# 
# From -- ./inp_files/61002.got.cif
#   From: 2010.05.17/outbox.cif.g08.bks.cpg/sg13_31_cif.got.tgz:61002.got - 2010.06.03 16:44:36.
