data_PCOD9238945
_publ_section_title
;
Structure prediction by ZEFSAII (Michael W. Deem and Ramdas Pophale) SiO2 
 PCOD9238945
Probable space group: P 2/C
;
_chemical_formula_sum "Si O2"
_cell_formula_units_Z 32
_cell_length_a 12.000000
_cell_length_b 9.000000
_cell_length_c 30.000000
_cell_angle_alpha 90.000000
_cell_angle_beta 30.000000
_cell_angle_gamma 90.000000
_cell_volume 1620.000000
_symmetry_space_group_name_H-M "P 2/C"
_symmetry_group_IT_number 13
_symmetry_cell_setting 'monoclinic'
loop_
_space_group_symop_operation_xyz
x,y,z
-x,y,1/2-z
-x,-y,-z
x,-y,1/2+z
loop_
_atom_site_type_symbol
_atom_site_label
_atom_site_fract_x
_atom_site_fract_y
_atom_site_fract_z
Si Si1 0.421924 0.175448 0.586628
Si Si2 0.165631 0.607913 0.551687
Si Si3 0.880288 0.292713 0.889506
Si Si4 0.732848 0.718863 0.649112
Si Si5 0.413962 0.572693 0.887621
Si Si6 0.549633 0.141436 0.073955
Si Si7 0.611031 0.732733 0.298869
Si Si8 0.733778 0.011782 0.599036
O O1 0.659155 0.261720 0.494420
O O2 0.238553 0.237804 0.615262
O O3 0.372549 0.226435 0.654290
O O4 0.433545 0.993343 0.585601
O O5 0.133837 0.473146 0.598451
O O6 0.273790 0.519105 0.472570
O O7 0.938683 0.679393 0.610159
O O8 0.138044 0.244282 0.805556
O O9 0.737845 0.210926 0.977150
O O10 0.500000 0.664726 0.750000
O O11 0.742784 0.644979 0.596272
O O12 0.703114 0.894503 0.649602
O O13 0.544084 0.706619 0.868996
O O14 0.558804 0.442999 0.814654
O O15 0.639534 0.053618 0.085496
O O16 0.409361 0.833975 0.347758
O O17 0.000000 0.000000 0.500000
#
# Coordination Sequence:
#
# PCOD9238945 Si02
#       8
#     4   4   4   4   4   4   4   4
#     4  10  20  38  59  81 115 158 193 236 299 360
#     4  10  21  36  58  83 113 154 195 233 289 364
#     4  11  21  36  58  87 116 148 197 253 292 344
#     4  11  21  35  55  82 114 145 185 243 294 344
#     4   9  19  37  57  81 113 150 189 234 295 361
#     4   9  20  36  58  83 111 150 193 233 288 359
#     4  10  21  36  58  85 114 149 196 250 298 350
#     4  10  21  38  57  78 110 152 189 230 293 358
#
# _framework density 19.753086
#
# number of rings (size 3 to 8) (size 9 to 14) (size 15 to 20)
#    0.000    2.000    0.000    4.500    0.000    4.000 
#    0.000    3.125    0.000   12.000    0.000    0.000 
#    0.000    0.000    0.000    0.000    0.000    0.000 
#
# Total GULP energy -178186.091089 kJ/mol
# GULP energy per Si atom -5568.315347 kJ/mol
# Density = 1.970813 g / cm^3
# Si number density = 19.753086 Si / 1000 Ang^3
#
#
#
# Elastic Constant Matrix: (Units=GPa)
#
#
# Indices 1 2 3 4 5 6 
#
# 1 68.9626 45.4600 15.3753 0.0000 -23.4961 0.0000
# 2 45.4600 145.2410 26.1878 0.0000 -10.3331 0.0000
# 3 15.3753 26.1878 47.4639 0.0000 -15.3846 0.0000
# 4 0.0000 0.0000 0.0000 24.8198 0.0000 2.0534
# 5 -23.4961 -10.3331 -15.3846 0.0000 27.7122 0.0000
# 6 0.0000 0.0000 0.0000 2.0534 0.0000 41.1124
#
#
#
# Elastic Compliance Matrix: (Units=1/GPa)
#
#
# Indices 1 2 3 4 5 6 
#
# 1 0.025465 -0.006915 0.002108 0.000000 0.020183 0.000000
# 2 -0.006915 0.009532 -0.004594 0.000000 -0.004859 0.000000
# 3 0.002108 -0.004594 0.027979 0.000000 0.015607 0.000000
# 4 0.000000 0.000000 0.000000 0.040458 0.000000 -0.002021
# 5 0.020183 -0.004859 0.015607 0.000000 0.060050 0.000000
# 6 0.000000 0.000000 0.000000 -0.002021 0.000000 0.024424
#
#
# Mechanical properties :
#
#
# Convention : Reuss Voigt Hill
#
# Bulk Modulus (GPa) = 22.63736 48.41264 35.52500
# Shear Modulus (GPa) = 22.57988 30.37184 26.47586
#
# Velocity S-wave (km/s) = 3.38465 3.92545 3.66504
# Velocity P-wave (km/s) = 5.17296 6.71622 5.99446
#
# Compressibility (1/GPa) = 0.04417477
#
# Stress axis : x y z
#
# Youngs Moduli (GPa) = 39.26910 104.90879 35.74047
#
# Poissons Ratio (x) = 0.72542 -0.07534
# Poissons Ratio (y) = 0.27154 0.16420
# Poissons Ratio (z) = -0.08278 0.48198
#
# Static dielectric constant tensor:
#      x y z
#    x 1.683860 0.000000 0.025650 
#    y 0.000000 1.759790 0.000000 
#    z 0.025650 0.000000 1.754150 
# 
# From -- ./inp_files/96696.got.cif
#   From: 2010.05.17/outbox.ucp.g08.bks.cvg/sg13_49_cif.got.tgz:96696.got - 2010.06.11 12:23:55.
