data_PCOD9238457
_publ_section_title
;
Structure prediction by ZEFSAII (Michael W. Deem and Ramdas Pophale) SiO2 
 PCOD9238457
Probable space group: P 2/C
;
_chemical_formula_sum "Si O2"
_cell_formula_units_Z 24
_cell_length_a 8.597471
_cell_length_b 17.502031
_cell_length_c 12.487387
_cell_angle_alpha 90.000000
_cell_angle_beta 31.406853
_cell_angle_gamma 90.000000
_cell_volume 979.177847
_symmetry_space_group_name_H-M "P 2/C"
_symmetry_group_IT_number 13
_symmetry_cell_setting 'monoclinic'
loop_
_space_group_symop_operation_xyz
x,y,z
-x,y,1/2-z
-x,-y,-z
x,-y,1/2+z
loop_
_atom_site_type_symbol
_atom_site_label
_atom_site_fract_x
_atom_site_fract_y
_atom_site_fract_z
Si Si1 0.500000 0.489062 0.750000
Si Si2 0.827667 0.797517 0.184082
Si Si3 0.500000 0.929828 0.250000
Si Si4 0.670933 0.952154 0.487658
Si Si5 0.561011 0.624837 0.559062
Si Si6 0.193618 0.367288 0.813158
Si Si7 0.453988 0.791491 0.912564
O O1 0.465300 0.546588 0.670593
O O2 0.232606 0.429170 0.883396
O O3 0.691170 0.872029 0.210773
O O4 0.758124 0.717164 0.169929
O O5 0.690979 0.786396 0.382795
O O6 0.184727 0.799189 0.985304
O O7 0.292856 0.988128 0.437393
O O8 0.000000 0.929038 0.250000
O O9 0.500000 0.000000 0.500000
O O10 0.451848 0.880178 0.640834
O O11 0.582232 0.616475 0.418510
O O12 0.403694 0.706593 0.677982
O O13 0.882178 0.633815 0.430817
#
# Coordination Sequence:
#
# PCOD9238457 Si02
#       7
#     2   4   2   4   4   4   4
#     4  12  19  31  52  90 112 130 196 251 287 334
#     4   9  17  35  59  81 107 162 199 230 294 373
#     4  12  23  35  64  94 120 158 208 253 317 358
#     4  12  24  41  63  94 128 160 206 266 308 361
#     4   9  20  34  56  77 108 156 186 232 289 355
#     4   9  19  35  56  77 110 152 192 232 288 355
#     4   9  17  38  57  75 117 154 194 237 296 364
#
# _framework density 24.510356000000002
#
# number of rings (size 3 to 8) (size 9 to 14) (size 15 to 20)
#    0.000    2.000    3.333    3.500    0.000    3.333 
#    0.000    1.667    0.000    0.000    0.000    0.000 
#    0.000    0.000    0.000    0.000    0.000    0.000 
#
# Total GULP energy -133733.317250 kJ/mol
# GULP energy per Si atom -5572.221552 kJ/mol
# Density = 2.445457 g / cm^3
# Si number density = 24.510356 Si / 1000 Ang^3
#
#
#
# Elastic Constant Matrix: (Units=GPa)
#
#
# Indices 1 2 3 4 5 6 
#
# 1 64.8170 29.0875 7.4072 0.0000 -2.2315 0.0000
# 2 29.0875 231.8301 20.9755 0.0000 10.9150 0.0000
# 3 7.4072 20.9755 39.2750 0.0000 12.8476 0.0000
# 4 0.0000 0.0000 0.0000 27.5818 0.0000 0.4631
# 5 -2.2315 10.9150 12.8476 0.0000 20.3567 0.0000
# 6 0.0000 0.0000 0.0000 0.4631 0.0000 37.0522
#
#
#
# Elastic Compliance Matrix: (Units=1/GPa)
#
#
# Indices 1 2 3 4 5 6 
#
# 1 0.016969 -0.002032 -0.003881 0.000000 0.005399 0.000000
# 2 -0.002032 0.004797 -0.001593 0.000000 -0.001789 0.000000
# 3 -0.003881 -0.001593 0.033904 0.000000 -0.020969 0.000000
# 4 0.000000 0.000000 0.000000 0.036263 0.000000 -0.000453
# 5 0.005399 -0.001789 -0.020969 0.000000 0.063909 0.000000
# 6 0.000000 0.000000 0.000000 -0.000453 0.000000 0.026995
#
#
# Mechanical properties :
#
#
# Convention : Reuss Voigt Hill
#
# Bulk Modulus (GPa) = 24.59639 50.09582 37.34611
# Shear Modulus (GPa) = 23.65157 35.56162 29.60659
#
# Velocity S-wave (km/s) = 3.10975 3.81318 3.47929
# Velocity P-wave (km/s) = 4.79072 6.31428 5.60451
#
# Compressibility (1/GPa) = 0.04065638
#
# Stress axis : x y z
#
# Youngs Moduli (GPa) = 58.92941 208.46903 29.49535
#
# Poissons Ratio (x) = 0.42365 0.11448
# Poissons Ratio (y) = 0.11976 0.04700
# Poissons Ratio (z) = 0.22872 0.33216
#
# Static dielectric constant tensor:
#      x y z
#    x 1.936710 0.000000 0.048410 
#    y 0.000000 1.974150 0.000000 
#    z 0.048410 0.000000 2.107760 
# 
# From -- ./inp_files/47580.got.cif
#   From: 2010.05.17/outbox.cif.g08.bks.cpg/sg13_24_cif.got.tgz:47580.got - 2010.06.03 16:44:36.
