data_PCOD9238581
_publ_section_title
;
Structure prediction by ZEFSAII (Michael W. Deem and Ramdas Pophale) SiO2 
 PCOD9238581
Probable space group: P 2/C
;
_chemical_formula_sum "Si O2"
_cell_formula_units_Z 28
_cell_length_a 18.678415
_cell_length_b 4.655989
_cell_length_c 13.332893
_cell_angle_alpha 90.000000
_cell_angle_beta 58.716933
_cell_angle_gamma 90.000000
_cell_volume 990.935789
_symmetry_space_group_name_H-M "P 2/C"
_symmetry_group_IT_number 13
_symmetry_cell_setting 'monoclinic'
loop_
_space_group_symop_operation_xyz
x,y,z
-x,y,1/2-z
-x,-y,-z
x,-y,1/2+z
loop_
_atom_site_type_symbol
_atom_site_label
_atom_site_fract_x
_atom_site_fract_y
_atom_site_fract_z
Si Si1 0.504177 0.487389 0.131902
Si Si2 0.731647 0.409715 0.649611
Si Si3 0.031882 0.712687 0.128874
Si Si4 0.684163 0.403839 0.458460
Si Si5 0.400621 0.968730 0.133493
Si Si6 0.840217 0.931299 0.621874
Si Si7 0.867415 0.560331 0.776345
O O1 0.500000 0.595484 0.250000
O O2 0.399555 0.593643 0.963545
O O3 0.439257 0.224748 0.173618
O O4 0.481441 0.750920 0.073373
O O5 0.709101 0.325143 0.553197
O O6 0.759009 0.740073 0.644573
O O7 0.661057 0.263341 0.769482
O O8 0.815836 0.253723 0.620947
O O9 0.082490 0.860199 0.005578
O O10 0.094239 0.488012 0.140518
O O11 0.000000 0.895735 0.250000
O O12 0.945671 0.570751 0.157525
O O13 0.652669 0.140722 0.411992
O O14 0.770400 0.539749 0.354499
O O15 0.855170 0.859859 0.727311
#
# Coordination Sequence:
#
# PCOD9238581 Si02
#       7
#     4   4   4   4   4   4   4
#     4  12  27  48  74 105 145 185 238 292 355 416
#     4  12  27  43  77 105 142 182 244 290 346 426
#     4   8  20  43  72 105 148 179 241 287 357 420
#     4  12  25  47  75 105 145 190 237 294 354 422
#     4  12  27  49  70 107 142 188 237 294 352 424
#     4  12  23  47  71 109 140 189 237 291 354 419
#     4   9  21  43  75 104 142 189 234 292 355 423
#
# _framework density 28.256119999999999
#
# number of rings (size 3 to 8) (size 9 to 14) (size 15 to 20)
#    0.857    0.000    4.286    2.571    0.000    2.286 
#    0.000    5.000    0.000    0.000    0.000    0.000 
#    0.000    0.000    0.000    0.000    0.000    0.000 
#
# Total GULP energy -156586.507345 kJ/mol
# GULP energy per Si atom -5592.375262 kJ/mol
# Density = 2.819181 g / cm^3
# Si number density = 28.256120 Si / 1000 Ang^3
#
#
#
# Elastic Constant Matrix: (Units=GPa)
#
#
# Indices 1 2 3 4 5 6 
#
# 1 234.4344 51.8830 69.3648 0.0000 -12.7097 0.0000
# 2 51.8830 96.5212 9.1291 0.0000 -3.7473 0.0000
# 3 69.3648 9.1291 118.4433 0.0000 -14.9834 0.0000
# 4 0.0000 0.0000 0.0000 36.2206 0.0000 -5.0666
# 5 -12.7097 -3.7473 -14.9834 0.0000 71.6508 0.0000
# 6 0.0000 0.0000 0.0000 -5.0666 0.0000 44.7235
#
#
#
# Elastic Compliance Matrix: (Units=1/GPa)
#
#
# Indices 1 2 3 4 5 6 
#
# 1 0.005844 -0.002832 -0.003176 0.000000 0.000224 0.000000
# 2 -0.002832 0.011820 0.000783 0.000000 0.000280 0.000000
# 3 -0.003176 0.000783 0.010453 0.000000 0.001663 0.000000
# 4 0.000000 0.000000 0.000000 0.028053 0.000000 0.003178
# 5 0.000224 0.000280 0.001663 0.000000 0.014359 0.000000
# 6 0.000000 0.000000 0.000000 0.003178 0.000000 0.022720
#
#
# Mechanical properties :
#
#
# Convention : Reuss Voigt Hill
#
# Bulk Modulus (GPa) = 56.60455 78.90585 67.75520
# Shear Modulus (GPa) = 45.62551 51.78711 48.70631
#
# Velocity S-wave (km/s) = 4.02271 4.28574 4.15630
# Velocity P-wave (km/s) = 6.45387 7.24402 6.86033
#
# Compressibility (1/GPa) = 0.01766642
#
# Stress axis : x y z
#
# Youngs Moduli (GPa) = 171.10710 84.60451 95.66740
#
# Poissons Ratio (x) = 0.23963 0.30383
# Poissons Ratio (y) = 0.48464 -0.07492
# Poissons Ratio (z) = 0.54343 -0.06625
#
# Static dielectric constant tensor:
#      x y z
#    x 2.197970 0.000000 -0.000420 
#    y 0.000000 2.164030 0.000000 
#    z -0.000420 0.000000 2.303800 
# 
# From -- ./inp_files/54442.got.cif
#   From: 2010.05.17/outbox.cif.g08.bks.cpg/sg13_28_cif.got.tgz:54442.got - 2010.06.03 16:44:36.
