data_PCOD9238621
_publ_section_title
;
Structure prediction by ZEFSAII (Michael W. Deem and Ramdas Pophale) SiO2 
 PCOD9238621
Probable space group: P 2/C
;
_chemical_formula_sum "Si O2"
_cell_formula_units_Z 28
_cell_length_a 21.780783
_cell_length_b 9.243218
_cell_length_c 18.668613
_cell_angle_alpha 90.000000
_cell_angle_beta 159.114458
_cell_angle_gamma 90.000000
_cell_volume 1339.895762
_symmetry_space_group_name_H-M "P 2/C"
_symmetry_group_IT_number 13
_symmetry_cell_setting 'monoclinic'
loop_
_space_group_symop_operation_xyz
x,y,z
-x,y,1/2-z
-x,-y,-z
x,-y,1/2+z
loop_
_atom_site_type_symbol
_atom_site_label
_atom_site_fract_x
_atom_site_fract_y
_atom_site_fract_z
Si Si1 0.752401 0.372190 0.797659
Si Si2 0.777513 0.663026 0.902336
Si Si3 0.697112 0.516398 0.967452
Si Si4 0.158693 0.039771 0.225204
Si Si5 0.432369 0.836902 0.923568
Si Si6 0.160608 0.718340 0.262407
Si Si7 0.042932 0.252595 0.218308
O O1 0.721620 0.537138 0.785654
O O2 0.582093 0.274257 0.607829
O O3 0.844389 0.355814 0.821091
O O4 0.877965 0.314007 0.996452
O O5 0.754774 0.595789 0.956527
O O6 0.651353 0.793701 0.743657
O O7 0.973305 0.708540 0.096424
O O8 0.500000 0.465740 0.750000
O O9 0.712529 0.631016 0.048318
O O10 0.823744 0.384344 0.124534
O O11 0.225483 0.881174 0.319466
O O12 0.278805 0.151477 0.313557
O O13 0.107366 0.122535 0.240290
O O14 0.000000 0.000000 0.000000
O O15 0.500000 0.000000 0.000000
O O16 0.000000 0.197920 0.250000
#
# Coordination Sequence:
#
# PCOD9238621 Si02
#       7
#     4   4   4   4   4   4   4
#     4  12  24  44  74 106 139 185 244 302 357 428
#     4  12  25  45  74 104 142 191 238 300 366 428
#     4  12  28  47  70 105 146 185 241 306 364 427
#     4  12  25  46  71 106 142 193 238 293 362 432
#     4  12  25  45  74 106 147 183 240 300 360 437
#     4  12  24  47  72 102 144 191 240 293 362 440
#     4  12  25  47  71 103 143 187 240 296 361 434
#
# _framework density 20.897147
#
# number of rings (size 3 to 8) (size 9 to 14) (size 15 to 20)
#    0.000    0.000    7.143    2.143    4.000    1.143 
#    0.000    0.714    0.000    0.000    0.000    0.000 
#    0.000    0.000    0.000    0.000    0.000    0.000 
#
# Total GULP energy -156623.233189 kJ/mol
# GULP energy per Si atom -5593.686900 kJ/mol
# Density = 2.084958 g / cm^3
# Si number density = 20.897147 Si / 1000 Ang^3
#
#
#
# Elastic Constant Matrix: (Units=GPa)
#
#
# Indices 1 2 3 4 5 6 
#
# 1 143.1802 20.0205 29.7054 0.0000 -18.3835 0.0000
# 2 20.0205 72.0476 7.5355 0.0000 -15.4513 0.0000
# 3 29.7054 7.5355 116.4369 0.0000 -5.8373 0.0000
# 4 0.0000 0.0000 0.0000 36.5523 0.0000 -3.8256
# 5 -18.3835 -15.4513 -5.8373 0.0000 30.4789 0.0000
# 6 0.0000 0.0000 0.0000 -3.8256 0.0000 40.7410
#
#
#
# Elastic Compliance Matrix: (Units=1/GPa)
#
#
# Indices 1 2 3 4 5 6 
#
# 1 0.008020 -0.001210 -0.001773 0.000000 0.003884 0.000000
# 2 -0.001210 0.015800 -0.000352 0.000000 0.007212 0.000000
# 3 -0.001773 -0.000352 0.009088 0.000000 0.000493 0.000000
# 4 0.000000 0.000000 0.000000 0.027630 0.000000 0.002594
# 5 0.003884 0.007212 0.000493 0.000000 0.038903 0.000000
# 6 0.000000 0.000000 0.000000 0.002594 0.000000 0.024789
#
#
# Mechanical properties :
#
#
# Convention : Reuss Voigt Hill
#
# Bulk Modulus (GPa) = 38.11413 49.57640 43.84527
# Shear Modulus (GPa) = 35.80494 39.84800 37.82647
#
# Velocity S-wave (km/s) = 4.14380 4.37150 4.25917
# Velocity P-wave (km/s) = 6.41664 7.01823 6.72417
#
# Compressibility (1/GPa) = 0.02623699
#
# Stress axis : x y z
#
# Youngs Moduli (GPa) = 124.68875 63.29291 110.03327
#
# Poissons Ratio (x) = 0.07659 0.19509
# Poissons Ratio (y) = 0.15089 0.03875
# Poissons Ratio (z) = 0.22107 0.02229
#
# Static dielectric constant tensor:
#      x y z
#    x 1.778360 0.000000 0.064080 
#    y 0.000000 1.862440 0.000000 
#    z 0.064080 0.000000 1.781670 
# 
# From -- ./inp_files/82207.got.cif
#   From: 2010.05.17/outbox.cif.g08.bks.cpg/sg13_42_cif.got.tgz:82207.got - 2010.06.03 16:44:36.
