data_PCOD9238418
_publ_section_title
;
Structure prediction by ZEFSAII (Michael W. Deem and Ramdas Pophale) SiO2 
 PCOD9238418
Probable space group: P 2/C
;
_chemical_formula_sum "Si O2"
_cell_formula_units_Z 16
_cell_length_a 8.241014
_cell_length_b 7.703257
_cell_length_c 10.099271
_cell_angle_alpha 90.000000
_cell_angle_beta 90.022592
_cell_angle_gamma 90.000000
_cell_volume 641.128424
_symmetry_space_group_name_H-M "P 2/C"
_symmetry_group_IT_number 13
_symmetry_cell_setting 'monoclinic'
loop_
_space_group_symop_operation_xyz
x,y,z
-x,y,1/2-z
-x,-y,-z
x,-y,1/2+z
loop_
_atom_site_type_symbol
_atom_site_label
_atom_site_fract_x
_atom_site_fract_y
_atom_site_fract_z
Si Si1 0.826809 0.140848 0.689020
Si Si2 0.107545 0.461187 0.369830
Si Si3 0.340626 0.943343 0.578239
Si Si4 0.457396 0.612994 0.877185
O O1 0.829187 0.350046 0.678484
O O2 0.791863 0.077745 0.538823
O O3 0.000000 0.087974 0.750000
O O4 0.704699 0.065069 0.799072
O O5 0.267018 0.344772 0.393120
O O6 0.000000 0.387312 0.250000
O O7 0.000000 0.500000 0.500000
O O8 0.404345 0.760008 0.634061
O O9 0.500000 0.000000 0.500000
O O10 0.500000 0.499355 0.750000
O O11 0.500000 0.500000 0.000000
#
# Coordination Sequence:
#
# PCOD9238418 Si02
#       4
#     4   4   4   4
#     4  11  26  50  78 114 157 209 261 328 395 471
#     4  11  26  49  80 116 157 205 264 326 396 468
#     4  12  27  49  76 115 156 208 263 323 398 465
#     4  12  26  47  77 112 153 203 261 322 387 471
#
# _framework density 24.955998999999998
#
# number of rings (size 3 to 8) (size 9 to 14) (size 15 to 20)
#    0.000    0.500    2.500    4.500   10.500    0.000 
#    4.500    0.000    0.000    0.000    0.000    0.000 
#    0.000    0.000    0.000    0.000    0.000    0.000 
#
# Total GULP energy -89524.766363 kJ/mol
# GULP energy per Si atom -5595.297898 kJ/mol
# Density = 2.489920 g / cm^3
# Si number density = 24.955999 Si / 1000 Ang^3
#
#
#
# Elastic Constant Matrix: (Units=GPa)
#
#
# Indices 1 2 3 4 5 6 
#
# 1 155.8274 28.2193 75.8849 0.0000 5.2959 0.0000
# 2 28.2193 78.1659 24.4090 0.0000 -14.4576 0.0000
# 3 75.8849 24.4090 184.8793 0.0000 3.9084 0.0000
# 4 0.0000 0.0000 0.0000 37.4165 0.0000 -11.0023
# 5 5.2959 -14.4576 3.9084 0.0000 67.8265 0.0000
# 6 0.0000 0.0000 0.0000 -11.0023 0.0000 34.7459
#
#
#
# Elastic Compliance Matrix: (Units=1/GPa)
#
#
# Indices 1 2 3 4 5 6 
#
# 1 0.008373 -0.002223 -0.003123 0.000000 -0.000948 0.000000
# 2 -0.002223 0.014550 -0.001079 0.000000 0.003337 0.000000
# 3 -0.003123 -0.001079 0.006841 0.000000 -0.000380 0.000000
# 4 0.000000 0.000000 0.000000 0.029470 0.000000 0.009332
# 5 -0.000948 0.003337 -0.000380 0.000000 0.015551 0.000000
# 6 0.000000 0.000000 0.000000 0.009332 0.000000 0.031735
#
#
# Mechanical properties :
#
#
# Convention : Reuss Voigt Hill
#
# Bulk Modulus (GPa) = 59.12259 75.09992 67.11125
# Shear Modulus (GPa) = 39.99704 47.35506 43.67605
#
# Velocity S-wave (km/s) = 4.00772 4.36080 4.18798
# Velocity P-wave (km/s) = 6.71996 7.45075 7.09478
#
# Compressibility (1/GPa) = 0.01691401
#
# Stress axis : x y z
#
# Youngs Moduli (GPa) = 119.43047 68.72845 146.16834
#
# Poissons Ratio (x) = 0.15277 0.45652
# Poissons Ratio (y) = 0.26547 0.15774
# Poissons Ratio (z) = 0.37301 0.07417
#
# Static dielectric constant tensor:
#      x y z
#    x 2.354800 0.000000 -0.883640 
#    y 0.000000 -3.598150 0.000000 
#    z -0.883640 0.000000 4.243060 
# 
# From -- ./inp_files/10880.got.cif
#   From: 2010.05.17/outbox.cif.g08.bks.cpg/sg13_6_cif.got.tgz:10880.got - 2010.06.03 16:44:36.
