data_PCOD9238328
_publ_section_title
;
Structure prediction by ZEFSAII (Michael W. Deem and Ramdas Pophale) SiO2 
 PCOD9238328
Probable space group: P 2/C
;
_chemical_formula_sum "Si O2"
_cell_formula_units_Z 22
_cell_length_a 25.607400
_cell_length_b 6.542335
_cell_length_c 11.378386
_cell_angle_alpha 90.000000
_cell_angle_beta 28.811342
_cell_angle_gamma 90.000000
_cell_volume 918.671632
_symmetry_space_group_name_H-M "P 2/C"
_symmetry_group_IT_number 13
_symmetry_cell_setting 'monoclinic'
loop_
_space_group_symop_operation_xyz
x,y,z
-x,y,1/2-z
-x,-y,-z
x,-y,1/2+z
loop_
_atom_site_type_symbol
_atom_site_label
_atom_site_fract_x
_atom_site_fract_y
_atom_site_fract_z
Si Si1 0.795620 0.853911 0.057541
Si Si2 0.340460 0.837191 0.802766
Si Si3 0.073728 0.668838 0.917706
Si Si4 0.000000 0.968644 0.250000
Si Si5 0.729837 0.461187 0.862012
Si Si6 0.554620 0.802052 0.256510
O O1 0.851637 0.774730 0.828172
O O2 0.730489 0.061218 0.160017
O O3 0.891991 0.898153 0.958773
O O4 0.723736 0.677507 0.258003
O O5 0.276667 0.682926 0.010552
O O6 0.368747 0.381377 0.933828
O O7 0.548494 0.262010 0.462138
O O8 0.155523 0.575399 0.853161
O O9 0.002119 0.832330 0.128798
O O10 0.000000 0.500000 0.000000
O O11 0.623125 0.968108 0.191640
O O12 0.500000 0.902304 0.250000
#
# Coordination Sequence:
#
# PCOD9238328 Si02
#       6
#     4   4   4   2   4   4
#     4  12  25  45  76 105 145 193 240 300 366 430
#     4  11  25  48  70 104 148 192 238 298 361 427
#     4  12  25  45  70 106 145 187 241 304 364 430
#     4  12  26  46  74 106 146 190 246 304 362 436
#     4  12  26  44  72 107 140 188 243 295 360 433
#     4  11  26  44  73 104 145 190 240 296 358 432
#
# _framework density 23.947619
#
# number of rings (size 3 to 8) (size 9 to 14) (size 15 to 20)
#    0.000    0.364    1.818    6.545    5.091    3.636 
#    0.000    0.000    0.000    0.000    0.000    0.000 
#    0.000    0.000    0.000    0.000    0.000    0.000 
#
# Total GULP energy -123362.661448 kJ/mol
# GULP energy per Si atom -5607.393702 kJ/mol
# Density = 2.389311 g / cm^3
# Si number density = 23.947619 Si / 1000 Ang^3
#
#
#
# Elastic Constant Matrix: (Units=GPa)
#
#
# Indices 1 2 3 4 5 6 
#
# 1 71.2149 13.5422 7.1210 0.0000 -10.7495 0.0000
# 2 13.5422 68.2758 49.8068 0.0000 0.2453 0.0000
# 3 7.1210 49.8068 99.2062 0.0000 -2.1952 0.0000
# 4 0.0000 0.0000 0.0000 56.8095 0.0000 7.2268
# 5 -10.7495 0.2453 -2.1952 0.0000 41.8561 0.0000
# 6 0.0000 0.0000 0.0000 7.2268 0.0000 54.3397
#
#
#
# Elastic Compliance Matrix: (Units=1/GPa)
#
#
# Indices 1 2 3 4 5 6 
#
# 1 0.015253 -0.003637 0.000819 0.000000 0.003982 0.000000
# 2 -0.003637 0.024001 -0.011826 0.000000 -0.001695 0.000000
# 3 0.000819 -0.011826 0.015983 0.000000 0.001118 0.000000
# 4 0.000000 0.000000 0.000000 0.017906 0.000000 -0.002381
# 5 0.003982 -0.001695 0.001118 0.000000 0.024982 0.000000
# 6 0.000000 0.000000 0.000000 -0.002381 0.000000 0.018719
#
#
# Mechanical properties :
#
#
# Convention : Reuss Voigt Hill
#
# Bulk Modulus (GPa) = 38.53741 42.18188 40.35964
# Shear Modulus (GPa) = 32.30327 41.81620 37.05974
#
# Velocity S-wave (km/s) = 3.67674 4.18323 3.93814
# Velocity P-wave (km/s) = 5.84396 6.40196 6.12931
#
# Compressibility (1/GPa) = 0.02594881
#
# Stress axis : x y z
#
# Youngs Moduli (GPa) = 65.56201 41.66446 62.56500
#
# Poissons Ratio (x) = 0.15155 -0.05127
# Poissons Ratio (y) = 0.23847 0.73991
# Poissons Ratio (z) = -0.05372 0.49274
#
# Static dielectric constant tensor:
#      x y z
#    x 1.903670 0.000000 0.027860 
#    y 0.000000 1.883190 0.000000 
#    z 0.027860 0.000000 1.900090 
# 
# From -- ./inp_files/41216.got.cif
#   From: 2010.05.17/outbox.cif.g08.bks.cpg/sg13_21_cif.got.tgz:41216.got - 2010.06.03 16:44:36.
