data_PCOD9238606
_publ_section_title
;
Structure prediction by ZEFSAII (Michael W. Deem and Ramdas Pophale) SiO2 
 PCOD9238606
Probable space group: P 2/C
;
_chemical_formula_sum "Si O2"
_cell_formula_units_Z 16
_cell_length_a 5.060830
_cell_length_b 19.203088
_cell_length_c 9.004752
_cell_angle_alpha 90.000000
_cell_angle_beta 58.749558
_cell_angle_gamma 90.000000
_cell_volume 748.141751
_symmetry_space_group_name_H-M "P 2/C"
_symmetry_group_IT_number 13
_symmetry_cell_setting 'monoclinic'
loop_
_space_group_symop_operation_xyz
x,y,z
-x,y,1/2-z
-x,-y,-z
x,-y,1/2+z
loop_
_atom_site_type_symbol
_atom_site_label
_atom_site_fract_x
_atom_site_fract_y
_atom_site_fract_z
Si Si1 0.703379 0.452720 0.046345
Si Si2 0.366071 0.066971 0.623990
Si Si3 0.362080 0.198577 0.127550
Si Si4 0.334846 0.682668 0.141277
O O1 0.500000 0.436008 0.250000
O O2 0.500000 0.500000 0.000000
O O3 0.752743 0.382835 0.937545
O O4 0.000000 0.500000 0.000000
O O5 0.500000 0.071376 0.750000
O O6 0.469105 0.134462 0.501516
O O7 0.000000 0.062043 0.750000
O O8 0.500000 0.000000 0.500000
O O9 0.500000 0.209382 0.250000
O O10 0.000000 0.184236 0.250000
O O11 0.426859 0.267148 0.011616
O O12 0.500000 0.663561 0.250000
O O13 0.000000 0.720415 0.250000
#
# Coordination Sequence:
#
# PCOD9238606 Si02
#       4
#     4   4   4   4
#     4  12  25  43  66  94 127 166 212 265 326 394
#     4  12  24  43  68 100 139 184 230 281 335 397
#     4  12  25  44  68 100 135 177 226 280 337 400
#     4  12  25  44  67  96 131 173 219 274 335 401
#
# _framework density 21.386322
#
# number of rings (size 3 to 8) (size 9 to 14) (size 15 to 20)
#    0.000    0.000    0.000   12.000    0.000    2.000 
#    0.000    0.000    0.000    0.000    0.000    0.000 
#    0.000    0.000    0.000    0.000    0.000    0.000 
#
# Total GULP energy -89605.109062 kJ/mol
# GULP energy per Si atom -5600.319316 kJ/mol
# Density = 2.133765 g / cm^3
# Si number density = 21.386322 Si / 1000 Ang^3
#
#
#
# Elastic Constant Matrix: (Units=GPa)
#
#
# Indices 1 2 3 4 5 6 
#
# 1 175.3689 26.1355 69.1776 0.0000 -7.0404 0.0000
# 2 26.1355 125.6008 59.2144 0.0000 0.9707 0.0000
# 3 69.1776 59.2144 165.7772 0.0000 -0.7993 0.0000
# 4 0.0000 0.0000 0.0000 56.5943 0.0000 -1.9579
# 5 -7.0404 0.9707 -0.7993 0.0000 62.2383 0.0000
# 6 0.0000 0.0000 0.0000 -1.9579 0.0000 28.5399
#
#
#
# Elastic Compliance Matrix: (Units=1/GPa)
#
#
# Indices 1 2 3 4 5 6 
#
# 1 0.006861 -0.000103 -0.002823 0.000000 0.000741 0.000000
# 2 -0.000103 0.009578 -0.003379 0.000000 -0.000204 0.000000
# 3 -0.002823 -0.003379 0.008416 0.000000 -0.000159 0.000000
# 4 0.000000 0.000000 0.000000 0.017712 0.000000 0.001215
# 5 0.000741 -0.000204 -0.000159 0.000000 0.016152 0.000000
# 6 0.000000 0.000000 0.000000 0.001215 0.000000 0.035122
#
#
# Mechanical properties :
#
#
# Convention : Reuss Voigt Hill
#
# Bulk Modulus (GPa) = 81.66081 86.20019 83.93050
# Shear Modulus (GPa) = 45.23569 50.28913 47.76241
#
# Velocity S-wave (km/s) = 4.60409 4.85445 4.73092
# Velocity P-wave (km/s) = 8.15659 8.47435 8.31699
#
# Compressibility (1/GPa) = 0.01224578
#
# Stress axis : x y z
#
# Youngs Moduli (GPa) = 145.75548 104.40772 118.81553
#
# Poissons Ratio (x) = 0.01071 0.33539
# Poissons Ratio (y) = 0.01495 0.40152
# Poissons Ratio (z) = 0.41143 0.35283
#
# Static dielectric constant tensor:
#      x y z
#    x 1.727080 0.000000 -0.025510 
#    y 0.000000 1.824400 0.000000 
#    z -0.025510 0.000000 1.779030 
# 
# From -- ./inp_files/9287.got.cif
#   From: 2010.05.17/outbox.cif.g08.bks.cpg/sg13_5_cif.got.tgz:9287.got - 2010.06.03 16:44:36.
