data_PCOD9238044
_publ_section_title
;
Structure prediction by ZEFSAII (Michael W. Deem and Ramdas Pophale) SiO2 
 PCOD9238044
Probable space group: P 2/C
;
_chemical_formula_sum "Si O2"
_cell_formula_units_Z 18
_cell_length_a 16.074581
_cell_length_b 6.322946
_cell_length_c 22.410625
_cell_angle_alpha 90.000000
_cell_angle_beta 21.196529
_cell_angle_gamma 90.000000
_cell_volume 823.575079
_symmetry_space_group_name_H-M "P 2/C"
_symmetry_group_IT_number 13
_symmetry_cell_setting 'monoclinic'
loop_
_space_group_symop_operation_xyz
x,y,z
-x,y,1/2-z
-x,-y,-z
x,-y,1/2+z
loop_
_atom_site_type_symbol
_atom_site_label
_atom_site_fract_x
_atom_site_fract_y
_atom_site_fract_z
Si Si1 0.000000 0.837414 0.750000
Si Si2 0.310698 0.223441 0.512743
Si Si3 0.332188 0.039317 0.306865
Si Si4 0.866631 0.542898 0.260204
Si Si5 0.893737 0.317005 0.611421
O O1 0.199802 0.991127 0.593179
O O2 0.102403 0.691475 0.734199
O O3 0.548289 0.198991 0.319946
O O4 0.307574 0.331282 0.579807
O O5 0.120088 0.356107 0.603616
O O6 0.500000 0.014147 0.250000
O O7 0.094511 0.142379 0.487868
O O8 0.292127 0.816701 0.301002
O O9 0.812829 0.584564 0.227784
O O10 0.000000 0.500000 0.500000
#
# Coordination Sequence:
#
# PCOD9238044 Si02
#       5
#     2   4   4   4   4
#     4   8  18  32  66  88 118 162 202 252 302 350
#     4   9  19  38  65  86 117 167 202 249 303 367
#     4  11  24  43  63  89 126 169 205 251 314 366
#     4   9  19  38  59  93 123 151 212 253 296 368
#     4  11  26  40  62  96 128 160 206 261 304 368
#
# _framework density 21.855930000000001
#
# number of rings (size 3 to 8) (size 9 to 14) (size 15 to 20)
#    0.000    2.667    2.222    0.000    3.111    7.111 
#    0.000    2.222    0.000    0.000    0.000    0.000 
#    0.000    0.000    0.000    0.000    0.000    0.000 
#
# Total GULP energy -100606.074176 kJ/mol
# GULP energy per Si atom -5589.226343 kJ/mol
# Density = 2.180618 g / cm^3
# Si number density = 21.855930 Si / 1000 Ang^3
#
#
#
# Elastic Constant Matrix: (Units=GPa)
#
#
# Indices 1 2 3 4 5 6 
#
# 1 139.2313 24.8856 11.0761 0.0000 10.6295 0.0000
# 2 24.8856 77.9566 -0.9807 0.0000 -9.5198 0.0000
# 3 11.0761 -0.9807 57.0690 0.0000 8.8743 0.0000
# 4 0.0000 0.0000 0.0000 23.9159 0.0000 6.0880
# 5 10.6295 -9.5198 8.8743 0.0000 24.8475 0.0000
# 6 0.0000 0.0000 0.0000 6.0880 0.0000 -2.2585
#
#
#
# Elastic Compliance Matrix: (Units=1/GPa)
#
#
# Indices 1 2 3 4 5 6 
#
# 1 0.008153 -0.003146 -0.000960 0.000000 -0.004350 0.000000
# 2 -0.003146 0.014691 -0.000235 0.000000 0.007058 0.000000
# 3 -0.000960 -0.000235 0.018693 0.000000 -0.006355 0.000000
# 4 0.000000 0.000000 0.000000 0.024798 0.000000 0.066843
# 5 -0.004350 0.007058 -0.006355 0.000000 0.047080 0.000000
# 6 0.000000 0.000000 0.000000 0.066843 0.000000 -0.262587
#
#
# Mechanical properties :
#
#
# Convention : Reuss Voigt Hill
#
# Bulk Modulus (GPa) = 30.43559 38.24656 34.34107
# Shear Modulus (GPa) = -38.59851 25.25271 -6.67290
#
# Velocity S-wave (km/s) = -4.20699 3.40283 -1.74922
# Velocity P-wave (km/s) = 3.10525 5.74251 3.41569
#
# Compressibility (1/GPa) = 0.03285627
#
# Stress axis : x y z
#
# Youngs Moduli (GPa) = 122.65313 68.06945 53.49538
#
# Poissons Ratio (x) = 0.21414 0.05135
# Poissons Ratio (y) = 0.38586 0.01254
# Poissons Ratio (z) = 0.11774 0.01596
#
# Static dielectric constant tensor:
#      x y z
#    x 1.787040 0.000000 0.001430 
#    y 0.000000 1.782860 0.000000 
#    z 0.001430 0.000000 1.816200 
# 
# From -- ./inp_files/93048.got.cif
#   From: 2010.05.17/outbox.cif.g08.bks.cpg/sg13_47_cif.got.tgz:93048.got - 2010.06.03 16:44:36.
