data_PCOD9238958
_publ_section_title
;
Structure prediction by ZEFSAII (Michael W. Deem and Ramdas Pophale) SiO2 
 PCOD9238958
Probable space group: P 2/C
;
_chemical_formula_sum "Si O2"
_cell_formula_units_Z 26
_cell_length_a 21.000000
_cell_length_b 9.000000
_cell_length_c 9.000000
_cell_angle_alpha 90.000000
_cell_angle_beta 50.000000
_cell_angle_gamma 90.000000
_cell_volume 1303.041598
_symmetry_space_group_name_H-M "P 2/C"
_symmetry_group_IT_number 13
_symmetry_cell_setting 'monoclinic'
loop_
_space_group_symop_operation_xyz
x,y,z
-x,y,1/2-z
-x,-y,-z
x,-y,1/2+z
loop_
_atom_site_type_symbol
_atom_site_label
_atom_site_fract_x
_atom_site_fract_y
_atom_site_fract_z
Si Si1 0.267976 0.613297 0.771755
Si Si2 0.779218 0.948608 0.119366
Si Si3 0.139404 0.823604 0.800997
Si Si4 0.500000 0.946342 0.750000
Si Si5 0.611877 0.861662 0.856000
Si Si6 0.021125 0.658791 0.397097
Si Si7 0.216329 0.323629 0.684730
O O1 0.196953 0.692180 0.779068
O O2 0.354621 0.704434 0.627759
O O3 0.254227 0.445084 0.741404
O O4 0.250111 0.634805 0.972500
O O5 0.757440 0.830278 0.279594
O O6 0.847991 0.052557 0.092307
O O7 0.697060 0.043536 0.203793
O O8 0.819693 0.874637 0.914285
O O9 0.044403 0.773833 0.933923
O O10 0.557724 0.857784 0.784168
O O11 0.558508 0.050286 0.559417
O O12 0.116565 0.685951 0.302665
O O13 0.000000 0.657510 0.250000
O O14 0.000000 0.500000 0.500000
#
# Coordination Sequence:
#
# PCOD9238958 Si02
#       7
#     4   4   4   2   4   4   4
#     4  11  22  40  64  92 124 173 220 264 315 402
#     4  11  24  41  65  95 130 172 219 272 323 394
#     4  11  23  41  62  89 129 170 225 274 328 370
#     4  10  20  38  72 102 128 160 196 266 336 392
#     4  10  21  41  67  98 129 161 208 259 326 401
#     4  12  25  42  62  88 128 174 228 285 317 375
#     4  12  23  40  64  89 127 176 222 272 327 368
#
# _framework density 19.953315
#
# number of rings (size 3 to 8) (size 9 to 14) (size 15 to 20)
#    0.000    0.923    3.077    5.538    2.154    0.615 
#    0.000    0.000    0.000   15.692    0.000    0.000 
#    0.000    0.000    0.000    0.000    0.000    0.000 
#
# Total GULP energy -145172.111989 kJ/mol
# GULP energy per Si atom -5583.542769 kJ/mol
# Density = 1.990790 g / cm^3
# Si number density = 19.953315 Si / 1000 Ang^3
#
#
#
# Elastic Constant Matrix: (Units=GPa)
#
#
# Indices 1 2 3 4 5 6 
#
# 1 117.7228 32.8413 20.8038 0.0000 -3.4139 0.0000
# 2 32.8413 75.9033 2.7168 0.0000 -11.5627 0.0000
# 3 20.8038 2.7168 92.1943 0.0000 3.8488 0.0000
# 4 0.0000 0.0000 0.0000 20.2719 0.0000 2.0503
# 5 -3.4139 -11.5627 3.8488 0.0000 29.1729 0.0000
# 6 0.0000 0.0000 0.0000 2.0503 0.0000 41.2816
#
#
#
# Elastic Compliance Matrix: (Units=1/GPa)
#
#
# Indices 1 2 3 4 5 6 
#
# 1 0.010069 -0.004319 -0.002134 0.000000 -0.000252 0.000000
# 2 -0.004319 0.015912 0.000265 0.000000 0.005766 0.000000
# 3 -0.002134 0.000265 0.011389 0.000000 -0.001647 0.000000
# 4 0.000000 0.000000 0.000000 0.049578 0.000000 -0.002462
# 5 -0.000252 0.005766 -0.001647 0.000000 0.036752 0.000000
# 6 0.000000 0.000000 0.000000 -0.002462 0.000000 0.024346
#
#
# Mechanical properties :
#
#
# Convention : Reuss Voigt Hill
#
# Bulk Modulus (GPa) = 40.00898 44.28267 42.14582
# Shear Modulus (GPa) = 29.62883 33.44252 31.53567
#
# Velocity S-wave (km/s) = 3.85763 4.09839 3.97983
# Velocity P-wave (km/s) = 6.31954 6.68109 6.50283
#
# Compressibility (1/GPa) = 0.02499439
#
# Stress axis : x y z
#
# Youngs Moduli (GPa) = 99.31291 62.84501 87.80213
#
# Poissons Ratio (x) = 0.27140 0.18740
# Poissons Ratio (y) = 0.42889 -0.02326
# Poissons Ratio (z) = 0.21197 -0.01665
#
# Static dielectric constant tensor:
#      x y z
#    x 1.676250 0.000000 -0.006010 
#    y 0.000000 1.854810 0.000000 
#    z -0.006010 0.000000 1.723660 
# 
# From -- ./inp_files/22730.got.cif
#   From: 2010.05.17/outbox.ucp.g08.bks.cvg/sg13_12_cif.got.tgz:22730.got - 2010.06.11 12:23:55.
