data_PCOD9238280
_publ_section_title
;
Structure prediction by ZEFSAII (Michael W. Deem and Ramdas Pophale) SiO2 
 PCOD9238280
Probable space group: P 2/C
;
_chemical_formula_sum "Si O2"
_cell_formula_units_Z 18
_cell_length_a 8.186305
_cell_length_b 5.579145
_cell_length_c 17.654242
_cell_angle_alpha 90.000000
_cell_angle_beta 69.382525
_cell_angle_gamma 90.000000
_cell_volume 754.672121
_symmetry_space_group_name_H-M "P 2/C"
_symmetry_group_IT_number 13
_symmetry_cell_setting 'monoclinic'
loop_
_space_group_symop_operation_xyz
x,y,z
-x,y,1/2-z
-x,-y,-z
x,-y,1/2+z
loop_
_atom_site_type_symbol
_atom_site_label
_atom_site_fract_x
_atom_site_fract_y
_atom_site_fract_z
Si Si1 0.151022 0.335626 0.775742
Si Si2 0.927738 0.749667 0.044645
Si Si3 0.398949 0.738374 0.496945
Si Si4 0.653192 0.052653 0.354844
Si Si5 0.500000 0.647500 0.750000
O O1 0.060177 0.250041 0.867313
O O2 0.321894 0.492766 0.770470
O O3 0.000000 0.458997 0.750000
O O4 0.223139 0.108936 0.716127
O O5 0.728163 0.734696 0.052961
O O6 0.000000 0.500000 0.000000
O O7 0.000000 0.000000 0.000000
O O8 0.500000 0.500000 0.500000
O O9 0.275456 0.766349 0.592960
O O10 0.553466 0.898085 0.434498
O O11 0.515739 0.185088 0.321902
#
# Coordination Sequence:
#
# PCOD9238280 Si02
#       5
#     4   4   4   4   2
#     4  12  28  49  76 111 154 203 262 326 393 472
#     4  12  30  49  75 112 158 204 260 326 395 466
#     4  11  25  47  77 109 147 201 257 319 395 473
#     4  11  25  45  78 105 150 197 257 320 396 469
#     4  12  26  48  76 112 148 202 260 326 392 470
#
# _framework density 23.851417999999999
#
# number of rings (size 3 to 8) (size 9 to 14) (size 15 to 20)
#    0.000    0.444    0.000    7.333   18.667    0.889 
#    0.000    0.000    0.000    0.000    0.000    0.000 
#    0.000    0.000    0.000    0.000    0.000    0.000 
#
# Total GULP energy -100385.852600 kJ/mol
# GULP energy per Si atom -5576.991811 kJ/mol
# Density = 2.379713 g / cm^3
# Si number density = 23.851418 Si / 1000 Ang^3
#
#
#
# Elastic Constant Matrix: (Units=GPa)
#
#
# Indices 1 2 3 4 5 6 
#
# 1 81.6613 0.9821 16.8527 0.0000 10.6149 0.0000
# 2 0.9821 89.4331 84.4744 0.0000 -8.9479 0.0000
# 3 16.8527 84.4744 197.5912 0.0000 22.4222 0.0000
# 4 0.0000 0.0000 0.0000 -28.5584 0.0000 50.0680
# 5 10.6149 -8.9479 22.4222 0.0000 44.8552 0.0000
# 6 0.0000 0.0000 0.0000 50.0680 0.0000 12.6471
#
#
#
# Elastic Compliance Matrix: (Units=1/GPa)
#
#
# Indices 1 2 3 4 5 6 
#
# 1 0.012771 0.000681 -0.001116 0.000000 -0.002328 0.000000
# 2 0.000681 0.022160 -0.010618 0.000000 0.009567 0.000000
# 3 -0.001116 -0.010618 0.010502 0.000000 -0.007103 0.000000
# 4 0.000000 0.000000 0.000000 -0.004410 0.000000 0.017458
# 5 -0.002328 0.009567 -0.007103 0.000000 0.028304 0.000000
# 6 0.000000 0.000000 0.000000 0.017458 0.000000 0.009958
#
#
# Mechanical properties :
#
#
# Convention : Reuss Voigt Hill
#
# Bulk Modulus (GPa) = 42.86929 63.70045 53.28487
# Shear Modulus (GPa) = 45.80200 23.54719 34.67459
#
# Velocity S-wave (km/s) = 4.38688 3.14545 3.81698
# Velocity P-wave (km/s) = 6.60849 6.32116 6.46642
#
# Compressibility (1/GPa) = 0.02332672
#
# Stress axis : x y z
#
# Youngs Moduli (GPa) = 78.30540 45.12588 95.22430
#
# Poissons Ratio (x) = -0.03074 0.10629
# Poissons Ratio (y) = -0.05334 1.01106
# Poissons Ratio (z) = 0.08740 0.47913
#
# Static dielectric constant tensor:
#      x y z
#    x 1.767010 0.000000 -0.046350 
#    y 0.000000 1.964280 0.000000 
#    z -0.046350 0.000000 1.868100 
# 
# From -- ./inp_files/62269.got.cif
#   From: 2010.05.17/outbox.cif.g08.bks.cpg/sg13_32_cif.got.tgz:62269.got - 2010.06.03 16:44:36.
