data_PCOD9238096
_publ_section_title
;
Structure prediction by ZEFSAII (Michael W. Deem and Ramdas Pophale) SiO2 
 PCOD9238096
Probable space group: P 2/C
;
_chemical_formula_sum "Si O2"
_cell_formula_units_Z 26
_cell_length_a 14.739624
_cell_length_b 8.364699
_cell_length_c 14.641118
_cell_angle_alpha 90.000000
_cell_angle_beta 137.225057
_cell_angle_gamma 90.000000
_cell_volume 1225.907534
_symmetry_space_group_name_H-M "P 2/C"
_symmetry_group_IT_number 13
_symmetry_cell_setting 'monoclinic'
loop_
_space_group_symop_operation_xyz
x,y,z
-x,y,1/2-z
-x,-y,-z
x,-y,1/2+z
loop_
_atom_site_type_symbol
_atom_site_label
_atom_site_fract_x
_atom_site_fract_y
_atom_site_fract_z
Si Si1 0.277023 0.642975 0.724893
Si Si2 0.000000 0.215042 0.750000
Si Si3 0.346256 0.426296 0.610256
Si Si4 0.456836 0.149904 0.029789
Si Si5 0.744098 0.399668 0.632898
Si Si6 0.110220 0.082226 0.019131
Si Si7 0.348633 0.069309 0.603994
O O1 0.282526 0.503401 0.653002
O O2 0.248131 0.552984 0.797431
O O3 0.159526 0.758106 0.605204
O O4 0.414638 0.748858 0.837911
O O5 0.115226 0.322112 0.788858
O O6 0.941967 0.114145 0.622282
O O7 0.500000 0.419506 0.750000
O O8 0.321916 0.547731 0.510762
O O9 0.305909 0.249265 0.546869
O O10 0.360729 0.271162 0.904054
O O11 0.500000 0.000000 0.000000
O O12 0.362959 0.068298 0.038044
O O13 0.245425 0.981547 0.105289
O O14 0.000000 0.000000 0.000000
O O15 0.500000 0.079194 0.750000
#
# Coordination Sequence:
#
# PCOD9238096 Si02
#       7
#     4   2   4   4   4   4   4
#     4  12  26  46  76 106 147 195 242 313 380 442
#     4  12  28  48  74 100 146 200 248 304 362 446
#     4  11  24  44  71 110 144 182 240 308 377 437
#     4  12  25  43  73 110 146 186 250 312 375 444
#     4  12  27  46  71 106 148 194 246 309 374 449
#     4  12  29  50  76 108 150 199 251 306 374 446
#     4  11  24  45  75 105 141 187 243 308 371 439
#
# _framework density 21.208780000000001
#
# number of rings (size 3 to 8) (size 9 to 14) (size 15 to 20)
#    0.000    0.308    6.154    1.385    8.615    3.077 
#    0.000    0.000    0.000    0.000    0.000    0.000 
#    0.000    0.000    0.000    0.000    0.000    0.000 
#
# Total GULP energy -145268.365039 kJ/mol
# GULP energy per Si atom -5587.244809 kJ/mol
# Density = 2.116051 g / cm^3
# Si number density = 21.208780 Si / 1000 Ang^3
#
#
#
# Elastic Constant Matrix: (Units=GPa)
#
#
# Indices 1 2 3 4 5 6 
#
# 1 116.8210 28.7413 34.5194 0.0000 14.1429 0.0000
# 2 28.7413 86.9317 30.1102 0.0000 15.7668 0.0000
# 3 34.5194 30.1102 80.5037 0.0000 2.5730 0.0000
# 4 0.0000 0.0000 0.0000 -123.0767 0.0000 -158.7898
# 5 14.1429 15.7668 2.5730 0.0000 28.6667 0.0000
# 6 0.0000 0.0000 0.0000 -158.7898 0.0000 -113.8343
#
#
#
# Elastic Compliance Matrix: (Units=1/GPa)
#
#
# Indices 1 2 3 4 5 6 
#
# 1 0.010542 -0.001407 -0.003864 0.000000 -0.004080 0.000000
# 2 -0.001407 0.014893 -0.004741 0.000000 -0.007072 0.000000
# 3 -0.003864 -0.004741 0.015753 0.000000 0.003100 0.000000
# 4 0.000000 0.000000 0.000000 0.010160 0.000000 -0.014173
# 5 -0.004080 -0.007072 0.003100 0.000000 0.040508 0.000000
# 6 0.000000 0.000000 0.000000 -0.014173 0.000000 0.010985
#
#
# Mechanical properties :
#
#
# Convention : Reuss Voigt Hill
#
# Bulk Modulus (GPa) = 47.24935 52.33314 49.79124
# Shear Modulus (GPa) = 38.48541 -28.92317 4.78112
#
# Velocity S-wave (km/s) = 4.26443 -3.69689 1.50307
# Velocity P-wave (km/s) = 6.82450 2.55072 5.15169
#
# Compressibility (1/GPa) = 0.02116431
#
# Stress axis : x y z
#
# Youngs Moduli (GPa) = 94.85931 67.14477 63.48140
#
# Poissons Ratio (x) = 0.09448 0.24527
# Poissons Ratio (y) = 0.13348 0.30097
# Poissons Ratio (z) = 0.36650 0.31833
#
# Static dielectric constant tensor:
#      x y z
#    x 1.770800 0.000000 0.004830 
#    y 0.000000 1.835350 0.000000 
#    z 0.004830 0.000000 1.768540 
# 
# From -- ./inp_files/53369.got.cif
#   From: 2010.05.17/outbox.cif.g08.bks.cpg/sg13_27_cif.got.tgz:53369.got - 2010.06.03 16:44:36.
