data_PCOD9238874
_publ_section_title
;
Structure prediction by ZEFSAII (Michael W. Deem and Ramdas Pophale) SiO2 
 PCOD9238874
Probable space group: P 2/C
;
_chemical_formula_sum "Si O2"
_cell_formula_units_Z 26
_cell_length_a 12.000000
_cell_length_b 9.000000
_cell_length_c 15.000000
_cell_angle_alpha 90.000000
_cell_angle_beta 60.000000
_cell_angle_gamma 90.000000
_cell_volume 1402.961154
_symmetry_space_group_name_H-M "P 2/C"
_symmetry_group_IT_number 13
_symmetry_cell_setting 'monoclinic'
loop_
_space_group_symop_operation_xyz
x,y,z
-x,y,1/2-z
-x,-y,-z
x,-y,1/2+z
loop_
_atom_site_type_symbol
_atom_site_label
_atom_site_fract_x
_atom_site_fract_y
_atom_site_fract_z
Si Si1 0.805974 0.896952 0.725317
Si Si2 0.757020 0.689020 0.380560
Si Si3 0.846579 0.312565 0.040180
Si Si4 0.145892 0.647362 0.655310
Si Si5 0.366039 0.822909 0.242993
Si Si6 0.000000 0.094764 0.750000
Si Si7 0.857376 0.342660 0.558053
O O1 0.820832 0.804559 0.628414
O O2 0.788895 0.779698 0.813728
O O3 0.688355 0.012204 0.758429
O O4 0.937903 0.986722 0.698861
O O5 0.753345 0.704598 0.491097
O O6 0.790157 0.514472 0.354169
O O7 0.649203 0.738925 0.349309
O O8 0.879510 0.796745 0.315045
O O9 0.833503 0.481350 0.081240
O O10 0.001330 0.303385 0.958378
O O11 0.142298 0.678311 0.550005
O O12 0.000000 0.637448 0.750000
O O13 0.500000 0.820031 0.250000
O O14 0.255098 0.747988 0.348868
#
# Coordination Sequence:
#
# PCOD9238874 Si02
#       7
#     4   4   4   4   4   2   4
#     4  11  21  35  59  88 128 154 198 246 302 365
#     4  10  21  35  60  85 121 155 201 247 299 357
#     4  10  19  35  61 101 118 148 194 256 325 353
#     4  11  19  37  62  97 126 145 189 253 318 366
#     4  11  26  44  56  80 124 176 211 240 285 357
#     4  10  18  30  52  88 120 162 182 240 314 348
#     4  10  21  36  65  91 127 153 193 249 313 363
#
# _framework density 18.532230999999999
#
# number of rings (size 3 to 8) (size 9 to 14) (size 15 to 20)
#    0.000    1.538    3.077    2.769    2.154    4.923 
#    0.000    9.231    0.000    0.000    0.000    0.000 
#    0.000    0.000    0.000    0.000    0.000    0.000 
#
# Total GULP energy -144942.073057 kJ/mol
# GULP energy per Si atom -5574.695118 kJ/mol
# Density = 1.849005 g / cm^3
# Si number density = 18.532231 Si / 1000 Ang^3
#
#
#
# Elastic Constant Matrix: (Units=GPa)
#
#
# Indices 1 2 3 4 5 6 
#
# 1 145.7730 42.6549 25.9051 0.0000 30.5693 0.0000
# 2 42.6549 114.7919 31.3674 0.0000 12.8768 0.0000
# 3 25.9051 31.3674 60.4658 0.0000 24.4684 0.0000
# 4 0.0000 0.0000 0.0000 31.0071 0.0000 14.7366
# 5 30.5693 12.8768 24.4684 0.0000 33.5068 0.0000
# 6 0.0000 0.0000 0.0000 14.7366 0.0000 33.3651
#
#
#
# Elastic Compliance Matrix: (Units=1/GPa)
#
#
# Indices 1 2 3 4 5 6 
#
# 1 0.009173 -0.002706 0.000624 0.000000 -0.007785 0.000000
# 2 -0.002706 0.010949 -0.005418 0.000000 0.002217 0.000000
# 3 0.000624 -0.005418 0.026216 0.000000 -0.017632 0.000000
# 4 0.000000 0.000000 0.000000 0.040819 0.000000 -0.018029
# 5 -0.007785 0.002217 -0.017632 0.000000 0.048970 0.000000
# 6 0.000000 0.000000 0.000000 -0.018029 0.000000 0.037934
#
#
# Mechanical properties :
#
#
# Convention : Reuss Voigt Hill
#
# Bulk Modulus (GPa) = 31.90929 57.87617 44.89273
# Shear Modulus (GPa) = 25.06163 34.31604 29.68884
#
# Velocity S-wave (km/s) = 3.68139 4.30780 4.00685
# Velocity P-wave (km/s) = 5.94355 7.48603 6.75894
#
# Compressibility (1/GPa) = 0.03133884
#
# Stress axis : x y z
#
# Youngs Moduli (GPa) = 109.01060 91.33620 38.14407
#
# Poissons Ratio (x) = 0.24715 -0.02380
# Poissons Ratio (y) = 0.29497 0.20665
# Poissons Ratio (z) = -0.06801 0.49483
#
# Static dielectric constant tensor:
#      x y z
#    x 1.640420 0.000000 0.030360 
#    y 0.000000 1.673530 0.000000 
#    z 0.030360 0.000000 1.671090 
# 
# From -- ./inp_files/49649.got.cif
#   From: 2010.05.17/outbox.ucp.g08.bks.cvg/sg13_25_cif.got.tgz:49649.got - 2010.06.11 12:23:55.
