data_PCOD9238778
_publ_section_title
;
Structure prediction by ZEFSAII (Michael W. Deem and Ramdas Pophale) SiO2 
 PCOD9238778
Probable space group: P 2/C
;
_chemical_formula_sum "Si O2"
_cell_formula_units_Z 16
_cell_length_a 8.194775
_cell_length_b 17.069997
_cell_length_c 7.618674
_cell_angle_alpha 90.000000
_cell_angle_beta 37.126402
_cell_angle_gamma 90.000000
_cell_volume 643.252433
_symmetry_space_group_name_H-M "P 2/C"
_symmetry_group_IT_number 13
_symmetry_cell_setting 'monoclinic'
loop_
_space_group_symop_operation_xyz
x,y,z
-x,y,1/2-z
-x,-y,-z
x,-y,1/2+z
loop_
_atom_site_type_symbol
_atom_site_label
_atom_site_fract_x
_atom_site_fract_y
_atom_site_fract_z
Si Si1 0.698297 0.218846 0.748403
Si Si2 0.293421 0.941119 0.076243
Si Si3 0.251063 0.444202 0.248926
Si Si4 0.500000 0.318744 0.250000
Si Si5 0.000000 0.675247 0.750000
O O1 0.500000 0.213796 0.750000
O O2 0.777958 0.131903 0.738709
O O3 0.942530 0.269286 0.462405
O O4 0.582573 0.265178 0.014818
O O5 0.000000 0.970461 0.250000
O O6 0.500000 0.911016 0.750000
O O7 0.500000 0.000000 0.000000
O O8 0.275355 0.382075 0.385430
O O9 0.231963 0.385885 0.099070
O O10 0.000000 0.500000 0.500000
O O11 0.500000 0.500000 0.000000
#
# Coordination Sequence:
#
# PCOD9238778 Si02
#       5
#     4   4   4   2   2
#     4  12  28  52  82 125 171 219 289 353 429 524
#     4  12  29  56  92 131 178 229 286 356 440 529
#     4  12  27  49  77 116 161 220 288 356 427 510
#     4  12  26  52  82 114 166 224 282 352 434 512
#     4  12  28  48  80 120 166 222 286 356 428 500
#
# _framework density 24.873591999999999
#
# number of rings (size 3 to 8) (size 9 to 14) (size 15 to 20)
#    0.000    0.000    3.750    4.500    7.000    2.000 
#    2.250    0.000    0.000    0.000    0.000    0.000 
#    0.000    0.000    0.000    0.000    0.000    0.000 
#
# Total GULP energy -89503.006388 kJ/mol
# GULP energy per Si atom -5593.937899 kJ/mol
# Density = 2.481698 g / cm^3
# Si number density = 24.873592 Si / 1000 Ang^3
#
#
#
# Elastic Constant Matrix: (Units=GPa)
#
#
# Indices 1 2 3 4 5 6 
#
# 1 135.1990 89.7566 54.5426 0.0000 -4.0649 0.0000
# 2 89.7566 196.2753 68.3296 0.0000 -6.9899 0.0000
# 3 54.5426 68.3296 157.0214 0.0000 -2.5008 0.0000
# 4 0.0000 0.0000 0.0000 33.5956 0.0000 -13.3178
# 5 -4.0649 -6.9899 -2.5008 0.0000 52.1692 0.0000
# 6 0.0000 0.0000 0.0000 -13.3178 0.0000 10.9904
#
#
#
# Elastic Compliance Matrix: (Units=1/GPa)
#
#
# Indices 1 2 3 4 5 6 
#
# 1 0.011103 -0.004395 -0.001941 0.000000 0.000183 0.000000
# 2 -0.004395 0.007768 -0.001844 0.000000 0.000610 0.000000
# 3 -0.001941 -0.001844 0.007845 0.000000 -0.000022 0.000000
# 4 0.000000 0.000000 0.000000 0.057282 0.000000 0.069413
# 5 0.000183 0.000610 -0.000022 0.000000 0.019263 0.000000
# 6 0.000000 0.000000 0.000000 0.069413 0.000000 0.175101
#
#
# Mechanical properties :
#
#
# Convention : Reuss Voigt Hill
#
# Bulk Modulus (GPa) = 96.56651 101.52815 99.04733
# Shear Modulus (GPa) = 16.76865 37.74216 27.25541
#
# Velocity S-wave (km/s) = 2.59927 3.89955 3.31381
# Velocity P-wave (km/s) = 6.92210 7.82187 7.38570
#
# Compressibility (1/GPa) = 0.01035556
#
# Stress axis : x y z
#
# Youngs Moduli (GPa) = 90.06610 128.72543 127.46947
#
# Poissons Ratio (x) = 0.56575 0.24745
# Poissons Ratio (y) = 0.39584 0.23508
# Poissons Ratio (z) = 0.17484 0.23739
#
# Static dielectric constant tensor:
#      x y z
#    x 2.220740 0.000000 -0.045200 
#    y 0.000000 1.906350 0.000000 
#    z -0.045200 0.000000 1.935660 
# 
# From -- ./inp_files/13004.got.cif
#   From: 2010.05.17/outbox.cif.g08.bks.cpg/sg13_7_cif.got.tgz:13004.got - 2010.06.03 16:44:36.
