data_PCOD9238435
_publ_section_title
;
Structure prediction by ZEFSAII (Michael W. Deem and Ramdas Pophale) SiO2 
 PCOD9238435
Probable space group: P 2/C
;
_chemical_formula_sum "Si O2"
_cell_formula_units_Z 20
_cell_length_a 24.655303
_cell_length_b 4.935357
_cell_length_c 10.256596
_cell_angle_alpha 90.000000
_cell_angle_beta 144.836771
_cell_angle_gamma 90.000000
_cell_volume 718.761999
_symmetry_space_group_name_H-M "P 2/C"
_symmetry_group_IT_number 13
_symmetry_cell_setting 'monoclinic'
loop_
_space_group_symop_operation_xyz
x,y,z
-x,y,1/2-z
-x,-y,-z
x,-y,1/2+z
loop_
_atom_site_type_symbol
_atom_site_label
_atom_site_fract_x
_atom_site_fract_y
_atom_site_fract_z
Si Si1 0.127501 0.901736 0.327481
Si Si2 0.500000 0.653859 0.250000
Si Si3 0.147172 0.412083 0.204037
Si Si4 0.000000 0.717267 0.750000
Si Si5 0.654541 0.315256 0.459055
Si Si6 0.663752 0.979339 0.717437
O O1 0.144646 0.098171 0.235259
O O2 0.049819 0.070735 0.249928
O O3 0.105096 0.602198 0.236494
O O4 0.228632 0.883881 0.597039
O O5 0.557062 0.472625 0.259412
O O6 0.578853 0.824709 0.479932
O O7 0.254420 0.511258 0.400687
O O8 0.082443 0.518951 0.961727
O O9 0.650555 0.068015 0.346629
O O10 0.663617 0.252578 0.631792
#
# Coordination Sequence:
#
# PCOD9238435 Si02
#       6
#     4   2   4   2   4   4
#     4  11  27  48  76 116 158 209 261 333 398 483
#     4  12  28  46  84 118 152 218 274 342 400 486
#     4  11  27  47  77 115 160 204 268 325 404 480
#     4  12  24  50  82 116 154 212 262 332 396 488
#     4  11  27  49  79 114 163 213 268 338 404 482
#     4  11  27  51  76 114 163 207 272 330 405 482
#
# _framework density 27.825621999999999
#
# number of rings (size 3 to 8) (size 9 to 14) (size 15 to 20)
#    0.000    0.800    2.000    2.400   11.200    6.400 
#    0.000    0.000    0.000    0.000    0.000    0.000 
#    0.000    0.000    0.000    0.000    0.000    0.000 
#
# Total GULP energy -112123.172453 kJ/mol
# GULP energy per Si atom -5606.158623 kJ/mol
# Density = 2.776229 g / cm^3
# Si number density = 27.825622 Si / 1000 Ang^3
#
#
#
# Elastic Constant Matrix: (Units=GPa)
#
#
# Indices 1 2 3 4 5 6 
#
# 1 133.2180 30.9278 54.6967 0.0000 19.1867 0.0000
# 2 30.9278 101.3809 37.3713 0.0000 4.5392 0.0000
# 3 54.6967 37.3713 168.8961 0.0000 13.3983 0.0000
# 4 0.0000 0.0000 0.0000 50.9089 0.0000 6.0601
# 5 19.1867 4.5392 13.3983 0.0000 46.5117 0.0000
# 6 0.0000 0.0000 0.0000 6.0601 0.0000 36.4705
#
#
#
# Elastic Compliance Matrix: (Units=1/GPa)
#
#
# Indices 1 2 3 4 5 6 
#
# 1 0.009341 -0.001838 -0.002381 0.000000 -0.002988 0.000000
# 2 -0.001838 0.011108 -0.001880 0.000000 0.000216 0.000000
# 3 -0.002381 -0.001880 0.007180 0.000000 -0.000902 0.000000
# 4 0.000000 0.000000 0.000000 0.020039 0.000000 -0.003330
# 5 -0.002988 0.000216 -0.000902 0.000000 0.022971 0.000000
# 6 0.000000 0.000000 0.000000 -0.003330 0.000000 0.027973
#
#
# Mechanical properties :
#
#
# Convention : Reuss Voigt Hill
#
# Bulk Modulus (GPa) = 64.80760 72.16520 68.48640
# Shear Modulus (GPa) = 43.12063 45.47818 44.29940
#
# Velocity S-wave (km/s) = 3.94086 4.04716 3.99436
# Velocity P-wave (km/s) = 6.63689 6.91595 6.77786
#
# Compressibility (1/GPa) = 0.01543029
#
# Stress axis : x y z
#
# Youngs Moduli (GPa) = 107.05102 90.02727 139.28529
#
# Poissons Ratio (x) = 0.16548 0.33170
# Poissons Ratio (y) = 0.19677 0.26181
# Poissons Ratio (z) = 0.25493 0.16922
#
# Static dielectric constant tensor:
#      x y z
#    x 2.252190 0.000000 -0.101190 
#    y 0.000000 2.131190 0.000000 
#    z -0.101190 0.000000 2.136780 
# 
# From -- ./inp_files/42080.got.cif
#   From: 2010.05.17/outbox.cif.g08.bks.cpg/sg13_22_cif.got.tgz:42080.got - 2010.06.03 16:44:36.
