data_PCOD9238786
_publ_section_title
;
Structure prediction by ZEFSAII (Michael W. Deem and Ramdas Pophale) SiO2 
 PCOD9238786
Probable space group: P 2/C
;
_chemical_formula_sum "Si O2"
_cell_formula_units_Z 14
_cell_length_a 10.938693
_cell_length_b 5.066822
_cell_length_c 15.725213
_cell_angle_alpha 90.000000
_cell_angle_beta 139.715134
_cell_angle_gamma 90.000000
_cell_volume 563.540930
_symmetry_space_group_name_H-M "P 2/C"
_symmetry_group_IT_number 13
_symmetry_cell_setting 'monoclinic'
loop_
_space_group_symop_operation_xyz
x,y,z
-x,y,1/2-z
-x,-y,-z
x,-y,1/2+z
loop_
_atom_site_type_symbol
_atom_site_label
_atom_site_fract_x
_atom_site_fract_y
_atom_site_fract_z
Si Si1 0.000000 0.198253 0.250000
Si Si2 0.481435 0.422162 0.838514
Si Si3 0.290897 0.088726 0.989385
Si Si4 0.959463 0.404790 0.883820
O O1 0.990765 0.384455 0.163090
O O2 0.188527 0.019294 0.350428
O O3 0.500000 0.511597 0.750000
O O4 0.576484 0.654687 0.944794
O O5 0.263786 0.367045 0.741596
O O6 0.594435 0.151478 0.910173
O O7 0.105988 0.168046 0.945919
O O8 0.000000 0.500000 0.000000
#
# Coordination Sequence:
#
# PCOD9238786 Si02
#       4
#     2   4   4   4
#     4  12  28  52  80 120 172 210 272 336 406 476
#     4  12  27  47  84 117 159 213 274 325 408 479
#     4  12  27  51  76 121 159 208 269 333 399 478
#     4  12  28  55  84 118 167 216 267 341 401 484
#
# _framework density 24.842915000000001
#
# number of rings (size 3 to 8) (size 9 to 14) (size 15 to 20)
#    0.000    0.000    5.714    1.714    4.000    4.571 
#    0.000    0.000    0.000    0.000    0.000    0.000 
#    0.000    0.000    0.000    0.000    0.000    0.000 
#
# Total GULP energy -78506.132218 kJ/mol
# GULP energy per Si atom -5607.580873 kJ/mol
# Density = 2.478637 g / cm^3
# Si number density = 24.842915 Si / 1000 Ang^3
#
#
#
# Elastic Constant Matrix: (Units=GPa)
#
#
# Indices 1 2 3 4 5 6 
#
# 1 117.1949 56.3903 74.9093 0.0000 27.0142 0.0000
# 2 56.3903 169.7136 95.4516 0.0000 18.5648 0.0000
# 3 74.9093 95.4516 180.5679 0.0000 34.7207 0.0000
# 4 0.0000 0.0000 0.0000 45.1984 0.0000 15.2475
# 5 27.0142 18.5648 34.7207 0.0000 72.2344 0.0000
# 6 0.0000 0.0000 0.0000 15.2475 0.0000 16.7101
#
#
#
# Elastic Compliance Matrix: (Units=1/GPa)
#
#
# Indices 1 2 3 4 5 6 
#
# 1 0.012294 -0.001727 -0.003734 0.000000 -0.002359 0.000000
# 2 -0.001727 0.008628 -0.003903 0.000000 0.000304 0.000000
# 3 -0.003734 -0.003903 0.009574 0.000000 -0.002202 0.000000
# 4 0.000000 0.000000 0.000000 0.031964 0.000000 -0.029166
# 5 -0.002359 0.000304 -0.002202 0.000000 0.015706 0.000000
# 6 0.000000 0.000000 0.000000 -0.029166 0.000000 0.086457
#
#
# Mechanical properties :
#
#
# Convention : Reuss Voigt Hill
#
# Bulk Modulus (GPa) = 84.97293 102.33098 93.65196
# Shear Modulus (GPa) = 26.69893 42.87692 34.78793
#
# Velocity S-wave (km/s) = 3.28183 4.15893 3.74614
# Velocity P-wave (km/s) = 6.97416 8.02140 7.51604
#
# Compressibility (1/GPa) = 0.01176845
#
# Stress axis : x y z
#
# Youngs Moduli (GPa) = 81.33991 115.90257 104.45249
#
# Poissons Ratio (x) = 0.20015 0.39000
# Poissons Ratio (y) = 0.14047 0.40768
# Poissons Ratio (z) = 0.30370 0.45237
#
# Static dielectric constant tensor:
#      x y z
#    x 1.947140 0.000000 0.019270 
#    y 0.000000 1.984240 0.000000 
#    z 0.019270 0.000000 1.896090 
# 
# From -- ./inp_files/48782.got.cif
#   From: 2010.05.17/outbox.cif.g08.bks.cpg/sg13_25_cif.got.tgz:48782.got - 2010.06.03 16:44:36.
