data_PCOD9238573
_publ_section_title
;
Structure prediction by ZEFSAII (Michael W. Deem and Ramdas Pophale) SiO2 
 PCOD9238573
Probable space group: P 2/C
;
_chemical_formula_sum "Si O2"
_cell_formula_units_Z 14
_cell_length_a 5.037609
_cell_length_b 17.329614
_cell_length_c 7.726230
_cell_angle_alpha 90.000000
_cell_angle_beta 67.675799
_cell_angle_gamma 90.000000
_cell_volume 623.944390
_symmetry_space_group_name_H-M "P 2/C"
_symmetry_group_IT_number 13
_symmetry_cell_setting 'monoclinic'
loop_
_space_group_symop_operation_xyz
x,y,z
-x,y,1/2-z
-x,-y,-z
x,-y,1/2+z
loop_
_atom_site_type_symbol
_atom_site_label
_atom_site_fract_x
_atom_site_fract_y
_atom_site_fract_z
Si Si1 0.000000 0.290739 0.750000
Si Si2 0.707934 0.605586 0.560185
Si Si3 0.500000 0.185897 0.750000
Si Si4 0.500000 0.539573 0.250000
Si Si5 0.216805 0.945122 0.545934
O O1 0.720150 0.238484 0.801581
O O2 0.029681 0.343578 0.570684
O O3 0.500000 0.647709 0.750000
O O4 0.561378 0.584601 0.411201
O O5 0.749116 0.524001 0.648473
O O6 0.678340 0.129180 0.582847
O O7 0.000000 0.918307 0.750000
O O8 0.500000 0.000000 0.500000
O O9 0.000000 0.000000 0.500000
#
# Coordination Sequence:
#
# PCOD9238573 Si02
#       5
#     2   4   2   2   4
#     4  12  26  42  64  98 144 188 218 280 352 446
#     4   9  19  39  65  96 133 176 239 289 352 404
#     4  12  27  44  66 101 144 176 226 276 350 429
#     4   8  17  40  66  99 124 178 242 312 332 403
#     4  12  23  44  75 103 131 173 226 286 340 400
#
# _framework density 22.437895000000001
#
# number of rings (size 3 to 8) (size 9 to 14) (size 15 to 20)
#    0.857    0.571    2.857    2.571    0.000    3.429 
#    0.000    2.857    0.000    0.000    0.000    0.000 
#    0.000    0.000    0.000    0.000    0.000    0.000 
#
# Total GULP energy -78024.668971 kJ/mol
# GULP energy per Si atom -5573.190641 kJ/mol
# Density = 2.238683 g / cm^3
# Si number density = 22.437895 Si / 1000 Ang^3
#
#
#
# Elastic Constant Matrix: (Units=GPa)
#
#
# Indices 1 2 3 4 5 6 
#
# 1 115.3370 35.5257 27.6808 0.0000 -11.6673 0.0000
# 2 35.5257 101.3680 56.3975 0.0000 -10.6832 0.0000
# 3 27.6808 56.3975 219.3210 0.0000 -28.9739 0.0000
# 4 0.0000 0.0000 0.0000 35.3943 0.0000 -22.1589
# 5 -11.6673 -10.6832 -28.9739 0.0000 42.1522 0.0000
# 6 0.0000 0.0000 0.0000 -22.1589 0.0000 -25.8241
#
#
#
# Elastic Compliance Matrix: (Units=1/GPa)
#
#
# Indices 1 2 3 4 5 6 
#
# 1 0.009873 -0.003162 -0.000196 0.000000 0.001797 0.000000
# 2 -0.003162 0.012561 -0.002778 0.000000 0.000399 0.000000
# 3 -0.000196 -0.002778 0.005718 0.000000 0.003172 0.000000
# 4 0.000000 0.000000 0.000000 0.018380 0.000000 -0.015771
# 5 0.001797 0.000399 0.003172 0.000000 0.026502 0.000000
# 6 0.000000 0.000000 0.000000 -0.015771 0.000000 -0.025191
#
#
# Mechanical properties :
#
#
# Convention : Reuss Voigt Hill
#
# Bulk Modulus (GPa) = 62.97254 75.02599 68.99927
# Shear Modulus (GPa) = 76.44437 31.43928 53.94183
#
# Velocity S-wave (km/s) = 5.84322 3.74728 4.90843
# Velocity P-wave (km/s) = 8.58199 7.22721 7.93357
#
# Compressibility (1/GPa) = 0.01587994
#
# Stress axis : x y z
#
# Youngs Moduli (GPa) = 101.28762 79.61214 174.89693
#
# Poissons Ratio (x) = 0.25172 0.03421
# Poissons Ratio (y) = 0.32026 0.48591
# Poissons Ratio (z) = 0.01981 0.22118
#
# Static dielectric constant tensor:
#      x y z
#    x 1.926400 0.000000 -0.000920 
#    y 0.000000 1.992260 0.000000 
#    z -0.000920 0.000000 1.947760 
# 
# From -- ./inp_files/8784.got.cif
#   From: 2010.05.17/outbox.cif.g08.bks.cpg/sg13_5_cif.got.tgz:8784.got - 2010.06.03 16:44:36.
