data_PCOD9238135
_publ_section_title
;
Structure prediction by ZEFSAII (Michael W. Deem and Ramdas Pophale) SiO2 
 PCOD9238135
Probable space group: P 2/C
;
_chemical_formula_sum "Si O2"
_cell_formula_units_Z 32
_cell_length_a 8.909347
_cell_length_b 13.801005
_cell_length_c 24.790624
_cell_angle_alpha 90.000000
_cell_angle_beta 151.212854
_cell_angle_gamma 90.000000
_cell_volume 1467.884237
_symmetry_space_group_name_H-M "P 2/C"
_symmetry_group_IT_number 13
_symmetry_cell_setting 'monoclinic'
loop_
_space_group_symop_operation_xyz
x,y,z
-x,y,1/2-z
-x,-y,-z
x,-y,1/2+z
loop_
_atom_site_type_symbol
_atom_site_label
_atom_site_fract_x
_atom_site_fract_y
_atom_site_fract_z
Si Si1 0.275046 0.976734 0.044666
Si Si2 0.276229 0.175296 0.986962
Si Si3 0.483708 0.645379 0.181480
Si Si4 0.194751 0.325145 0.058161
Si Si5 0.105587 0.724338 0.845495
Si Si6 0.206103 0.835992 0.260838
Si Si7 0.170097 0.172038 0.147450
Si Si8 0.818631 0.541327 0.748593
O O1 0.568724 0.928009 0.165267
O O2 0.367011 0.072067 0.040702
O O3 0.118859 0.894987 0.958037
O O4 0.000000 0.000000 0.000000
O O5 0.186301 0.244547 0.008271
O O6 0.555668 0.230723 0.045208
O O7 0.005914 0.159504 0.858890
O O8 0.500000 0.668925 0.250000
O O9 0.590262 0.738709 0.181234
O O10 0.718052 0.556561 0.245408
O O11 0.133315 0.619671 0.052427
O O12 0.194204 0.263406 0.113715
O O13 0.498090 0.393654 0.145132
O O14 0.000000 0.723269 0.750000
O O15 0.875816 0.789698 0.807122
O O16 0.062510 0.615076 0.853469
O O17 0.000000 0.832575 0.250000
O O18 0.500000 0.118009 0.250000
O O19 0.000000 0.517590 0.750000
#
# Coordination Sequence:
#
# PCOD9238135 Si02
#       8
#     4   4   4   4   4   4   4   4
#     4  12  28  46  74 111 147 200 253 304 375 447
#     4  12  25  47  77 106 150 196 247 309 374 439
#     4  12  26  46  75 107 149 198 246 313 379 447
#     4  12  23  47  70 109 146 189 249 312 365 439
#     4  11  24  45  73 103 150 187 242 308 369 440
#     4  12  28  51  72 108 158 199 250 308 378 450
#     4  12  24  42  74 104 142 192 247 307 362 437
#     4  11  24  47  72 107 145 192 251 302 380 448
#
# _framework density 21.800083999999998
#
# number of rings (size 3 to 8) (size 9 to 14) (size 15 to 20)
#    0.000    0.250    7.500    1.500    3.500    2.500 
#    0.000    1.250    0.000    0.000    0.000    0.000 
#    0.000    0.000    0.000    0.000    0.000    0.000 
#
# Total GULP energy -178953.195930 kJ/mol
# GULP energy per Si atom -5592.287373 kJ/mol
# Density = 2.175047 g / cm^3
# Si number density = 21.800084 Si / 1000 Ang^3
#
#
#
# Elastic Constant Matrix: (Units=GPa)
#
#
# Indices 1 2 3 4 5 6 
#
# 1 111.7094 47.1547 24.3321 0.0000 9.8202 0.0000
# 2 47.1547 98.6037 21.1866 0.0000 10.9553 0.0000
# 3 24.3321 21.1866 88.1705 0.0000 13.5758 0.0000
# 4 0.0000 0.0000 0.0000 22.8951 0.0000 13.2091
# 5 9.8202 10.9553 13.5758 0.0000 35.3479 0.0000
# 6 0.0000 0.0000 0.0000 13.2091 0.0000 19.8172
#
#
#
# Elastic Compliance Matrix: (Units=1/GPa)
#
#
# Indices 1 2 3 4 5 6 
#
# 1 0.011557 -0.005027 -0.001835 0.000000 -0.000948 0.000000
# 2 -0.005027 0.013088 -0.001433 0.000000 -0.002109 0.000000
# 3 -0.001835 -0.001433 0.012803 0.000000 -0.003963 0.000000
# 4 0.000000 0.000000 0.000000 0.070969 0.000000 -0.047304
# 5 -0.000948 -0.002109 -0.003963 0.000000 0.030729 0.000000
# 6 0.000000 0.000000 0.000000 -0.047304 0.000000 0.081992
#
#
# Mechanical properties :
#
#
# Convention : Reuss Voigt Hill
#
# Bulk Modulus (GPa) = 47.94600 53.75893 50.85247
# Shear Modulus (GPa) = 20.43480 29.33272 24.88376
#
# Velocity S-wave (km/s) = 3.06498 3.67213 3.38220
# Velocity P-wave (km/s) = 5.87934 6.53398 6.21529
#
# Compressibility (1/GPa) = 0.02085680
#
# Stress axis : x y z
#
# Youngs Moduli (GPa) = 86.52796 76.40621 78.10874
#
# Poissons Ratio (x) = 0.38411 0.14336
# Poissons Ratio (y) = 0.43499 0.11191
# Poissons Ratio (z) = 0.15882 0.10947
#
# Static dielectric constant tensor:
#      x y z
#    x 1.805520 0.000000 0.028010 
#    y 0.000000 1.803240 0.000000 
#    z 0.028010 0.000000 1.816600 
# 
# From -- ./inp_files/85349.got.cif
#   From: 2010.05.17/outbox.cif.g08.bks.cpg/sg13_43_cif.got.tgz:85349.got - 2010.06.03 16:44:36.
