data_PCOD9238880
_publ_section_title
;
Structure prediction by ZEFSAII (Michael W. Deem and Ramdas Pophale) SiO2 
 PCOD9238880
Probable space group: P 2/C
;
_chemical_formula_sum "Si O2"
_cell_formula_units_Z 32
_cell_length_a 15.000000
_cell_length_b 18.000000
_cell_length_c 12.000000
_cell_angle_alpha 90.000000
_cell_angle_beta 150.000000
_cell_angle_gamma 90.000000
_cell_volume 1620.000000
_symmetry_space_group_name_H-M "P 2/C"
_symmetry_group_IT_number 13
_symmetry_cell_setting 'monoclinic'
loop_
_space_group_symop_operation_xyz
x,y,z
-x,y,1/2-z
-x,-y,-z
x,-y,1/2+z
loop_
_atom_site_type_symbol
_atom_site_label
_atom_site_fract_x
_atom_site_fract_y
_atom_site_fract_z
Si Si1 0.406203 0.576438 0.027751
Si Si2 0.302740 0.410149 0.844625
Si Si3 0.154291 0.709625 0.338453
Si Si4 0.785768 0.862630 0.033828
Si Si5 0.011603 0.198408 0.050609
Si Si6 0.970624 0.642747 0.843463
Si Si7 0.320035 0.089834 0.315742
Si Si8 0.720142 0.919596 0.208502
O O1 0.500000 0.580189 0.250000
O O2 0.543522 0.602478 0.080826
O O3 0.342589 0.491933 0.934647
O O4 0.228422 0.624996 0.833741
O O5 0.283355 0.349878 0.922128
O O6 0.114565 0.398711 0.577056
O O7 0.251588 0.774381 0.512198
O O8 0.000000 0.675513 0.250000
O O9 0.054851 0.758736 0.134448
O O10 0.719799 0.892511 0.080097
O O11 0.000000 0.873296 0.250000
O O12 0.695861 0.902499 0.834166
O O13 0.008101 0.268110 0.128969
O O14 0.198677 0.155698 0.234918
O O15 0.871248 0.132993 0.925176
O O16 0.000000 0.615622 0.750000
O O17 0.531513 0.092267 0.566633
O O18 0.245790 0.007729 0.260926
#
# Coordination Sequence:
#
# PCOD9238880 Si02
#       8
#     4   4   4   4   4   4   4   4
#     4  11  23  45  67  96 130 167 214 259 318 382
#     4  10  23  42  68  95 129 165 211 264 318 381
#     4   9  17  37  61  92 120 153 204 254 309 373
#     4  10  18  35  60  82 116 156 192 247 317 363
#     4  10  21  38  59  87 119 160 206 253 307 370
#     4  11  23  43  67  90 127 176 210 258 320 373
#     4  11  20  38  60  84 119 158 197 259 313 361
#     4  10  22  36  57  85 117 156 206 249 306 373
#
# _framework density 19.753086
#
# number of rings (size 3 to 8) (size 9 to 14) (size 15 to 20)
#    0.000    1.750    5.000    1.125    0.000    3.500 
#   11.250    3.750    0.000    0.000    0.000    0.000 
#    0.000    0.000    0.000    0.000    0.000    0.000 
#
# Total GULP energy -178489.026239 kJ/mol
# GULP energy per Si atom -5577.782070 kJ/mol
# Density = 1.970813 g / cm^3
# Si number density = 19.753086 Si / 1000 Ang^3
#
#
#
# Elastic Constant Matrix: (Units=GPa)
#
#
# Indices 1 2 3 4 5 6 
#
# 1 82.8980 44.4754 21.7984 0.0000 18.4735 0.0000
# 2 44.4754 76.3162 18.8499 0.0000 15.3967 0.0000
# 3 21.7984 18.8499 63.1911 0.0000 23.8113 0.0000
# 4 0.0000 0.0000 0.0000 34.7239 0.0000 13.3609
# 5 18.4735 15.3967 23.8113 0.0000 26.5165 0.0000
# 6 0.0000 0.0000 0.0000 13.3609 0.0000 42.5572
#
#
#
# Elastic Compliance Matrix: (Units=1/GPa)
#
#
# Indices 1 2 3 4 5 6 
#
# 1 0.018886 -0.009369 -0.001227 0.000000 -0.006616 0.000000
# 2 -0.009369 0.019624 -0.001191 0.000000 -0.003798 0.000000
# 3 -0.001227 -0.001191 0.024214 0.000000 -0.020198 0.000000
# 4 0.000000 0.000000 0.000000 0.032755 0.000000 -0.010284
# 5 -0.006616 -0.003798 -0.020198 0.000000 0.062664 0.000000
# 6 0.000000 0.000000 0.000000 -0.010284 0.000000 0.026726
#
#
# Mechanical properties :
#
#
# Convention : Reuss Voigt Hill
#
# Bulk Modulus (GPa) = 25.54239 43.62808 34.58524
# Shear Modulus (GPa) = 22.57396 29.91163 26.24279
#
# Velocity S-wave (km/s) = 3.38421 3.89559 3.64887
# Velocity P-wave (km/s) = 5.31314 6.50914 5.94131
#
# Compressibility (1/GPa) = 0.03915060
#
# Stress axis : x y z
#
# Youngs Moduli (GPa) = 52.94804 50.95900 41.29776
#
# Poissons Ratio (x) = 0.47742 0.05069
# Poissons Ratio (y) = 0.49605 0.04917
# Poissons Ratio (z) = 0.06499 0.06068
#
# Static dielectric constant tensor:
#      x y z
#    x 1.720020 0.000000 -0.023650 
#    y 0.000000 1.685890 0.000000 
#    z -0.023650 0.000000 1.746650 
# 
# From -- ./inp_files/37724.got.cif
#   From: 2010.05.17/outbox.ucp.g08.bks.cvg/sg13_19_cif.got.tgz:37724.got - 2010.06.11 12:23:55.
