data_PCOD9238288
_publ_section_title
;
Structure prediction by ZEFSAII (Michael W. Deem and Ramdas Pophale) SiO2 
 PCOD9238288
Probable space group: P 2/C
;
_chemical_formula_sum "Si O2"
_cell_formula_units_Z 18
_cell_length_a 20.645427
_cell_length_b 8.474967
_cell_length_c 16.183831
_cell_angle_alpha 90.000000
_cell_angle_beta 18.235002
_cell_angle_gamma 90.000000
_cell_volume 886.073764
_symmetry_space_group_name_H-M "P 2/C"
_symmetry_group_IT_number 13
_symmetry_cell_setting 'monoclinic'
loop_
_space_group_symop_operation_xyz
x,y,z
-x,y,1/2-z
-x,-y,-z
x,-y,1/2+z
loop_
_atom_site_type_symbol
_atom_site_label
_atom_site_fract_x
_atom_site_fract_y
_atom_site_fract_z
Si Si1 0.229350 0.621921 0.006193
Si Si2 0.693522 0.856691 0.872499
Si Si3 0.525509 0.677939 0.501397
Si Si4 0.500000 0.653707 0.250000
Si Si5 0.836385 0.794692 0.241413
O O1 0.220560 0.722026 0.101205
O O2 0.000000 0.595508 0.250000
O O3 0.363590 0.703920 0.772172
O O4 0.346728 0.460143 0.885182
O O5 0.524452 0.805396 0.008859
O O6 0.917456 0.809359 0.564778
O O7 0.723828 0.038034 0.861605
O O8 0.632888 0.758556 0.026735
O O9 0.500000 0.500000 0.500000
O O10 0.749583 0.689361 0.271751
#
# Coordination Sequence:
#
# PCOD9238288 Si02
#       5
#     4   4   4   2   4
#     4  12  24  42  69  98 130 175 222 272 329 390
#     4  11  26  44  66 100 133 175 220 273 331 397
#     4  12  23  43  69  98 131 174 220 271 327 396
#     4  12  26  42  68  98 132 172 224 278 322 392
#     4  11  25  46  67  95 138 175 216 274 335 392
#
# _framework density 20.314336000000001
#
# number of rings (size 3 to 8) (size 9 to 14) (size 15 to 20)
#    0.000    0.444    6.667    0.667    6.222    1.778 
#    0.000    1.111    0.000    0.000    0.000    0.000 
#    0.000    0.000    0.000    0.000    0.000    0.000 
#
# Total GULP energy -100662.785592 kJ/mol
# GULP energy per Si atom -5592.376977 kJ/mol
# Density = 2.026810 g / cm^3
# Si number density = 20.314336 Si / 1000 Ang^3
#
#
#
# Elastic Constant Matrix: (Units=GPa)
#
#
# Indices 1 2 3 4 5 6 
#
# 1 114.3864 36.0928 9.4827 0.0000 -3.3871 0.0000
# 2 36.0928 90.8730 22.1973 0.0000 15.5781 0.0000
# 3 9.4827 22.1973 56.8311 0.0000 15.0458 0.0000
# 4 0.0000 0.0000 0.0000 28.1534 0.0000 9.2463
# 5 -3.3871 15.5781 15.0458 0.0000 45.0323 0.0000
# 6 0.0000 0.0000 0.0000 9.2463 0.0000 -10.1755
#
#
#
# Elastic Compliance Matrix: (Units=1/GPa)
#
#
# Indices 1 2 3 4 5 6 
#
# 1 0.010238 -0.004328 -0.000678 0.000000 0.002494 0.000000
# 2 -0.004328 0.014344 -0.003818 0.000000 -0.004012 0.000000
# 3 -0.000678 -0.003818 0.020695 0.000000 -0.005645 0.000000
# 4 0.000000 0.000000 0.000000 0.027356 0.000000 0.024858
# 5 0.002494 -0.004012 -0.005645 0.000000 0.025668 0.000000
# 6 0.000000 0.000000 0.000000 0.024858 0.000000 -0.075687
#
#
# Mechanical properties :
#
#
# Convention : Reuss Voigt Hill
#
# Bulk Modulus (GPa) = 36.19529 44.18180 40.18855
# Shear Modulus (GPa) = 101.07012 25.55655 63.31333
#
# Velocity S-wave (km/s) = 7.06124 3.55075 5.58878
# Velocity P-wave (km/s) = 9.18356 6.21343 7.84043
#
# Compressibility (1/GPa) = 0.02762791
#
# Stress axis : x y z
#
# Youngs Moduli (GPa) = 97.67479 69.71628 48.32136
#
# Poissons Ratio (x) = 0.30175 0.03276
# Poissons Ratio (y) = 0.42276 0.18450
# Poissons Ratio (z) = 0.06622 0.26619
#
# Static dielectric constant tensor:
#      x y z
#    x 1.727030 0.000000 -0.024160 
#    y 0.000000 1.717340 0.000000 
#    z -0.024160 0.000000 1.697440 
# 
# From -- ./inp_files/56998.got.cif
#   From: 2010.05.17/outbox.cif.g08.bks.cpg/sg13_29_cif.got.tgz:56998.got - 2010.06.03 16:44:36.
