data_PCOD9238193
_publ_section_title
;
Structure prediction by ZEFSAII (Michael W. Deem and Ramdas Pophale) SiO2 
 PCOD9238193
Probable space group: P 2/C
;
_chemical_formula_sum "Si O2"
_cell_formula_units_Z 32
_cell_length_a 10.219730
_cell_length_b 13.422532
_cell_length_c 14.873277
_cell_angle_alpha 90.000000
_cell_angle_beta 39.356328
_cell_angle_gamma 90.000000
_cell_volume 1293.798370
_symmetry_space_group_name_H-M "P 2/C"
_symmetry_group_IT_number 13
_symmetry_cell_setting 'monoclinic'
loop_
_space_group_symop_operation_xyz
x,y,z
-x,y,1/2-z
-x,-y,-z
x,-y,1/2+z
loop_
_atom_site_type_symbol
_atom_site_label
_atom_site_fract_x
_atom_site_fract_y
_atom_site_fract_z
Si Si1 0.330591 0.081495 0.108900
Si Si2 0.050056 0.552897 0.378426
Si Si3 0.050054 0.052898 0.878427
Si Si4 0.738159 0.750000 0.162083
Si Si5 0.382473 0.360302 0.394321
Si Si6 0.172849 0.750000 0.580852
Si Si7 0.330593 0.418504 0.108899
Si Si8 0.382474 0.139699 0.394321
O O1 0.145495 0.026133 0.258582
O O2 0.289288 0.148310 0.044027
O O3 0.446319 0.147777 0.121008
O O4 0.500000 0.000000 0.000000
O O5 0.197871 0.649367 0.317891
O O6 0.145496 0.473867 0.258582
O O7 0.000000 0.500000 0.500000
O O8 0.826996 0.589199 0.462583
O O9 0.826995 0.089200 0.962583
O O10 0.197870 0.149368 0.817892
O O11 0.000000 0.000000 0.000000
O O12 0.500000 0.750000 0.250000
O O13 0.877154 0.750000 0.997018
O O14 0.500000 0.414763 0.250000
O O15 0.553680 0.352223 0.378992
O O16 0.319707 0.250000 0.395681
O O17 0.289296 0.648311 0.544022
O O18 0.000000 0.749997 0.750000
O O19 0.500000 0.500000 0.000000
O O20 0.500000 0.085238 0.250000
#
# Coordination Sequence:
#
# PCOD9238193 Si02
#       8
#     4   4   4   4   4   4   4   4
#     4  12  28  46  72 106 146 189 235 298 366 426
#     4  12  26  46  75 106 138 192 246 291 354 434
#     4  12  26  46  75 106 138 192 246 291 354 434
#     4  12  28  49  73 105 147 188 242 301 355 434
#     4  11  24  47  75 101 141 189 247 296 353 431
#     4  12  28  47  69 107 151 184 230 298 373 428
#     4  12  28  46  72 106 146 189 235 298 366 426
#     4  11  24  47  75 101 141 189 247 296 353 431
#
# _framework density 24.733374999999999
#
# number of rings (size 3 to 8) (size 9 to 14) (size 15 to 20)
#    0.000    0.250    5.000    3.000   10.500    0.000 
#    0.000    1.250    0.000    0.000    0.000    0.000 
#    0.000    0.000    0.000    0.000    0.000    0.000 
#
# Total GULP energy -179115.211149 kJ/mol
# GULP energy per Si atom -5597.350348 kJ/mol
# Density = 2.467708 g / cm^3
# Si number density = 24.733375 Si / 1000 Ang^3
#
#
#
# Elastic Constant Matrix: (Units=GPa)
#
#
# Indices 1 2 3 4 5 6 
#
# 1 84.0401 29.9607 10.1841 0.0000 -8.8223 0.0000
# 2 29.9607 146.8928 39.8169 0.0000 -12.1567 0.0000
# 3 10.1841 39.8169 120.5504 0.0000 -19.3691 0.0000
# 4 0.0000 0.0000 0.0000 -41.5680 0.0000 18.9662
# 5 -8.8223 -12.1567 -19.3691 0.0000 46.5661 0.0000
# 6 0.0000 0.0000 0.0000 18.9662 0.0000 30.8513
#
#
#
# Elastic Compliance Matrix: (Units=1/GPa)
#
#
# Indices 1 2 3 4 5 6 
#
# 1 0.012979 -0.002503 0.000022 0.000000 0.001815 0.000000
# 2 -0.002503 0.008003 -0.002328 0.000000 0.000647 0.000000
# 3 0.000022 -0.002328 0.009607 0.000000 0.003393 0.000000
# 4 0.000000 0.000000 0.000000 -0.018787 0.000000 0.011550
# 5 0.001815 0.000647 0.003393 0.000000 0.023399 0.000000
# 6 0.000000 0.000000 0.000000 0.011550 0.000000 0.025313
#
#
# Mechanical properties :
#
#
# Convention : Reuss Voigt Hill
#
# Bulk Modulus (GPa) = 47.68437 56.82297 52.25367
# Shear Modulus (GPa) = 64.83176 25.27132 45.05154
#
# Velocity S-wave (km/s) = 5.12534 3.19995 4.27252
# Velocity P-wave (km/s) = 7.37203 6.05615 6.74625
#
# Compressibility (1/GPa) = 0.02097123
#
# Stress axis : x y z
#
# Youngs Moduli (GPa) = 77.04589 124.95731 104.08614
#
# Poissons Ratio (x) = 0.31277 -0.00227
# Poissons Ratio (y) = 0.19285 0.24230
# Poissons Ratio (z) = -0.00168 0.29089
#
# Static dielectric constant tensor:
#      x y z
#    x 2.070060 0.000000 0.014420 
#    y 0.000000 2.293330 0.000000 
#    z 0.014420 0.000000 2.048400 
# 
# From -- ./inp_files/66914.got.cif
#   From: 2010.05.17/outbox.cif.g08.bks.cpg/sg13_34_cif.got.tgz:66914.got - 2010.06.03 16:44:36.
