data_PCOD9238855
_publ_section_title
;
Structure prediction by ZEFSAII (Michael W. Deem and Ramdas Pophale) SiO2 
 PCOD9238855
Probable space group: P 2/C
;
_chemical_formula_sum "Si O2"
_cell_formula_units_Z 18
_cell_length_a 10.176774
_cell_length_b 5.467154
_cell_length_c 13.272694
_cell_angle_alpha 90.000000
_cell_angle_beta 73.629334
_cell_angle_gamma 90.000000
_cell_volume 708.527431
_symmetry_space_group_name_H-M "P 2/C"
_symmetry_group_IT_number 13
_symmetry_cell_setting 'monoclinic'
loop_
_space_group_symop_operation_xyz
x,y,z
-x,y,1/2-z
-x,-y,-z
x,-y,1/2+z
loop_
_atom_site_type_symbol
_atom_site_label
_atom_site_fract_x
_atom_site_fract_y
_atom_site_fract_z
Si Si1 0.000000 0.811779 0.250000
Si Si2 0.742484 0.619260 0.190679
Si Si3 0.223659 0.098314 0.105539
Si Si4 0.339591 0.880476 0.806996
Si Si5 0.645265 0.404513 0.931742
O O1 0.889440 0.649741 0.213312
O O2 0.926883 0.982141 0.350061
O O3 0.714031 0.372923 0.136734
O O4 0.359114 0.611400 0.190236
O O5 0.708309 0.863487 0.136762
O O6 0.317556 0.873269 0.045250
O O7 0.266273 0.114266 0.214188
O O8 0.246416 0.377323 0.067742
O O9 0.500000 0.876553 0.750000
O O10 0.500000 0.500000 0.000000
#
# Coordination Sequence:
#
# PCOD9238855 Si02
#       5
#     2   4   4   4   4
#     4   8  16  30  40  62  92 106 136 164 216 250
#     4   9  18  26  43  62  84 111 130 172 204 247
#     4   9  18  26  43  62  84 111 130 172 204 247
#     4   9  16  27  39  59  86 109 136 164 204 247
#     4   9  16  27  39  59  86 109 136 164 204 247
#
# _framework density 25.404800999999999
#
# number of rings (size 3 to 8) (size 9 to 14) (size 15 to 20)
#    0.000    3.556    0.000    1.333    0.000   14.222 
#    0.000    0.000    0.000    0.000    0.000    0.000 
#    0.000  753.778    0.000    0.000    0.000    0.000 
#
# Total GULP energy -100506.957431 kJ/mol
# GULP energy per Si atom -5583.719857 kJ/mol
# Density = 2.534698 g / cm^3
# Si number density = 25.404801 Si / 1000 Ang^3
#
#
#
# Elastic Constant Matrix: (Units=GPa)
#
#
# Indices 1 2 3 4 5 6 
#
# 1 88.3562 30.5562 -1.1900 0.0000 -27.4143 0.0000
# 2 30.5562 253.8726 21.8367 0.0000 0.1891 0.0000
# 3 -1.1900 21.8367 56.8817 0.0000 7.6334 0.0000
# 4 0.0000 0.0000 0.0000 60.5296 0.0000 14.9485
# 5 -27.4143 0.1891 7.6334 0.0000 28.0429 0.0000
# 6 0.0000 0.0000 0.0000 14.9485 0.0000 67.5769
#
#
#
# Elastic Compliance Matrix: (Units=1/GPa)
#
#
# Indices 1 2 3 4 5 6 
#
# 1 0.017366 -0.002000 -0.001192 0.000000 0.017315 0.000000
# 2 -0.002000 0.004309 -0.001484 0.000000 -0.001581 0.000000
# 3 -0.001192 -0.001484 0.018973 0.000000 -0.006320 0.000000
# 4 0.000000 0.000000 0.000000 0.017476 0.000000 -0.003866
# 5 0.017315 -0.001581 -0.006320 0.000000 0.054317 0.000000
# 6 0.000000 0.000000 0.000000 -0.003866 0.000000 0.015653
#
#
# Mechanical properties :
#
#
# Convention : Reuss Voigt Hill
#
# Bulk Modulus (GPa) = 31.95456 55.72404 43.83930
# Shear Modulus (GPa) = 33.81170 54.42373 44.11771
#
# Velocity S-wave (km/s) = 3.65213 4.63348 4.17176
# Velocity P-wave (km/s) = 5.51267 7.11390 6.36385
#
# Compressibility (1/GPa) = 0.03129444
#
# Stress axis : x y z
#
# Youngs Moduli (GPa) = 57.58444 232.09582 52.70598
#
# Poissons Ratio (x) = 0.46431 0.06284
# Poissons Ratio (y) = 0.11520 0.07820
# Poissons Ratio (z) = 0.06866 0.34437
#
# Static dielectric constant tensor:
#      x y z
#    x 1.975280 0.000000 -0.042040 
#    y 0.000000 2.171740 0.000000 
#    z -0.042040 0.000000 2.078730 
# 
# From -- ./inp_files/62080.got.cif
#   From: 2010.05.17/outbox.cif.g08.bks.cpg/sg13_32_cif.got.tgz:62080.got - 2010.06.03 16:44:36.
