data_PCOD9238257
_publ_section_title
;
Structure prediction by ZEFSAII (Michael W. Deem and Ramdas Pophale) SiO2 
 PCOD9238257
Probable space group: P 2/C
;
_chemical_formula_sum "Si O2"
_cell_formula_units_Z 30
_cell_length_a 30.821014
_cell_length_b 8.826405
_cell_length_c 30.366929
_cell_angle_alpha 90.000000
_cell_angle_beta 9.249422
_cell_angle_gamma 90.000000
_cell_volume 1327.809103
_symmetry_space_group_name_H-M "P 2/C"
_symmetry_group_IT_number 13
_symmetry_cell_setting 'monoclinic'
loop_
_space_group_symop_operation_xyz
x,y,z
-x,y,1/2-z
-x,-y,-z
x,-y,1/2+z
loop_
_atom_site_type_symbol
_atom_site_label
_atom_site_fract_x
_atom_site_fract_y
_atom_site_fract_z
Si Si1 0.319272 0.680168 0.869861
Si Si2 0.061391 0.164687 0.957921
Si Si3 0.564700 0.471073 0.038729
Si Si4 0.500000 0.561023 0.250000
Si Si5 0.161111 0.128998 0.635090
Si Si6 0.436962 0.330493 0.079372
Si Si7 0.130696 0.779603 0.667985
Si Si8 0.072195 0.322848 0.035453
O O1 0.466414 0.595781 0.682981
O O2 0.287482 0.553345 0.939910
O O3 0.542953 0.801267 0.660898
O O4 0.043727 0.763633 0.132429
O O5 0.365236 0.211621 0.641834
O O6 0.013809 0.192527 0.057815
O O7 0.865207 0.283348 0.129620
O O8 0.000000 0.000000 0.000000
O O9 0.504601 0.343160 0.062948
O O10 0.368423 0.614938 0.228511
O O11 0.864566 0.537699 0.736270
O O12 0.379259 0.667526 0.409039
O O13 0.000000 0.131691 0.750000
O O14 0.193511 0.954198 0.615275
O O15 0.500000 0.500000 0.000000
O O16 0.000000 0.778642 0.750000
O O17 0.965693 0.723292 0.875634
#
# Coordination Sequence:
#
# PCOD9238257 Si02
#       8
#     4   4   4   2   4   4   4   4
#     4  12  25  43  69 101 135 178 236 287 344 402
#     4  12  26  45  74 107 144 183 231 294 359 417
#     4  12  25  41  73 105 136 178 241 290 343 411
#     4  12  24  42  72  98 132 188 238 284 332 418
#     4  11  25  45  66  95 140 186 222 289 353 402
#     4  12  23  46  73 100 137 187 231 283 350 420
#     4  11  28  43  71 100 143 188 236 280 355 423
#     4  12  24  45  69 105 139 181 232 296 342 414
#
# _framework density 22.593608
#
# number of rings (size 3 to 8) (size 9 to 14) (size 15 to 20)
#    0.000    0.267    5.333    3.200    5.600    2.133 
#    0.000    0.000    0.000    0.000    0.000    0.000 
#    0.000    0.000    0.000    0.000    0.000    0.000 
#
# Total GULP energy -167766.810114 kJ/mol
# GULP energy per Si atom -5592.227004 kJ/mol
# Density = 2.254218 g / cm^3
# Si number density = 22.593608 Si / 1000 Ang^3
#
#
#
# Elastic Constant Matrix: (Units=GPa)
#
#
# Indices 1 2 3 4 5 6 
#
# 1 110.6372 19.4827 -1.8851 0.0000 17.1291 0.0000
# 2 19.4827 106.4260 19.4283 0.0000 2.7145 0.0000
# 3 -1.8851 19.4283 75.1498 0.0000 -1.0635 0.0000
# 4 0.0000 0.0000 0.0000 30.5004 0.0000 -2.2432
# 5 17.1291 2.7145 -1.0635 0.0000 30.1573 0.0000
# 6 0.0000 0.0000 0.0000 -2.2432 0.0000 29.0001
#
#
#
# Elastic Compliance Matrix: (Units=1/GPa)
#
#
# Indices 1 2 3 4 5 6 
#
# 1 0.010248 -0.001852 0.000656 0.000000 -0.005631 0.000000
# 2 -0.001852 0.010225 -0.002689 0.000000 0.000037 0.000000
# 3 0.000656 -0.002689 0.014024 0.000000 0.000364 0.000000
# 4 0.000000 0.000000 0.000000 0.032974 0.000000 0.002551
# 5 -0.005631 0.000037 0.000364 0.000000 0.036367 0.000000
# 6 0.000000 0.000000 0.000000 0.002551 0.000000 0.034680
#
#
# Mechanical properties :
#
#
# Convention : Reuss Voigt Hill
#
# Bulk Modulus (GPa) = 37.41702 40.69610 39.05656
# Shear Modulus (GPa) = 32.21709 34.94404 33.58056
#
# Velocity S-wave (km/s) = 3.78026 3.93699 3.85942
# Velocity P-wave (km/s) = 5.97081 6.22237 6.09789
#
# Compressibility (1/GPa) = 0.02672580
#
# Stress axis : x y z
#
# Youngs Moduli (GPa) = 97.58336 97.79680 71.30799
#
# Poissons Ratio (x) = 0.18113 -0.04679
# Poissons Ratio (y) = 0.18074 0.19178
# Poissons Ratio (z) = -0.06403 0.26302
#
# Static dielectric constant tensor:
#      x y z
#    x 1.951880 0.000000 -0.019650 
#    y 0.000000 1.824660 0.000000 
#    z -0.019650 0.000000 1.822980 
# 
# From -- ./inp_files/98072.got.cif
#   From: 2010.05.17/outbox.cif.g08.bks.cpg/sg13_50_cif.got.tgz:98072.got - 2010.06.03 16:44:36.
