data_PCOD9238515
_publ_section_title
;
Structure prediction by ZEFSAII (Michael W. Deem and Ramdas Pophale) SiO2 
 PCOD9238515
Probable space group: P 2/C
;
_chemical_formula_sum "Si O2"
_cell_formula_units_Z 20
_cell_length_a 6.502907
_cell_length_b 8.308816
_cell_length_c 16.233258
_cell_angle_alpha 90.000000
_cell_angle_beta 82.100108
_cell_angle_gamma 90.000000
_cell_volume 868.782608
_symmetry_space_group_name_H-M "P 2/C"
_symmetry_group_IT_number 13
_symmetry_cell_setting 'monoclinic'
loop_
_space_group_symop_operation_xyz
x,y,z
-x,y,1/2-z
-x,-y,-z
x,-y,1/2+z
loop_
_atom_site_type_symbol
_atom_site_label
_atom_site_fract_x
_atom_site_fract_y
_atom_site_fract_z
Si Si1 0.614317 0.646964 0.038674
Si Si2 0.116484 0.427114 0.377104
Si Si3 0.500000 0.681254 0.750000
Si Si4 0.640762 0.148829 0.813879
Si Si5 0.217744 0.832857 0.620181
Si Si6 0.000000 0.360708 0.750000
O O1 0.823017 0.554654 0.055851
O O2 0.489804 0.735087 0.118597
O O3 0.500000 0.500000 0.000000
O O4 0.658071 0.782369 0.968058
O O5 0.335449 0.410224 0.317102
O O6 0.006769 0.251658 0.384141
O O7 0.958821 0.526174 0.329247
O O8 0.343433 0.764140 0.692478
O O9 0.500000 0.069844 0.750000
O O10 0.801310 0.251753 0.751851
O O11 0.771155 0.022196 0.861449
#
# Coordination Sequence:
#
# PCOD9238515 Si02
#       6
#     4   4   2   4   4   2
#     4  12  25  48  73 104 146 193 247 305 365 439
#     4  12  24  45  75 106 140 195 249 300 357 443
#     4  12  22  42  74 100 140 188 238 290 366 422
#     4  12  27  47  72 107 149 193 239 304 378 435
#     4  12  26  44  73 107 147 186 242 305 372 433
#     4  12  24  42  76 102 140 188 256 290 360 448
#
# _framework density 23.020719
#
# number of rings (size 3 to 8) (size 9 to 14) (size 15 to 20)
#    0.000    0.000    7.000    3.600    2.800    0.000 
#    0.000    2.000    0.000    0.000    0.000    0.000 
#    0.000    0.000    0.000    0.000    0.000    0.000 
#
# Total GULP energy -111538.134140 kJ/mol
# GULP energy per Si atom -5576.906707 kJ/mol
# Density = 2.296832 g / cm^3
# Si number density = 23.020719 Si / 1000 Ang^3
#
#
#
# Elastic Constant Matrix: (Units=GPa)
#
#
# Indices 1 2 3 4 5 6 
#
# 1 47.1137 36.1051 12.4138 0.0000 2.9962 0.0000
# 2 36.1051 111.2723 25.4167 0.0000 -0.9741 0.0000
# 3 12.4138 25.4167 78.8581 0.0000 1.5757 0.0000
# 4 0.0000 0.0000 0.0000 29.7627 0.0000 7.0205
# 5 2.9962 -0.9741 1.5757 0.0000 46.6404 0.0000
# 6 0.0000 0.0000 0.0000 7.0205 0.0000 1.2896
#
#
#
# Elastic Compliance Matrix: (Units=1/GPa)
#
#
# Indices 1 2 3 4 5 6 
#
# 1 0.028621 -0.008942 -0.001584 0.000000 -0.001972 0.000000
# 2 -0.008942 0.012499 -0.002639 0.000000 0.000925 0.000000
# 3 -0.001584 -0.002639 0.013789 0.000000 -0.000419 0.000000
# 4 0.000000 0.000000 0.000000 -0.118258 0.000000 0.643780
# 5 -0.001972 0.000925 -0.000419 0.000000 0.021601 0.000000
# 6 0.000000 0.000000 0.000000 0.643780 0.000000 -2.729233
#
#
# Mechanical properties :
#
#
# Convention : Reuss Voigt Hill
#
# Bulk Modulus (GPa) = 34.99136 42.79058 38.89097
# Shear Modulus (GPa) = -1.82807 26.42578 12.29885
#
# Velocity S-wave (km/s) = -0.89209 3.39176 2.31390
# Velocity P-wave (km/s) = 3.76455 5.82812 4.90606
#
# Compressibility (1/GPa) = 0.02857848
#
# Stress axis : x y z
#
# Youngs Moduli (GPa) = 34.93972 80.00337 72.51912
#
# Poissons Ratio (x) = 0.71540 0.11486
# Poissons Ratio (y) = 0.31244 0.19141
# Poissons Ratio (z) = 0.05534 0.21117
#
# Static dielectric constant tensor:
#      x y z
#    x 2.090210 0.000000 0.111670 
#    y 0.000000 1.846180 0.000000 
#    z 0.111670 0.000000 2.068280 
# 
# From -- ./inp_files/60632.got.cif
#   From: 2010.05.17/outbox.cif.g08.bks.cpg/sg13_31_cif.got.tgz:60632.got - 2010.06.03 16:44:36.
