data_PCOD9238891
_publ_section_title
;
Structure prediction by ZEFSAII (Michael W. Deem and Ramdas Pophale) SiO2 
 PCOD9238891
Probable space group: P 2/C
;
_chemical_formula_sum "Si O2"
_cell_formula_units_Z 24
_cell_length_a 18.000000
_cell_length_b 9.000000
_cell_length_c 24.000000
_cell_angle_alpha 90.000000
_cell_angle_beta 20.000000
_cell_angle_gamma 90.000000
_cell_volume 1329.774317
_symmetry_space_group_name_H-M "P 2/C"
_symmetry_group_IT_number 13
_symmetry_cell_setting 'monoclinic'
loop_
_space_group_symop_operation_xyz
x,y,z
-x,y,1/2-z
-x,-y,-z
x,-y,1/2+z
loop_
_atom_site_type_symbol
_atom_site_label
_atom_site_fract_x
_atom_site_fract_y
_atom_site_fract_z
Si Si1 0.401707 0.552756 0.756593
Si Si2 0.337249 0.226504 0.753555
Si Si3 0.854432 0.571993 0.403283
Si Si4 0.168960 0.214524 0.084811
Si Si5 0.033936 0.728824 0.063472
Si Si6 0.760130 0.048042 0.575176
O O1 0.500000 0.550625 0.750000
O O2 0.352357 0.385802 0.773339
O O3 0.600477 0.616973 0.580256
O O4 0.183851 0.647487 0.911754
O O5 0.584934 0.176934 0.570814
O O6 0.210877 0.117102 0.884235
O O7 0.205043 0.246433 0.790706
O O8 0.850837 0.392829 0.405510
O O9 0.955478 0.629810 0.389121
O O10 0.000000 0.625704 0.250000
O O11 0.000000 0.160822 0.250000
O O12 0.138843 0.147516 0.044831
O O13 0.147823 0.884590 0.994893
O O14 0.500000 0.048008 0.750000
#
# Coordination Sequence:
#
# PCOD9238891 Si02
#       6
#     4   4   4   4   4   4
#     4   9  17  32  52  72  97 132 166 196 241 298
#     4  10  19  33  52  75 100 128 164 207 245 285
#     4   9  18  34  52  71  98 132 167 198 240 299
#     4   9  19  37  55  69  95 138 172 192 236 306
#     4  11  20  31  50  80 103 122 161 214 249 277
#     4  10  19  33  52  71  98 134 165 195 242 299
#
# _framework density 18.048175000000001
#
# number of rings (size 3 to 8) (size 9 to 14) (size 15 to 20)
#    0.000    2.333    0.000    6.000    0.000    0.667 
#    0.000   10.000    0.000    0.000    0.000    0.000 
#    0.000    0.000    0.000    0.000    0.000    0.000 
#
# Total GULP energy -133763.267214 kJ/mol
# GULP energy per Si atom -5573.469467 kJ/mol
# Density = 1.800710 g / cm^3
# Si number density = 18.048175 Si / 1000 Ang^3
#
#
#
# Elastic Constant Matrix: (Units=GPa)
#
#
# Indices 1 2 3 4 5 6 
#
# 1 11.7049 5.8635 25.7479 0.0000 15.5840 0.0000
# 2 5.8635 8.0404 16.1879 0.0000 8.9786 0.0000
# 3 25.7479 16.1879 86.6631 0.0000 39.9664 0.0000
# 4 0.0000 0.0000 0.0000 12.6511 0.0000 -8.4997
# 5 15.5840 8.9786 39.9664 0.0000 12.0708 0.0000
# 6 0.0000 0.0000 0.0000 -8.4997 0.0000 -12.0485
#
#
#
# Elastic Compliance Matrix: (Units=1/GPa)
#
#
# Indices 1 2 3 4 5 6 
#
# 1 0.181112 -0.065234 -0.083184 0.000000 0.090118 0.000000
# 2 -0.065234 0.209485 -0.025185 0.000000 0.011789 0.000000
# 3 -0.083184 -0.025185 0.032659 0.000000 0.017995 0.000000
# 4 0.000000 0.000000 0.000000 0.053627 0.000000 -0.037832
# 5 0.090118 0.011789 0.017995 0.000000 -0.101854 0.000000
# 6 0.000000 0.000000 0.000000 -0.037832 0.000000 -0.056309
#
#
# Mechanical properties :
#
#
# Convention : Reuss Voigt Hill
#
# Bulk Modulus (GPa) = 13.14943 22.44520 17.79731
# Shear Modulus (GPa) = 7.23300 6.44198 6.83749
#
# Velocity S-wave (km/s) = 2.00407 1.89131 1.94851
# Velocity P-wave (km/s) = 3.55762 4.15123 3.86583
#
# Compressibility (1/GPa) = 0.07604895
#
# Stress axis : x y z
#
# Youngs Moduli (GPa) = 5.52144 4.77362 30.61987
#
# Poissons Ratio (x) = 0.31140 2.54707
# Poissons Ratio (y) = 0.36019 0.77117
# Poissons Ratio (z) = 0.45929 0.12023
#
# Static dielectric constant tensor:
#      x y z
#    x 1.600640 0.000000 0.006980 
#    y 0.000000 1.601480 0.000000 
#    z 0.006980 0.000000 1.644700 
# 
# From -- ./inp_files/46032.got.cif
#   From: 2010.05.17/outbox.ucp.g08.bks.cvg/sg13_24_cif.got.tgz:46032.got - 2010.06.11 12:23:55.
