data_PCOD9238014
_publ_section_title
;
Structure prediction by ZEFSAII (Michael W. Deem and Ramdas Pophale) SiO2 
 PCOD9238014
Probable space group: P 2/C
;
_chemical_formula_sum "Si O2"
_cell_formula_units_Z 16
_cell_length_a 8.177339
_cell_length_b 18.125447
_cell_length_c 9.229155
_cell_angle_alpha 90.000000
_cell_angle_beta 146.736414
_cell_angle_gamma 90.000000
_cell_volume 750.295914
_symmetry_space_group_name_H-M "P 2/C"
_symmetry_group_IT_number 13
_symmetry_cell_setting 'monoclinic'
loop_
_space_group_symop_operation_xyz
x,y,z
-x,y,1/2-z
-x,-y,-z
x,-y,1/2+z
loop_
_atom_site_type_symbol
_atom_site_label
_atom_site_fract_x
_atom_site_fract_y
_atom_site_fract_z
Si Si1 0.202965 0.046080 0.259093
Si Si2 0.830855 0.559033 0.471877
Si Si3 0.203247 0.300717 0.763424
Si Si4 0.188425 0.785102 0.739646
O O1 0.285243 0.130642 0.284986
O O2 0.000000 0.051533 0.250000
O O3 0.500000 0.000000 0.500000
O O4 0.000000 0.000000 0.000000
O O5 0.500000 0.528682 0.250000
O O6 0.789235 0.633124 0.346855
O O7 0.000000 0.500000 0.500000
O O8 0.000000 0.571638 0.750000
O O9 0.000000 0.322683 0.750000
O O10 0.030507 0.235981 0.552441
O O11 0.530647 0.270675 0.046970
O O12 0.000000 0.779325 0.750000
#
# Coordination Sequence:
#
# PCOD9238014 Si02
#       4
#     4   4   4   4
#     4  11  24  41  64  93 128 169 216 268 326 388
#     4  12  26  46  71  99 134 174 216 269 325 388
#     4  12  25  42  66  98 130 168 217 268 323 385
#     4  11  24  43  65  92 129 173 216 265 326 389
#
# _framework density 21.324921
#
# number of rings (size 3 to 8) (size 9 to 14) (size 15 to 20)
#    0.000    0.500    0.000    9.000    0.000   12.000 
#    0.000    0.000    0.000    0.000    0.000    0.000 
#    0.000    0.000    0.000    0.000    0.000    0.000 
#
# Total GULP energy -89561.494831 kJ/mol
# GULP energy per Si atom -5597.593427 kJ/mol
# Density = 2.127638 g / cm^3
# Si number density = 21.324921 Si / 1000 Ang^3
#
#
#
# Elastic Constant Matrix: (Units=GPa)
#
#
# Indices 1 2 3 4 5 6 
#
# 1 102.7148 16.6809 21.8532 0.0000 12.9629 0.0000
# 2 16.6809 88.6145 -9.3745 0.0000 13.5681 0.0000
# 3 21.8532 -9.3745 92.7470 0.0000 16.9113 0.0000
# 4 0.0000 0.0000 0.0000 4.9890 0.0000 24.8354
# 5 12.9629 13.5681 16.9113 0.0000 47.3000 0.0000
# 6 0.0000 0.0000 0.0000 24.8354 0.0000 11.4333
#
#
#
# Elastic Compliance Matrix: (Units=1/GPa)
#
#
# Indices 1 2 3 4 5 6 
#
# 1 0.010785 -0.002067 -0.002481 0.000000 -0.001476 0.000000
# 2 -0.002067 0.012534 0.002467 0.000000 -0.003911 0.000000
# 3 -0.002481 0.002467 0.012431 0.000000 -0.004472 0.000000
# 4 0.000000 0.000000 0.000000 -0.020426 0.000000 0.044368
# 5 -0.001476 -0.003911 -0.004472 0.000000 0.024267 0.000000
# 6 0.000000 0.000000 0.000000 0.044368 0.000000 -0.008913
#
#
# Mechanical properties :
#
#
# Convention : Reuss Voigt Hill
#
# Bulk Modulus (GPa) = 31.65679 38.04394 34.85037
# Shear Modulus (GPa) = 110.20350 29.73892 69.97121
#
# Velocity S-wave (km/s) = 7.19656 3.73843 5.73439
# Velocity P-wave (km/s) = 9.16139 6.04263 7.76030
#
# Compressibility (1/GPa) = 0.03158880
#
# Stress axis : x y z
#
# Youngs Moduli (GPa) = 92.71741 79.78508 80.44121
#
# Poissons Ratio (x) = 0.16490 0.19958
# Poissons Ratio (y) = 0.19162 -0.19844
# Poissons Ratio (z) = 0.23004 -0.19682
#
# Static dielectric constant tensor:
#      x y z
#    x 1.815170 0.000000 -0.002130 
#    y 0.000000 1.772690 0.000000 
#    z -0.002130 0.000000 1.715940 
# 
# From -- ./inp_files/9313.got.cif
#   From: 2010.05.17/outbox.cif.g08.bks.cpg/sg13_5_cif.got.tgz:9313.got - 2010.06.03 16:44:36.
