data_PCOD9238858
_publ_section_title
;
Structure prediction by ZEFSAII (Michael W. Deem and Ramdas Pophale) SiO2 
 PCOD9238858
Probable space group: P 2/C
;
_chemical_formula_sum "Si O2"
_cell_formula_units_Z 24
_cell_length_a 14.336513
_cell_length_b 14.125468
_cell_length_c 16.297995
_cell_angle_alpha 90.000000
_cell_angle_beta 157.829850
_cell_angle_gamma 90.000000
_cell_volume 1245.473672
_symmetry_space_group_name_H-M "P 2/C"
_symmetry_group_IT_number 13
_symmetry_cell_setting 'monoclinic'
loop_
_space_group_symop_operation_xyz
x,y,z
-x,y,1/2-z
-x,-y,-z
x,-y,1/2+z
loop_
_atom_site_type_symbol
_atom_site_label
_atom_site_fract_x
_atom_site_fract_y
_atom_site_fract_z
Si Si1 0.572420 0.858390 0.899066
Si Si2 0.045614 0.356611 0.063662
Si Si3 0.045614 0.143389 0.063662
Si Si4 0.221046 0.969915 0.292958
Si Si5 0.572420 0.641610 0.899066
Si Si6 0.778954 0.530085 0.207042
O O1 0.500000 0.894624 0.750000
O O2 0.317290 0.854949 0.743030
O O3 0.662849 0.750000 0.963745
O O4 0.761214 0.921745 0.104215
O O5 0.985532 0.250000 0.041224
O O6 0.317290 0.354949 0.243030
O O7 0.056175 0.436669 0.142756
O O8 0.866555 0.393828 0.846029
O O9 0.056175 0.063331 0.142756
O O10 0.866555 0.106172 0.846029
O O11 0.500000 0.000000 0.500000
O O12 0.500000 0.605376 0.750000
O O13 0.761214 0.578255 0.104215
O O14 0.500000 0.500000 0.000000
#
# Coordination Sequence:
#
# PCOD9238858 Si02
#       6
#     4   4   4   4   4   4
#     4   9  17  28  44  69  97 119 140 173 219 266
#     4   9  17  29  46  67  89 116 149 181 216 258
#     4   9  17  29  46  67  89 116 149 181 216 258
#     4   9  17  29  44  64  89 118 149 181 216 256
#     4   9  17  28  44  69  97 119 140 173 219 266
#     4   9  17  29  44  64  89 118 149 181 216 256
#
# _framework density 19.269777000000001
#
# number of rings (size 3 to 8) (size 9 to 14) (size 15 to 20)
#    0.000    3.000    0.000    1.000    0.000    2.667 
#    0.000    5.000    0.000    1.000    0.000   21.000 
#    0.000    0.000    0.000    0.000    0.000    0.000 
#
# Total GULP energy -133745.474779 kJ/mol
# GULP energy per Si atom -5572.728116 kJ/mol
# Density = 1.922592 g / cm^3
# Si number density = 19.269777 Si / 1000 Ang^3
#
#
#
# Elastic Constant Matrix: (Units=GPa)
#
#
# Indices 1 2 3 4 5 6 
#
# 1 36.5504 27.8549 34.6310 0.0000 -22.5504 0.0000
# 2 27.8549 142.0038 76.0852 0.0000 -46.4609 0.0000
# 3 34.6310 76.0852 127.0330 0.0000 -46.3098 0.0000
# 4 0.0000 0.0000 0.0000 12.0864 0.0000 -12.8988
# 5 -22.5504 -46.4609 -46.3098 0.0000 49.8197 0.0000
# 6 0.0000 0.0000 0.0000 -12.8988 0.0000 16.2255
#
#
#
# Elastic Compliance Matrix: (Units=1/GPa)
#
#
# Indices 1 2 3 4 5 6 
#
# 1 0.041506 -0.000711 -0.006477 0.000000 0.012103 0.000000
# 2 -0.000711 0.011669 -0.004455 0.000000 0.006419 0.000000
# 3 -0.006477 -0.004455 0.014706 0.000000 0.006584 0.000000
# 4 0.000000 0.000000 0.000000 0.545810 0.000000 0.433903
# 5 0.012103 0.006419 0.006584 0.000000 0.037657 0.000000
# 6 0.000000 0.000000 0.000000 0.433903 0.000000 0.406572
#
#
# Mechanical properties :
#
#
# Convention : Reuss Voigt Hill
#
# Bulk Modulus (GPa) = 22.42446 64.74769 43.58607
# Shear Modulus (GPa) = 4.56176 26.76072 15.66124
#
# Velocity S-wave (km/s) = 1.54028 3.73062 2.85394
# Velocity P-wave (km/s) = 3.85041 7.22705 5.79034
#
# Compressibility (1/GPa) = 0.04459416
#
# Stress axis : x y z
#
# Youngs Moduli (GPa) = 24.09316 85.69941 67.99999
#
# Poissons Ratio (x) = 0.06097 0.44041
# Poissons Ratio (y) = 0.01714 0.30293
# Poissons Ratio (z) = 0.15604 0.38178
#
# Static dielectric constant tensor:
#      x y z
#    x 1.668700 0.000000 0.000610 
#    y 0.000000 1.715330 0.000000 
#    z 0.000610 0.000000 1.687600 
# 
# From -- ./inp_files/44086.got.cif
#   From: 2010.05.17/outbox.cif.g08.bks.cpg/sg13_23_cif.got.tgz:44086.got - 2010.06.03 16:44:36.
