data_PCOD9238892
_publ_section_title
;
Structure prediction by ZEFSAII (Michael W. Deem and Ramdas Pophale) SiO2 
 PCOD9238892
Probable space group: P 2/C
;
_chemical_formula_sum "Si O2"
_cell_formula_units_Z 30
_cell_length_a 9.000000
_cell_length_b 12.000000
_cell_length_c 15.000000
_cell_angle_alpha 90.000000
_cell_angle_beta 70.000000
_cell_angle_gamma 90.000000
_cell_volume 1522.302046
_symmetry_space_group_name_H-M "P 2/C"
_symmetry_group_IT_number 13
_symmetry_cell_setting 'monoclinic'
loop_
_space_group_symop_operation_xyz
x,y,z
-x,y,1/2-z
-x,-y,-z
x,-y,1/2+z
loop_
_atom_site_type_symbol
_atom_site_label
_atom_site_fract_x
_atom_site_fract_y
_atom_site_fract_z
Si Si1 0.342296 0.749735 0.459599
Si Si2 0.216452 0.503922 0.519489
Si Si3 0.672674 0.294596 0.924858
Si Si4 0.944364 0.851590 0.430396
Si Si5 0.000000 0.720309 0.750000
Si Si6 0.756705 0.715388 0.208624
Si Si7 0.905275 0.899275 0.916743
Si Si8 0.137446 0.468133 0.341253
O O1 0.251623 0.634880 0.502698
O O2 0.500518 0.746083 0.482083
O O3 0.361790 0.736707 0.349067
O O4 0.254833 0.862949 0.501182
O O5 0.321243 0.427396 0.561836
O O6 0.221295 0.450196 0.419506
O O7 0.041076 0.499050 0.594921
O O8 0.803121 0.234748 0.955585
O O9 0.708983 0.254514 0.817332
O O10 0.090223 0.785363 0.355437
O O11 0.971041 0.878697 0.528839
O O12 0.914183 0.971079 0.389717
O O13 0.072702 0.806298 0.663586
O O14 0.119698 0.635678 0.777569
O O15 0.790812 0.583056 0.209333
#
# Coordination Sequence:
#
# PCOD9238892 Si02
#       8
#     4   4   4   4   2   4   4   4
#     4  10  22  39  53  82 124 153 177 228 296 342
#     4  10  19  35  54  82 116 152 182 232 287 340
#     4  12  21  33  61  85 114 149 194 227 281 347
#     4  10  22  40  60  84 111 149 193 241 281 325
#     4  12  20  32  60  88 108 142 194 240 280 334
#     4  10  21  36  58  87 114 142 193 241 275 328
#     4  10  23  40  59  82 116 149 190 240 283 329
#     4  10  19  33  57  83 113 144 190 237 284 325
#
# _framework density 19.706996
#
# number of rings (size 3 to 8) (size 9 to 14) (size 15 to 20)
#    0.000    1.600    2.667    2.800    1.867    0.533 
#    0.000    0.000    0.000    2.400    0.000    0.000 
#    0.000    0.000    0.000    0.000    0.000    0.000 
#
# Total GULP energy -167096.348977 kJ/mol
# GULP energy per Si atom -5569.878299 kJ/mol
# Density = 1.966214 g / cm^3
# Si number density = 19.706996 Si / 1000 Ang^3
#
#
#
# Elastic Constant Matrix: (Units=GPa)
#
#
# Indices 1 2 3 4 5 6 
#
# 1 41.4370 4.6850 -6.1693 0.0000 -3.4720 0.0000
# 2 4.6850 94.9449 17.7253 0.0000 9.8524 0.0000
# 3 -6.1693 17.7253 47.1452 0.0000 13.6527 0.0000
# 4 0.0000 0.0000 0.0000 24.4034 0.0000 9.7612
# 5 -3.4720 9.8524 13.6527 0.0000 0.4196 0.0000
# 6 0.0000 0.0000 0.0000 9.7612 0.0000 5.8344
#
#
#
# Elastic Compliance Matrix: (Units=1/GPa)
#
#
# Indices 1 2 3 4 5 6 
#
# 1 0.024275 -0.001220 0.007460 0.000000 -0.013206 0.000000
# 2 -0.001220 0.010634 -0.008439 0.000000 0.014783 0.000000
# 3 0.007460 -0.008439 0.005924 0.000000 0.067116 0.000000
# 4 0.000000 0.000000 0.000000 0.123876 0.000000 -0.207248
# 5 -0.013206 0.014783 0.067116 0.000000 -0.256925 0.000000
# 6 0.000000 0.000000 0.000000 -0.207248 0.000000 0.518129
#
#
# Mechanical properties :
#
#
# Convention : Reuss Voigt Hill
#
# Bulk Modulus (GPa) = 27.44617 24.00101 25.72359
# Shear Modulus (GPa) = 11.30056 17.28390 14.29223
#
# Velocity S-wave (km/s) = 2.39724 2.96471 2.69594
# Velocity P-wave (km/s) = 4.64970 4.89129 4.77202
#
# Compressibility (1/GPa) = 0.03643495
#
# Stress axis : x y z
#
# Youngs Moduli (GPa) = 41.19453 94.03755 168.80995
#
# Poissons Ratio (x) = 0.11473 -1.25928
# Poissons Ratio (y) = 0.05026 1.42453
# Poissons Ratio (z) = -0.30730 0.79355
#
# Static dielectric constant tensor:
#      x y z
#    x 1.750740 0.000000 0.028770 
#    y 0.000000 1.675380 0.000000 
#    z 0.028770 0.000000 1.742820 
# 
# From -- ./inp_files/47215.got.cif
#   From: 2010.05.17/outbox.ucp.g08.bks.cvg/sg13_24_cif.got.tgz:47215.got - 2010.06.11 12:23:55.
