data_PCOD9238002
_publ_section_title
;
Structure prediction by ZEFSAII (Michael W. Deem and Ramdas Pophale) SiO2 
 PCOD9238002
Probable space group: P 2/C
;
_chemical_formula_sum "Si O2"
_cell_formula_units_Z 28
_cell_length_a 11.693701
_cell_length_b 8.912624
_cell_length_c 14.954677
_cell_angle_alpha 90.000000
_cell_angle_beta 59.078662
_cell_angle_gamma 90.000000
_cell_volume 1337.081585
_symmetry_space_group_name_H-M "P 2/C"
_symmetry_group_IT_number 13
_symmetry_cell_setting 'monoclinic'
loop_
_space_group_symop_operation_xyz
x,y,z
-x,y,1/2-z
-x,-y,-z
x,-y,1/2+z
loop_
_atom_site_type_symbol
_atom_site_label
_atom_site_fract_x
_atom_site_fract_y
_atom_site_fract_z
Si Si1 0.145082 0.750814 0.347501
Si Si2 0.848639 0.264998 0.959626
Si Si3 0.585658 0.157665 0.129635
Si Si4 0.847398 0.496416 0.308237
Si Si5 0.849658 0.991755 0.306786
Si Si6 0.390938 0.797250 0.368565
Si Si7 0.632119 0.751334 0.921452
O O1 0.158706 0.616179 0.270377
O O2 0.250035 0.750571 0.384083
O O3 0.994468 0.742181 0.443283
O O4 0.165954 0.902090 0.280220
O O5 0.831909 0.414007 0.907779
O O6 0.845677 0.132197 0.886788
O O7 0.728855 0.234949 0.074025
O O8 0.500000 0.196236 0.250000
O O9 0.501651 0.215493 0.079112
O O10 0.602038 0.977611 0.121046
O O11 0.726173 0.382020 0.349221
O O12 0.000000 0.434740 0.250000
O O13 0.730173 0.105433 0.371261
O O14 0.000000 0.057325 0.250000
O O15 0.500000 0.756601 0.250000
O O16 0.407304 0.727762 0.459561
#
# Coordination Sequence:
#
# PCOD9238002 Si02
#       7
#     4   4   4   4   4   4   4
#     4   9  20  42  67  90 123 172 215 266 318 386
#     4   9  19  40  65  88 124 170 217 259 321 375
#     4  11  24  41  62  94 130 168 214 269 319 375
#     4   9  21  43  67  93 128 171 214 265 325 381
#     4   9  17  34  64  91 116 162 220 267 314 376
#     4  11  24  40  63  96 129 169 212 263 325 382
#     4  12  23  40  63  94 130 171 205 272 323 376
#
# _framework density 20.941130000000001
#
# number of rings (size 3 to 8) (size 9 to 14) (size 15 to 20)
#    0.000    2.000    1.429    4.286    4.000    1.143 
#    7.714    1.429    0.000    0.000    0.000    0.000 
#    0.000    0.000    0.000    0.000    0.000    0.000 
#
# Total GULP energy -156505.186915 kJ/mol
# GULP energy per Si atom -5589.470961 kJ/mol
# Density = 2.089347 g / cm^3
# Si number density = 20.941130 Si / 1000 Ang^3
#
#
#
# Elastic Constant Matrix: (Units=GPa)
#
#
# Indices 1 2 3 4 5 6 
#
# 1 129.7663 19.2245 44.8418 0.0000 1.5187 0.0000
# 2 19.2245 42.1169 4.6720 0.0000 -12.1905 0.0000
# 3 44.8418 4.6720 111.3266 0.0000 -17.2787 0.0000
# 4 0.0000 0.0000 0.0000 14.6013 0.0000 -19.0610
# 5 1.5187 -12.1905 -17.2787 0.0000 42.9015 0.0000
# 6 0.0000 0.0000 0.0000 -19.0610 0.0000 39.6045
#
#
#
# Elastic Compliance Matrix: (Units=1/GPa)
#
#
# Indices 1 2 3 4 5 6 
#
# 1 0.010018 -0.005122 -0.004375 0.000000 -0.003572 0.000000
# 2 -0.005122 0.028490 0.002295 0.000000 0.009201 0.000000
# 3 -0.004375 0.002295 0.011492 0.000000 0.005436 0.000000
# 4 0.000000 0.000000 0.000000 0.184245 0.000000 0.088674
# 5 -0.003572 0.009201 0.005436 0.000000 0.028239 0.000000
# 6 0.000000 0.000000 0.000000 0.088674 0.000000 0.067927
#
#
# Mechanical properties :
#
#
# Convention : Reuss Voigt Hill
#
# Bulk Modulus (GPa) = 28.09123 46.74293 37.41708
# Shear Modulus (GPa) = 14.01818 33.71958 23.86888
#
# Velocity S-wave (km/s) = 2.59010 4.01709 3.37977
# Velocity P-wave (km/s) = 4.73163 6.62462 5.75647
#
# Compressibility (1/GPa) = 0.03559830
#
# Stress axis : x y z
#
# Youngs Moduli (GPa) = 99.81566 35.10032 87.01668
#
# Poissons Ratio (x) = 0.17977 0.38068
# Poissons Ratio (y) = 0.51121 -0.19974
# Poissons Ratio (z) = 0.43668 -0.08057
#
# Static dielectric constant tensor:
#      x y z
#    x 2.124720 0.000000 -0.015460 
#    y 0.000000 1.752450 0.000000 
#    z -0.015460 0.000000 1.744880 
# 
# From -- ./inp_files/50230.got.cif
#   From: 2010.05.17/outbox.cif.g08.bks.cpg/sg13_26_cif.got.tgz:50230.got - 2010.06.03 16:44:36.
