data_PCOD9238484
_publ_section_title
;
Structure prediction by ZEFSAII (Michael W. Deem and Ramdas Pophale) SiO2 
 PCOD9238484
Probable space group: P 2/C
;
_chemical_formula_sum "Si O2"
_cell_formula_units_Z 22
_cell_length_a 14.832779
_cell_length_b 12.806297
_cell_length_c 10.403466
_cell_angle_alpha 90.000000
_cell_angle_beta 147.992423
_cell_angle_gamma 90.000000
_cell_volume 1047.431797
_symmetry_space_group_name_H-M "P 2/C"
_symmetry_group_IT_number 13
_symmetry_cell_setting 'monoclinic'
loop_
_space_group_symop_operation_xyz
x,y,z
-x,y,1/2-z
-x,-y,-z
x,-y,1/2+z
loop_
_atom_site_type_symbol
_atom_site_label
_atom_site_fract_x
_atom_site_fract_y
_atom_site_fract_z
Si Si1 0.500000 0.552661 0.250000
Si Si2 0.467955 0.909209 0.063488
Si Si3 0.000000 0.266695 0.750000
Si Si4 0.067446 0.881539 0.575926
Si Si5 0.668677 0.303651 0.769689
Si Si6 0.000000 0.235749 0.250000
Si Si7 0.163429 0.431230 0.758777
O O1 0.473795 0.623329 0.343507
O O2 0.676576 0.494309 0.490519
O O3 0.500000 0.941476 0.250000
O O4 0.585514 0.811050 0.164862
O O5 0.270574 0.880486 0.828622
O O6 0.500000 0.000000 0.000000
O O7 0.115365 0.351357 0.814498
O O8 0.965048 0.186120 0.590787
O O9 0.983698 0.830084 0.600713
O O10 0.000000 0.000000 0.500000
O O11 0.753506 0.358130 0.750516
O O12 0.827795 0.298972 0.059740
O O13 0.000000 0.500000 0.500000
#
# Coordination Sequence:
#
# PCOD9238484 Si02
#       7
#     2   4   2   4   4   2   4
#     4  12  26  46  76 108 150 198 258 308 386 448
#     4  12  28  47  75 111 150 196 252 310 382 457
#     4  12  29  49  78 112 156 200 255 321 386 462
#     4  12  27  47  77 109 149 200 254 308 389 462
#     4  12  24  47  76 105 149 197 241 319 373 450
#     4  12  21  47  74 104 148 192 247 299 388 448
#     4  12  28  48  76 114 152 199 261 318 382 459
#
# _framework density 21.003751999999999
#
# number of rings (size 3 to 8) (size 9 to 14) (size 15 to 20)
#    0.000    0.000    4.545    4.364    7.636    0.000 
#    0.000    0.000    0.000    0.000    0.000    0.000 
#    0.000    0.000    0.000    0.000    0.000    0.000 
#
# Total GULP energy -122652.408969 kJ/mol
# GULP energy per Si atom -5575.109499 kJ/mol
# Density = 2.095595 g / cm^3
# Si number density = 21.003752 Si / 1000 Ang^3
#
#
#
# Elastic Constant Matrix: (Units=GPa)
#
#
# Indices 1 2 3 4 5 6 
#
# 1 185.8922 87.0685 44.7354 0.0000 -4.6653 0.0000
# 2 87.0685 145.3936 72.9400 0.0000 -5.1703 0.0000
# 3 44.7354 72.9400 120.1448 0.0000 9.4260 0.0000
# 4 0.0000 0.0000 0.0000 78.2354 0.0000 -21.6530
# 5 -4.6653 -5.1703 9.4260 0.0000 37.6771 0.0000
# 6 0.0000 0.0000 0.0000 -21.6530 0.0000 74.1033
#
#
#
# Elastic Compliance Matrix: (Units=1/GPa)
#
#
# Indices 1 2 3 4 5 6 
#
# 1 0.007482 -0.004394 -0.000146 0.000000 0.000360 0.000000
# 2 -0.004394 0.012795 -0.006352 0.000000 0.002801 0.000000
# 3 -0.000146 -0.006352 0.012550 0.000000 -0.004029 0.000000
# 4 0.000000 0.000000 0.000000 0.013907 0.000000 0.004064
# 5 0.000360 0.002801 -0.004029 0.000000 0.027978 0.000000
# 6 0.000000 0.000000 0.000000 0.004064 0.000000 0.014682
#
#
# Mechanical properties :
#
#
# Convention : Reuss Voigt Hill
#
# Bulk Modulus (GPa) = 90.55683 95.65759 93.10721
# Shear Modulus (GPa) = 43.53129 54.44893 48.99011
#
# Velocity S-wave (km/s) = 4.55746 5.09703 4.83478
# Velocity P-wave (km/s) = 8.42034 8.96000 8.69436
#
# Compressibility (1/GPa) = 0.01104279
#
# Stress axis : x y z
#
# Youngs Moduli (GPa) = 133.65532 78.15261 79.68125
#
# Poissons Ratio (x) = 0.34343 0.01166
# Poissons Ratio (y) = 0.58733 0.50611
# Poissons Ratio (z) = 0.01955 0.49640
#
# Static dielectric constant tensor:
#      x y z
#    x 1.820350 0.000000 0.044250 
#    y 0.000000 1.149220 0.000000 
#    z 0.044250 0.000000 1.740050 
# 
# From -- ./inp_files/37268.got.cif
#   From: 2010.05.17/outbox.cif.g08.bks.cpg/sg13_19_cif.got.tgz:37268.got - 2010.06.03 16:44:36.
