data_PCOD9238999
_publ_section_title
;
Structure prediction by ZEFSAII (Michael W. Deem and Ramdas Pophale) SiO2 
 PCOD9238999
Probable space group: P 2/C
;
_chemical_formula_sum "Si O2"
_cell_formula_units_Z 26
_cell_length_a 24.000000
_cell_length_b 6.000000
_cell_length_c 18.000000
_cell_angle_alpha 90.000000
_cell_angle_beta 30.000000
_cell_angle_gamma 90.000000
_cell_volume 1296.000000
_symmetry_space_group_name_H-M "P 2/C"
_symmetry_group_IT_number 13
_symmetry_cell_setting 'monoclinic'
loop_
_space_group_symop_operation_xyz
x,y,z
-x,y,1/2-z
-x,-y,-z
x,-y,1/2+z
loop_
_atom_site_type_symbol
_atom_site_label
_atom_site_fract_x
_atom_site_fract_y
_atom_site_fract_z
Si Si1 0.973105 0.187232 0.091239
Si Si2 0.618618 0.378171 0.365948
Si Si3 0.500000 0.523942 0.250000
Si Si4 0.827147 0.414859 0.699885
Si Si5 0.794316 0.077907 0.873656
Si Si6 0.568860 0.894993 0.058360
Si Si7 0.648688 0.207860 0.169229
O O1 0.887725 0.357204 0.151543
O O2 0.902255 0.081923 0.240187
O O3 0.093518 0.306163 0.955353
O O4 0.000000 0.000000 0.000000
O O5 0.500000 0.500000 0.500000
O O6 0.706170 0.534698 0.307382
O O7 0.599494 0.158759 0.438344
O O8 0.663874 0.316850 0.232286
O O9 0.540238 0.668820 0.134488
O O10 0.601293 0.381045 0.163813
O O11 0.821225 0.277755 0.784248
O O12 0.758699 0.118377 0.000384
O O13 0.679201 0.983885 0.971300
O O14 0.457253 0.041488 0.197145
#
# Coordination Sequence:
#
# PCOD9238999 Si02
#       7
#     4   4   2   4   4   4   4
#     4   9  20  39  68  93 113 158 217 266 302 360
#     4  12  24  39  61  95 133 170 199 260 324 384
#     4  12  20  38  58  84 128 168 212 244 304 376
#     4  10  21  40  66  93 122 157 218 258 307 377
#     4  11  20  37  65  93 118 166 214 262 306 375
#     4  12  22  39  59  91 130 166 207 254 308 381
#     4  12  24  36  57  92 132 166 204 251 321 381
#
# _framework density 20.061727999999999
#
# number of rings (size 3 to 8) (size 9 to 14) (size 15 to 20)
#    0.000    0.923    6.154    2.308    0.000    0.000 
#    0.000    0.000    0.000   10.154    0.000    0.000 
#    0.000    0.000    0.000    0.000    0.000    0.000 
#
# Total GULP energy -145000.734632 kJ/mol
# GULP energy per Si atom -5576.951332 kJ/mol
# Density = 2.001607 g / cm^3
# Si number density = 20.061728 Si / 1000 Ang^3
#
#
#
# Elastic Constant Matrix: (Units=GPa)
#
#
# Indices 1 2 3 4 5 6 
#
# 1 42.2718 2.8716 20.7047 0.0000 6.7039 0.0000
# 2 2.8716 50.2511 29.7652 0.0000 -6.3988 0.0000
# 3 20.7047 29.7652 148.6349 0.0000 7.2192 0.0000
# 4 0.0000 0.0000 0.0000 18.5876 0.0000 21.8773
# 5 6.7039 -6.3988 7.2192 0.0000 37.3811 0.0000
# 6 0.0000 0.0000 0.0000 21.8773 0.0000 5.2369
#
#
#
# Elastic Compliance Matrix: (Units=1/GPa)
#
#
# Indices 1 2 3 4 5 6 
#
# 1 0.025967 0.000041 -0.003432 0.000000 -0.003987 0.000000
# 2 0.000041 0.023458 -0.004944 0.000000 0.004963 0.000000
# 3 -0.003432 -0.004944 0.008285 0.000000 -0.001831 0.000000
# 4 0.000000 0.000000 0.000000 -0.013735 0.000000 0.057379
# 5 -0.003987 0.004963 -0.001831 0.000000 0.028670 0.000000
# 6 0.000000 0.000000 0.000000 0.057379 0.000000 -0.048751
#
#
# Mechanical properties :
#
#
# Convention : Reuss Voigt Hill
#
# Bulk Modulus (GPa) = 24.36642 38.64897 31.50770
# Shear Modulus (GPa) = 92.17613 24.76219 58.46916
#
# Velocity S-wave (km/s) = 6.78572 3.51707 5.40443
# Velocity P-wave (km/s) = 8.57711 5.98330 7.39482
#
# Compressibility (1/GPa) = 0.04104008
#
# Stress axis : x y z
#
# Youngs Moduli (GPa) = 38.51069 42.62859 120.69955
#
# Poissons Ratio (x) = -0.00175 0.41421
# Poissons Ratio (y) = -0.00158 0.59680
# Poissons Ratio (z) = 0.13216 0.21078
#
# Static dielectric constant tensor:
#      x y z
#    x 1.682850 0.000000 0.024000 
#    y 0.000000 1.855650 0.000000 
#    z 0.024000 0.000000 1.764170 
# 
# From -- ./inp_files/70316.got.cif
#   From: 2010.05.17/outbox.ucp.g08.bks.cvg/sg13_36_cif.got.tgz:70316.got - 2010.06.11 12:23:55.
