data_PCOD9238383
_publ_section_title
;
Structure prediction by ZEFSAII (Michael W. Deem and Ramdas Pophale) SiO2 
 PCOD9238383
Probable space group: P 2/C
;
_chemical_formula_sum "Si O2"
_cell_formula_units_Z 12
_cell_length_a 8.441094
_cell_length_b 12.937544
_cell_length_c 5.125208
_cell_angle_alpha 90.000000
_cell_angle_beta 120.144693
_cell_angle_gamma 90.000000
_cell_volume 484.013688
_symmetry_space_group_name_H-M "P 2/C"
_symmetry_group_IT_number 13
_symmetry_cell_setting 'monoclinic'
loop_
_space_group_symop_operation_xyz
x,y,z
-x,y,1/2-z
-x,-y,-z
x,-y,1/2+z
loop_
_atom_site_type_symbol
_atom_site_label
_atom_site_fract_x
_atom_site_fract_y
_atom_site_fract_z
Si Si1 0.697092 0.214232 0.274111
Si Si2 0.000000 0.927205 0.250000
Si Si3 0.277178 0.555216 0.600111
Si Si4 0.500000 0.076878 0.750000
O O1 0.500000 0.218229 0.250000
O O2 0.765187 0.331594 0.323262
O O3 0.827988 0.145786 0.559068
O O4 0.662312 0.155712 0.970837
O O5 0.000000 0.000000 0.500000
O O6 0.500000 0.549292 0.750000
O O7 0.211785 0.528974 0.256099
O O8 0.500000 0.000000 0.500000
#
# Coordination Sequence:
#
# PCOD9238383 Si02
#       4
#     4   2   4   2
#     4  11  26  45  73  98 138 182 224 275 344 400
#     4  12  30  46  66 102 136 176 232 284 328 402
#     4   9  20  36  64  99 130 168 220 273 328 398
#     4  12  24  38  64  96 124 174 228 264 322 394
#
# _framework density 24.792684999999999
#
# number of rings (size 3 to 8) (size 9 to 14) (size 15 to 20)
#    0.000    1.333    1.667    2.000   16.333    0.000 
#    0.000    1.667    0.000    0.000    0.000    0.000 
#    0.000    0.000    0.000    0.000    0.000    0.000 
#
# Total GULP energy -67128.781046 kJ/mol
# GULP energy per Si atom -5594.065087 kJ/mol
# Density = 2.473626 g / cm^3
# Si number density = 24.792685 Si / 1000 Ang^3
#
#
#
# Elastic Constant Matrix: (Units=GPa)
#
#
# Indices 1 2 3 4 5 6 
#
# 1 40.6848 35.1182 52.6872 0.0000 -6.0197 0.0000
# 2 35.1182 186.6986 79.9279 0.0000 -22.0383 0.0000
# 3 52.6872 79.9279 195.4762 0.0000 -25.9680 0.0000
# 4 0.0000 0.0000 0.0000 12.3422 0.0000 2.4070
# 5 -6.0197 -22.0383 -25.9680 0.0000 53.8350 0.0000
# 6 0.0000 0.0000 0.0000 2.4070 0.0000 26.0703
#
#
#
# Elastic Compliance Matrix: (Units=1/GPa)
#
#
# Indices 1 2 3 4 5 6 
#
# 1 0.039670 -0.003614 -0.009426 0.000000 -0.001590 0.000000
# 2 -0.003614 0.006933 -0.001643 0.000000 0.001642 0.000000
# 3 -0.009426 -0.001643 0.008653 0.000000 0.002448 0.000000
# 4 0.000000 0.000000 0.000000 0.082508 0.000000 -0.007618
# 5 -0.001590 0.001642 0.002448 0.000000 0.020250 0.000000
# 6 0.000000 0.000000 0.000000 -0.007618 0.000000 0.039061
#
#
# Mechanical properties :
#
#
# Convention : Reuss Voigt Hill
#
# Bulk Modulus (GPa) = 38.62374 84.25848 61.44111
# Shear Modulus (GPa) = 21.27008 35.45792 28.36400
#
# Velocity S-wave (km/s) = 2.93220 3.78587 3.38605
# Velocity P-wave (km/s) = 5.20348 7.29174 6.33426
#
# Compressibility (1/GPa) = 0.02589081
#
# Stress axis : x y z
#
# Youngs Moduli (GPa) = 25.20771 144.23557 115.56627
#
# Poissons Ratio (x) = 0.52134 1.08931
# Poissons Ratio (y) = 0.09111 0.18982
# Poissons Ratio (z) = 0.23760 0.23691
#
# Static dielectric constant tensor:
#      x y z
#    x 2.071060 0.000000 0.020400 
#    y 0.000000 1.957000 0.000000 
#    z 0.020400 0.000000 1.916940 
# 
# From -- ./inp_files/2911.got.cif
#   From: 2010.05.17/outbox.cif.g08.bks.cpg/sg13_2_cif.got.tgz:2911.got - 2010.06.03 16:44:36.
