data_PCOD9238765
_publ_section_title
;
Structure prediction by ZEFSAII (Michael W. Deem and Ramdas Pophale) SiO2 
 PCOD9238765
Probable space group: P 2/C
;
_chemical_formula_sum "Si O2"
_cell_formula_units_Z 20
_cell_length_a 20.040872
_cell_length_b 7.019940
_cell_length_c 11.794400
_cell_angle_alpha 90.000000
_cell_angle_beta 35.187085
_cell_angle_gamma 90.000000
_cell_volume 956.170588
_symmetry_space_group_name_H-M "P 2/C"
_symmetry_group_IT_number 13
_symmetry_cell_setting 'monoclinic'
loop_
_space_group_symop_operation_xyz
x,y,z
-x,y,1/2-z
-x,-y,-z
x,-y,1/2+z
loop_
_atom_site_type_symbol
_atom_site_label
_atom_site_fract_x
_atom_site_fract_y
_atom_site_fract_z
Si Si1 0.427140 0.171508 0.653713
Si Si2 0.304102 0.320090 0.605914
Si Si3 0.000000 0.856954 0.250000
Si Si4 0.892231 0.382045 0.100583
Si Si5 0.794831 0.956961 0.891624
Si Si6 0.500000 0.435515 0.750000
O O1 0.382242 0.280077 0.606067
O O2 0.500318 0.300265 0.639243
O O3 0.500000 0.000000 0.500000
O O4 0.315234 0.099347 0.879106
O O5 0.205109 0.461790 0.783646
O O6 0.247879 0.130683 0.629718
O O7 0.387042 0.430836 0.402837
O O8 0.096816 0.976639 0.182505
O O9 0.933370 0.725884 0.431931
O O10 0.839778 0.222469 0.257102
O O11 0.000000 0.500000 0.000000
#
# Coordination Sequence:
#
# PCOD9238765 Si02
#       6
#     4   4   2   4   4   2
#     4  12  27  47  79 108 151 195 251 309 380 443
#     4  12  27  48  76 106 150 193 249 306 378 444
#     4  12  28  44  80 102 152 194 246 300 382 436
#     4  12  28  49  73 112 148 194 250 309 370 452
#     4  12  27  51  73 113 148 196 245 314 373 448
#     4  12  26  50  74 110 148 196 256 310 374 450
#
# _framework density 20.91677
#
# number of rings (size 3 to 8) (size 9 to 14) (size 15 to 20)
#    0.000    0.000    4.000    4.800   11.200    0.000 
#    0.000    0.000    0.000    0.000    0.000    0.000 
#    0.000    0.000    0.000    0.000    0.000    0.000 
#
# Total GULP energy -112005.035389 kJ/mol
# GULP energy per Si atom -5600.251769 kJ/mol
# Density = 2.086916 g / cm^3
# Si number density = 20.916770 Si / 1000 Ang^3
#
#
#
# Elastic Constant Matrix: (Units=GPa)
#
#
# Indices 1 2 3 4 5 6 
#
# 1 93.6107 42.2260 -4.8657 0.0000 1.2033 0.0000
# 2 42.2260 126.6563 46.8545 0.0000 1.7941 0.0000
# 3 -4.8657 46.8545 126.5720 0.0000 1.5611 0.0000
# 4 0.0000 0.0000 0.0000 38.9754 0.0000 -18.0530
# 5 1.2033 1.7941 1.5611 0.0000 38.6322 0.0000
# 6 0.0000 0.0000 0.0000 -18.0530 0.0000 -81.9578
#
#
#
# Elastic Compliance Matrix: (Units=1/GPa)
#
#
# Indices 1 2 3 4 5 6 
#
# 1 0.013214 -0.005319 0.002480 0.000000 -0.000265 0.000000
# 2 -0.005319 0.011293 -0.004383 0.000000 -0.000182 0.000000
# 3 0.002480 -0.004383 0.009622 0.000000 -0.000263 0.000000
# 4 0.000000 0.000000 0.000000 0.023282 0.000000 -0.005128
# 5 -0.000265 -0.000182 -0.000263 0.000000 0.025912 0.000000
# 6 0.000000 0.000000 0.000000 -0.005128 0.000000 -0.011072
#
#
# Mechanical properties :
#
#
# Convention : Reuss Voigt Hill
#
# Bulk Modulus (GPa) = 50.79896 57.25207 54.02551
# Shear Modulus (GPa) = 53.61594 16.63825 35.12710
#
# Velocity S-wave (km/s) = 5.06840 2.82343 4.10246
# Velocity P-wave (km/s) = 7.65444 6.16926 6.95163
#
# Compressibility (1/GPa) = 0.01968544
#
# Stress axis : x y z
#
# Youngs Moduli (GPa) = 75.67550 88.55330 103.93316
#
# Poissons Ratio (x) = 0.47105 -0.25779
# Poissons Ratio (y) = 0.40254 0.45549
# Poissons Ratio (z) = -0.18770 0.38809
#
# Static dielectric constant tensor:
#      x y z
#    x 1.658910 0.000000 0.027360 
#    y 0.000000 1.734680 0.000000 
#    z 0.027360 0.000000 1.716320 
# 
# From -- ./inp_files/39763.got.cif
#   From: 2010.05.17/outbox.cif.g08.bks.cpg/sg13_20_cif.got.tgz:39763.got - 2010.06.03 16:44:36.
