data_PCOD9238392
_publ_section_title
;
Structure prediction by ZEFSAII (Michael W. Deem and Ramdas Pophale) SiO2 
 PCOD9238392
Probable space group: P 2/C
;
_chemical_formula_sum "Si O2"
_cell_formula_units_Z 16
_cell_length_a 10.680888
_cell_length_b 5.278470
_cell_length_c 17.756766
_cell_angle_alpha 90.000000
_cell_angle_beta 43.513807
_cell_angle_gamma 90.000000
_cell_volume 689.289640
_symmetry_space_group_name_H-M "P 2/C"
_symmetry_group_IT_number 13
_symmetry_cell_setting 'monoclinic'
loop_
_space_group_symop_operation_xyz
x,y,z
-x,y,1/2-z
-x,-y,-z
x,-y,1/2+z
loop_
_atom_site_type_symbol
_atom_site_label
_atom_site_fract_x
_atom_site_fract_y
_atom_site_fract_z
Si Si1 0.812574 0.388371 0.861639
Si Si2 0.306366 0.035689 0.806744
Si Si3 0.652599 0.887068 0.878293
Si Si4 0.075576 0.293324 0.524070
O O1 0.819812 0.389738 0.948526
O O2 0.000000 0.500975 0.750000
O O3 0.799540 0.102417 0.836766
O O4 0.674674 0.595171 0.890350
O O5 0.500000 0.157644 0.750000
O O6 0.365159 0.896330 0.704169
O O7 0.217475 0.877292 0.914729
O O8 0.119231 0.178552 0.864759
O O9 0.500000 0.000000 0.000000
O O10 0.000000 0.500000 0.500000
#
# Coordination Sequence:
#
# PCOD9238392 Si02
#       4
#     4   4   4   4
#     4  12  25  47  76 105 146 191 250 302 369 444
#     4  11  26  47  72 110 149 193 249 307 375 448
#     4  12  27  47  74 110 146 195 245 308 368 439
#     4  11  26  46  75 104 145 200 244 308 376 440
#
# _framework density 23.212302000000001
#
# number of rings (size 3 to 8) (size 9 to 14) (size 15 to 20)
#    0.000    0.500    2.500    4.500   10.500    1.000 
#    0.000    0.000    0.000    0.000    0.000    0.000 
#    0.000    0.000    0.000    0.000    0.000    0.000 
#
# Total GULP energy -89092.502305 kJ/mol
# GULP energy per Si atom -5568.281394 kJ/mol
# Density = 2.315947 g / cm^3
# Si number density = 23.212302 Si / 1000 Ang^3
#
#
#
# Elastic Constant Matrix: (Units=GPa)
#
#
# Indices 1 2 3 4 5 6 
#
# 1 92.6341 10.5829 31.4598 0.0000 16.7267 0.0000
# 2 10.5829 46.6666 -3.3295 0.0000 -4.0492 0.0000
# 3 31.4598 -3.3295 146.2428 0.0000 -9.0538 0.0000
# 4 0.0000 0.0000 0.0000 12.9272 0.0000 3.9815
# 5 16.7267 -4.0492 -9.0538 0.0000 60.1407 0.0000
# 6 0.0000 0.0000 0.0000 3.9815 0.0000 34.8809
#
#
#
# Elastic Compliance Matrix: (Units=1/GPa)
#
#
# Indices 1 2 3 4 5 6 
#
# 1 0.013061 -0.003565 -0.003160 0.000000 -0.004348 0.000000
# 2 -0.003565 0.022577 0.001450 0.000000 0.002730 0.000000
# 3 -0.003160 0.001450 0.007683 0.000000 0.002133 0.000000
# 4 0.000000 0.000000 0.000000 0.080175 0.000000 -0.009152
# 5 -0.004348 0.002730 0.002133 0.000000 0.018342 0.000000
# 6 0.000000 0.000000 0.000000 -0.009152 0.000000 0.029714
#
#
# Mechanical properties :
#
#
# Convention : Reuss Voigt Hill
#
# Bulk Modulus (GPa) = 30.51454 40.32999 35.42226
# Shear Modulus (GPa) = 25.90343 38.04510 31.97426
#
# Velocity S-wave (km/s) = 3.34419 4.05286 3.71546
# Velocity P-wave (km/s) = 5.29961 6.27001 5.80512
#
# Compressibility (1/GPa) = 0.03277127
#
# Stress axis : x y z
#
# Youngs Moduli (GPa) = 76.56543 44.29234 130.16111
#
# Poissons Ratio (x) = 0.15788 0.41131
# Poissons Ratio (y) = 0.27293 -0.18871
# Poissons Ratio (z) = 0.24195 -0.06422
#
# Static dielectric constant tensor:
#      x y z
#    x 1.923030 0.000000 -0.101760 
#    y 0.000000 2.004760 0.000000 
#    z -0.101760 0.000000 1.927180 
# 
# From -- ./inp_files/64967.got.cif
#   From: 2010.05.17/outbox.cif.g08.bks.cpg/sg13_33_cif.got.tgz:64967.got - 2010.06.03 16:44:36.
