data_PCOD9238713
_publ_section_title
;
Structure prediction by ZEFSAII (Michael W. Deem and Ramdas Pophale) SiO2 
 PCOD9238713
Probable space group: P 2/C
;
_chemical_formula_sum "Si O2"
_cell_formula_units_Z 16
_cell_length_a 11.163282
_cell_length_b 10.415162
_cell_length_c 14.898787
_cell_angle_alpha 90.000000
_cell_angle_beta 153.211244
_cell_angle_gamma 90.000000
_cell_volume 780.726058
_symmetry_space_group_name_H-M "P 2/C"
_symmetry_group_IT_number 13
_symmetry_cell_setting 'monoclinic'
loop_
_space_group_symop_operation_xyz
x,y,z
-x,y,1/2-z
-x,-y,-z
x,-y,1/2+z
loop_
_atom_site_type_symbol
_atom_site_label
_atom_site_fract_x
_atom_site_fract_y
_atom_site_fract_z
Si Si1 0.179943 0.509112 0.527884
Si Si2 0.959530 0.774195 0.619122
Si Si3 0.000000 0.700449 0.250000
Si Si4 0.498465 0.117594 0.069114
Si Si5 0.500000 0.958619 0.250000
O O1 0.146671 0.369317 0.460734
O O2 0.000000 0.500000 0.500000
O O3 0.067107 0.613344 0.381862
O O4 0.500000 0.532648 0.750000
O O5 0.755191 0.868403 0.433587
O O6 0.000000 0.810947 0.750000
O O7 0.247896 0.791253 0.770221
O O8 0.242602 0.793902 0.388486
O O9 0.513456 0.049107 0.173972
O O10 0.500000 0.000000 0.000000
#
# Coordination Sequence:
#
# PCOD9238713 Si02
#       5
#     4   4   2   4   2
#     4  12  29  49  78 110 150 202 252 316 379 448
#     4  12  25  47  75 107 146 196 250 304 375 441
#     4  12  30  50  74 114 152 190 260 314 374 452
#     4  12  27  47  75 108 154 198 247 307 372 453
#     4  12  26  48  74 108 150 198 246 304 376 446
#
# _framework density 20.493744
#
# number of rings (size 3 to 8) (size 9 to 14) (size 15 to 20)
#    0.000    0.000    5.000    3.750   12.250    2.000 
#    0.000    0.000    0.000    0.000    0.000    0.000 
#    0.000    0.000    0.000    0.000    0.000    0.000 
#
# Total GULP energy -89517.898702 kJ/mol
# GULP energy per Si atom -5594.868669 kJ/mol
# Density = 2.044710 g / cm^3
# Si number density = 20.493744 Si / 1000 Ang^3
#
#
#
# Elastic Constant Matrix: (Units=GPa)
#
#
# Indices 1 2 3 4 5 6 
#
# 1 125.7194 58.7729 84.1009 0.0000 -0.6346 0.0000
# 2 58.7729 138.5335 89.0925 0.0000 -4.7152 0.0000
# 3 84.1009 89.0925 194.8316 0.0000 17.9291 0.0000
# 4 0.0000 0.0000 0.0000 63.7360 0.0000 -1.7451
# 5 -0.6346 -4.7152 17.9291 0.0000 46.5618 0.0000
# 6 0.0000 0.0000 0.0000 -1.7451 0.0000 40.9735
#
#
#
# Elastic Compliance Matrix: (Units=1/GPa)
#
#
# Indices 1 2 3 4 5 6 
#
# 1 0.011842 -0.002254 -0.004224 0.000000 0.001560 0.000000
# 2 -0.002254 0.011058 -0.004338 0.000000 0.002759 0.000000
# 3 -0.004224 -0.004338 0.009316 0.000000 -0.004084 0.000000
# 4 0.000000 0.000000 0.000000 0.015708 0.000000 0.000669
# 5 0.001560 0.002759 -0.004084 0.000000 0.023350 0.000000
# 6 0.000000 0.000000 0.000000 0.000669 0.000000 0.024435
#
#
# Mechanical properties :
#
#
# Convention : Reuss Voigt Hill
#
# Bulk Modulus (GPa) = 94.48855 102.55744 98.52300
# Shear Modulus (GPa) = 41.36734 45.39545 43.38140
#
# Velocity S-wave (km/s) = 4.49769 4.71158 4.60587
# Velocity P-wave (km/s) = 8.55444 8.93032 8.74440
#
# Compressibility (1/GPa) = 0.01058329
#
# Stress axis : x y z
#
# Youngs Moduli (GPa) = 84.44661 90.43005 107.34782
#
# Poissons Ratio (x) = 0.20383 0.45349
# Poissons Ratio (y) = 0.19034 0.46564
# Poissons Ratio (z) = 0.35674 0.39226
#
# Static dielectric constant tensor:
#      x y z
#    x 1.747560 0.000000 0.022640 
#    y 0.000000 1.701890 0.000000 
#    z 0.022640 0.000000 1.703440 
# 
# From -- ./inp_files/25676.got.cif
#   From: 2010.05.17/outbox.cif.g08.bks.cpg/sg13_13_cif.got.tgz:25676.got - 2010.06.03 16:44:36.
