data_PCOD9238311
_publ_section_title
;
Structure prediction by ZEFSAII (Michael W. Deem and Ramdas Pophale) SiO2 
 PCOD9238311
Probable space group: P 2/C
;
_chemical_formula_sum "Si O2"
_cell_formula_units_Z 14
_cell_length_a 13.571167
_cell_length_b 8.125786
_cell_length_c 9.165117
_cell_angle_alpha 90.000000
_cell_angle_beta 146.071428
_cell_angle_gamma 90.000000
_cell_volume 564.129069
_symmetry_space_group_name_H-M "P 2/C"
_symmetry_group_IT_number 13
_symmetry_cell_setting 'monoclinic'
loop_
_space_group_symop_operation_xyz
x,y,z
-x,y,1/2-z
-x,-y,-z
x,-y,1/2+z
loop_
_atom_site_type_symbol
_atom_site_label
_atom_site_fract_x
_atom_site_fract_y
_atom_site_fract_z
Si Si1 0.169529 0.945367 0.877394
Si Si2 0.119976 0.394436 0.254561
Si Si3 0.500000 0.568690 0.750000
Si Si4 0.617567 0.850612 0.088509
O O1 0.128710 0.797149 0.715401
O O2 0.000000 0.017134 0.750000
O O3 0.279291 0.081615 0.927036
O O4 0.261759 0.839731 0.120417
O O5 0.317341 0.467063 0.518796
O O6 0.000000 0.399641 0.250000
O O7 0.000000 0.500000 0.000000
O O8 0.484590 0.688909 0.589059
O O9 0.500000 0.000000 0.000000
#
# Coordination Sequence:
#
# PCOD9238311 Si02
#       4
#     4   4   2   4
#     4  11  25  47  71 102 147 191 241 305 357 435
#     4  11  28  49  74 109 147 191 248 296 366 437
#     4  12  26  44  80 104 146 196 236 308 364 430
#     4  12  25  45  69 109 140 186 247 289 368 430
#
# _framework density 24.817015000000001
#
# number of rings (size 3 to 8) (size 9 to 14) (size 15 to 20)
#    0.000    0.571    2.857    4.286    8.000    3.429 
#    0.000    0.000    0.000    0.000    0.000    0.000 
#    0.000    0.000    0.000    0.000    0.000    0.000 
#
# Total GULP energy -78287.524390 kJ/mol
# GULP energy per Si atom -5591.966028 kJ/mol
# Density = 2.476053 g / cm^3
# Si number density = 24.817015 Si / 1000 Ang^3
#
#
#
# Elastic Constant Matrix: (Units=GPa)
#
#
# Indices 1 2 3 4 5 6 
#
# 1 89.7974 54.0143 44.7947 0.0000 31.4858 0.0000
# 2 54.0143 85.3506 28.7239 0.0000 22.7538 0.0000
# 3 44.7947 28.7239 126.3290 0.0000 20.0491 0.0000
# 4 0.0000 0.0000 0.0000 50.1533 0.0000 4.8694
# 5 31.4858 22.7538 20.0491 0.0000 53.8089 0.0000
# 6 0.0000 0.0000 0.0000 4.8694 0.0000 43.7555
#
#
#
# Elastic Compliance Matrix: (Units=1/GPa)
#
#
# Indices 1 2 3 4 5 6 
#
# 1 0.022142 -0.010743 -0.004329 0.000000 -0.006800 0.000000
# 2 -0.010743 0.019047 -0.000256 0.000000 -0.001673 0.000000
# 3 -0.004329 -0.000256 0.009661 0.000000 -0.000958 0.000000
# 4 0.000000 0.000000 0.000000 0.020157 0.000000 -0.002243
# 5 -0.006800 -0.001673 -0.000958 0.000000 0.023628 0.000000
# 6 0.000000 0.000000 0.000000 -0.002243 0.000000 0.023104
#
#
# Mechanical properties :
#
#
# Convention : Reuss Voigt Hill
#
# Bulk Modulus (GPa) = 49.51954 61.83809 55.67882
# Shear Modulus (GPa) = 32.23162 41.13981 36.68572
#
# Velocity S-wave (km/s) = 3.60776 4.07594 3.84897
# Velocity P-wave (km/s) = 6.11161 6.86460 6.49902
#
# Compressibility (1/GPa) = 0.02019405
#
# Stress axis : x y z
#
# Youngs Moduli (GPa) = 45.16248 52.50139 103.50567
#
# Poissons Ratio (x) = 0.56401 0.44813
# Poissons Ratio (y) = 0.48517 0.02650
# Poissons Ratio (z) = 0.19553 0.01344
#
# Static dielectric constant tensor:
#      x y z
#    x 1.794940 0.000000 -0.010820 
#    y 0.000000 2.103250 0.000000 
#    z -0.010820 0.000000 1.689120 
# 
# From -- ./inp_files/10665.got.cif
#   From: 2010.05.17/outbox.cif.g08.bks.cpg/sg13_6_cif.got.tgz:10665.got - 2010.06.03 16:44:36.
