data_PCOD9238360
_publ_section_title
;
Structure prediction by ZEFSAII (Michael W. Deem and Ramdas Pophale) SiO2 
 PCOD9238360
Probable space group: P 2/C
;
_chemical_formula_sum "Si O2"
_cell_formula_units_Z 28
_cell_length_a 6.572113
_cell_length_b 13.903978
_cell_length_c 17.419245
_cell_angle_alpha 90.000000
_cell_angle_beta 54.813889
_cell_angle_gamma 90.000000
_cell_volume 1300.908468
_symmetry_space_group_name_H-M "P 2/C"
_symmetry_group_IT_number 13
_symmetry_cell_setting 'monoclinic'
loop_
_space_group_symop_operation_xyz
x,y,z
-x,y,1/2-z
-x,-y,-z
x,-y,1/2+z
loop_
_atom_site_type_symbol
_atom_site_label
_atom_site_fract_x
_atom_site_fract_y
_atom_site_fract_z
Si Si1 0.406220 0.928282 0.184677
Si Si2 0.513466 0.341544 0.513756
Si Si3 0.500000 0.625685 0.750000
Si Si4 0.000000 0.917450 0.750000
Si Si5 0.920897 0.211161 0.831450
Si Si6 0.030715 0.761869 0.873482
Si Si7 0.944061 0.111359 0.534468
Si Si8 0.299290 0.490310 0.436617
O O1 0.500000 0.947906 0.250000
O O2 0.207479 0.842898 0.218553
O O3 0.646024 0.890925 0.088414
O O4 0.248518 0.017895 0.189235
O O5 0.312959 0.261712 0.576068
O O6 0.770651 0.295669 0.426426
O O7 0.383215 0.416798 0.484890
O O8 0.596489 0.404059 0.568864
O O9 0.575535 0.556554 0.664368
O O10 0.740911 0.695331 0.702705
O O11 0.020371 0.852255 0.819598
O O12 0.000000 0.295908 0.750000
O O13 0.998920 0.143236 0.889935
O O14 0.060452 0.810102 0.951526
O O15 0.000000 0.000000 0.500000
O O16 0.000000 0.500000 0.500000
#
# Coordination Sequence:
#
# PCOD9238360 Si02
#       8
#     4   4   2   2   4   4   4   4
#     4  12  23  46  67  99 147 193 243 297 353 422
#     4  11  26  48  75 106 144 186 242 305 370 447
#     4  12  26  48  80 104 146 194 236 308 380 440
#     4  12  28  42  70 106 146 194 256 298 358 430
#     4  12  25  45  69 105 141 191 245 299 360 447
#     4  12  26  47  73 110 143 197 249 310 362 440
#     4  12  27  43  70 103 149 196 244 301 366 423
#     4  11  25  51  74 107 147 180 237 304 381 453
#
# _framework density 21.523420000000002
#
# number of rings (size 3 to 8) (size 9 to 14) (size 15 to 20)
#    0.000    0.286    5.000    3.429    5.000    2.286 
#    1.286    0.000    0.000    0.000    0.000    0.000 
#    0.000    0.000    0.000    0.000    0.000    0.000 
#
# Total GULP energy -155896.962606 kJ/mol
# GULP energy per Si atom -5567.748664 kJ/mol
# Density = 2.147443 g / cm^3
# Si number density = 21.523420 Si / 1000 Ang^3
#
#
#
# Elastic Constant Matrix: (Units=GPa)
#
#
# Indices 1 2 3 4 5 6 
#
# 1 105.0404 48.8836 60.2613 0.0000 -11.9316 0.0000
# 2 48.8836 89.9806 44.3680 0.0000 -5.1889 0.0000
# 3 60.2613 44.3680 129.6898 0.0000 -3.8620 0.0000
# 4 0.0000 0.0000 0.0000 32.6869 0.0000 -36.2201
# 5 -11.9316 -5.1889 -3.8620 0.0000 46.7613 0.0000
# 6 0.0000 0.0000 0.0000 -36.2201 0.0000 -18.0494
#
#
#
# Elastic Compliance Matrix: (Units=1/GPa)
#
#
# Indices 1 2 3 4 5 6 
#
# 1 0.015447 -0.005688 -0.005146 0.000000 0.002885 0.000000
# 2 -0.005688 0.015521 -0.002665 0.000000 0.000051 0.000000
# 3 -0.005146 -0.002665 0.010993 0.000000 -0.000701 0.000000
# 4 0.000000 0.000000 0.000000 0.009490 0.000000 -0.019044
# 5 0.002885 0.000051 -0.000701 0.000000 0.022069 0.000000
# 6 0.000000 0.000000 0.000000 -0.019044 0.000000 -0.017187
#
#
# Mechanical properties :
#
#
# Convention : Reuss Voigt Hill
#
# Bulk Modulus (GPa) = 66.83491 70.19297 68.51394
# Shear Modulus (GPa) = 56.61272 23.69295 40.15284
#
# Velocity S-wave (km/s) = 5.13419 3.32143 4.32388
# Velocity P-wave (km/s) = 8.14040 6.88421 7.53852
#
# Compressibility (1/GPa) = 0.01496224
#
# Stress axis : x y z
#
# Youngs Moduli (GPa) = 64.73675 64.42927 90.97021
#
# Poissons Ratio (x) = 0.36649 0.46810
# Poissons Ratio (y) = 0.36824 0.24245
# Poissons Ratio (z) = 0.33312 0.17172
#
# Static dielectric constant tensor:
#      x y z
#    x -0.063450 0.000000 2.014390 
#    y 0.000000 1.835840 0.000000 
#    z 2.014390 0.000000 -0.369180 
# 
# From -- ./inp_files/61553.got.cif
#   From: 2010.05.17/outbox.cif.g08.bks.cpg/sg13_31_cif.got.tgz:61553.got - 2010.06.03 16:44:36.
