data_PCOD9238186
_publ_section_title
;
Structure prediction by ZEFSAII (Michael W. Deem and Ramdas Pophale) SiO2 
 PCOD9238186
Probable space group: P 2/C
;
_chemical_formula_sum "Si O2"
_cell_formula_units_Z 16
_cell_length_a 6.958515
_cell_length_b 28.010064
_cell_length_c 5.029904
_cell_angle_alpha 90.000000
_cell_angle_beta 47.717239
_cell_angle_gamma 90.000000
_cell_volume 725.311211
_symmetry_space_group_name_H-M "P 2/C"
_symmetry_group_IT_number 13
_symmetry_cell_setting 'monoclinic'
loop_
_space_group_symop_operation_xyz
x,y,z
-x,y,1/2-z
-x,-y,-z
x,-y,1/2+z
loop_
_atom_site_type_symbol
_atom_site_label
_atom_site_fract_x
_atom_site_fract_y
_atom_site_fract_z
Si Si1 0.000000 0.265464 0.250000
Si Si2 0.500000 0.398096 0.250000
Si Si3 0.000000 0.200832 0.750000
Si Si4 0.500000 0.670129 0.250000
Si Si5 0.756339 0.883460 0.184448
Si Si6 0.000000 0.964909 0.250000
Si Si7 0.000000 0.534876 0.250000
O O1 0.082476 0.233288 0.425190
O O2 0.753770 0.297486 0.558627
O O3 0.545933 0.363930 0.457125
O O4 0.251608 0.431575 0.523041
O O5 0.787451 0.164943 0.823761
O O6 0.500000 0.884834 0.250000
O O7 0.777823 0.927255 0.370757
O O8 0.000000 0.886385 0.750000
O O9 0.000000 0.000000 0.500000
O O10 0.000000 0.500000 0.500000
#
# Coordination Sequence:
#
# PCOD9238186 Si02
#       7
#     2   2   2   2   4   2   2
#     4  12  26  44  70  99 136 175 244 284 344 430
#     4  12  24  45  68  96 148 180 228 295 346 410
#     4  11  26  47  70 103 136 181 226 305 346 411
#     4  12  26  45  68 102 134 192 228 283 360 412
#     4  11  26  47  71 103 139 182 228 282 363 412
#     4  11  24  47  72 105 140 183 230 283 340 429
#     4  12  24  42  70 105 136 185 238 286 344 408
#
# _framework density 22.059498000000001
#
# number of rings (size 3 to 8) (size 9 to 14) (size 15 to 20)
#    0.000    0.500    2.500    5.250    1.750    7.000 
#    0.000    0.000    0.000    0.000    0.000    0.000 
#    0.000    0.000    0.000    0.000    0.000    0.000 
#
# Total GULP energy -89588.118673 kJ/mol
# GULP energy per Si atom -5599.257417 kJ/mol
# Density = 2.200929 g / cm^3
# Si number density = 22.059498 Si / 1000 Ang^3
#
#
#
# Elastic Constant Matrix: (Units=GPa)
#
#
# Indices 1 2 3 4 5 6 
#
# 1 183.7350 73.2258 63.3754 0.0000 3.8856 0.0000
# 2 73.2258 158.3902 58.6851 0.0000 5.8760 0.0000
# 3 63.3754 58.6851 113.4866 0.0000 -3.2882 0.0000
# 4 0.0000 0.0000 0.0000 -18.7756 0.0000 30.3330
# 5 3.8856 5.8760 -3.2882 0.0000 68.1460 0.0000
# 6 0.0000 0.0000 0.0000 30.3330 0.0000 35.7801
#
#
#
# Elastic Compliance Matrix: (Units=1/GPa)
#
#
# Indices 1 2 3 4 5 6 
#
# 1 0.007386 -0.002312 -0.002939 0.000000 -0.000364 0.000000
# 2 -0.002312 0.008585 -0.003171 0.000000 -0.000761 0.000000
# 3 -0.002939 -0.003171 0.012122 0.000000 0.001026 0.000000
# 4 0.000000 0.000000 0.000000 -0.022477 0.000000 0.019055
# 5 -0.000364 -0.000761 0.001026 0.000000 0.014810 0.000000
# 6 0.000000 0.000000 0.000000 0.019055 0.000000 0.011795
#
#
# Mechanical properties :
#
#
# Convention : Reuss Voigt Hill
#
# Bulk Modulus (GPa) = 88.89293 94.02049 91.45671
# Shear Modulus (GPa) = 94.66979 34.38513 64.52746
#
# Velocity S-wave (km/s) = 6.55811 3.95238 5.41434
# Velocity P-wave (km/s) = 9.88582 7.97134 8.97975
#
# Compressibility (1/GPa) = 0.01124949
#
# Stress axis : x y z
#
# Youngs Moduli (GPa) = 135.39901 116.47806 82.49205
#
# Poissons Ratio (x) = 0.26928 0.24248
# Poissons Ratio (y) = 0.31302 0.26155
# Poissons Ratio (z) = 0.39800 0.36930
#
# Static dielectric constant tensor:
#      x y z
#    x 1.757020 0.000000 0.004480 
#    y 0.000000 1.788360 0.000000 
#    z 0.004480 0.000000 1.842390 
# 
# From -- ./inp_files/578.got.cif
#   From: 2010.05.17/outbox.cif.g08.bks.cpg/sg13_1_cif.got.tgz:578.got - 2010.06.03 16:44:36.
