data_PCOD9238314
_publ_section_title
;
Structure prediction by ZEFSAII (Michael W. Deem and Ramdas Pophale) SiO2 
 PCOD9238314
Probable space group: P 2/C
;
_chemical_formula_sum "Si O2"
_cell_formula_units_Z 20
_cell_length_a 8.221486
_cell_length_b 12.241931
_cell_length_c 17.218953
_cell_angle_alpha 90.000000
_cell_angle_beta 148.378772
_cell_angle_gamma 90.000000
_cell_volume 908.632015
_symmetry_space_group_name_H-M "P 2/C"
_symmetry_group_IT_number 13
_symmetry_cell_setting 'monoclinic'
loop_
_space_group_symop_operation_xyz
x,y,z
-x,y,1/2-z
-x,-y,-z
x,-y,1/2+z
loop_
_atom_site_type_symbol
_atom_site_label
_atom_site_fract_x
_atom_site_fract_y
_atom_site_fract_z
Si Si1 0.671809 0.815262 0.010641
Si Si2 0.394422 0.635044 0.793181
Si Si3 0.685703 0.551090 0.499615
Si Si4 0.343843 0.996656 0.111942
Si Si5 0.631053 0.223243 0.674978
O O1 0.636627 0.817789 0.088222
O O2 0.028280 0.773855 0.147905
O O3 0.441148 0.732356 0.873826
O O4 0.622247 0.932000 0.951130
O O5 0.500000 0.670325 0.750000
O O6 0.045242 0.585302 0.658338
O O7 0.641270 0.543086 0.918604
O O8 0.500000 0.500000 0.500000
O O9 0.515752 0.657579 0.395068
O O10 0.500000 0.051096 0.250000
O O11 0.447761 0.872345 0.143255
O O12 0.000000 0.000000 0.000000
#
# Coordination Sequence:
#
# PCOD9238314 Si02
#       5
#     4   4   4   4   4
#     4  11  25  47  72 105 146 194 249 301 366 450
#     4  12  27  46  74 108 147 194 249 314 377 443
#     4  12  26  47  74 108 149 194 247 307 373 448
#     4  12  26  48  73 107 151 191 242 309 375 440
#     4  11  26  46  75 103 145 197 245 299 371 447
#
# _framework density 22.011109999999999
#
# number of rings (size 3 to 8) (size 9 to 14) (size 15 to 20)
#    0.000    0.400    4.000    3.600    8.400    0.800 
#    0.000    0.000    0.000    0.000    0.000    0.000 
#    0.000    0.000    0.000    0.000    0.000    0.000 
#
# Total GULP energy -111721.552228 kJ/mol
# GULP energy per Si atom -5586.077611 kJ/mol
# Density = 2.196101 g / cm^3
# Si number density = 22.011110 Si / 1000 Ang^3
#
#
#
# Elastic Constant Matrix: (Units=GPa)
#
#
# Indices 1 2 3 4 5 6 
#
# 1 68.3299 19.7028 31.3723 0.0000 3.5963 0.0000
# 2 19.7028 119.1797 22.4681 0.0000 -1.5519 0.0000
# 3 31.3723 22.4681 121.8462 0.0000 9.8122 0.0000
# 4 0.0000 0.0000 0.0000 18.1464 0.0000 37.0165
# 5 3.5963 -1.5519 9.8122 0.0000 39.2638 0.0000
# 6 0.0000 0.0000 0.0000 37.0165 0.0000 -81.8355
#
#
#
# Elastic Compliance Matrix: (Units=1/GPa)
#
#
# Indices 1 2 3 4 5 6 
#
# 1 0.017091 -0.002087 -0.003963 0.000000 -0.000658 0.000000
# 2 -0.002087 0.008970 -0.001184 0.000000 0.000842 0.000000
# 3 -0.003963 -0.001184 0.009614 0.000000 -0.002086 0.000000
# 4 0.000000 0.000000 0.000000 0.028662 0.000000 0.012964
# 5 -0.000658 0.000842 -0.002086 0.000000 0.026084 0.000000
# 6 0.000000 0.000000 0.000000 0.012964 0.000000 -0.006355
#
#
# Mechanical properties :
#
#
# Convention : Reuss Voigt Hill
#
# Bulk Modulus (GPa) = 47.15586 50.71580 48.93583
# Shear Modulus (GPa) = 47.34809 10.83577 29.09193
#
# Velocity S-wave (km/s) = 4.64303 2.22116 3.63945
# Velocity P-wave (km/s) = 7.08617 5.44693 6.31992
#
# Compressibility (1/GPa) = 0.02120627
#
# Stress axis : x y z
#
# Youngs Moduli (GPa) = 58.51162 111.48320 104.01747
#
# Poissons Ratio (x) = 0.23266 0.41218
# Poissons Ratio (y) = 0.12211 0.12321
# Poissons Ratio (z) = 0.23186 0.13205
#
# Static dielectric constant tensor:
#      x y z
#    x 1.826730 0.000000 0.000980 
#    y 0.000000 1.764460 0.000000 
#    z 0.000980 0.000000 1.774890 
# 
# From -- ./inp_files/11654.got.cif
#   From: 2010.05.17/outbox.cif.g08.bks.cpg/sg13_6_cif.got.tgz:11654.got - 2010.06.03 16:44:36.
