data_PCOD9238950
_publ_section_title
;
Structure prediction by ZEFSAII (Michael W. Deem and Ramdas Pophale) SiO2 
 PCOD9238950
Probable space group: P 2/C
;
_chemical_formula_sum "Si O2"
_cell_formula_units_Z 28
_cell_length_a 15.000000
_cell_length_b 6.000000
_cell_length_c 18.000000
_cell_angle_alpha 90.000000
_cell_angle_beta 60.000000
_cell_angle_gamma 90.000000
_cell_volume 1402.961154
_symmetry_space_group_name_H-M "P 2/C"
_symmetry_group_IT_number 13
_symmetry_cell_setting 'monoclinic'
loop_
_space_group_symop_operation_xyz
x,y,z
-x,y,1/2-z
-x,-y,-z
x,-y,1/2+z
loop_
_atom_site_type_symbol
_atom_site_label
_atom_site_fract_x
_atom_site_fract_y
_atom_site_fract_z
Si Si1 0.762780 0.333263 0.227874
Si Si2 0.074490 0.343818 0.919235
Si Si3 0.778135 0.980614 0.582364
Si Si4 0.884111 0.230119 0.905709
Si Si5 0.523899 0.588377 0.828226
Si Si6 0.883126 0.731044 0.828296
Si Si7 0.452274 0.092818 0.853071
O O1 0.837611 0.514797 0.158625
O O2 0.761462 0.130135 0.169787
O O3 0.646659 0.416105 0.286056
O O4 0.808915 0.269782 0.288035
O O5 0.001057 0.235380 0.887589
O O6 0.130417 0.159560 0.946540
O O7 0.000000 0.500000 0.000000
O O8 0.811496 0.795115 0.508467
O O9 0.671240 0.088067 0.601354
O O10 0.867901 0.481643 0.875501
O O11 0.870278 0.981923 0.871770
O O12 0.500000 0.590198 0.750000
O O13 0.482799 0.341374 0.872927
O O14 0.484963 0.840899 0.870652
O O15 0.000000 0.723910 0.750000
O O16 0.500000 0.093613 0.750000
#
# Coordination Sequence:
#
# PCOD9238950 Si02
#       7
#     4   4   4   4   4   4   4
#     4  12  25  41  74 100 135 184 239 287 343 412
#     4  12  24  41  65 105 138 176 234 295 340 413
#     4  12  25  41  73 103 135 180 233 294 355 400
#     4  12  27  46  64  98 147 184 223 285 351 414
#     4  10  20  38  62 103 128 162 221 297 337 386
#     4  12  27  47  65  95 143 195 228 273 338 427
#     4  10  20  38  63 100 133 159 217 292 345 393
#
# _framework density 19.957787
#
# number of rings (size 3 to 8) (size 9 to 14) (size 15 to 20)
#    0.000    0.571    5.714    4.286    2.000    0.000 
#    0.000    0.000    0.000    5.143    0.000    0.000 
#    0.000    0.000    0.000    0.000    0.000    0.000 
#
# Total GULP energy -156128.627011 kJ/mol
# GULP energy per Si atom -5576.022393 kJ/mol
# Density = 1.991236 g / cm^3
# Si number density = 19.957787 Si / 1000 Ang^3
#
#
#
# Elastic Constant Matrix: (Units=GPa)
#
#
# Indices 1 2 3 4 5 6 
#
# 1 157.5160 55.2014 41.8478 0.0000 -9.7865 0.0000
# 2 55.2014 188.1797 40.5330 0.0000 5.0477 0.0000
# 3 41.8478 40.5330 43.0868 0.0000 6.7812 0.0000
# 4 0.0000 0.0000 0.0000 31.4483 0.0000 0.2938
# 5 -9.7865 5.0477 6.7812 0.0000 23.3367 0.0000
# 6 0.0000 0.0000 0.0000 0.2938 0.0000 45.9461
#
#
#
# Elastic Compliance Matrix: (Units=1/GPa)
#
#
# Indices 1 2 3 4 5 6 
#
# 1 0.009675 -0.000958 -0.009605 0.000000 0.007056 0.000000
# 2 -0.000958 0.006763 -0.005384 0.000000 -0.000300 0.000000
# 3 -0.009605 -0.005384 0.039878 0.000000 -0.014451 0.000000
# 4 0.000000 0.000000 0.000000 0.031800 0.000000 -0.000203
# 5 0.007056 -0.000300 -0.014451 0.000000 0.050074 0.000000
# 6 0.000000 0.000000 0.000000 -0.000203 0.000000 0.021766
#
#
# Mechanical properties :
#
#
# Convention : Reuss Voigt Hill
#
# Bulk Modulus (GPa) = 40.95078 73.77189 57.36133
# Shear Modulus (GPa) = 25.00116 36.89292 30.94704
#
# Velocity S-wave (km/s) = 3.54319 4.30414 3.94207
# Velocity P-wave (km/s) = 6.10755 7.85780 7.03730
#
# Compressibility (1/GPa) = 0.02441956
#
# Stress axis : x y z
#
# Youngs Moduli (GPa) = 103.36266 147.86445 25.07671
#
# Poissons Ratio (x) = 0.14170 0.24087
# Poissons Ratio (y) = 0.09905 0.13502
# Poissons Ratio (z) = 0.99284 0.79612
#
# Static dielectric constant tensor:
#      x y z
#    x 1.692430 0.000000 0.001520 
#    y 0.000000 1.781450 0.000000 
#    z 0.001520 0.000000 1.710170 
# 
# From -- ./inp_files/67494.got.cif
#   From: 2010.05.17/outbox.ucp.g08.bks.cvg/sg13_34_cif.got.tgz:67494.got - 2010.06.11 12:23:55.
