data_PCOD9238361
_publ_section_title
;
Structure prediction by ZEFSAII (Michael W. Deem and Ramdas Pophale) SiO2 
 PCOD9238361
Probable space group: P 2/C
;
_chemical_formula_sum "Si O2"
_cell_formula_units_Z 20
_cell_length_a 11.148270
_cell_length_b 4.936546
_cell_length_c 22.446587
_cell_angle_alpha 90.000000
_cell_angle_beta 143.239242
_cell_angle_gamma 90.000000
_cell_volume 739.310751
_symmetry_space_group_name_H-M "P 2/C"
_symmetry_group_IT_number 13
_symmetry_cell_setting 'monoclinic'
loop_
_space_group_symop_operation_xyz
x,y,z
-x,y,1/2-z
-x,-y,-z
x,-y,1/2+z
loop_
_atom_site_type_symbol
_atom_site_label
_atom_site_fract_x
_atom_site_fract_y
_atom_site_fract_z
Si Si1 0.183781 0.909633 0.112155
Si Si2 0.667460 0.536979 0.146409
Si Si3 0.540043 0.217619 0.205382
Si Si4 0.969055 0.639205 0.122405
Si Si5 0.703303 0.834412 0.545453
O O1 0.096713 0.654860 0.112138
O O2 0.375785 0.977273 0.146838
O O3 0.247989 0.080688 0.196842
O O4 0.000000 0.000000 0.000000
O O5 0.540164 0.385861 0.146777
O O6 0.712981 0.314300 0.113930
O O7 0.870912 0.624847 0.260011
O O8 0.528392 0.781663 0.066281
O O9 0.500000 0.389809 0.250000
O O10 0.838181 0.373427 0.062325
O O11 0.810479 0.879130 0.075939
#
# Coordination Sequence:
#
# PCOD9238361 Si02
#       5
#     4   4   4   4   4
#     4   9  20  41  67 104 144 192 244 303 363 442
#     4  11  25  51  76 108 159 194 257 311 380 451
#     4   8  21  42  69 105 140 205 237 309 370 443
#     4  12  26  48  76 115 149 194 259 313 375 450
#     4  11  29  47  81 112 148 206 247 312 382 454
#
# _framework density 27.052225
#
# number of rings (size 3 to 8) (size 9 to 14) (size 15 to 20)
#    1.200    0.400    0.000    3.000    0.000   16.000 
#    7.200    3.000    0.000    0.000    0.000    0.000 
#    0.000    0.000    0.000    0.000    0.000    0.000 
#
# Total GULP energy -111782.007520 kJ/mol
# GULP energy per Si atom -5589.100376 kJ/mol
# Density = 2.699065 g / cm^3
# Si number density = 27.052225 Si / 1000 Ang^3
#
#
#
# Elastic Constant Matrix: (Units=GPa)
#
#
# Indices 1 2 3 4 5 6 
#
# 1 133.5123 33.8444 -1.7874 0.0000 14.2800 0.0000
# 2 33.8444 117.9541 28.7105 0.0000 29.1060 0.0000
# 3 -1.7874 28.7105 171.2287 0.0000 33.6232 0.0000
# 4 0.0000 0.0000 0.0000 34.3825 0.0000 20.0295
# 5 14.2800 29.1060 33.6232 0.0000 45.9447 0.0000
# 6 0.0000 0.0000 0.0000 20.0295 0.0000 50.6500
#
#
#
# Elastic Compliance Matrix: (Units=1/GPa)
#
#
# Indices 1 2 3 4 5 6 
#
# 1 0.008228 -0.002109 0.000793 0.000000 -0.001802 0.000000
# 2 -0.002109 0.010627 -0.000713 0.000000 -0.005555 0.000000
# 3 0.000793 -0.000713 0.006922 0.000000 -0.004861 0.000000
# 4 0.000000 0.000000 0.000000 0.037790 0.000000 -0.014944
# 5 -0.001802 -0.005555 -0.004861 0.000000 0.029402 0.000000
# 6 0.000000 0.000000 0.000000 -0.014944 0.000000 0.025653
#
#
# Mechanical properties :
#
#
# Convention : Reuss Voigt Hill
#
# Bulk Modulus (GPa) = 46.04161 60.47002 53.25582
# Shear Modulus (GPa) = 38.48499 50.32396 44.40447
#
# Velocity S-wave (km/s) = 3.77585 4.31774 4.05586
# Velocity P-wave (km/s) = 6.00549 6.87450 6.45464
#
# Compressibility (1/GPa) = 0.02171948
#
# Stress axis : x y z
#
# Youngs Moduli (GPa) = 121.53664 94.09616 144.45675
#
# Poissons Ratio (x) = 0.19849 -0.11460
# Poissons Ratio (y) = 0.25637 0.10302
# Poissons Ratio (z) = -0.09642 0.06711
#
# Static dielectric constant tensor:
#      x y z
#    x 2.231450 0.000000 0.022080 
#    y 0.000000 2.188950 0.000000 
#    z 0.022080 0.000000 2.098320 
# 
# From -- ./inp_files/85649.got.cif
#   From: 2010.05.17/outbox.cif.g08.bks.cpg/sg13_43_cif.got.tgz:85649.got - 2010.06.03 16:44:36.
