data_PCOD9238261
_publ_section_title
;
Structure prediction by ZEFSAII (Michael W. Deem and Ramdas Pophale) SiO2 
 PCOD9238261
Probable space group: P 2/C
;
_chemical_formula_sum "Si O2"
_cell_formula_units_Z 18
_cell_length_a 5.107357
_cell_length_b 9.039086
_cell_length_c 18.300450
_cell_angle_alpha 90.000000
_cell_angle_beta 107.349683
_cell_angle_gamma 90.000000
_cell_volume 806.416877
_symmetry_space_group_name_H-M "P 2/C"
_symmetry_group_IT_number 13
_symmetry_cell_setting 'monoclinic'
loop_
_space_group_symop_operation_xyz
x,y,z
-x,y,1/2-z
-x,-y,-z
x,-y,1/2+z
loop_
_atom_site_type_symbol
_atom_site_label
_atom_site_fract_x
_atom_site_fract_y
_atom_site_fract_z
Si Si1 0.265640 0.898653 0.010899
Si Si2 0.734499 0.544214 0.831262
Si Si3 0.000000 0.031563 0.250000
Si Si4 0.735886 0.794085 0.330037
Si Si5 0.722173 0.274465 0.134958
O O1 0.352770 0.840710 0.097063
O O2 0.237343 0.778357 0.945008
O O3 0.500000 0.000000 0.000000
O O4 0.000000 0.000000 0.000000
O O5 0.500000 0.542478 0.750000
O O6 0.830805 0.374851 0.849790
O O7 0.562988 0.636290 0.878381
O O8 0.008137 0.627222 0.831070
O O9 0.238517 0.138517 0.303541
O O10 0.074272 0.921630 0.189321
O O11 0.500000 0.786140 0.250000
#
# Coordination Sequence:
#
# PCOD9238261 Si02
#       5
#     4   4   2   4   4
#     4  12  26  46  71 107 142 179 240 302 349 416
#     4  11  25  45  69 104 146 186 233 291 352 425
#     4  12  24  42  76 102 136 190 240 286 354 422
#     4  11  28  45  73 104 143 189 237 294 360 423
#     4  12  25  44  74 103 141 188 236 291 354 422
#
# _framework density 22.320962000000002
#
# number of rings (size 3 to 8) (size 9 to 14) (size 15 to 20)
#    0.000    0.444    4.444    2.667    9.333    1.778 
#    0.000    0.000    0.000    0.000    0.000    0.000 
#    0.000    0.000    0.000    0.000    0.000    0.000 
#
# Total GULP energy -100516.104173 kJ/mol
# GULP energy per Si atom -5584.228010 kJ/mol
# Density = 2.227016 g / cm^3
# Si number density = 22.320962 Si / 1000 Ang^3
#
#
#
# Elastic Constant Matrix: (Units=GPa)
#
#
# Indices 1 2 3 4 5 6 
#
# 1 106.7864 57.6193 10.9095 0.0000 -15.9101 0.0000
# 2 57.6193 155.6202 52.9764 0.0000 -20.4958 0.0000
# 3 10.9095 52.9764 157.7587 0.0000 -30.7455 0.0000
# 4 0.0000 0.0000 0.0000 29.9768 0.0000 -5.0816
# 5 -15.9101 -20.4958 -30.7455 0.0000 32.2650 0.0000
# 6 0.0000 0.0000 0.0000 -5.0816 0.0000 19.7144
#
#
#
# Elastic Compliance Matrix: (Units=1/GPa)
#
#
# Indices 1 2 3 4 5 6 
#
# 1 0.012324 -0.004475 0.001573 0.000000 0.004733 0.000000
# 2 -0.004475 0.009094 -0.002516 0.000000 0.001173 0.000000
# 3 0.001573 -0.002516 0.008491 0.000000 0.007269 0.000000
# 4 0.000000 0.000000 0.000000 0.034883 0.000000 0.008992
# 5 0.004733 0.001173 0.007269 0.000000 0.040999 0.000000
# 6 0.000000 0.000000 0.000000 0.008992 0.000000 0.053042
#
#
# Mechanical properties :
#
#
# Convention : Reuss Voigt Hill
#
# Bulk Modulus (GPa) = 52.42954 73.68617 63.05786
# Shear Modulus (GPa) = 28.40485 36.30191 32.35338
#
# Velocity S-wave (km/s) = 3.57117 4.03719 3.81131
# Velocity P-wave (km/s) = 6.36744 7.40376 6.90507
#
# Compressibility (1/GPa) = 0.01907322
#
# Stress axis : x y z
#
# Youngs Moduli (GPa) = 81.14544 109.96712 117.76502
#
# Poissons Ratio (x) = 0.49210 -0.18524
# Poissons Ratio (y) = 0.36312 0.29626
# Poissons Ratio (z) = -0.12764 0.27664
#
# Static dielectric constant tensor:
#      x y z
#    x 1.792570 0.000000 -0.127120 
#    y 0.000000 1.922710 0.000000 
#    z -0.127120 0.000000 0.273870 
# 
# From -- ./inp_files/60584.got.cif
#   From: 2010.05.17/outbox.cif.g08.bks.cpg/sg13_31_cif.got.tgz:60584.got - 2010.06.03 16:44:36.
