data_PCOD9238152
_publ_section_title
;
Structure prediction by ZEFSAII (Michael W. Deem and Ramdas Pophale) SiO2 
 PCOD9238152
Probable space group: P 2/C
;
_chemical_formula_sum "Si O2"
_cell_formula_units_Z 26
_cell_length_a 16.968259
_cell_length_b 6.564055
_cell_length_c 22.155044
_cell_angle_alpha 90.000000
_cell_angle_beta 30.371495
_cell_angle_gamma 90.000000
_cell_volume 1247.651019
_symmetry_space_group_name_H-M "P 2/C"
_symmetry_group_IT_number 13
_symmetry_cell_setting 'monoclinic'
loop_
_space_group_symop_operation_xyz
x,y,z
-x,y,1/2-z
-x,-y,-z
x,-y,1/2+z
loop_
_atom_site_type_symbol
_atom_site_label
_atom_site_fract_x
_atom_site_fract_y
_atom_site_fract_z
Si Si1 0.379401 0.977842 0.472390
Si Si2 0.839363 0.056498 0.574581
Si Si3 0.354487 0.661120 0.206544
Si Si4 0.943057 0.864595 0.874429
Si Si5 0.581806 0.726177 0.756378
Si Si6 0.214241 0.798910 0.175862
Si Si7 0.000000 0.500614 0.250000
O O1 0.478450 0.771588 0.411239
O O2 0.203316 0.940795 0.567804
O O3 0.464833 0.118053 0.366761
O O4 0.361192 0.090914 0.548093
O O5 0.743463 0.206741 0.680731
O O6 0.881904 0.153705 0.482590
O O7 0.732866 0.856023 0.637157
O O8 0.000000 0.000000 0.500000
O O9 0.374551 0.441917 0.223136
O O10 0.265904 0.678673 0.201465
O O11 0.984158 0.649070 0.817536
O O12 0.083827 0.028849 0.778225
O O13 0.500000 0.640406 0.750000
O O14 0.142411 0.647084 0.173453
#
# Coordination Sequence:
#
# PCOD9238152 Si02
#       7
#     4   4   4   4   4   4   2
#     4  11  24  46  68  95 139 186 215 280 343 405
#     4  11  25  46  70  98 137 179 224 285 345 401
#     4  11  28  42  71 102 136 180 224 281 346 400
#     4  12  24  45  71  97 140 180 227 280 342 403
#     4  11  26  44  68 102 138 177 229 277 341 414
#     4  12  25  47  65 104 138 176 235 283 330 406
#     4  12  26  40  74 104 128 188 238 272 346 398
#
# _framework density 20.839162000000002
#
# number of rings (size 3 to 8) (size 9 to 14) (size 15 to 20)
#    0.000    0.615    6.154    0.462    6.462    2.462 
#    0.000    0.000    0.000    0.000    0.000    0.000 
#    0.000    0.000    0.000    0.000    0.000    0.000 
#
# Total GULP energy -145398.282255 kJ/mol
# GULP energy per Si atom -5592.241625 kJ/mol
# Density = 2.079173 g / cm^3
# Si number density = 20.839162 Si / 1000 Ang^3
#
#
#
# Elastic Constant Matrix: (Units=GPa)
#
#
# Indices 1 2 3 4 5 6 
#
# 1 92.3851 6.4436 15.4948 0.0000 3.3416 0.0000
# 2 6.4436 57.8781 12.0426 0.0000 -3.2785 0.0000
# 3 15.4948 12.0426 80.3918 0.0000 5.4787 0.0000
# 4 0.0000 0.0000 0.0000 7.8668 0.0000 2.8542
# 5 3.3416 -3.2785 5.4787 0.0000 31.4955 0.0000
# 6 0.0000 0.0000 0.0000 2.8542 0.0000 31.7338
#
#
#
# Elastic Compliance Matrix: (Units=1/GPa)
#
#
# Indices 1 2 3 4 5 6 
#
# 1 0.011251 -0.000896 -0.001970 0.000000 -0.000944 0.000000
# 2 -0.000896 0.018078 -0.002702 0.000000 0.002447 0.000000
# 3 -0.001970 -0.002702 0.013387 0.000000 -0.002401 0.000000
# 4 0.000000 0.000000 0.000000 0.131404 0.000000 -0.011819
# 5 -0.000944 0.002447 -0.002401 0.000000 0.032523 0.000000
# 6 0.000000 0.000000 0.000000 -0.011819 0.000000 0.032575
#
#
# Mechanical properties :
#
#
# Convention : Reuss Voigt Hill
#
# Bulk Modulus (GPa) = 31.66544 33.17965 32.42255
# Shear Modulus (GPa) = 19.16573 27.33083 23.24828
#
# Velocity S-wave (km/s) = 3.03594 3.62541 3.34369
# Velocity P-wave (km/s) = 5.24570 5.78629 5.52261
#
# Compressibility (1/GPa) = 0.03158017
#
# Stress axis : x y z
#
# Youngs Moduli (GPa) = 88.87836 55.31492 74.69837
#
# Poissons Ratio (x) = 0.04957 0.14715
# Poissons Ratio (y) = 0.07965 0.20184
# Poissons Ratio (z) = 0.17509 0.14947
#
# Static dielectric constant tensor:
#      x y z
#    x 1.761900 0.000000 0.009020 
#    y 0.000000 -29.065090 0.000000 
#    z 0.009020 0.000000 1.828070 
# 
# From -- ./inp_files/87709.got.cif
#   From: 2010.05.17/outbox.cif.g08.bks.cpg/sg13_44_cif.got.tgz:87709.got - 2010.06.03 16:44:36.
