data_PCOD9238319
_publ_section_title
;
Structure prediction by ZEFSAII (Michael W. Deem and Ramdas Pophale) SiO2 
 PCOD9238319
Probable space group: P 2/C
;
_chemical_formula_sum "Si O2"
_cell_formula_units_Z 18
_cell_length_a 12.265979
_cell_length_b 8.410287
_cell_length_c 9.570428
_cell_angle_alpha 90.000000
_cell_angle_beta 52.672755
_cell_angle_gamma 90.000000
_cell_volume 785.077807
_symmetry_space_group_name_H-M "P 2/C"
_symmetry_group_IT_number 13
_symmetry_cell_setting 'monoclinic'
loop_
_space_group_symop_operation_xyz
x,y,z
-x,y,1/2-z
-x,-y,-z
x,-y,1/2+z
loop_
_atom_site_type_symbol
_atom_site_label
_atom_site_fract_x
_atom_site_fract_y
_atom_site_fract_z
Si Si1 0.805376 0.598059 0.815353
Si Si2 0.000000 0.667215 0.250000
Si Si3 0.126339 0.882159 0.918845
Si Si4 0.639363 0.570378 0.224430
Si Si5 0.594764 0.080004 0.812117
O O1 0.910625 0.451450 0.723987
O O2 0.868126 0.763583 0.717696
O O3 0.685026 0.562871 0.797646
O O4 0.750157 0.597790 0.015590
O O5 0.902971 0.775376 0.421480
O O6 0.266871 0.980651 0.817624
O O7 0.000000 0.000000 0.000000
O O8 0.500000 0.532515 0.250000
O O9 0.627115 0.735837 0.317343
O O10 0.500000 0.084975 0.750000
O O11 0.500000 0.000000 0.000000
#
# Coordination Sequence:
#
# PCOD9238319 Si02
#       5
#     4   2   4   4   4
#     4  12  26  49  72 110 148 195 253 311 377 455
#     4  12  28  46  72 114 148 196 250 316 380 448
#     4  12  28  46  79 108 150 200 251 314 377 451
#     4  11  25  47  75 106 148 198 250 309 379 454
#     4  11  27  49  73 108 150 196 255 311 377 446
#
# _framework density 22.927662999999999
#
# number of rings (size 3 to 8) (size 9 to 14) (size 15 to 20)
#    0.000    0.444    2.222    5.333   12.444    0.889 
#    0.000    0.000    0.000    0.000    0.000    0.000 
#    0.000    0.000    0.000    0.000    0.000    0.000 
#
# Total GULP energy -100917.472437 kJ/mol
# GULP energy per Si atom -5606.526247 kJ/mol
# Density = 2.287548 g / cm^3
# Si number density = 22.927663 Si / 1000 Ang^3
#
#
#
# Elastic Constant Matrix: (Units=GPa)
#
#
# Indices 1 2 3 4 5 6 
#
# 1 84.2043 42.6794 -4.6670 0.0000 -28.5024 0.0000
# 2 42.6794 110.4806 18.8705 0.0000 -19.1005 0.0000
# 3 -4.6670 18.8705 79.0817 0.0000 -16.2191 0.0000
# 4 0.0000 0.0000 0.0000 46.9464 0.0000 -1.1586
# 5 -28.5024 -19.1005 -16.2191 0.0000 39.7485 0.0000
# 6 0.0000 0.0000 0.0000 -1.1586 0.0000 26.0388
#
#
#
# Elastic Compliance Matrix: (Units=1/GPa)
#
#
# Indices 1 2 3 4 5 6 
#
# 1 0.019938 -0.006300 0.005447 0.000000 0.013492 0.000000
# 2 -0.006300 0.012030 -0.003256 0.000000 -0.000065 0.000000
# 3 0.005447 -0.003256 0.015523 0.000000 0.008675 0.000000
# 4 0.000000 0.000000 0.000000 0.021324 0.000000 0.000949
# 5 0.013492 -0.000065 0.008675 0.000000 0.038342 0.000000
# 6 0.000000 0.000000 0.000000 0.000949 0.000000 0.038446
#
#
# Mechanical properties :
#
#
# Convention : Reuss Voigt Hill
#
# Bulk Modulus (GPa) = 25.46256 43.05916 34.26086
# Shear Modulus (GPa) = 29.95605 37.00566 33.48086
#
# Velocity S-wave (km/s) = 3.61854 4.02184 3.82551
# Velocity P-wave (km/s) = 5.34679 6.35517 5.87266
#
# Compressibility (1/GPa) = 0.03927335
#
# Stress axis : x y z
#
# Youngs Moduli (GPa) = 50.15570 83.12620 64.42152
#
# Poissons Ratio (x) = 0.52369 -0.35091
# Poissons Ratio (y) = 0.31598 0.20974
# Poissons Ratio (z) = -0.27320 0.27064
#
# Static dielectric constant tensor:
#      x y z
#    x 1.871180 0.000000 -0.016170 
#    y 0.000000 1.878580 0.000000 
#    z -0.016170 0.000000 1.849970 
# 
# From -- ./inp_files/14744.got.cif
#   From: 2010.05.17/outbox.cif.g08.bks.cpg/sg13_8_cif.got.tgz:14744.got - 2010.06.03 16:44:36.
