data_PCOD9238681
_publ_section_title
;
Structure prediction by ZEFSAII (Michael W. Deem and Ramdas Pophale) SiO2 
 PCOD9238681
Probable space group: P 2/C
;
_chemical_formula_sum "Si O2"
_cell_formula_units_Z 12
_cell_length_a 5.041990
_cell_length_b 14.114147
_cell_length_c 9.617484
_cell_angle_alpha 90.000000
_cell_angle_beta 53.957110
_cell_angle_gamma 90.000000
_cell_volume 553.400246
_symmetry_space_group_name_H-M "P 2/C"
_symmetry_group_IT_number 13
_symmetry_cell_setting 'monoclinic'
loop_
_space_group_symop_operation_xyz
x,y,z
-x,y,1/2-z
-x,-y,-z
x,-y,1/2+z
loop_
_atom_site_type_symbol
_atom_site_label
_atom_site_fract_x
_atom_site_fract_y
_atom_site_fract_z
Si Si1 0.612605 0.751060 0.359248
Si Si2 0.200189 0.064195 0.048082
Si Si3 0.389603 0.588794 0.626529
O O1 0.500000 0.700934 0.250000
O O2 0.365892 0.840460 0.439752
O O3 0.542206 0.682107 0.509287
O O4 0.000000 0.777027 0.250000
O O5 0.000000 0.086183 0.250000
O O6 0.500000 0.000000 0.000000
O O7 0.000000 0.000000 0.000000
O O8 0.500000 0.577001 0.750000
O O9 0.500000 0.500000 0.500000
O O10 0.000000 0.597233 0.750000
#
# Coordination Sequence:
#
# PCOD9238681 Si02
#       3
#     4   4   4
#     4  12  25  44  68  99 136 181 230 284 342 409
#     4  12  25  43  66  95 131 174 224 280 339 401
#     4  12  25  45  71 104 141 183 228 282 342 410
#
# _framework density 21.684124000000001
#
# number of rings (size 3 to 8) (size 9 to 14) (size 15 to 20)
#    0.000    0.000    0.000   12.000    0.000    2.667 
#    0.000    0.000    0.000    0.000    0.000    0.000 
#    0.000    0.000    0.000    0.000    0.000    0.000 
#
# Total GULP energy -67193.709838 kJ/mol
# GULP energy per Si atom -5599.475820 kJ/mol
# Density = 2.163477 g / cm^3
# Si number density = 21.684124 Si / 1000 Ang^3
#
#
#
# Elastic Constant Matrix: (Units=GPa)
#
#
# Indices 1 2 3 4 5 6 
#
# 1 197.1411 42.9144 78.9300 0.0000 9.1332 0.0000
# 2 42.9144 125.6225 60.5724 0.0000 0.4953 0.0000
# 3 78.9300 60.5724 174.3623 0.0000 3.1048 0.0000
# 4 0.0000 0.0000 0.0000 43.2535 0.0000 3.2108
# 5 9.1332 0.4953 3.1048 0.0000 60.7384 0.0000
# 6 0.0000 0.0000 0.0000 3.2108 0.0000 29.9696
#
#
#
# Elastic Compliance Matrix: (Units=1/GPa)
#
#
# Indices 1 2 3 4 5 6 
#
# 1 0.006325 -0.000942 -0.002521 0.000000 -0.000814 0.000000
# 2 -0.000942 0.009703 -0.002948 0.000000 0.000213 0.000000
# 3 -0.002521 -0.002948 0.007901 0.000000 -0.000001 0.000000
# 4 0.000000 0.000000 0.000000 0.023305 0.000000 -0.002497
# 5 -0.000814 0.000213 -0.000001 0.000000 0.016585 0.000000
# 6 0.000000 0.000000 0.000000 -0.002497 0.000000 0.033635
#
#
# Mechanical properties :
#
#
# Convention : Reuss Voigt Hill
#
# Bulk Modulus (GPa) = 90.04384 95.77327 92.90855
# Shear Modulus (GPa) = 43.86846 47.77292 45.82069
#
# Velocity S-wave (km/s) = 4.50273 4.69884 4.60183
# Velocity P-wave (km/s) = 8.28542 8.58500 8.43654
#
# Compressibility (1/GPa) = 0.01110570
#
# Stress axis : x y z
#
# Youngs Moduli (GPa) = 158.10932 103.06350 126.56946
#
# Poissons Ratio (x) = 0.09705 0.31914
# Poissons Ratio (y) = 0.14888 0.37316
# Poissons Ratio (z) = 0.39867 0.30385
#
# Static dielectric constant tensor:
#      x y z
#    x 1.736900 0.000000 0.017440 
#    y 0.000000 1.776060 0.000000 
#    z 0.017440 0.000000 1.822510 
# 
# From -- ./inp_files/8707.got.cif
#   From: 2010.05.17/outbox.cif.g08.bks.cpg/sg13_5_cif.got.tgz:8707.got - 2010.06.03 16:44:36.
