data_PCOD9238834
_publ_section_title
;
Structure prediction by ZEFSAII (Michael W. Deem and Ramdas Pophale) SiO2 
 PCOD9238834
Probable space group: P 2/C
;
_chemical_formula_sum "Si O2"
_cell_formula_units_Z 28
_cell_length_a 19.841926
_cell_length_b 7.016454
_cell_length_c 6.730489
_cell_angle_alpha 90.000000
_cell_angle_beta 97.289275
_cell_angle_gamma 90.000000
_cell_volume 929.445630
_symmetry_space_group_name_H-M "P 2/C"
_symmetry_group_IT_number 13
_symmetry_cell_setting 'monoclinic'
loop_
_space_group_symop_operation_xyz
x,y,z
-x,y,1/2-z
-x,-y,-z
x,-y,1/2+z
loop_
_atom_site_type_symbol
_atom_site_label
_atom_site_fract_x
_atom_site_fract_y
_atom_site_fract_z
Si Si1 0.699529 0.271407 0.715305
Si Si2 0.986274 0.729376 0.474999
Si Si3 0.723445 0.834462 0.772197
Si Si4 0.557040 0.753700 0.063657
Si Si5 0.872536 0.233484 0.357766
Si Si6 0.583456 0.789203 0.612549
Si Si7 0.848362 0.670111 0.302519
O O1 0.715169 0.263599 0.482904
O O2 0.622039 0.343104 0.692662
O O3 0.769543 0.350507 0.831529
O O4 0.701339 0.052259 0.785156
O O5 0.048275 0.825996 0.618287
O O6 0.000000 0.769704 0.250000
O O7 0.000000 0.500000 0.500000
O O8 0.905149 0.765655 0.466992
O O9 0.802354 0.847135 0.742518
O O10 0.663722 0.749029 0.610580
O O11 0.568875 0.981572 0.102830
O O12 0.569575 0.730430 0.832916
O O13 0.476530 0.710123 0.050732
O O14 0.871419 0.453210 0.290469
O O15 0.856646 0.234476 0.590354
#
# Coordination Sequence:
#
# PCOD9238834 Si02
#       7
#     4   4   4   4   4   4   4
#     4   9  17  28  42  62  86 109 134 166 204 243
#     4   8  14  26  43  60  78 102 134 170 201 232
#     4   9  17  28  42  62  86 109 134 166 204 243
#     4   8  13  22  37  56  77 102 132 164 196 231
#     4   9  17  29  45  63  82 106 137 170 203 240
#     4   8  13  22  37  56  77 102 132 164 196 231
#     4   9  17  29  45  63  82 106 137 170 203 240
#
# _framework density 30.125484
#
# number of rings (size 3 to 8) (size 9 to 14) (size 15 to 20)
#    0.000    3.429    0.000    0.000    0.000    1.143 
#    0.000    0.714    0.000    0.857    0.000    0.000 
#    0.000    0.000    0.000    0.000    0.000    0.000 
#
# Total GULP energy -156619.340497 kJ/mol
# GULP energy per Si atom -5593.547875 kJ/mol
# Density = 3.005692 g / cm^3
# Si number density = 30.125484 Si / 1000 Ang^3
#
#
#
# Elastic Constant Matrix: (Units=GPa)
#
#
# Indices 1 2 3 4 5 6 
#
# 1 341.6795 23.7365 104.3029 0.0000 86.4113 0.0000
# 2 23.7365 98.3948 20.2776 0.0000 1.2913 0.0000
# 3 104.3029 20.2776 170.7905 0.0000 72.6263 0.0000
# 4 0.0000 0.0000 0.0000 24.6493 0.0000 11.4439
# 5 86.4113 1.2913 72.6263 0.0000 80.2488 0.0000
# 6 0.0000 0.0000 0.0000 11.4439 0.0000 56.1284
#
#
#
# Elastic Compliance Matrix: (Units=1/GPa)
#
#
# Indices 1 2 3 4 5 6 
#
# 1 0.004186 -0.000776 -0.000899 0.000000 -0.003682 0.000000
# 2 -0.000776 0.010682 -0.001750 0.000000 0.002248 0.000000
# 3 -0.000899 -0.001750 0.010060 0.000000 -0.008108 0.000000
# 4 0.000000 0.000000 0.000000 0.044811 0.000000 -0.009136
# 5 -0.003682 0.002248 -0.008108 0.000000 0.023728 0.000000
# 6 0.000000 0.000000 0.000000 -0.009136 0.000000 0.019679
#
#
# Mechanical properties :
#
#
# Convention : Reuss Voigt Hill
#
# Bulk Modulus (GPa) = 55.31762 100.83318 78.07540
# Shear Modulus (GPa) = 39.67606 63.04182 51.35894
#
# Velocity S-wave (km/s) = 3.63302 4.57950 4.13344
# Velocity P-wave (km/s) = 6.00006 7.84259 6.98237
#
# Compressibility (1/GPa) = 0.01807742
#
# Stress axis : x y z
#
# Youngs Moduli (GPa) = 238.88513 93.61938 99.40704
#
# Poissons Ratio (x) = 0.07268 0.08934
# Poissons Ratio (y) = 0.18545 0.17395
# Poissons Ratio (z) = 0.21469 0.16383
#
# Static dielectric constant tensor:
#      x y z
#    x 2.456670 0.000000 -0.017210 
#    y 0.000000 2.381630 0.000000 
#    z -0.017210 0.000000 2.370590 
# 
# From -- ./inp_files/23135.got.cif
#   From: 2010.05.17/outbox.cif.g08.bks.cpg/sg13_12_cif.got.tgz:23135.got - 2010.06.03 16:44:36.
