data_PCOD9238404
_publ_section_title
;
Structure prediction by ZEFSAII (Michael W. Deem and Ramdas Pophale) SiO2 
 PCOD9238404
Probable space group: P 2/C
;
_chemical_formula_sum "Si O2"
_cell_formula_units_Z 20
_cell_length_a 11.697288
_cell_length_b 5.096097
_cell_length_c 22.096205
_cell_angle_alpha 90.000000
_cell_angle_beta 36.224169
_cell_angle_gamma 90.000000
_cell_volume 778.374082
_symmetry_space_group_name_H-M "P 2/C"
_symmetry_group_IT_number 13
_symmetry_cell_setting 'monoclinic'
loop_
_space_group_symop_operation_xyz
x,y,z
-x,y,1/2-z
-x,-y,-z
x,-y,1/2+z
loop_
_atom_site_type_symbol
_atom_site_label
_atom_site_fract_x
_atom_site_fract_y
_atom_site_fract_z
Si Si1 0.680637 0.650711 0.217792
Si Si2 0.340005 0.909026 0.958162
Si Si3 0.161349 0.585213 0.595772
Si Si4 0.718692 0.368091 0.321146
Si Si5 0.186514 0.855061 0.894731
O O1 0.500000 0.625784 0.250000
O O2 0.641434 0.567269 0.302887
O O3 0.827643 0.437003 0.125231
O O4 0.748761 0.947932 0.185398
O O5 0.195094 0.685547 0.046077
O O6 0.258400 0.184592 0.015669
O O7 0.556101 0.856217 0.889648
O O8 0.332808 0.873845 0.888781
O O9 0.262766 0.543904 0.617558
O O10 0.941197 0.669435 0.705000
O O11 0.000000 0.000000 0.000000
#
# Coordination Sequence:
#
# PCOD9238404 Si02
#       5
#     4   4   4   4   4
#     4  12  25  44  68 101 136 181 233 281 355 416
#     4  12  25  47  72 106 145 186 237 294 355 420
#     4  11  27  46  72 110 138 190 240 290 353 425
#     4  11  26  47  75 102 149 186 237 296 353 421
#     4  12  25  44  70 101 139 182 234 292 348 421
#
# _framework density 25.694585
#
# number of rings (size 3 to 8) (size 9 to 14) (size 15 to 20)
#    0.000    0.400    2.000    6.000    0.000    6.400 
#    0.000    0.000    0.000    0.000    0.000    0.000 
#    0.000    0.000    0.000    0.000    0.000    0.000 
#
# Total GULP energy -112127.260673 kJ/mol
# GULP energy per Si atom -5606.363034 kJ/mol
# Density = 2.563610 g / cm^3
# Si number density = 25.694585 Si / 1000 Ang^3
#
#
#
# Elastic Constant Matrix: (Units=GPa)
#
#
# Indices 1 2 3 4 5 6 
#
# 1 129.3905 27.1343 -2.4057 0.0000 13.2190 0.0000
# 2 27.1343 96.3605 42.2520 0.0000 10.4916 0.0000
# 3 -2.4057 42.2520 90.9610 0.0000 -16.4601 0.0000
# 4 0.0000 0.0000 0.0000 34.3314 0.0000 7.7413
# 5 13.2190 10.4916 -16.4601 0.0000 56.9455 0.0000
# 6 0.0000 0.0000 0.0000 7.7413 0.0000 23.8709
#
#
#
# Elastic Compliance Matrix: (Units=1/GPa)
#
#
# Indices 1 2 3 4 5 6 
#
# 1 0.008462 -0.002870 0.001369 0.000000 -0.001040 0.000000
# 2 -0.002870 0.015130 -0.007901 0.000000 -0.004405 0.000000
# 3 0.001369 -0.007901 0.015729 0.000000 0.005684 0.000000
# 4 0.000000 0.000000 0.000000 0.031426 0.000000 -0.010191
# 5 -0.001040 -0.004405 0.005684 0.000000 0.020257 0.000000
# 6 0.000000 0.000000 0.000000 -0.010191 0.000000 0.045197
#
#
# Mechanical properties :
#
#
# Convention : Reuss Voigt Hill
#
# Bulk Modulus (GPa) = 48.74162 50.07479 49.40821
# Shear Modulus (GPa) = 30.89415 39.67833 35.28624
#
# Velocity S-wave (km/s) = 3.47127 3.93393 3.70982
# Velocity P-wave (km/s) = 5.92259 6.33760 6.13361
#
# Compressibility (1/GPa) = 0.02051635
#
# Stress axis : x y z
#
# Youngs Moduli (GPa) = 118.17479 66.09481 63.57858
#
# Poissons Ratio (x) = 0.18967 -0.08701
# Poissons Ratio (y) = 0.33913 0.50233
# Poissons Ratio (z) = -0.16173 0.52221
#
# Static dielectric constant tensor:
#      x y z
#    x 2.036710 0.000000 -0.071960 
#    y 0.000000 1.972660 0.000000 
#    z -0.071960 0.000000 2.038940 
# 
# From -- ./inp_files/77356.got.cif
#   From: 2010.05.17/outbox.cif.g08.bks.cpg/sg13_39_cif.got.tgz:77356.got - 2010.06.03 16:44:36.
