data_PCOD9238560
_publ_section_title
;
Structure prediction by ZEFSAII (Michael W. Deem and Ramdas Pophale) SiO2 
 PCOD9238560
Probable space group: P 2/C
;
_chemical_formula_sum "Si O2"
_cell_formula_units_Z 14
_cell_length_a 8.973591
_cell_length_b 11.953605
_cell_length_c 5.012961
_cell_angle_alpha 90.000000
_cell_angle_beta 81.266922
_cell_angle_gamma 90.000000
_cell_volume 531.489936
_symmetry_space_group_name_H-M "P 2/C"
_symmetry_group_IT_number 13
_symmetry_cell_setting 'monoclinic'
loop_
_space_group_symop_operation_xyz
x,y,z
-x,y,1/2-z
-x,-y,-z
x,-y,1/2+z
loop_
_atom_site_type_symbol
_atom_site_label
_atom_site_fract_x
_atom_site_fract_y
_atom_site_fract_z
Si Si1 0.000000 0.078775 0.250000
Si Si2 0.754553 0.759886 0.971203
Si Si3 0.000000 0.379299 0.750000
Si Si4 0.702722 0.563967 0.609036
Si Si5 0.500000 0.916121 0.250000
O O1 0.852627 0.154321 0.274329
O O2 0.000000 0.000000 0.500000
O O3 0.674214 0.675421 0.785679
O O4 0.641370 0.832157 0.180053
O O5 0.879880 0.694933 0.113549
O O6 0.116365 0.433648 0.500563
O O7 0.651031 0.533326 0.327061
O O8 0.500000 0.000000 0.500000
#
# Coordination Sequence:
#
# PCOD9238560 Si02
#       5
#     2   4   2   4   2
#     4  12  25  41  70 104 136 178 247 313 358 414
#     4  12  27  47  77 110 151 194 252 309 370 446
#     4  12  23  43  76 114 154 188 249 303 366 432
#     4  12  25  42  74 116 155 195 241 303 377 444
#     4  12  32  56  78 104 150 206 250 308 388 446
#
# _framework density 26.341045999999999
#
# number of rings (size 3 to 8) (size 9 to 14) (size 15 to 20)
#    0.000    0.000    5.714    3.429    4.000    0.000 
#    0.000    1.429    0.000    0.000    0.000    0.000 
#    0.000    0.000    0.000    0.000    0.000    0.000 
#
# Total GULP energy -78394.336355 kJ/mol
# GULP energy per Si atom -5599.595454 kJ/mol
# Density = 2.628109 g / cm^3
# Si number density = 26.341046 Si / 1000 Ang^3
#
#
#
# Elastic Constant Matrix: (Units=GPa)
#
#
# Indices 1 2 3 4 5 6 
#
# 1 151.2360 44.9364 54.0191 0.0000 -19.5870 0.0000
# 2 44.9364 112.9424 76.4072 0.0000 -5.7481 0.0000
# 3 54.0191 76.4072 219.8560 0.0000 2.5433 0.0000
# 4 0.0000 0.0000 0.0000 44.4125 0.0000 -27.6271
# 5 -19.5870 -5.7481 2.5433 0.0000 44.4686 0.0000
# 6 0.0000 0.0000 0.0000 -27.6271 0.0000 11.2465
#
#
#
# Elastic Compliance Matrix: (Units=1/GPa)
#
#
# Indices 1 2 3 4 5 6 
#
# 1 0.008163 -0.002213 -0.001276 0.000000 0.003383 0.000000
# 2 -0.002213 0.012310 -0.003744 0.000000 0.000831 0.000000
# 3 -0.001276 -0.003744 0.006179 0.000000 -0.001399 0.000000
# 4 0.000000 0.000000 0.000000 -0.042637 0.000000 -0.104739
# 5 0.003383 0.000831 -0.001399 0.000000 0.024165 0.000000
# 6 0.000000 0.000000 0.000000 -0.104739 0.000000 -0.168375
#
#
# Mechanical properties :
#
#
# Convention : Reuss Voigt Hill
#
# Bulk Modulus (GPa) = 82.05315 92.75108 87.40212
# Shear Modulus (GPa) = -35.29406 40.60365 2.65479
#
# Velocity S-wave (km/s) = -3.66442 3.93040 1.00501
# Velocity P-wave (km/s) = 3.64883 7.47566 5.88215
#
# Compressibility (1/GPa) = 0.01218722
#
# Stress axis : x y z
#
# Youngs Moduli (GPa) = 122.49692 81.23804 161.83179
#
# Poissons Ratio (x) = 0.17975 0.20649
# Poissons Ratio (y) = 0.27104 0.60588
# Poissons Ratio (z) = 0.15630 0.30415
#
# Static dielectric constant tensor:
#      x y z
#    x 2.120330 0.000000 -0.006180 
#    y 0.000000 2.109730 0.000000 
#    z -0.006180 0.000000 2.053250 
# 
# From -- ./inp_files/877.got.cif
#   From: 2010.05.17/outbox.cif.g08.bks.cpg/sg13_1_cif.got.tgz:877.got - 2010.06.03 16:44:36.
