data_PCOD9238636
_publ_section_title
;
Structure prediction by ZEFSAII (Michael W. Deem and Ramdas Pophale) SiO2 
 PCOD9238636
Probable space group: P 2/C
;
_chemical_formula_sum "Si O2"
_cell_formula_units_Z 14
_cell_length_a 6.946556
_cell_length_b 8.347851
_cell_length_c 9.120860
_cell_angle_alpha 90.000000
_cell_angle_beta 109.872178
_cell_angle_gamma 90.000000
_cell_volume 497.413140
_symmetry_space_group_name_H-M "P 2/C"
_symmetry_group_IT_number 13
_symmetry_cell_setting 'monoclinic'
loop_
_space_group_symop_operation_xyz
x,y,z
-x,y,1/2-z
-x,-y,-z
x,-y,1/2+z
loop_
_atom_site_type_symbol
_atom_site_label
_atom_site_fract_x
_atom_site_fract_y
_atom_site_fract_z
Si Si1 0.829871 0.719722 0.797639
Si Si2 0.500000 0.494139 0.750000
Si Si3 0.778814 0.912636 0.523154
Si Si4 0.243224 0.775470 0.303609
O O1 0.686757 0.606158 0.853042
O O2 0.000000 0.620388 0.750000
O O3 0.697131 0.800778 0.635235
O O4 0.977639 0.859522 0.900788
O O5 0.613466 0.379212 0.664138
O O6 0.723342 0.087674 0.566533
O O7 0.719254 0.857154 0.347228
O O8 0.000000 0.739776 0.250000
#
# Coordination Sequence:
#
# PCOD9238636 Si02
#       4
#     4   2   4   4
#     4   8  21  46  65  99 141 186 206 291 340 419
#     4  12  26  42  70 110 142 172 238 278 356 396
#     4   9  23  47  76  90 148 176 236 271 361 385
#     4  12  24  46  72 108 127 190 229 296 319 429
#
# _framework density 28.145616
#
# number of rings (size 3 to 8) (size 9 to 14) (size 15 to 20)
#    1.714    0.000    2.857    1.714    0.000    4.571 
#    5.143    0.000    0.000    1.714    0.000    0.000 
#    0.000    0.000    0.000    0.000    0.000    0.000 
#
# Total GULP energy -78174.087082 kJ/mol
# GULP energy per Si atom -5583.863363 kJ/mol
# Density = 2.808156 g / cm^3
# Si number density = 28.145616 Si / 1000 Ang^3
#
#
#
# Elastic Constant Matrix: (Units=GPa)
#
#
# Indices 1 2 3 4 5 6 
#
# 1 209.1976 112.2989 52.1749 0.0000 5.3316 0.0000
# 2 112.2989 189.7674 47.3726 0.0000 -11.2404 0.0000
# 3 52.1749 47.3726 142.4564 0.0000 -26.2170 0.0000
# 4 0.0000 0.0000 0.0000 10.1197 0.0000 -10.3232
# 5 5.3316 -11.2404 -26.2170 0.0000 38.3655 0.0000
# 6 0.0000 0.0000 0.0000 -10.3232 0.0000 87.0873
#
#
#
# Elastic Compliance Matrix: (Units=1/GPa)
#
#
# Indices 1 2 3 4 5 6 
#
# 1 0.007672 -0.004240 -0.002087 0.000000 -0.003735 0.000000
# 2 -0.004240 0.008097 -0.000680 0.000000 0.002497 0.000000
# 3 -0.002087 -0.000680 0.009182 0.000000 0.006365 0.000000
# 4 0.000000 0.000000 0.000000 0.112410 0.000000 0.013325
# 5 -0.003735 0.002497 0.006365 0.000000 0.031665 0.000000
# 6 0.000000 0.000000 0.000000 0.013325 0.000000 0.013062
#
#
# Mechanical properties :
#
#
# Convention : Reuss Voigt Hill
#
# Bulk Modulus (GPa) = 91.44563 107.23493 99.34028
# Shear Modulus (GPa) = 25.03156 49.08616 37.05886
#
# Velocity S-wave (km/s) = 2.98545 4.18066 3.63255
# Velocity P-wave (km/s) = 6.66668 7.84134 7.27775
#
# Compressibility (1/GPa) = 0.01093546
#
# Stress axis : x y z
#
# Youngs Moduli (GPa) = 130.34132 123.50948 108.91309
#
# Poissons Ratio (x) = 0.52372 0.22732
# Poissons Ratio (y) = 0.55269 0.07405
# Poissons Ratio (z) = 0.27205 0.08397
#
# Static dielectric constant tensor:
#      x y z
#    x 2.302010 0.000000 -0.008630 
#    y 0.000000 2.221830 0.000000 
#    z -0.008630 0.000000 2.176940 
# 
# From -- ./inp_files/10731.got.cif
#   From: 2010.05.17/outbox.cif.g08.bks.cpg/sg13_6_cif.got.tgz:10731.got - 2010.06.03 16:44:36.
