data_PCOD9238876
_publ_section_title
;
Structure prediction by ZEFSAII (Michael W. Deem and Ramdas Pophale) SiO2 
 PCOD9238876
Probable space group: P 2/C
;
_chemical_formula_sum "Si O2"
_cell_formula_units_Z 28
_cell_length_a 9.000000
_cell_length_b 6.000000
_cell_length_c 30.000000
_cell_angle_alpha 90.000000
_cell_angle_beta 120.000000
_cell_angle_gamma 90.000000
_cell_volume 1402.961154
_symmetry_space_group_name_H-M "P 2/C"
_symmetry_group_IT_number 13
_symmetry_cell_setting 'monoclinic'
loop_
_space_group_symop_operation_xyz
x,y,z
-x,y,1/2-z
-x,-y,-z
x,-y,1/2+z
loop_
_atom_site_type_symbol
_atom_site_label
_atom_site_fract_x
_atom_site_fract_y
_atom_site_fract_z
Si Si1 0.078762 0.060436 0.934527
Si Si2 0.554052 0.888948 0.705524
Si Si3 0.958089 0.563127 0.351921
Si Si4 0.286636 0.325831 0.431687
Si Si5 0.660345 0.612402 0.238774
Si Si6 0.774941 0.743990 0.895549
Si Si7 0.686889 0.610684 0.975957
O O1 0.978997 0.221631 0.885903
O O2 0.211838 0.919801 0.924702
O O3 0.193596 0.191762 0.987158
O O4 0.932495 0.903073 0.932721
O O5 0.500000 0.890091 0.750000
O O6 0.643155 0.638413 0.713462
O O7 0.392189 0.873562 0.647525
O O8 0.640524 0.138923 0.712423
O O9 0.845054 0.610865 0.291450
O O10 0.845783 0.390284 0.363863
O O11 0.152040 0.462291 0.380556
O O12 0.279872 0.421304 0.481737
O O13 0.483726 0.338118 0.447050
O O14 0.500000 0.612214 0.250000
O O15 0.734899 0.583756 0.931425
#
# Coordination Sequence:
#
# PCOD9238876 Si02
#       7
#     4   4   4   4   4   4   4
#     4  10  20  34  56  82 115 149 194 241 296 347
#     4  10  19  33  54  85 117 149 190 243 304 357
#     4  10  20  34  56  86 110 148 193 240 296 356
#     4   9  21  38  56  79 112 161 196 236 288 367
#     4  10  18  32  55  84 115 149 189 244 298 357
#     4  11  21  33  55  89 114 149 192 253 298 351
#     4  10  21  38  55  80 119 155 196 239 294 358
#
# _framework density 19.957787
#
# number of rings (size 3 to 8) (size 9 to 14) (size 15 to 20)
#    0.000    2.000    2.857    2.571    2.000    6.286 
#    0.000    0.000    0.000    0.857    0.000    0.000 
#    0.000    0.000    0.000    0.000    0.000    0.000 
#
# Total GULP energy -155956.240398 kJ/mol
# GULP energy per Si atom -5569.865729 kJ/mol
# Density = 1.991236 g / cm^3
# Si number density = 19.957787 Si / 1000 Ang^3
#
#
#
# Elastic Constant Matrix: (Units=GPa)
#
#
# Indices 1 2 3 4 5 6 
#
# 1 40.4466 15.7770 40.8431 0.0000 24.4063 0.0000
# 2 15.7770 108.7834 19.0451 0.0000 14.8675 0.0000
# 3 40.8431 19.0451 68.0165 0.0000 45.4707 0.0000
# 4 0.0000 0.0000 0.0000 19.4993 0.0000 3.9310
# 5 24.4063 14.8675 45.4707 0.0000 31.4554 0.0000
# 6 0.0000 0.0000 0.0000 3.9310 0.0000 6.8146
#
#
#
# Elastic Compliance Matrix: (Units=1/GPa)
#
#
# Indices 1 2 3 4 5 6 
#
# 1 0.144389 -0.014849 -0.367252 0.000000 0.425872 0.000000
# 2 -0.014849 0.011614 0.048566 0.000000 -0.064173 0.000000
# 3 -0.367252 0.048566 1.383140 0.000000 -1.737415 0.000000
# 4 0.000000 0.000000 0.000000 0.058032 0.000000 -0.033476
# 5 0.425872 -0.064173 -1.737415 0.000000 2.243225 0.000000
# 6 0.000000 0.000000 0.000000 -0.033476 0.000000 0.166055
#
#
# Mechanical properties :
#
#
# Convention : Reuss Voigt Hill
#
# Bulk Modulus (GPa) = 1.14670 40.95300 21.04985
# Shear Modulus (GPa) = 1.00721 20.99263 10.99992
#
# Velocity S-wave (km/s) = 0.71117 3.24674 2.35022
# Velocity P-wave (km/s) = 1.11811 5.88383 4.23495
#
# Compressibility (1/GPa) = 0.87207110
#
# Stress axis : x y z
#
# Youngs Moduli (GPa) = 6.92574 86.10211 0.72299
#
# Poissons Ratio (x) = 1.27854 0.26552
# Poissons Ratio (y) = 0.10284 -0.03511
# Poissons Ratio (z) = 2.54350 -4.18161
#
# Static dielectric constant tensor:
#      x y z
#    x 1.701180 0.000000 -0.002300 
#    y 0.000000 1.760990 0.000000 
#    z -0.002300 0.000000 1.696050 
# 
# From -- ./inp_files/95707.got.cif
#   From: 2010.05.17/outbox.ucp.g08.bks.cvg/sg13_48_cif.got.tgz:95707.got - 2010.06.11 12:23:55.
