data_PCOD9238286
_publ_section_title
;
Structure prediction by ZEFSAII (Michael W. Deem and Ramdas Pophale) SiO2 
 PCOD9238286
Probable space group: P 2/C
;
_chemical_formula_sum "Si O2"
_cell_formula_units_Z 22
_cell_length_a 14.271720
_cell_length_b 5.427161
_cell_length_c 11.700118
_cell_angle_alpha 90.000000
_cell_angle_beta 96.279930
_cell_angle_gamma 90.000000
_cell_volume 900.793734
_symmetry_space_group_name_H-M "P 2/C"
_symmetry_group_IT_number 13
_symmetry_cell_setting 'monoclinic'
loop_
_space_group_symop_operation_xyz
x,y,z
-x,y,1/2-z
-x,-y,-z
x,-y,1/2+z
loop_
_atom_site_type_symbol
_atom_site_label
_atom_site_fract_x
_atom_site_fract_y
_atom_site_fract_z
Si Si1 0.855034 0.939339 0.783207
Si Si2 0.089099 0.557478 0.091352
Si Si3 0.596393 0.431732 0.581894
Si Si4 0.332335 0.090662 0.093670
Si Si5 0.244628 0.716442 0.930618
Si Si6 0.500000 0.078843 0.750000
O O1 0.902593 0.680415 0.825222
O O2 0.758693 0.933720 0.842020
O O3 0.821796 0.910704 0.647339
O O4 0.908406 0.187712 0.833051
O O5 0.174148 0.585853 0.010359
O O6 0.000000 0.500000 0.000000
O O7 0.500000 0.500000 0.500000
O O8 0.661402 0.309463 0.493639
O O9 0.683557 0.587132 0.649952
O O10 0.559827 0.246690 0.672894
O O11 0.428711 0.090286 0.173302
O O12 0.326051 0.848349 0.014941
#
# Coordination Sequence:
#
# PCOD9238286 Si02
#       6
#     4   4   4   4   4   2
#     4  11  26  45  81 104 148 192 238 305 380 433
#     4  11  26  52  78 111 144 186 242 308 372 456
#     4  12  26  42  66 100 144 195 251 305 361 435
#     4  11  25  46  63 103 142 193 248 309 357 436
#     4  11  26  46  70 107 145 190 245 303 370 440
#     4  12  26  40  68  96 144 200 250 300 370 424
#
# _framework density 24.422905
#
# number of rings (size 3 to 8) (size 9 to 14) (size 15 to 20)
#    0.000    0.727    3.636    2.182   12.727    0.727 
#    0.000    1.818    0.000    0.000    0.000    0.000 
#    0.000    0.000    0.000    0.000    0.000    0.000 
#
# Total GULP energy -122775.041315 kJ/mol
# GULP energy per Si atom -5580.683696 kJ/mol
# Density = 2.436732 g / cm^3
# Si number density = 24.422905 Si / 1000 Ang^3
#
#
#
# Elastic Constant Matrix: (Units=GPa)
#
#
# Indices 1 2 3 4 5 6 
#
# 1 101.2569 30.1709 18.2784 0.0000 13.3693 0.0000
# 2 30.1709 110.3124 19.1133 0.0000 10.5508 0.0000
# 3 18.2784 19.1133 70.9495 0.0000 9.7604 0.0000
# 4 0.0000 0.0000 0.0000 35.7642 0.0000 24.7494
# 5 13.3693 10.5508 9.7604 0.0000 41.0349 0.0000
# 6 0.0000 0.0000 0.0000 24.7494 0.0000 22.6715
#
#
#
# Elastic Compliance Matrix: (Units=1/GPa)
#
#
# Indices 1 2 3 4 5 6 
#
# 1 0.011308 -0.002520 -0.001878 0.000000 -0.002590 0.000000
# 2 -0.002520 0.010216 -0.001917 0.000000 -0.001350 0.000000
# 3 -0.001878 -0.001917 0.015448 0.000000 -0.002570 0.000000
# 4 0.000000 0.000000 0.000000 0.114332 0.000000 -0.124810
# 5 -0.002590 -0.001350 -0.002570 0.000000 0.026171 0.000000
# 6 0.000000 0.000000 0.000000 -0.124810 0.000000 0.180357
#
#
# Mechanical properties :
#
#
# Convention : Reuss Voigt Hill
#
# Bulk Modulus (GPa) = 41.08186 46.40487 43.74336
# Shear Modulus (GPa) = 13.20740 34.22452 23.71596
#
# Velocity S-wave (km/s) = 2.32799 3.74749 3.11955
# Velocity P-wave (km/s) = 4.90750 6.14547 5.56104
#
# Compressibility (1/GPa) = 0.02434164
#
# Stress axis : x y z
#
# Youngs Moduli (GPa) = 88.43655 97.88991 64.73176
#
# Poissons Ratio (x) = 0.24664 0.12157
# Poissons Ratio (y) = 0.22282 0.12411
# Poissons Ratio (z) = 0.16609 0.18768
#
# Static dielectric constant tensor:
#      x y z
#    x 1.912770 0.000000 0.001150 
#    y 0.000000 2.197950 0.000000 
#    z 0.001150 0.000000 1.902750 
# 
# From -- ./inp_files/35329.got.cif
#   From: 2010.05.17/outbox.cif.g08.bks.cpg/sg13_18_cif.got.tgz:35329.got - 2010.06.03 16:44:36.
