data_PCOD9238918
_publ_section_title
;
Structure prediction by ZEFSAII (Michael W. Deem and Ramdas Pophale) SiO2 
 PCOD9238918
Probable space group: P 2/C
;
_chemical_formula_sum "Si O2"
_cell_formula_units_Z 28
_cell_length_a 30.000000
_cell_length_b 9.000000
_cell_length_c 30.000000
_cell_angle_alpha 90.000000
_cell_angle_beta 10.000000
_cell_angle_gamma 90.000000
_cell_volume 1406.550239
_symmetry_space_group_name_H-M "P 2/C"
_symmetry_group_IT_number 13
_symmetry_cell_setting 'monoclinic'
loop_
_space_group_symop_operation_xyz
x,y,z
-x,y,1/2-z
-x,-y,-z
x,-y,1/2+z
loop_
_atom_site_type_symbol
_atom_site_label
_atom_site_fract_x
_atom_site_fract_y
_atom_site_fract_z
Si Si1 0.243613 0.796494 0.246548
Si Si2 0.039298 0.051470 0.614203
Si Si3 0.543116 0.144937 0.592204
Si Si4 0.601031 0.492527 0.757617
Si Si5 0.770342 0.858547 0.768989
Si Si6 0.894739 0.358377 0.705317
Si Si7 0.234766 0.700988 0.986595
O O1 0.173150 0.675503 0.278957
O O2 0.045587 0.792192 0.483360
O O3 0.213172 0.964561 0.257056
O O4 0.543467 0.787522 0.962954
O O5 0.141189 0.145791 0.555879
O O6 0.958445 0.192297 0.662279
O O7 0.281005 0.954832 0.356256
O O8 0.788905 0.947275 0.871207
O O9 0.466824 0.316042 0.680831
O O10 0.659714 0.158924 0.427496
O O11 0.685514 0.575657 0.628478
O O12 0.856283 0.534241 0.535247
O O13 0.348949 0.572261 0.027789
O O14 0.500000 0.732175 0.750000
O O15 0.000000 0.651362 0.250000
#
# Coordination Sequence:
#
# PCOD9238918 Si02
#       7
#     4   4   4   4   4   4   4
#     4  10  20  34  57  88 120 170 223 267 311 349
#     4  11  23  39  70  92 121 161 210 260 304 362
#     4  12  23  42  61  98 131 164 210 262 316 377
#     4  11  25  41  66  92 130 170 200 251 328 384
#     4  10  21  33  56  89 125 165 212 278 315 345
#     4  11  21  41  62  92 122 173 226 256 295 382
#     4  11  23  44  70  96 121 155 204 251 306 387
#
# _framework density 19.906860999999999
#
# number of rings (size 3 to 8) (size 9 to 14) (size 15 to 20)
#    0.000    1.143    1.429    6.857    4.000    0.000 
#    0.000    7.143    0.000    1.714    0.000    0.000 
#    0.000    0.000    0.000    0.000    0.000    0.000 
#
# Total GULP energy -156283.746439 kJ/mol
# GULP energy per Si atom -5581.562373 kJ/mol
# Density = 1.986155 g / cm^3
# Si number density = 19.906861 Si / 1000 Ang^3
#
#
#
# Elastic Constant Matrix: (Units=GPa)
#
#
# Indices 1 2 3 4 5 6 
#
# 1 53.1000 23.2046 14.3247 0.0000 10.9741 0.0000
# 2 23.2046 130.6005 57.9733 0.0000 9.4718 0.0000
# 3 14.3247 57.9733 171.7917 0.0000 19.8914 0.0000
# 4 0.0000 0.0000 0.0000 42.5955 0.0000 1.7727
# 5 10.9741 9.4718 19.8914 0.0000 41.8876 0.0000
# 6 0.0000 0.0000 0.0000 1.7727 0.0000 9.3068
#
#
#
# Elastic Compliance Matrix: (Units=1/GPa)
#
#
# Indices 1 2 3 4 5 6 
#
# 1 0.021331 -0.003410 -0.000074 0.000000 -0.004782 0.000000
# 2 -0.003410 0.009567 -0.002960 0.000000 0.000136 0.000000
# 3 -0.000074 -0.002960 0.007139 0.000000 -0.002701 0.000000
# 4 0.000000 0.000000 0.000000 0.023664 0.000000 -0.004507
# 5 -0.004782 0.000136 -0.002701 0.000000 0.026378 0.000000
# 6 0.000000 0.000000 0.000000 -0.004507 0.000000 0.108307
#
#
# Mechanical properties :
#
#
# Convention : Reuss Voigt Hill
#
# Bulk Modulus (GPa) = 39.76419 60.72193 50.24306
# Shear Modulus (GPa) = 22.97190 36.09062 29.53126
#
# Velocity S-wave (km/s) = 3.40070 4.26252 3.85576
# Velocity P-wave (km/s) = 5.95299 7.40234 6.71688
#
# Compressibility (1/GPa) = 0.02514826
#
# Stress axis : x y z
#
# Youngs Moduli (GPa) = 46.88014 104.52728 140.07975
#
# Poissons Ratio (x) = 0.35647 0.01038
# Poissons Ratio (y) = 0.15987 0.41461
# Poissons Ratio (z) = 0.00347 0.30938
#
# Static dielectric constant tensor:
#      x y z
#    x 1.819500 0.000000 -0.045960 
#    y 0.000000 1.689720 0.000000 
#    z -0.045960 0.000000 1.684810 
# 
# From -- ./inp_files/98034.got.cif
#   From: 2010.05.17/outbox.ucp.g08.bks.cvg/sg13_50_cif.got.tgz:98034.got - 2010.06.11 12:23:55.
