data_PCOD9238947
_publ_section_title
;
Structure prediction by ZEFSAII (Michael W. Deem and Ramdas Pophale) SiO2 
 PCOD9238947
Probable space group: P 2/C
;
_chemical_formula_sum "Si O2"
_cell_formula_units_Z 28
_cell_length_a 12.000000
_cell_length_b 15.000000
_cell_length_c 9.000000
_cell_angle_alpha 90.000000
_cell_angle_beta 120.000000
_cell_angle_gamma 90.000000
_cell_volume 1402.961154
_symmetry_space_group_name_H-M "P 2/C"
_symmetry_group_IT_number 13
_symmetry_cell_setting 'monoclinic'
loop_
_space_group_symop_operation_xyz
x,y,z
-x,y,1/2-z
-x,-y,-z
x,-y,1/2+z
loop_
_atom_site_type_symbol
_atom_site_label
_atom_site_fract_x
_atom_site_fract_y
_atom_site_fract_z
Si Si1 0.783655 0.885228 0.822301
Si Si2 0.433045 0.375803 0.558563
Si Si3 0.864912 0.937416 0.563065
Si Si4 0.970145 0.211355 0.911897
Si Si5 0.641972 0.285033 0.278287
Si Si6 0.677496 0.436123 0.528598
Si Si7 0.932523 0.419577 0.864152
O O1 0.772744 0.911870 0.640905
O O2 0.672918 0.820264 0.808841
O O3 0.898820 0.813957 0.918249
O O4 0.822098 0.971675 0.948757
O O5 0.500000 0.335211 0.750000
O O6 0.351683 0.314332 0.391083
O O7 0.549760 0.406110 0.529949
O O8 0.355234 0.465069 0.553630
O O9 0.879289 0.861280 0.441402
O O10 0.000000 0.950201 0.750000
O O11 0.935964 0.315314 0.919097
O O12 0.000000 0.199391 0.750000
O O13 0.500000 0.293915 0.250000
O O14 0.713701 0.360361 0.429160
O O15 0.787114 0.443512 0.725169
O O16 0.000000 0.417539 0.750000
O O17 0.000000 0.500000 0.000000
#
# Coordination Sequence:
#
# PCOD9238947 Si02
#       7
#     4   4   4   4   4   4   4
#     4  11  21  37  64  87 121 157 203 264 308 372
#     4  10  21  37  64  86 110 160 217 263 296 360
#     4  10  21  37  61  92 118 160 208 249 305 380
#     4  10  20  38  60  88 123 167 203 245 303 374
#     4  10  22  40  62  90 118 159 212 265 321 367
#     4  10  21  38  60  84 121 164 211 254 299 369
#     4  11  26  38  55  89 132 172 199 248 314 370
#
# _framework density 19.957787
#
# number of rings (size 3 to 8) (size 9 to 14) (size 15 to 20)
#    0.000    1.714    0.000    6.857    6.000    2.857 
#    0.000    2.143    0.000    0.000    0.000    0.000 
#    0.000    0.000    0.000    0.000    0.000    0.000 
#
# Total GULP energy -155904.027976 kJ/mol
# GULP energy per Si atom -5568.000999 kJ/mol
# Density = 1.991236 g / cm^3
# Si number density = 19.957787 Si / 1000 Ang^3
#
#
#
# Elastic Constant Matrix: (Units=GPa)
#
#
# Indices 1 2 3 4 5 6 
#
# 1 38.6805 26.5270 21.0500 0.0000 -8.1357 0.0000
# 2 26.5270 154.4578 75.3194 0.0000 -7.8613 0.0000
# 3 21.0500 75.3194 120.0051 0.0000 -17.7084 0.0000
# 4 0.0000 0.0000 0.0000 25.6305 0.0000 -4.4063
# 5 -8.1357 -7.8613 -17.7084 0.0000 35.9098 0.0000
# 6 0.0000 0.0000 0.0000 -4.4063 0.0000 32.9753
#
#
#
# Elastic Compliance Matrix: (Units=1/GPa)
#
#
# Indices 1 2 3 4 5 6 
#
# 1 0.030822 -0.003982 -0.002163 0.000000 0.005045 0.000000
# 2 -0.003982 0.009872 -0.005729 0.000000 -0.001566 0.000000
# 3 -0.002163 -0.005729 0.012996 0.000000 0.004665 0.000000
# 4 0.000000 0.000000 0.000000 0.039933 0.000000 0.005336
# 5 0.005045 -0.001566 0.004665 0.000000 0.030948 0.000000
# 6 0.000000 0.000000 0.000000 0.005336 0.000000 0.031039
#
#
# Mechanical properties :
#
#
# Convention : Reuss Voigt Hill
#
# Bulk Modulus (GPa) = 33.39667 62.10403 47.75035
# Shear Modulus (GPa) = 26.40787 31.58626 28.99706
#
# Velocity S-wave (km/s) = 3.64151 3.98257 3.81585
# Velocity P-wave (km/s) = 5.86948 7.23416 6.58726
#
# Compressibility (1/GPa) = 0.02994310
#
# Stress axis : x y z
#
# Youngs Moduli (GPa) = 32.44468 101.29773 76.94603
#
# Poissons Ratio (x) = 0.40337 0.16641
# Poissons Ratio (y) = 0.12920 0.44079
# Poissons Ratio (z) = 0.07017 0.58029
#
# Static dielectric constant tensor:
#      x y z
#    x 1.849050 0.000000 0.037750 
#    y 0.000000 1.741460 0.000000 
#    z 0.037750 0.000000 1.746720 
# 
# From -- ./inp_files/16850.got.cif
#   From: 2010.05.17/outbox.ucp.g08.bks.cvg/sg13_9_cif.got.tgz:16850.got - 2010.06.11 12:23:55.
