data_PCOD9238763
_publ_section_title
;
Structure prediction by ZEFSAII (Michael W. Deem and Ramdas Pophale) SiO2 
 PCOD9238763
Probable space group: P 2/C
;
_chemical_formula_sum "Si O2"
_cell_formula_units_Z 16
_cell_length_a 10.250086
_cell_length_b 4.740989
_cell_length_c 17.593824
_cell_angle_alpha 90.000000
_cell_angle_beta 129.549228
_cell_angle_gamma 90.000000
_cell_volume 659.257216
_symmetry_space_group_name_H-M "P 2/C"
_symmetry_group_IT_number 13
_symmetry_cell_setting 'monoclinic'
loop_
_space_group_symop_operation_xyz
x,y,z
-x,y,1/2-z
-x,-y,-z
x,-y,1/2+z
loop_
_atom_site_type_symbol
_atom_site_label
_atom_site_fract_x
_atom_site_fract_y
_atom_site_fract_z
Si Si1 0.393302 0.530300 0.638730
Si Si2 0.905357 0.837316 0.396860
Si Si3 0.613824 0.065563 0.970114
Si Si4 0.978354 0.689717 0.652731
O O1 0.500000 0.628572 0.750000
O O2 0.243400 0.341202 0.619239
O O3 0.479701 0.304711 0.614691
O O4 0.354456 0.797473 0.572125
O O5 0.880938 0.089773 0.327172
O O6 0.994979 0.401519 0.612408
O O7 0.000000 0.000000 0.500000
O O8 0.500000 0.000000 0.000000
O O9 0.794001 0.183205 0.065822
O O10 0.000000 0.645188 0.750000
#
# Coordination Sequence:
#
# PCOD9238763 Si02
#       4
#     4   4   4   4
#     4  12  28  48  79 111 152 204 253 313 382 448
#     4  12  26  49  80 111 150 199 266 317 367 453
#     4  12  28  49  76 112 157 199 249 312 384 459
#     4  12  28  47  80 113 154 202 249 313 387 446
#
# _framework density 24.269736000000002
#
# number of rings (size 3 to 8) (size 9 to 14) (size 15 to 20)
#    0.000    0.000    2.500    6.000    7.000    0.000 
#    0.000    0.000    0.000    0.000    0.000    0.000 
#    0.000    0.000    0.000    0.000    0.000    0.000 
#
# Total GULP energy -89664.998163 kJ/mol
# GULP energy per Si atom -5604.062385 kJ/mol
# Density = 2.421450 g / cm^3
# Si number density = 24.269736 Si / 1000 Ang^3
#
#
#
# Elastic Constant Matrix: (Units=GPa)
#
#
# Indices 1 2 3 4 5 6 
#
# 1 108.2249 61.0049 84.2011 0.0000 -38.5414 0.0000
# 2 61.0049 192.4075 74.9645 0.0000 -26.9080 0.0000
# 3 84.2011 74.9645 160.1963 0.0000 -46.6265 0.0000
# 4 0.0000 0.0000 0.0000 34.2029 0.0000 -17.5422
# 5 -38.5414 -26.9080 -46.6265 0.0000 35.5253 0.0000
# 6 0.0000 0.0000 0.0000 -17.5422 0.0000 42.4456
#
#
#
# Elastic Compliance Matrix: (Units=1/GPa)
#
#
# Indices 1 2 3 4 5 6 
#
# 1 0.018925 -0.002224 -0.005535 0.000000 0.011582 0.000000
# 2 -0.002224 0.006666 -0.001914 0.000000 0.000123 0.000000
# 3 -0.005535 -0.001914 0.012747 0.000000 0.009275 0.000000
# 4 0.000000 0.000000 0.000000 0.037102 0.000000 0.015334
# 5 0.011582 0.000123 0.009275 0.000000 0.052982 0.000000
# 6 0.000000 0.000000 0.000000 0.015334 0.000000 0.029897
#
#
# Mechanical properties :
#
#
# Convention : Reuss Voigt Hill
#
# Bulk Modulus (GPa) = 52.65818 100.12998 76.39408
# Shear Modulus (GPa) = 27.17461 38.47863 32.82662
#
# Velocity S-wave (km/s) = 3.34981 3.98610 3.68173
# Velocity P-wave (km/s) = 6.05853 7.90772 7.04407
#
# Compressibility (1/GPa) = 0.01899040
#
# Stress axis : x y z
#
# Youngs Moduli (GPa) = 52.84037 150.02562 78.44788
#
# Poissons Ratio (x) = 0.33365 0.43424
# Poissons Ratio (y) = 0.11751 0.15017
# Poissons Ratio (z) = 0.29249 0.28719
#
# Static dielectric constant tensor:
#      x y z
#    x 1.995980 0.000000 0.051200 
#    y 0.000000 1.920220 0.000000 
#    z 0.051200 0.000000 1.937710 
# 
# From -- ./inp_files/31206.got.cif
#   From: 2010.05.17/outbox.cif.g08.bks.cpg/sg13_16_cif.got.tgz:31206.got - 2010.06.03 16:44:36.
