data_PCOD9238296
_publ_section_title
;
Structure prediction by ZEFSAII (Michael W. Deem and Ramdas Pophale) SiO2 
 PCOD9238296
Probable space group: P 2/C
;
_chemical_formula_sum "Si O2"
_cell_formula_units_Z 16
_cell_length_a 5.379859
_cell_length_b 8.990295
_cell_length_c 16.196587
_cell_angle_alpha 90.000000
_cell_angle_beta 127.845733
_cell_angle_gamma 90.000000
_cell_volume 618.602303
_symmetry_space_group_name_H-M "P 2/C"
_symmetry_group_IT_number 13
_symmetry_cell_setting 'monoclinic'
loop_
_space_group_symop_operation_xyz
x,y,z
-x,y,1/2-z
-x,-y,-z
x,-y,1/2+z
loop_
_atom_site_type_symbol
_atom_site_label
_atom_site_fract_x
_atom_site_fract_y
_atom_site_fract_z
Si Si1 0.503853 0.159972 0.462358
Si Si2 0.709390 0.333477 0.371570
Si Si3 0.500000 0.159046 0.750000
Si Si4 0.620880 0.630135 0.428474
Si Si5 0.000000 0.046663 0.250000
O O1 0.728623 0.186204 0.431166
O O2 0.587769 0.276372 0.550401
O O3 0.500000 0.000000 0.500000
O O4 0.165774 0.157071 0.348753
O O5 0.500000 0.304728 0.250000
O O6 0.521081 0.466852 0.380076
O O7 0.064511 0.390905 0.451430
O O8 0.355689 0.268252 0.649490
O O9 0.244796 0.056828 0.747659
#
# Coordination Sequence:
#
# PCOD9238296 Si02
#       5
#     4   4   2   4   2
#     4  12  25  43  70 106 145 197 242 313 366 456
#     4  11  25  46  72 106 146 197 255 313 378 449
#     4  12  26  50  74 116 152 204 250 312 380 450
#     4  11  25  46  72 105 148 197 253 312 378 448
#     4  12  28  44  78 112 154 200 252 312 380 450
#
# _framework density 25.86476
#
# number of rings (size 3 to 8) (size 9 to 14) (size 15 to 20)
#    0.000    0.500    3.750    3.750    5.250    2.000 
#    0.000    0.000    0.000    0.000    0.000    0.000 
#    0.000    0.000    0.000    0.000    0.000    0.000 
#
# Total GULP energy -89346.905889 kJ/mol
# GULP energy per Si atom -5584.181618 kJ/mol
# Density = 2.580589 g / cm^3
# Si number density = 25.864760 Si / 1000 Ang^3
#
#
#
# Elastic Constant Matrix: (Units=GPa)
#
#
# Indices 1 2 3 4 5 6 
#
# 1 91.2417 25.8124 28.0301 0.0000 -22.8810 0.0000
# 2 25.8124 86.7886 13.8359 0.0000 -22.3058 0.0000
# 3 28.0301 13.8359 159.5372 0.0000 -26.2690 0.0000
# 4 0.0000 0.0000 0.0000 43.0798 0.0000 -11.0868
# 5 -22.8810 -22.3058 -26.2690 0.0000 42.0341 0.0000
# 6 0.0000 0.0000 0.0000 -11.0868 0.0000 39.7075
#
#
#
# Elastic Compliance Matrix: (Units=1/GPa)
#
#
# Indices 1 2 3 4 5 6 
#
# 1 0.013338 -0.002435 -0.001281 0.000000 0.005168 0.000000
# 2 -0.002435 0.013786 0.000244 0.000000 0.006143 0.000000
# 3 -0.001281 0.000244 0.007110 0.000000 0.003875 0.000000
# 4 0.000000 0.000000 0.000000 0.025010 0.000000 0.006983
# 5 0.005168 0.006143 0.003875 0.000000 0.032285 0.000000
# 6 0.000000 0.000000 0.000000 0.006983 0.000000 0.027134
#
#
# Mechanical properties :
#
#
# Convention : Reuss Voigt Hill
#
# Bulk Modulus (GPa) = 36.64341 52.54715 44.59528
# Shear Modulus (GPa) = 37.11821 42.95689 40.03755
#
# Velocity S-wave (km/s) = 3.79237 4.07975 3.93868
# Velocity P-wave (km/s) = 5.77703 6.52324 6.16144
#
# Compressibility (1/GPa) = 0.02729003
#
# Stress axis : x y z
#
# Youngs Moduli (GPa) = 74.97233 72.53592 140.64246
#
# Poissons Ratio (x) = 0.17659 0.18022
# Poissons Ratio (y) = 0.18252 -0.03426
# Poissons Ratio (z) = 0.09607 -0.01767
#
# Static dielectric constant tensor:
#      x y z
#    x 2.230350 0.000000 0.211750 
#    y 0.000000 2.098310 0.000000 
#    z 0.211750 0.000000 1.535320 
# 
# From -- ./inp_files/43070.got.cif
#   From: 2010.05.17/outbox.cif.g08.bks.cpg/sg13_22_cif.got.tgz:43070.got - 2010.06.03 16:44:36.
