data_PCOD9238883
_publ_section_title
;
Structure prediction by ZEFSAII (Michael W. Deem and Ramdas Pophale) SiO2 
 PCOD9238883
Probable space group: P 2/C
;
_chemical_formula_sum "Si O2"
_cell_formula_units_Z 30
_cell_length_a 21.000000
_cell_length_b 9.000000
_cell_length_c 18.000000
_cell_angle_alpha 90.000000
_cell_angle_beta 30.000000
_cell_angle_gamma 90.000000
_cell_volume 1701.000000
_symmetry_space_group_name_H-M "P 2/C"
_symmetry_group_IT_number 13
_symmetry_cell_setting 'monoclinic'
loop_
_space_group_symop_operation_xyz
x,y,z
-x,y,1/2-z
-x,-y,-z
x,-y,1/2+z
loop_
_atom_site_type_symbol
_atom_site_label
_atom_site_fract_x
_atom_site_fract_y
_atom_site_fract_z
Si Si1 0.500000 0.251604 0.750000
Si Si2 0.897604 0.372163 0.686356
Si Si3 0.652511 0.318533 0.024831
Si Si4 0.149069 0.562181 0.439711
Si Si5 0.609348 0.532498 0.724553
Si Si6 0.706697 0.966731 0.975562
Si Si7 0.890475 0.841999 0.915829
Si Si8 0.943656 0.024461 0.639424
O O1 0.575433 0.367435 0.727310
O O2 0.588984 0.147095 0.607648
O O3 0.861888 0.399456 0.636281
O O4 0.932197 0.199985 0.660456
O O5 0.018596 0.471554 0.586885
O O6 0.772032 0.391135 0.862414
O O7 0.522110 0.384182 0.121493
O O8 0.655911 0.375814 0.105750
O O9 0.660400 0.138584 0.018036
O O10 0.278595 0.475026 0.328701
O O11 0.153788 0.707799 0.487044
O O12 0.806461 0.953465 0.804597
O O13 0.790017 0.926270 0.964713
O O14 0.000000 0.782018 0.750000
O O15 0.956160 0.959304 0.903835
O O16 0.000000 0.000000 0.500000
#
# Coordination Sequence:
#
# PCOD9238883 Si02
#       8
#     2   4   4   4   4   4   4   4
#     4  10  18  36  58  88 110 148 196 244 290 340
#     4  10  23  38  59  83 119 158 190 241 295 354
#     4   9  21  39  58  84 117 153 192 238 295 346
#     4  11  22  38  57  89 115 153 196 238 293 345
#     4  10  22  37  59  85 117 154 194 245 285 347
#     4  10  20  36  62  85 113 152 196 238 292 350
#     4  10  21  34  59  87 112 150 192 243 290 343
#     4  10  20  39  58  84 120 150 191 243 297 347
#
# _framework density 17.636683999999999
#
# number of rings (size 3 to 8) (size 9 to 14) (size 15 to 20)
#    0.000    2.133    2.667    0.800    3.733    1.600 
#    0.000    0.000    0.000    2.400    0.000    0.000 
#    0.000    0.000    0.000    0.000    0.000    0.000 
#
# Total GULP energy -167116.649864 kJ/mol
# GULP energy per Si atom -5570.554995 kJ/mol
# Density = 1.759654 g / cm^3
# Si number density = 17.636684 Si / 1000 Ang^3
#
#
#
# Elastic Constant Matrix: (Units=GPa)
#
#
# Indices 1 2 3 4 5 6 
#
# 1 78.0565 27.7119 34.5423 0.0000 -20.8479 0.0000
# 2 27.7119 75.9382 51.2574 0.0000 -11.1964 0.0000
# 3 34.5423 51.2574 126.5146 0.0000 -6.1633 0.0000
# 4 0.0000 0.0000 0.0000 33.6572 0.0000 -0.0889
# 5 -20.8479 -11.1964 -6.1633 0.0000 27.1378 0.0000
# 6 0.0000 0.0000 0.0000 -0.0889 0.0000 20.9889
#
#
#
# Elastic Compliance Matrix: (Units=1/GPa)
#
#
# Indices 1 2 3 4 5 6 
#
# 1 0.018565 -0.002661 -0.003387 0.000000 0.012395 0.000000
# 2 -0.002661 0.019483 -0.006952 0.000000 0.004415 0.000000
# 3 -0.003387 -0.006952 0.011506 0.000000 -0.002857 0.000000
# 4 0.000000 0.000000 0.000000 0.029712 0.000000 0.000126
# 5 0.012395 0.004415 -0.002857 0.000000 0.047544 0.000000
# 6 0.000000 0.000000 0.000000 0.000126 0.000000 0.047645
#
#
# Mechanical properties :
#
#
# Convention : Reuss Voigt Hill
#
# Bulk Modulus (GPa) = 42.45430 56.39251 49.42341
# Shear Modulus (GPa) = 24.00300 27.48995 25.74648
#
# Velocity S-wave (km/s) = 3.69314 3.95230 3.82491
# Velocity P-wave (km/s) = 6.50458 7.27128 6.89859
#
# Compressibility (1/GPa) = 0.02355474
#
# Stress axis : x y z
#
# Youngs Moduli (GPa) = 53.86339 51.32619 86.90877
#
# Poissons Ratio (x) = 0.13660 0.29434
# Poissons Ratio (y) = 0.14335 0.60418
# Poissons Ratio (z) = 0.18243 0.35681
#
# Static dielectric constant tensor:
#      x y z
#    x 1.577890 0.000000 -0.015610 
#    y 0.000000 1.595270 0.000000 
#    z -0.015610 0.000000 1.647570 
# 
# From -- ./inp_files/70556.got.cif
#   From: 2010.05.17/outbox.ucp.g08.bks.cvg/sg13_36_cif.got.tgz:70556.got - 2010.06.11 12:23:55.
