data_PCOD9238751
_publ_section_title
;
Structure prediction by ZEFSAII (Michael W. Deem and Ramdas Pophale) SiO2 
 PCOD9238751
Probable space group: P 2/C
;
_chemical_formula_sum "Si O2"
_cell_formula_units_Z 12
_cell_length_a 6.954162
_cell_length_b 9.922000
_cell_length_c 7.027569
_cell_angle_alpha 90.000000
_cell_angle_beta 89.999957
_cell_angle_gamma 90.000000
_cell_volume 484.896606
_symmetry_space_group_name_H-M "P 2/C"
_symmetry_group_IT_number 13
_symmetry_cell_setting 'monoclinic'
loop_
_space_group_symop_operation_xyz
x,y,z
-x,y,1/2-z
-x,-y,-z
x,-y,1/2+z
loop_
_atom_site_type_symbol
_atom_site_label
_atom_site_fract_x
_atom_site_fract_y
_atom_site_fract_z
Si Si1 0.116234 0.629632 0.930832
Si Si2 0.616234 0.870368 0.069168
Si Si3 0.500000 0.665644 0.750000
Si Si4 0.000000 0.165644 0.750000
O O1 0.330383 0.591022 0.862589
O O2 0.000000 0.684644 0.750000
O O3 0.107342 0.738540 0.097613
O O4 0.000000 0.500000 0.000000
O O5 0.500000 0.815356 0.250000
O O6 0.830383 0.908978 0.137411
O O7 0.607342 0.761460 0.902387
O O8 0.500000 0.000000 0.000000
#
# Coordination Sequence:
#
# PCOD9238751 Si02
#       4
#     4   4   2   2
#     4  12  26  47  76 114 152 201 257 313 389 455
#     4  12  26  47  76 114 152 201 257 313 389 455
#     4  12  26  48  76 110 160 198 252 324 378 458
#     4  12  26  48  76 110 160 198 252 324 378 458
#
# _framework density 24.747544999999999
#
# number of rings (size 3 to 8) (size 9 to 14) (size 15 to 20)
#    0.000    0.000   10.000    0.000    0.000    2.667 
#    6.000    0.000    0.000    0.000    0.000    0.000 
#    0.000    0.000    0.000    0.000    0.000    0.000 
#
# Total GULP energy -67262.434394 kJ/mol
# GULP energy per Si atom -5605.202866 kJ/mol
# Density = 2.469122 g / cm^3
# Si number density = 24.747545 Si / 1000 Ang^3
#
#
#
# Elastic Constant Matrix: (Units=GPa)
#
#
# Indices 1 2 3 4 5 6 
#
# 1 257.0574 55.5599 61.2436 0.0000 0.0000 0.0000
# 2 55.5599 57.6354 22.1593 0.0000 -0.0001 0.0000
# 3 61.2436 22.1593 129.4745 0.0000 0.0002 0.0000
# 4 0.0000 0.0000 0.0000 23.9922 0.0000 0.0000
# 5 0.0000 -0.0001 0.0002 0.0000 65.9973 0.0000
# 6 0.0000 0.0000 0.0000 0.0000 0.0000 31.7221
#
#
#
# Elastic Compliance Matrix: (Units=1/GPa)
#
#
# Indices 1 2 3 4 5 6 
#
# 1 0.005254 -0.004398 -0.001732 0.000000 0.000000 0.000000
# 2 -0.004398 0.022255 -0.001728 0.000000 0.000000 0.000000
# 3 -0.001732 -0.001728 0.008839 0.000000 0.000000 0.000000
# 4 0.000000 0.000000 0.000000 0.041680 0.000000 0.000000
# 5 0.000000 0.000000 0.000000 0.000000 0.015152 0.000000
# 6 0.000000 0.000000 0.000000 0.000000 0.000000 0.031524
#
#
# Mechanical properties :
#
#
# Convention : Reuss Voigt Hill
#
# Bulk Modulus (GPa) = 48.47495 80.23255 64.35375
# Shear Modulus (GPa) = 33.94486 44.68928 39.31707
#
# Velocity S-wave (km/s) = 3.70759 4.25409 3.99021
# Velocity P-wave (km/s) = 6.16106 7.52466 6.87674
#
# Compressibility (1/GPa) = 0.02062921
#
# Stress axis : x y z
#
# Youngs Moduli (GPa) = 190.34792 44.93386 113.13859
#
# Poissons Ratio (x) = 0.19763 0.19598
# Poissons Ratio (y) = 0.83722 0.19555
# Poissons Ratio (z) = 0.32973 0.07766
#
# Static dielectric constant tensor:
#      x y z
#    x 1.979120 0.000000 0.000000 
#    y 0.000000 1.960400 0.000000 
#    z 0.000000 0.000000 2.041640 
# 
# From -- ./inp_files/8483.got.cif
#   From: 2010.05.17/outbox.cif.g08.bks.cpg/sg13_5_cif.got.tgz:8483.got - 2010.06.03 16:44:36.
