data_PCOD9238321
_publ_section_title
;
Structure prediction by ZEFSAII (Michael W. Deem and Ramdas Pophale) SiO2 
 PCOD9238321
Probable space group: P 2/C
;
_chemical_formula_sum "Si O2"
_cell_formula_units_Z 16
_cell_length_a 5.120663
_cell_length_b 27.362211
_cell_length_c 5.581389
_cell_angle_alpha 90.000000
_cell_angle_beta 55.829739
_cell_angle_gamma 90.000000
_cell_volume 647.024318
_symmetry_space_group_name_H-M "P 2/C"
_symmetry_group_IT_number 13
_symmetry_cell_setting 'monoclinic'
loop_
_space_group_symop_operation_xyz
x,y,z
-x,y,1/2-z
-x,-y,-z
x,-y,1/2+z
loop_
_atom_site_type_symbol
_atom_site_label
_atom_site_fract_x
_atom_site_fract_y
_atom_site_fract_z
Si Si1 0.837650 0.250168 0.064279
Si Si2 0.500000 0.408967 0.750000
Si Si3 0.000000 0.835283 0.750000
Si Si4 0.000000 0.969488 0.250000
Si Si5 0.000000 0.339747 0.250000
Si Si6 0.500000 0.096347 0.250000
Si Si7 0.000000 0.469724 0.750000
O O1 0.500000 0.224917 0.250000
O O2 0.080282 0.206243 0.009326
O O3 0.776343 0.298414 0.251932
O O4 0.000000 0.271500 0.750000
O O5 0.326258 0.439402 0.626468
O O6 0.782685 0.375058 0.514034
O O7 0.740708 0.870795 0.776071
O O8 0.695063 0.935728 0.456231
O O9 0.000000 0.000000 0.500000
O O10 0.000000 0.500000 0.500000
#
# Coordination Sequence:
#
# PCOD9238321 Si02
#       7
#     4   2   2   2   2   2   2
#     4  11  25  47  76 108 168 201 255 314 387 458
#     4  12  28  50  86 114 156 204 274 322 394 490
#     4  11  27  50  75 120 154 210 257 320 385 463
#     4  12  29  56  81 117 160 209 263 342 419 474
#     4  11  27  46  75 120 154 210 257 320 385 463
#     4  12  28  50  86 114 156 204 274 322 394 490
#     4  12  29  56  81 117 160 209 263 342 419 474
#
# _framework density 24.728590000000001
#
# number of rings (size 3 to 8) (size 9 to 14) (size 15 to 20)
#    0.000    0.500    1.250    4.500    7.000   10.000 
#    0.000    0.000    0.000    0.000    0.000    0.000 
#    0.000    0.000    0.000    0.000    0.000    0.000 
#
# Total GULP energy -89185.628587 kJ/mol
# GULP energy per Si atom -5574.101787 kJ/mol
# Density = 2.467231 g / cm^3
# Si number density = 24.728590 Si / 1000 Ang^3
#
#
#
# Elastic Constant Matrix: (Units=GPa)
#
#
# Indices 1 2 3 4 5 6 
#
# 1 171.9761 77.2751 31.5657 0.0000 11.6357 0.0000
# 2 77.2751 160.8296 63.9297 0.0000 11.1664 0.0000
# 3 31.5657 63.9297 111.8262 0.0000 -7.2365 0.0000
# 4 0.0000 0.0000 0.0000 61.8795 0.0000 4.0594
# 5 11.6357 11.1664 -7.2365 0.0000 34.0594 0.0000
# 6 0.0000 0.0000 0.0000 4.0594 0.0000 35.7886
#
#
#
# Elastic Compliance Matrix: (Units=1/GPa)
#
#
# Indices 1 2 3 4 5 6 
#
# 1 0.007488 -0.003383 -0.000277 0.000000 -0.001508 0.000000
# 2 -0.003383 0.010053 -0.004999 0.000000 -0.003202 0.000000
# 3 -0.000277 -0.004999 0.012158 0.000000 0.004317 0.000000
# 4 0.000000 0.000000 0.000000 0.016282 0.000000 -0.001847
# 5 -0.001508 -0.003202 0.004317 0.000000 0.031843 0.000000
# 6 0.000000 0.000000 0.000000 -0.001847 0.000000 0.028151
#
#
# Mechanical properties :
#
#
# Convention : Reuss Voigt Hill
#
# Bulk Modulus (GPa) = 80.77727 87.79698 84.28712
# Shear Modulus (GPa) = 39.24047 44.46958 41.85502
#
# Velocity S-wave (km/s) = 3.98785 4.24524 4.11856
# Velocity P-wave (km/s) = 7.34441 7.72080 7.53496
#
# Compressibility (1/GPa) = 0.01237972
#
# Stress axis : x y z
#
# Youngs Moduli (GPa) = 133.55287 99.47607 82.24939
#
# Poissons Ratio (x) = 0.33650 0.02281
# Poissons Ratio (y) = 0.45178 0.41119
# Poissons Ratio (z) = 0.03703 0.49732
#
# Static dielectric constant tensor:
#      x y z
#    x 2.029740 0.000000 0.350110 
#    y 0.000000 1.918890 0.000000 
#    z 0.350110 0.000000 2.087500 
# 
# From -- ./inp_files/487.got.cif
#   From: 2010.05.17/outbox.cif.g08.bks.cpg/sg13_1_cif.got.tgz:487.got - 2010.06.03 16:44:36.
