data_PCOD9238012
_publ_section_title
;
Structure prediction by ZEFSAII (Michael W. Deem and Ramdas Pophale) SiO2 
 PCOD9238012
Probable space group: P 2/C
;
_chemical_formula_sum "Si O2"
_cell_formula_units_Z 18
_cell_length_a 24.523308
_cell_length_b 5.521982
_cell_length_c 12.223014
_cell_angle_alpha 90.000000
_cell_angle_beta 152.043764
_cell_angle_gamma 90.000000
_cell_volume 775.956150
_symmetry_space_group_name_H-M "P 2/C"
_symmetry_group_IT_number 13
_symmetry_cell_setting 'monoclinic'
loop_
_space_group_symop_operation_xyz
x,y,z
-x,y,1/2-z
-x,-y,-z
x,-y,1/2+z
loop_
_atom_site_type_symbol
_atom_site_label
_atom_site_fract_x
_atom_site_fract_y
_atom_site_fract_z
Si Si1 0.780053 0.774991 0.831423
Si Si2 0.000000 0.521390 0.750000
Si Si3 0.095942 0.854854 0.101289
Si Si4 0.336727 0.845677 0.657211
Si Si5 0.601497 0.644434 0.340731
O O1 0.684690 0.848960 0.751271
O O2 0.718346 0.638903 0.621871
O O3 0.847807 0.998392 0.900002
O O4 0.881374 0.619164 0.063843
O O5 0.970940 0.647916 0.583006
O O6 0.207992 0.817048 0.376136
O O7 0.000000 0.000000 0.000000
O O8 0.403782 0.602116 0.739009
O O9 0.390087 0.100973 0.710372
O O10 0.500000 0.650563 0.250000
#
# Coordination Sequence:
#
# PCOD9238012 Si02
#       5
#     4   2   4   4   4
#     4  11  26  41  66 104 134 181 230 276 344 412
#     4  12  22  40  68  96 140 180 222 276 344 410
#     4  11  24  41  64 101 142 183 224 278 336 412
#     4  11  25  44  71 100 138 178 226 288 338 404
#     4  11  26  48  71 100 136 179 233 286 341 401
#
# _framework density 23.197187
#
# number of rings (size 3 to 8) (size 9 to 14) (size 15 to 20)
#    0.000    0.889    2.222    4.000    9.333    3.556 
#    0.000    0.000    0.000    0.000    0.000    0.000 
#    0.000    0.000    0.000    0.000    0.000    0.000 
#
# Total GULP energy -100646.989528 kJ/mol
# GULP energy per Si atom -5591.499418 kJ/mol
# Density = 2.314439 g / cm^3
# Si number density = 23.197187 Si / 1000 Ang^3
#
#
#
# Elastic Constant Matrix: (Units=GPa)
#
#
# Indices 1 2 3 4 5 6 
#
# 1 172.0165 81.0599 -13.1484 0.0000 10.2080 0.0000
# 2 81.0599 123.2225 17.0858 0.0000 5.0408 0.0000
# 3 -13.1484 17.0858 57.5209 0.0000 8.5829 0.0000
# 4 0.0000 0.0000 0.0000 24.5973 0.0000 -0.0147
# 5 10.2080 5.0408 8.5829 0.0000 24.8478 0.0000
# 6 0.0000 0.0000 0.0000 -0.0147 0.0000 61.2232
#
#
#
# Elastic Compliance Matrix: (Units=1/GPa)
#
#
# Indices 1 2 3 4 5 6 
#
# 1 0.009678 -0.006870 0.004890 0.000000 -0.004271 0.000000
# 2 -0.006870 0.013359 -0.005857 0.000000 0.002135 0.000000
# 3 0.004890 -0.005857 0.021472 0.000000 -0.008238 0.000000
# 4 0.000000 0.000000 0.000000 0.040655 0.000000 0.000010
# 5 -0.004271 0.002135 -0.008238 0.000000 0.044412 0.000000
# 6 0.000000 0.000000 0.000000 0.000010 0.000000 0.016334
#
#
# Mechanical properties :
#
#
# Convention : Reuss Voigt Hill
#
# Bulk Modulus (GPa) = 34.67952 58.08384 46.38168
# Shear Modulus (GPa) = 29.20646 39.98451 34.59549
#
# Velocity S-wave (km/s) = 3.55216 4.15623 3.86601
# Velocity P-wave (km/s) = 5.63969 6.93728 6.32187
#
# Compressibility (1/GPa) = 0.02883546
#
# Stress axis : x y z
#
# Youngs Moduli (GPa) = 103.32779 74.85377 46.57282
#
# Poissons Ratio (x) = 0.51423 -0.22775
# Poissons Ratio (y) = 0.70984 0.27278
# Poissons Ratio (z) = -0.50529 0.43843
#
# Static dielectric constant tensor:
#      x y z
#    x 1.666270 0.000000 -0.002760 
#    y 0.000000 1.925790 0.000000 
#    z -0.002760 0.000000 1.915820 
# 
# From -- ./inp_files/31075.got.cif
#   From: 2010.05.17/outbox.cif.g08.bks.cpg/sg13_16_cif.got.tgz:31075.got - 2010.06.03 16:44:36.
