data_PCOD9238395
_publ_section_title
;
Structure prediction by ZEFSAII (Michael W. Deem and Ramdas Pophale) SiO2 
 PCOD9238395
Probable space group: P 2/C
;
_chemical_formula_sum "Si O2"
_cell_formula_units_Z 18
_cell_length_a 10.523948
_cell_length_b 8.312494
_cell_length_c 19.187692
_cell_angle_alpha 90.000000
_cell_angle_beta 152.965357
_cell_angle_gamma 90.000000
_cell_volume 762.947260
_symmetry_space_group_name_H-M "P 2/C"
_symmetry_group_IT_number 13
_symmetry_cell_setting 'monoclinic'
loop_
_space_group_symop_operation_xyz
x,y,z
-x,y,1/2-z
-x,-y,-z
x,-y,1/2+z
loop_
_atom_site_type_symbol
_atom_site_label
_atom_site_fract_x
_atom_site_fract_y
_atom_site_fract_z
Si Si1 0.765261 0.602079 0.254105
Si Si2 0.000000 0.384214 0.250000
Si Si3 0.430938 0.858574 0.020522
Si Si4 0.681506 0.628465 0.907465
Si Si5 0.730349 0.999024 0.917592
O O1 0.699081 0.774731 0.187742
O O2 0.476933 0.505322 0.123997
O O3 0.932970 0.497704 0.281093
O O4 0.982236 0.611083 0.424593
O O5 0.263214 0.272660 0.394892
O O6 0.248322 0.905442 0.999685
O O7 0.500000 0.000000 0.000000
O O8 0.500000 0.605552 0.750000
O O9 0.643890 0.819976 0.901565
O O10 0.500000 0.062606 0.750000
O O11 0.000000 0.000000 0.000000
#
# Coordination Sequence:
#
# PCOD9238395 Si02
#       5
#     4   2   4   4   4
#     4  12  26  50  73 113 151 198 255 329 378 466
#     4  12  28  46  76 110 154 194 270 312 394 456
#     4  12  29  48  82 113 155 208 261 320 394 465
#     4  11  26  46  78 107 155 199 259 308 395 456
#     4  11  27  49  74 110 153 202 260 319 387 456
#
# _framework density 23.592718000000001
#
# number of rings (size 3 to 8) (size 9 to 14) (size 15 to 20)
#    0.000    0.444    2.222    4.000   15.556    2.667 
#    0.000    0.000    0.000    0.000    0.000    0.000 
#    0.000    0.000    0.000    0.000    0.000    0.000 
#
# Total GULP energy -100522.818765 kJ/mol
# GULP energy per Si atom -5584.601042 kJ/mol
# Density = 2.353902 g / cm^3
# Si number density = 23.592718 Si / 1000 Ang^3
#
#
#
# Elastic Constant Matrix: (Units=GPa)
#
#
# Indices 1 2 3 4 5 6 
#
# 1 50.8551 29.8024 29.5636 0.0000 -8.3860 0.0000
# 2 29.8024 78.7561 15.6522 0.0000 -13.3771 0.0000
# 3 29.5636 15.6522 160.8105 0.0000 1.9787 0.0000
# 4 0.0000 0.0000 0.0000 -243.4500 0.0000 -22.8770
# 5 -8.3860 -13.3771 1.9787 0.0000 33.4600 0.0000
# 6 0.0000 0.0000 0.0000 -22.8770 0.0000 24.4440
#
#
#
# Elastic Compliance Matrix: (Units=1/GPa)
#
#
# Indices 1 2 3 4 5 6 
#
# 1 0.028158 -0.009176 -0.004328 0.000000 0.003645 0.000000
# 2 -0.009176 0.016932 -0.000016 0.000000 0.004471 0.000000
# 3 -0.004328 -0.000016 0.007034 0.000000 -0.001507 0.000000
# 4 0.000000 0.000000 0.000000 -0.003776 0.000000 -0.003534
# 5 0.003645 0.004471 -0.001507 0.000000 0.032676 0.000000
# 6 0.000000 0.000000 0.000000 -0.003534 0.000000 0.037603
#
#
# Mechanical properties :
#
#
# Convention : Reuss Voigt Hill
#
# Bulk Modulus (GPa) = 39.86654 48.93979 44.40316
# Shear Modulus (GPa) = 32.46090 -22.74896 4.85597
#
# Velocity S-wave (km/s) = 3.71332 -3.10858 1.43622
# Velocity P-wave (km/s) = 5.94302 2.81145 4.64885
#
# Compressibility (1/GPa) = 0.02508369
#
# Stress axis : x y z
#
# Youngs Moduli (GPa) = 35.51336 59.05828 142.15965
#
# Poissons Ratio (x) = 0.54193 0.61532
# Poissons Ratio (y) = 0.32588 0.00229
# Poissons Ratio (z) = 0.15371 0.00095
#
# Static dielectric constant tensor:
#      x y z
#    x 1.928700 0.000000 -0.011300 
#    y 0.000000 2.021850 0.000000 
#    z -0.011300 0.000000 1.902770 
# 
# From -- ./inp_files/77913.got.cif
#   From: 2010.05.17/outbox.cif.g08.bks.cpg/sg13_39_cif.got.tgz:77913.got - 2010.06.03 16:44:36.
