data_PCOD9238583
_publ_section_title
;
Structure prediction by ZEFSAII (Michael W. Deem and Ramdas Pophale) SiO2 
 PCOD9238583
Probable space group: P 2/C
;
_chemical_formula_sum "Si O2"
_cell_formula_units_Z 20
_cell_length_a 14.545111
_cell_length_b 6.601882
_cell_length_c 9.572067
_cell_angle_alpha 90.000000
_cell_angle_beta 86.641372
_cell_angle_gamma 90.000000
_cell_volume 917.579998
_symmetry_space_group_name_H-M "P 2/C"
_symmetry_group_IT_number 13
_symmetry_cell_setting 'monoclinic'
loop_
_space_group_symop_operation_xyz
x,y,z
-x,y,1/2-z
-x,-y,-z
x,-y,1/2+z
loop_
_atom_site_type_symbol
_atom_site_label
_atom_site_fract_x
_atom_site_fract_y
_atom_site_fract_z
Si Si1 0.088446 0.290076 0.823329
Si Si2 0.248860 0.971063 0.758377
Si Si3 0.681573 0.395524 0.071616
Si Si4 0.599625 0.297007 0.804930
Si Si5 0.152572 0.377041 0.100072
O O1 0.115816 0.491021 0.732878
O O2 0.000000 0.205760 0.750000
O O3 0.172415 0.132996 0.809784
O O4 0.076468 0.334178 0.988426
O O5 0.284463 0.819658 0.874409
O O6 0.200275 0.826549 0.649986
O O7 0.336475 0.098536 0.700705
O O8 0.648291 0.535201 0.201900
O O9 0.601875 0.373705 0.963630
O O10 0.768031 0.495991 0.985368
O O11 0.500000 0.256793 0.750000
#
# Coordination Sequence:
#
# PCOD9238583 Si02
#       5
#     4   4   4   4   4
#     4  12  27  44  71 104 136 178 228 278 335 402
#     4  12  24  44  74  96 138 176 232 274 340 394
#     4  12  23  48  71  96 141 182 219 279 343 398
#     4  12  27  44  71 104 136 178 228 278 335 402
#     4  12  23  48  71  96 141 182 219 279 343 398
#
# _framework density 21.796462999999999
#
# number of rings (size 3 to 8) (size 9 to 14) (size 15 to 20)
#    0.000    0.000    8.000    2.400    0.000    3.200 
#    0.000    0.000    0.000    0.000    0.000    0.000 
#    0.000    0.000    0.000    0.000    0.000    0.000 
#
# Total GULP energy -111958.029018 kJ/mol
# GULP energy per Si atom -5597.901451 kJ/mol
# Density = 2.174685 g / cm^3
# Si number density = 21.796463 Si / 1000 Ang^3
#
#
#
# Elastic Constant Matrix: (Units=GPa)
#
#
# Indices 1 2 3 4 5 6 
#
# 1 87.5146 8.6704 25.9496 0.0000 26.1184 0.0000
# 2 8.6704 88.1771 39.6483 0.0000 5.2522 0.0000
# 3 25.9496 39.6483 129.6099 0.0000 49.0910 0.0000
# 4 0.0000 0.0000 0.0000 34.5094 0.0000 20.9537
# 5 26.1184 5.2522 49.0910 0.0000 39.2673 0.0000
# 6 0.0000 0.0000 0.0000 20.9537 0.0000 24.3007
#
#
#
# Elastic Compliance Matrix: (Units=1/GPa)
#
#
# Indices 1 2 3 4 5 6 
#
# 1 0.014601 -0.001722 0.002269 0.000000 -0.012318 0.000000
# 2 -0.001722 0.014202 -0.007054 0.000000 0.008065 0.000000
# 3 0.002269 -0.007054 0.018298 0.000000 -0.023441 0.000000
# 4 0.000000 0.000000 0.000000 0.060821 0.000000 -0.052444
# 5 -0.012318 0.008065 -0.023441 0.000000 0.061886 0.000000
# 6 0.000000 0.000000 0.000000 -0.052444 0.000000 0.086371
#
#
# Mechanical properties :
#
#
# Convention : Reuss Voigt Hill
#
# Bulk Modulus (GPa) = 29.33819 50.42647 39.88233
# Shear Modulus (GPa) = 17.82184 35.01771 26.41978
#
# Velocity S-wave (km/s) = 2.86256 4.01256 3.48532
# Velocity P-wave (km/s) = 4.94115 6.68228 5.87656
#
# Compressibility (1/GPa) = 0.03408527
#
# Stress axis : x y z
#
# Youngs Moduli (GPa) = 68.48962 70.41423 54.65218
#
# Poissons Ratio (x) = 0.12127 -0.12402
# Poissons Ratio (y) = 0.11796 0.38553
# Poissons Ratio (z) = -0.15542 0.49672
#
# Static dielectric constant tensor:
#      x y z
#    x 1.794000 0.000000 0.028490 
#    y 0.000000 1.774500 0.000000 
#    z 0.028490 0.000000 1.825560 
# 
# From -- ./inp_files/20474.got.cif
#   From: 2010.05.17/outbox.cif.g08.bks.cpg/sg13_11_cif.got.tgz:20474.got - 2010.06.03 16:44:36.
