data_PCOD9238214
_publ_section_title
;
Structure prediction by ZEFSAII (Michael W. Deem and Ramdas Pophale) SiO2 
 PCOD9238214
Probable space group: P 2/C
;
_chemical_formula_sum "Si O2"
_cell_formula_units_Z 14
_cell_length_a 5.061766
_cell_length_b 8.646638
_cell_length_c 13.232163
_cell_angle_alpha 90.000000
_cell_angle_beta 67.088323
_cell_angle_gamma 90.000000
_cell_volume 533.445227
_symmetry_space_group_name_H-M "P 2/C"
_symmetry_group_IT_number 13
_symmetry_cell_setting 'monoclinic'
loop_
_space_group_symop_operation_xyz
x,y,z
-x,y,1/2-z
-x,-y,-z
x,-y,1/2+z
loop_
_atom_site_type_symbol
_atom_site_label
_atom_site_fract_x
_atom_site_fract_y
_atom_site_fract_z
Si Si1 0.492168 0.278824 0.629752
Si Si2 0.475142 0.917740 0.631934
Si Si3 0.001810 0.725222 0.584820
Si Si4 0.000000 0.492625 0.750000
O O1 0.500000 0.278752 0.750000
O O2 0.768605 0.340150 0.529292
O O3 0.219878 0.387122 0.655207
O O4 0.470963 0.097895 0.604203
O O5 0.500000 0.913846 0.750000
O O6 0.197376 0.836110 0.627051
O O7 0.760905 0.821777 0.562260
O O8 0.867619 0.602428 0.682838
#
# Coordination Sequence:
#
# PCOD9238214 Si02
#       4
#     4   4   4   2
#     4  11  29  45  75 109 149 193 247 306 365 434
#     4  11  24  48  78 107 144 192 253 302 359 436
#     4  12  26  50  76 107 148 196 246 300 370 438
#     4  12  28  46  74 110 154 194 238 310 374 440
#
# _framework density 26.244492000000001
#
# number of rings (size 3 to 8) (size 9 to 14) (size 15 to 20)
#    0.000    0.571    2.857    2.571   16.000    1.143 
#    0.000    0.000    0.000    0.000    0.000    0.000 
#    0.000    0.000    0.000    0.000    0.000    0.000 
#
# Total GULP energy -78464.350670 kJ/mol
# GULP energy per Si atom -5604.596476 kJ/mol
# Density = 2.618476 g / cm^3
# Si number density = 26.244492 Si / 1000 Ang^3
#
#
#
# Elastic Constant Matrix: (Units=GPa)
#
#
# Indices 1 2 3 4 5 6 
#
# 1 135.1798 63.7536 17.8920 0.0000 -5.1340 0.0000
# 2 63.7536 145.2127 47.7625 0.0000 -11.0572 0.0000
# 3 17.8920 47.7625 153.8837 0.0000 -19.0667 0.0000
# 4 0.0000 0.0000 0.0000 31.1464 0.0000 0.9221
# 5 -5.1340 -11.0572 -19.0667 0.0000 54.1643 0.0000
# 6 0.0000 0.0000 0.0000 0.9221 0.0000 43.3644
#
#
#
# Elastic Compliance Matrix: (Units=1/GPa)
#
#
# Indices 1 2 3 4 5 6 
#
# 1 0.009336 -0.004163 0.000221 0.000000 0.000113 0.000000
# 2 -0.004163 0.009556 -0.002393 0.000000 0.000714 0.000000
# 3 0.000221 -0.002393 0.007484 0.000000 0.002167 0.000000
# 4 0.000000 0.000000 0.000000 0.032127 0.000000 -0.000683
# 5 0.000113 0.000714 0.002167 0.000000 0.019381 0.000000
# 6 0.000000 0.000000 0.000000 -0.000683 0.000000 0.023075
#
#
# Mechanical properties :
#
#
# Convention : Reuss Voigt Hill
#
# Bulk Modulus (GPa) = 72.96986 77.01025 74.99005
# Shear Modulus (GPa) = 42.30185 46.05956 44.18071
#
# Velocity S-wave (km/s) = 4.01913 4.19384 4.10741
# Velocity P-wave (km/s) = 7.02866 7.27036 7.15053
#
# Compressibility (1/GPa) = 0.01370429
#
# Stress axis : x y z
#
# Youngs Moduli (GPa) = 107.11357 104.65043 133.61601
#
# Poissons Ratio (x) = 0.43563 -0.02946
# Poissons Ratio (y) = 0.44589 0.31980
# Poissons Ratio (z) = -0.02362 0.25048
#
# Static dielectric constant tensor:
#      x y z
#    x 2.038390 0.000000 0.017960 
#    y 0.000000 2.043090 0.000000 
#    z 0.017960 0.000000 2.084750 
# 
# From -- ./inp_files/25257.got.cif
#   From: 2010.05.17/outbox.cif.g08.bks.cpg/sg13_13_cif.got.tgz:25257.got - 2010.06.03 16:44:36.
