data_PCOD9238396
_publ_section_title
;
Structure prediction by ZEFSAII (Michael W. Deem and Ramdas Pophale) SiO2 
 PCOD9238396
Probable space group: P 2/C
;
_chemical_formula_sum "Si O2"
_cell_formula_units_Z 12
_cell_length_a 11.233705
_cell_length_b 5.207357
_cell_length_c 19.008054
_cell_angle_alpha 90.000000
_cell_angle_beta 24.875854
_cell_angle_gamma 90.000000
_cell_volume 467.737893
_symmetry_space_group_name_H-M "P 2/C"
_symmetry_group_IT_number 13
_symmetry_cell_setting 'monoclinic'
loop_
_space_group_symop_operation_xyz
x,y,z
-x,y,1/2-z
-x,-y,-z
x,-y,1/2+z
loop_
_atom_site_type_symbol
_atom_site_label
_atom_site_fract_x
_atom_site_fract_y
_atom_site_fract_z
Si Si1 0.963579 0.252722 0.067776
Si Si2 0.542685 0.532370 0.098833
Si Si3 0.730754 0.208650 0.868405
O O1 0.361548 0.297055 0.229887
O O2 0.000000 0.500000 0.000000
O O3 0.229223 0.301640 0.979622
O O4 0.000000 0.000000 0.000000
O O5 0.286260 0.697403 0.202112
O O6 0.698682 0.428580 0.944885
O O7 0.000000 0.059777 0.750000
O O8 0.500000 0.000000 0.000000
#
# Coordination Sequence:
#
# PCOD9238396 Si02
#       3
#     4   4   4
#     4  12  30  51  80 115 166 224 275 334 409 508
#     4  11  27  50  76 118 161 213 284 340 424 493
#     4  11  26  46  81 115 159 208 271 361 419 489
#
# _framework density 25.655394000000001
#
# number of rings (size 3 to 8) (size 9 to 14) (size 15 to 20)
#    0.000    0.667    3.333    1.000   14.000    2.667 
#    0.000    0.000    0.000    0.000    0.000    0.000 
#    0.000    0.000    0.000    0.000    0.000    0.000 
#
# Total GULP energy -66957.696578 kJ/mol
# GULP energy per Si atom -5579.808048 kJ/mol
# Density = 2.559700 g / cm^3
# Si number density = 25.655394 Si / 1000 Ang^3
#
#
#
# Elastic Constant Matrix: (Units=GPa)
#
#
# Indices 1 2 3 4 5 6 
#
# 1 175.3832 77.2889 68.2179 0.0000 -38.4241 0.0000
# 2 77.2889 146.1982 27.1045 0.0000 -12.4087 0.0000
# 3 68.2179 27.1045 139.6785 0.0000 -39.2741 0.0000
# 4 0.0000 0.0000 0.0000 40.4569 0.0000 7.1309
# 5 -38.4241 -12.4087 -39.2741 0.0000 68.5022 0.0000
# 6 0.0000 0.0000 0.0000 7.1309 0.0000 39.9653
#
#
#
# Elastic Compliance Matrix: (Units=1/GPa)
#
#
# Indices 1 2 3 4 5 6 
#
# 1 0.009270 -0.004119 -0.002952 0.000000 0.002761 0.000000
# 2 -0.004119 0.008946 0.000098 0.000000 -0.000634 0.000000
# 3 -0.002952 0.000098 0.009682 0.000000 0.003913 0.000000
# 4 0.000000 0.000000 0.000000 0.025520 0.000000 -0.004554
# 5 0.002761 -0.000634 0.003913 0.000000 0.018276 0.000000
# 6 0.000000 0.000000 0.000000 -0.004554 0.000000 0.025834
#
#
# Mechanical properties :
#
#
# Convention : Reuss Voigt Hill
#
# Bulk Modulus (GPa) = 71.67704 89.60914 80.64309
# Shear Modulus (GPa) = 43.05697 49.02811 46.04254
#
# Velocity S-wave (km/s) = 4.10113 4.37627 4.24093
# Velocity P-wave (km/s) = 7.10104 7.78071 7.44863
#
# Compressibility (1/GPa) = 0.01395147
#
# Stress axis : x y z
#
# Youngs Moduli (GPa) = 107.87334 111.78513 103.28200
#
# Poissons Ratio (x) = 0.46046 0.30486
# Poissons Ratio (y) = 0.44434 -0.01007
# Poissons Ratio (z) = 0.31841 -0.01090
#
# Static dielectric constant tensor:
#      x y z
#    x 2.206820 0.000000 -0.043390 
#    y 0.000000 2.132620 0.000000 
#    z -0.043390 0.000000 2.389450 
# 
# From -- ./inp_files/27097.got.cif
#   From: 2010.05.17/outbox.cif.g08.bks.cpg/sg13_14_cif.got.tgz:27097.got - 2010.06.03 16:44:36.
