data_PCOD9238766
_publ_section_title
;
Structure prediction by ZEFSAII (Michael W. Deem and Ramdas Pophale) SiO2 
 PCOD9238766
Probable space group: P 2/C
;
_chemical_formula_sum "Si O2"
_cell_formula_units_Z 14
_cell_length_a 21.389331
_cell_length_b 5.591840
_cell_length_c 21.933564
_cell_angle_alpha 90.000000
_cell_angle_beta 167.207494
_cell_angle_gamma 90.000000
_cell_volume 580.871215
_symmetry_space_group_name_H-M "P 2/C"
_symmetry_group_IT_number 13
_symmetry_cell_setting 'monoclinic'
loop_
_space_group_symop_operation_xyz
x,y,z
-x,y,1/2-z
-x,-y,-z
x,-y,1/2+z
loop_
_atom_site_type_symbol
_atom_site_label
_atom_site_fract_x
_atom_site_fract_y
_atom_site_fract_z
Si Si1 0.889817 0.155662 0.292432
Si Si2 0.217688 0.507772 0.009979
Si Si3 0.500000 0.500000 0.500000
Si Si4 0.612280 0.177298 0.222361
O O1 0.734939 0.313659 0.195550
O O2 0.056695 0.317932 0.403192
O O3 0.115665 0.977549 0.537332
O O4 0.655935 0.995054 0.036640
O O5 0.500000 0.621341 0.250000
O O6 0.323394 0.284095 0.150334
O O7 0.000000 0.440389 0.750000
O O8 0.445028 0.392526 0.378582
#
# Coordination Sequence:
#
# PCOD9238766 Si02
#       4
#     4   4   2   4
#     4  12  27  48  77 109 146 196 243 300 372 435
#     4  12  27  51  76 107 151 194 248 306 358 434
#     4  12  26  50  76 110 154 186 244 308 364 442
#     4  12  27  48  77 109 146 196 243 300 372 435
#
# _framework density 24.10173
#
# number of rings (size 3 to 8) (size 9 to 14) (size 15 to 20)
#    0.000    0.000    0.000   10.286    0.000   12.571 
#    0.000    5.714    0.000    0.000    0.000    0.000 
#    0.000    0.000    0.000    0.000    0.000    0.000 
#
# Total GULP energy -78070.457930 kJ/mol
# GULP energy per Si atom -5576.461281 kJ/mol
# Density = 2.404687 g / cm^3
# Si number density = 24.101730 Si / 1000 Ang^3
#
#
#
# Elastic Constant Matrix: (Units=GPa)
#
#
# Indices 1 2 3 4 5 6 
#
# 1 117.2355 25.2141 42.0176 0.0000 -8.2896 0.0000
# 2 25.2141 67.2293 58.1826 0.0000 -4.7468 0.0000
# 3 42.0176 58.1826 169.4962 0.0000 0.2237 0.0000
# 4 0.0000 0.0000 0.0000 64.4333 0.0000 18.5208
# 5 -8.2896 -4.7468 0.2237 0.0000 60.6782 0.0000
# 6 0.0000 0.0000 0.0000 18.5208 0.0000 35.4255
#
#
#
# Elastic Compliance Matrix: (Units=1/GPa)
#
#
# Indices 1 2 3 4 5 6 
#
# 1 0.009663 -0.002088 -0.001680 0.000000 0.001163 0.000000
# 2 -0.002088 0.021785 -0.006962 0.000000 0.001445 0.000000
# 3 -0.001680 -0.006962 0.008707 0.000000 -0.000806 0.000000
# 4 0.000000 0.000000 0.000000 0.018265 0.000000 -0.009549
# 5 0.001163 0.001445 -0.000806 0.000000 0.016755 0.000000
# 6 0.000000 0.000000 0.000000 -0.009549 0.000000 0.033221
#
#
# Mechanical properties :
#
#
# Convention : Reuss Voigt Hill
#
# Bulk Modulus (GPa) = 53.49154 67.19883 60.34519
# Shear Modulus (GPa) = 36.74062 47.34384 42.04223
#
# Velocity S-wave (km/s) = 3.90859 4.43689 4.18109
# Velocity P-wave (km/s) = 6.52776 7.36137 6.95707
#
# Compressibility (1/GPa) = 0.01869454
#
# Stress axis : x y z
#
# Youngs Moduli (GPa) = 103.48362 45.90308 114.84440
#
# Poissons Ratio (x) = 0.09584 0.19298
# Poissons Ratio (y) = 0.21606 0.79960
# Poissons Ratio (z) = 0.17389 0.31960
#
# Static dielectric constant tensor:
#      x y z
#    x 1.869710 0.000000 0.023410 
#    y 0.000000 1.899760 0.000000 
#    z 0.023410 0.000000 1.856120 
# 
# From -- ./inp_files/88628.got.cif
#   From: 2010.05.17/outbox.cif.g08.bks.cpg/sg13_45_cif.got.tgz:88628.got - 2010.06.03 16:44:36.
