data_PCOD9238820
_publ_section_title
;
Structure prediction by ZEFSAII (Michael W. Deem and Ramdas Pophale) SiO2 
 PCOD9238820
Probable space group: P 2/C
;
_chemical_formula_sum "Si O2"
_cell_formula_units_Z 16
_cell_length_a 15.415981
_cell_length_b 4.838423
_cell_length_c 25.065376
_cell_angle_alpha 90.000000
_cell_angle_beta 18.591081
_cell_angle_gamma 90.000000
_cell_volume 596.051206
_symmetry_space_group_name_H-M "P 2/C"
_symmetry_group_IT_number 13
_symmetry_cell_setting 'monoclinic'
loop_
_space_group_symop_operation_xyz
x,y,z
-x,y,1/2-z
-x,-y,-z
x,-y,1/2+z
loop_
_atom_site_type_symbol
_atom_site_label
_atom_site_fract_x
_atom_site_fract_y
_atom_site_fract_z
Si Si1 0.000000 0.500000 0.000000
Si Si2 0.307932 0.089068 0.660616
Si Si3 0.018895 0.594393 0.675018
Si Si4 0.500000 0.114026 0.750000
Si Si5 0.501911 0.768321 0.849882
O O1 0.746022 0.702615 0.128158
O O2 0.792209 0.356830 0.164138
O O3 0.440508 0.991249 0.637755
O O4 0.037638 0.907301 0.808436
O O5 0.500000 0.000000 0.500000
O O6 0.228210 0.407189 0.703548
O O7 0.289167 0.458271 0.494316
O O8 0.000000 0.571513 0.750000
O O9 0.396411 0.912042 0.857203
#
# Coordination Sequence:
#
# PCOD9238820 Si02
#       5
#     2   4   4   2   4
#     4  12  30  54  86 120 172 238 298 366 452 534
#     4  12  28  50  82 126 169 228 293 367 453 537
#     4  12  28  50  83 123 171 225 291 370 455 535
#     4  12  30  56  84 128 174 246 302 380 442 556
#     4  12  30  51  83 122 178 228 307 367 461 538
#
# _framework density 26.843333000000001
#
# number of rings (size 3 to 8) (size 9 to 14) (size 15 to 20)
#    0.000    0.000    2.500    4.500   14.000    0.000 
#    0.000    0.000    0.000    0.000    0.000    0.000 
#    0.000    0.000    0.000    0.000    0.000    0.000 
#
# Total GULP energy -89518.401693 kJ/mol
# GULP energy per Si atom -5594.900106 kJ/mol
# Density = 2.678224 g / cm^3
# Si number density = 26.843333 Si / 1000 Ang^3
#
#
#
# Elastic Constant Matrix: (Units=GPa)
#
#
# Indices 1 2 3 4 5 6 
#
# 1 139.2636 42.2633 23.8340 0.0000 35.1545 0.0000
# 2 42.2633 103.3595 35.2312 0.0000 6.4134 0.0000
# 3 23.8340 35.2312 159.9482 0.0000 10.3076 0.0000
# 4 0.0000 0.0000 0.0000 36.7567 0.0000 -4.8116
# 5 35.1545 6.4134 10.3076 0.0000 41.7952 0.0000
# 6 0.0000 0.0000 0.0000 -4.8116 0.0000 51.2404
#
#
#
# Elastic Compliance Matrix: (Units=1/GPa)
#
#
# Indices 1 2 3 4 5 6 
#
# 1 0.010378 -0.003667 -0.000216 0.000000 -0.008114 0.000000
# 2 -0.003667 0.011802 -0.002170 0.000000 0.001808 0.000000
# 3 -0.000216 -0.002170 0.006838 0.000000 -0.001172 0.000000
# 4 0.000000 0.000000 0.000000 0.027545 0.000000 0.002586
# 5 -0.008114 0.001808 -0.001172 0.000000 0.030762 0.000000
# 6 0.000000 0.000000 0.000000 0.002586 0.000000 0.019759
#
#
# Mechanical properties :
#
#
# Convention : Reuss Voigt Hill
#
# Bulk Modulus (GPa) = 59.12581 67.24759 63.18670
# Shear Modulus (GPa) = 40.05597 46.04130 43.04863
#
# Velocity S-wave (km/s) = 3.86711 4.14597 4.00897
# Velocity P-wave (km/s) = 6.48178 6.93001 6.70964
#
# Compressibility (1/GPa) = 0.01691309
#
# Stress axis : x y z
#
# Youngs Moduli (GPa) = 96.35351 84.73429 146.24968
#
# Poissons Ratio (x) = 0.31069 0.03159
# Poissons Ratio (y) = 0.35329 0.31731
# Poissons Ratio (z) = 0.02081 0.18384
#
# Static dielectric constant tensor:
#      x y z
#    x 2.060590 0.000000 -0.049150 
#    y 0.000000 2.045290 0.000000 
#    z -0.049150 0.000000 2.058290 
# 
# From -- ./inp_files/86938.got.cif
#   From: 2010.05.17/outbox.cif.g08.bks.cpg/sg13_44_cif.got.tgz:86938.got - 2010.06.03 16:44:36.
