data_PCOD9238347
_publ_section_title
;
Structure prediction by ZEFSAII (Michael W. Deem and Ramdas Pophale) SiO2 
 PCOD9238347
Probable space group: P 2/C
;
_chemical_formula_sum "Si O2"
_cell_formula_units_Z 18
_cell_length_a 10.991565
_cell_length_b 5.964008
_cell_length_c 9.581324
_cell_angle_alpha 90.000000
_cell_angle_beta 102.620183
_cell_angle_gamma 90.000000
_cell_volume 612.917229
_symmetry_space_group_name_H-M "P 2/C"
_symmetry_group_IT_number 13
_symmetry_cell_setting 'monoclinic'
loop_
_space_group_symop_operation_xyz
x,y,z
-x,y,1/2-z
-x,-y,-z
x,-y,1/2+z
loop_
_atom_site_type_symbol
_atom_site_label
_atom_site_fract_x
_atom_site_fract_y
_atom_site_fract_z
Si Si1 0.697359 0.425364 0.311045
Si Si2 0.500000 0.500000 0.500000
Si Si3 0.183943 0.936158 0.458523
Si Si4 0.937973 0.313751 0.884745
Si Si5 0.570391 0.074042 0.119237
O O1 0.611945 0.532547 0.407754
O O2 0.751258 0.213084 0.407187
O O3 0.817466 0.558809 0.288757
O O4 0.603506 0.370984 0.158818
O O5 0.526726 0.180595 0.525761
O O6 0.066647 0.805994 0.365177
O O7 0.127056 0.141941 0.527030
O O8 0.283737 0.019998 0.371442
O O9 0.000000 0.500000 0.000000
O O10 0.500000 0.038396 0.250000
#
# Coordination Sequence:
#
# PCOD9238347 Si02
#       5
#     4   2   4   4   4
#     4  12  27  48  80 115 159 211 273 348 410 504
#     4  12  26  48  76 120 154 212 272 336 418 498
#     4  11  25  49  75 111 158 212 276 336 418 500
#     4  11  26  46  76 113 156 213 271 344 416 498
#     4  12  27  50  77 118 163 216 278 342 429 503
#
# _framework density 29.367747000000001
#
# number of rings (size 3 to 8) (size 9 to 14) (size 15 to 20)
#    0.000    0.444    4.444    2.667    3.111    6.222 
#    4.000    0.000    0.000    0.000    0.000    0.000 
#    0.000    0.000    0.000    0.000    0.000    0.000 
#
# Total GULP energy -100561.457485 kJ/mol
# GULP energy per Si atom -5586.747638 kJ/mol
# Density = 2.930090 g / cm^3
# Si number density = 29.367747 Si / 1000 Ang^3
#
#
#
# Elastic Constant Matrix: (Units=GPa)
#
#
# Indices 1 2 3 4 5 6 
#
# 1 316.5503 105.1963 131.1119 0.0000 -23.7660 0.0000
# 2 105.1963 150.0417 61.1446 0.0000 0.8189 0.0000
# 3 131.1119 61.1446 182.7948 0.0000 -24.9362 0.0000
# 4 0.0000 0.0000 0.0000 59.1038 0.0000 -8.7346
# 5 -23.7660 0.8189 -24.9362 0.0000 66.7262 0.0000
# 6 0.0000 0.0000 0.0000 -8.7346 0.0000 116.1441
#
#
#
# Elastic Compliance Matrix: (Units=1/GPa)
#
#
# Indices 1 2 3 4 5 6 
#
# 1 0.005214 -0.002528 -0.002778 0.000000 0.000850 0.000000
# 2 -0.002528 0.009022 -0.001415 0.000000 -0.001540 0.000000
# 3 -0.002778 -0.001415 0.008223 0.000000 0.002101 0.000000
# 4 0.000000 0.000000 0.000000 0.017110 0.000000 0.001287
# 5 0.000850 -0.001540 0.002101 0.000000 0.016093 0.000000
# 6 0.000000 0.000000 0.000000 0.001287 0.000000 0.008707
#
#
# Mechanical properties :
#
#
# Convention : Reuss Voigt Hill
#
# Bulk Modulus (GPa) = 110.89711 138.25471 124.57591
# Shear Modulus (GPa) = 61.86951 71.85709 66.86330
#
# Velocity S-wave (km/s) = 4.59488 4.95188 4.77672
# Velocity P-wave (km/s) = 8.12367 8.93723 8.54015
#
# Compressibility (1/GPa) = 0.00901737
#
# Stress axis : x y z
#
# Youngs Moduli (GPa) = 191.80897 110.83936 121.60985
#
# Poissons Ratio (x) = 0.28018 0.33783
# Poissons Ratio (y) = 0.48486 0.17205
# Poissons Ratio (z) = 0.53284 0.15682
#
# Static dielectric constant tensor:
#      x y z
#    x 2.192520 0.000000 0.114940 
#    y 0.000000 3.725300 0.000000 
#    z 0.114940 0.000000 2.359190 
# 
# From -- ./inp_files/31356.got.cif
#   From: 2010.05.17/outbox.cif.g08.bks.cpg/sg13_16_cif.got.tgz:31356.got - 2010.06.03 16:44:36.
