data_PCOD9238052
_publ_section_title
;
Structure prediction by ZEFSAII (Michael W. Deem and Ramdas Pophale) SiO2 
 PCOD9238052
Probable space group: P 2/C
;
_chemical_formula_sum "Si O2"
_cell_formula_units_Z 28
_cell_length_a 26.284113
_cell_length_b 8.994945
_cell_length_c 9.018789
_cell_angle_alpha 90.000000
_cell_angle_beta 39.924074
_cell_angle_gamma 90.000000
_cell_volume 1368.424283
_symmetry_space_group_name_H-M "P 2/C"
_symmetry_group_IT_number 13
_symmetry_cell_setting 'monoclinic'
loop_
_space_group_symop_operation_xyz
x,y,z
-x,y,1/2-z
-x,-y,-z
x,-y,1/2+z
loop_
_atom_site_type_symbol
_atom_site_label
_atom_site_fract_x
_atom_site_fract_y
_atom_site_fract_z
Si Si1 0.979725 0.145107 0.460040
Si Si2 0.197183 0.803505 0.712616
Si Si3 0.362208 0.647980 0.377963
Si Si4 0.810092 0.122747 0.929359
Si Si5 0.654170 0.676193 0.731709
Si Si6 0.494025 0.835291 0.583895
Si Si7 0.050548 0.616572 0.985983
O O1 0.889787 0.194279 0.683521
O O2 0.000000 0.117443 0.250000
O O3 0.042240 0.253225 0.388682
O O4 0.000000 0.000000 0.500000
O O5 0.287040 0.748995 0.505039
O O6 0.142542 0.652213 0.820882
O O7 0.190853 0.950289 0.621838
O O8 0.180611 0.866934 0.914359
O O9 0.368526 0.649265 0.543836
O O10 0.344617 0.483825 0.352431
O O11 0.438574 0.725236 0.132705
O O12 0.734548 0.223907 0.053886
O O13 0.588652 0.769478 0.789454
O O14 0.500000 0.841287 0.750000
O O15 0.500000 0.000000 0.500000
O O16 0.000000 0.632270 0.250000
O O17 0.000000 0.500000 0.000000
#
# Coordination Sequence:
#
# PCOD9238052 Si02
#       7
#     4   4   4   4   4   4   4
#     4  12  23  42  67  98 129 179 226 281 337 400
#     4  11  25  43  68  99 134 176 228 285 337 406
#     4  11  25  44  69 102 139 182 225 277 341 401
#     4  11  24  43  67 100 136 175 230 281 341 402
#     4  11  25  45  70 101 142 180 225 281 335 409
#     4  12  25  46  73 104 139 180 227 277 337 404
#     4  12  26  45  65  94 134 175 227 280 344 405
#
# _framework density 20.461492
#
# number of rings (size 3 to 8) (size 9 to 14) (size 15 to 20)
#    0.000    0.571    2.857    5.143    2.000    4.571 
#    0.000    0.000    0.000    0.000    0.000    0.000 
#    0.000    0.000    0.000    0.000    0.000    0.000 
#
# Total GULP energy -156011.549809 kJ/mol
# GULP energy per Si atom -5571.841065 kJ/mol
# Density = 2.041492 g / cm^3
# Si number density = 20.461492 Si / 1000 Ang^3
#
#
#
# Elastic Constant Matrix: (Units=GPa)
#
#
# Indices 1 2 3 4 5 6 
#
# 1 120.3020 25.3901 64.4783 0.0000 14.0221 0.0000
# 2 25.3901 70.6675 12.8845 0.0000 13.0249 0.0000
# 3 64.4783 12.8845 117.1062 0.0000 5.0100 0.0000
# 4 0.0000 0.0000 0.0000 24.7267 0.0000 6.8133
# 5 14.0221 13.0249 5.0100 0.0000 43.2296 0.0000
# 6 0.0000 0.0000 0.0000 6.8133 0.0000 5.3405
#
#
#
# Elastic Compliance Matrix: (Units=1/GPa)
#
#
# Indices 1 2 3 4 5 6 
#
# 1 0.012754 -0.002921 -0.006594 0.000000 -0.002493 0.000000
# 2 -0.002921 0.015905 0.000023 0.000000 -0.003847 0.000000
# 3 -0.006594 0.000023 0.012136 0.000000 0.000726 0.000000
# 4 0.000000 0.000000 0.000000 0.062365 0.000000 -0.079563
# 5 -0.002493 -0.003847 0.000726 0.000000 0.025016 0.000000
# 6 0.000000 0.000000 0.000000 -0.079563 0.000000 0.288752
#
#
# Mechanical properties :
#
#
# Convention : Reuss Voigt Hill
#
# Bulk Modulus (GPa) = 45.84802 57.06459 51.45630
# Shear Modulus (GPa) = 11.28203 28.34756 19.81480
#
# Velocity S-wave (km/s) = 2.35069 3.72615 3.11528
# Velocity P-wave (km/s) = 5.46107 6.81627 6.17596
#
# Compressibility (1/GPa) = 0.02181119
#
# Stress axis : x y z
#
# Youngs Moduli (GPa) = 78.40930 62.87294 82.39663
#
# Poissons Ratio (x) = 0.18362 0.54333
# Poissons Ratio (y) = 0.22900 -0.00187
# Poissons Ratio (z) = 0.51704 -0.00143
#
# Static dielectric constant tensor:
#      x y z
#    x 1.728010 0.000000 -0.029140 
#    y 0.000000 1.560800 0.000000 
#    z -0.029140 0.000000 1.720410 
# 
# From -- ./inp_files/24526.got.cif
#   From: 2010.05.17/outbox.cif.g08.bks.cpg/sg13_13_cif.got.tgz:24526.got - 2010.06.03 16:44:36.
