data_PCOD9238078
_publ_section_title
;
Structure prediction by ZEFSAII (Michael W. Deem and Ramdas Pophale) SiO2 
 PCOD9238078
Probable space group: P 2/C
;
_chemical_formula_sum "Si O2"
_cell_formula_units_Z 28
_cell_length_a 23.443318
_cell_length_b 5.313340
_cell_length_c 12.228681
_cell_angle_alpha 90.000000
_cell_angle_beta 129.656165
_cell_angle_gamma 90.000000
_cell_volume 1172.718749
_symmetry_space_group_name_H-M "P 2/C"
_symmetry_group_IT_number 13
_symmetry_cell_setting 'monoclinic'
loop_
_space_group_symop_operation_xyz
x,y,z
-x,y,1/2-z
-x,-y,-z
x,-y,1/2+z
loop_
_atom_site_type_symbol
_atom_site_label
_atom_site_fract_x
_atom_site_fract_y
_atom_site_fract_z
Si Si1 0.085617 0.960136 0.325268
Si Si2 0.191356 0.191039 0.141685
Si Si3 0.453783 0.354094 0.594900
Si Si4 0.322625 0.996186 0.428260
Si Si5 0.704687 0.588546 0.919786
Si Si6 0.411312 0.738645 0.354855
Si Si7 0.853696 0.454900 0.213149
O O1 0.132941 0.954594 0.495689
O O2 0.112509 0.718800 0.286755
O O3 0.000000 0.934354 0.250000
O O4 0.101564 0.219767 0.281891
O O5 0.251574 0.292476 0.129493
O O6 0.152863 0.412750 0.164691
O O7 0.237667 0.037471 0.289188
O O8 0.500000 0.473405 0.750000
O O9 0.437922 0.557137 0.484254
O O10 0.516653 0.165294 0.622303
O O11 0.376432 0.223911 0.528207
O O12 0.324314 0.793215 0.527860
O O13 0.360697 0.928613 0.358852
O O14 0.640736 0.425276 0.787060
O O15 0.770101 0.441389 0.062492
#
# Coordination Sequence:
#
# PCOD9238078 Si02
#       7
#     4   4   4   4   4   4   4
#     4  11  26  48  77 112 151 192 240 295 359 437
#     4  11  24  44  72 105 145 191 238 300 359 432
#     4  11  26  41  65  98 136 183 241 306 373 441
#     4  12  25  43  69  99 136 189 243 302 367 434
#     4  11  24  43  75  99 139 186 244 301 358 436
#     4  11  24  45  65  94 137 187 241 309 372 432
#     4  11  25  46  73 113 147 192 242 295 361 435
#
# _framework density 23.876142000000002
#
# number of rings (size 3 to 8) (size 9 to 14) (size 15 to 20)
#    0.000    0.857    1.429    5.143    4.000    7.429 
#    0.000    0.000    0.000    0.000    0.000    0.000 
#    0.000    0.000    0.000    0.000    0.000    0.000 
#
# Total GULP energy -156679.429980 kJ/mol
# GULP energy per Si atom -5595.693928 kJ/mol
# Density = 2.382180 g / cm^3
# Si number density = 23.876142 Si / 1000 Ang^3
#
#
#
# Elastic Constant Matrix: (Units=GPa)
#
#
# Indices 1 2 3 4 5 6 
#
# 1 131.8703 25.9778 44.8805 0.0000 11.1859 0.0000
# 2 25.9778 66.8209 24.7618 0.0000 -1.0978 0.0000
# 3 44.8805 24.7618 87.0713 0.0000 -7.1951 0.0000
# 4 0.0000 0.0000 0.0000 33.3483 0.0000 0.8457
# 5 11.1859 -1.0978 -7.1951 0.0000 43.9658 0.0000
# 6 0.0000 0.0000 0.0000 0.8457 0.0000 43.1476
#
#
#
# Elastic Compliance Matrix: (Units=1/GPa)
#
#
# Indices 1 2 3 4 5 6 
#
# 1 0.009917 -0.002139 -0.004781 0.000000 -0.003359 0.000000
# 2 -0.002139 0.017195 -0.003758 0.000000 0.000359 0.000000
# 3 -0.004781 -0.003758 0.015318 0.000000 0.003629 0.000000
# 4 0.000000 0.000000 0.000000 0.030001 0.000000 -0.000588
# 5 -0.003359 0.000359 0.003629 0.000000 0.024202 0.000000
# 6 0.000000 0.000000 0.000000 -0.000588 0.000000 0.023188
#
#
# Mechanical properties :
#
#
# Convention : Reuss Voigt Hill
#
# Bulk Modulus (GPa) = 47.45093 53.00032 50.22562
# Shear Modulus (GPa) = 33.73790 36.76849 35.25319
#
# Velocity S-wave (km/s) = 3.76312 3.92850 3.84670
# Velocity P-wave (km/s) = 6.22883 6.54398 6.38835
#
# Compressibility (1/GPa) = 0.02107440
#
# Stress axis : x y z
#
# Youngs Moduli (GPa) = 100.84182 58.15509 65.28396
#
# Poissons Ratio (x) = 0.12438 0.31211
# Poissons Ratio (y) = 0.21568 0.24534
# Poissons Ratio (z) = 0.48210 0.21855
#
# Static dielectric constant tensor:
#      x y z
#    x 1.960340 0.000000 -0.009870 
#    y 0.000000 1.970180 0.000000 
#    z -0.009870 0.000000 1.892080 
# 
# From -- ./inp_files/40200.got.cif
#   From: 2010.05.17/outbox.cif.g08.bks.cpg/sg13_21_cif.got.tgz:40200.got - 2010.06.03 16:44:36.
