data_PCOD9238466
_publ_section_title
;
Structure prediction by ZEFSAII (Michael W. Deem and Ramdas Pophale) SiO2 
 PCOD9238466
Probable space group: P 2/C
;
_chemical_formula_sum "Si O2"
_cell_formula_units_Z 28
_cell_length_a 8.909947
_cell_length_b 8.444358
_cell_length_c 16.876352
_cell_angle_alpha 90.000000
_cell_angle_beta 79.426451
_cell_angle_gamma 90.000000
_cell_volume 1248.195925
_symmetry_space_group_name_H-M "P 2/C"
_symmetry_group_IT_number 13
_symmetry_cell_setting 'monoclinic'
loop_
_space_group_symop_operation_xyz
x,y,z
-x,y,1/2-z
-x,-y,-z
x,-y,1/2+z
loop_
_atom_site_type_symbol
_atom_site_label
_atom_site_fract_x
_atom_site_fract_y
_atom_site_fract_z
Si Si1 0.293465 0.685051 0.703632
Si Si2 0.364952 0.850465 0.377021
Si Si3 0.000000 0.107899 0.250000
Si Si4 0.087581 0.061361 0.413801
Si Si5 0.500000 0.928112 0.750000
Si Si6 0.391053 0.645461 0.530666
Si Si7 0.028862 0.410557 0.076886
Si Si8 0.851425 0.371204 0.716105
O O1 0.361741 0.803442 0.763268
O O2 0.413229 0.702850 0.619116
O O3 0.257401 0.501000 0.727325
O O4 0.133223 0.774114 0.707217
O O5 0.405421 0.759143 0.453394
O O6 0.264316 0.739930 0.325002
O O7 0.502385 0.944413 0.321434
O O8 0.253037 0.992145 0.410754
O O9 0.960304 0.015624 0.172395
O O10 0.060293 0.246731 0.417089
O O11 0.000000 0.000000 0.500000
O O12 0.500000 0.500000 0.500000
O O13 0.211506 0.605704 0.559255
O O14 0.949642 0.516310 0.149949
O O15 0.000000 0.500000 0.000000
O O16 0.000000 0.299372 0.750000
#
# Coordination Sequence:
#
# PCOD9238466 Si02
#       8
#     4   4   2   4   2   4   4   4
#     4  12  24  48  73 102 141 196 246 294 368 439
#     4  12  28  46  67 112 149 189 242 303 372 439
#     4  12  20  44  80 102 142 192 260 296 366 438
#     4  12  22  44  73 110 149 184 245 317 364 427
#     4  12  30  44  72 104 150 202 226 294 382 446
#     4  12  27  45  71 105 149 190 240 301 369 445
#     4  12  22  44  74 107 134 189 248 304 367 428
#     4  12  23  42  78 108 136 183 256 308 351 428
#
# _framework density 22.432376000000001
#
# number of rings (size 3 to 8) (size 9 to 14) (size 15 to 20)
#    0.000    0.000    9.286    0.000    5.000    1.714 
#    0.000    1.429    0.000    0.000    0.000    0.000 
#    0.000    0.000    0.000    0.000    0.000    0.000 
#
# Total GULP energy -155935.903664 kJ/mol
# GULP energy per Si atom -5569.139417 kJ/mol
# Density = 2.238132 g / cm^3
# Si number density = 22.432376 Si / 1000 Ang^3
#
#
#
# Elastic Constant Matrix: (Units=GPa)
#
#
# Indices 1 2 3 4 5 6 
#
# 1 40.4396 37.0566 2.8103 0.0000 -5.1545 0.0000
# 2 37.0566 110.4473 41.5812 0.0000 6.6396 0.0000
# 3 2.8103 41.5812 142.4439 0.0000 -1.2511 0.0000
# 4 0.0000 0.0000 0.0000 46.7770 0.0000 1.2608
# 5 -5.1545 6.6396 -1.2511 0.0000 28.8832 0.0000
# 6 0.0000 0.0000 0.0000 1.2608 0.0000 41.3720
#
#
#
# Elastic Compliance Matrix: (Units=1/GPa)
#
#
# Indices 1 2 3 4 5 6 
#
# 1 0.040110 -0.015561 0.003847 0.000000 0.010902 0.000000
# 2 -0.015561 0.016388 -0.004536 0.000000 -0.006741 0.000000
# 3 0.003847 -0.004536 0.008287 0.000000 0.002088 0.000000
# 4 0.000000 0.000000 0.000000 0.021396 0.000000 -0.000652
# 5 0.010902 -0.006741 0.002088 0.000000 0.038208 0.000000
# 6 0.000000 0.000000 0.000000 -0.000652 0.000000 0.024191
#
#
# Mechanical properties :
#
#
# Convention : Reuss Voigt Hill
#
# Bulk Modulus (GPa) = 30.97493 50.69191 40.83342
# Shear Modulus (GPa) = 26.06333 37.53195 31.79764
#
# Velocity S-wave (km/s) = 3.41231 4.09481 3.76904
# Velocity P-wave (km/s) = 5.41879 6.70845 6.09781
#
# Compressibility (1/GPa) = 0.03228418
#
# Stress axis : x y z
#
# Youngs Moduli (GPa) = 24.93164 61.02036 120.67262
#
# Poissons Ratio (x) = 0.94954 -0.46421
# Poissons Ratio (y) = 0.38796 0.54738
# Poissons Ratio (z) = -0.09591 0.27679
#
# Static dielectric constant tensor:
#      x y z
#    x 2.068860 0.000000 0.193840 
#    y 0.000000 5.435060 0.000000 
#    z 0.193840 0.000000 2.058950 
# 
# From -- ./inp_files/63770.got.cif
#   From: 2010.05.17/outbox.cif.g08.bks.cpg/sg13_32_cif.got.tgz:63770.got - 2010.06.03 16:44:36.
