data_PCOD9238983
_publ_section_title
;
Structure prediction by ZEFSAII (Michael W. Deem and Ramdas Pophale) SiO2 
 PCOD9238983
Probable space group: P 2/C
;
_chemical_formula_sum "Si O2"
_cell_formula_units_Z 28
_cell_length_a 21.000000
_cell_length_b 15.000000
_cell_length_c 9.000000
_cell_angle_alpha 90.000000
_cell_angle_beta 150.000000
_cell_angle_gamma 90.000000
_cell_volume 1417.500000
_symmetry_space_group_name_H-M "P 2/C"
_symmetry_group_IT_number 13
_symmetry_cell_setting 'monoclinic'
loop_
_space_group_symop_operation_xyz
x,y,z
-x,y,1/2-z
-x,-y,-z
x,-y,1/2+z
loop_
_atom_site_type_symbol
_atom_site_label
_atom_site_fract_x
_atom_site_fract_y
_atom_site_fract_z
Si Si1 0.731851 0.421670 0.619511
Si Si2 0.500000 0.156633 0.750000
Si Si3 0.143816 0.699778 0.598395
Si Si4 0.500000 0.460263 0.750000
Si Si5 0.234545 0.100901 0.333902
Si Si6 0.869264 0.451774 0.189360
Si Si7 0.093900 0.033126 0.321858
Si Si8 0.632573 0.314068 0.187073
O O1 0.616935 0.475419 0.458284
O O2 0.769395 0.477029 0.549715
O O3 0.686794 0.327169 0.462304
O O4 0.844096 0.427662 0.967422
O O5 0.383174 0.103949 0.588733
O O6 0.435555 0.222197 0.496568
O O7 0.175911 0.800855 0.700750
O O8 0.152000 0.636118 0.756289
O O9 0.249736 0.674447 0.690126
O O10 0.000000 0.691043 0.250000
O O11 0.469250 0.392255 0.553239
O O12 0.205222 0.074780 0.445372
O O13 0.159370 0.040511 0.060667
O O14 0.000000 0.500000 0.500000
O O15 0.000000 0.084148 0.250000
O O16 0.000000 0.000000 0.000000
#
# Coordination Sequence:
#
# PCOD9238983 Si02
#       8
#     4   2   4   2   4   4   4   4
#     4  12  22  36  57  81 110 161 207 262 306 354
#     4   9  22  38  62  90 133 168 212 257 322 388
#     4  11  21  39  60  84 121 164 204 256 322 369
#     4  11  20  34  56  76 107 146 214 251 306 358
#     4  10  21  39  66  94 126 165 204 258 320 387
#     4  12  24  38  56  85 120 159 213 263 314 370
#     4   9  18  37  65  97 122 154 206 251 307 390
#     4  10  21  38  58  82 116 158 211 258 301 372
#
# _framework density 19.753086
#
# number of rings (size 3 to 8) (size 9 to 14) (size 15 to 20)
#    0.000    1.429    2.857    3.857    0.000    0.571 
#    0.000    8.571    0.000    6.857    0.000    0.000 
#    0.000    0.000    0.000    0.000    0.000    0.000 
#
# Total GULP energy -156059.824174 kJ/mol
# GULP energy per Si atom -5573.565149 kJ/mol
# Density = 1.970813 g / cm^3
# Si number density = 19.753086 Si / 1000 Ang^3
#
#
#
# Elastic Constant Matrix: (Units=GPa)
#
#
# Indices 1 2 3 4 5 6 
#
# 1 109.5200 42.6812 47.3634 0.0000 -0.9516 0.0000
# 2 42.6812 72.3477 21.6144 0.0000 -6.5468 0.0000
# 3 47.3634 21.6144 99.1614 0.0000 10.7361 0.0000
# 4 0.0000 0.0000 0.0000 24.9079 0.0000 -5.8487
# 5 -0.9516 -6.5468 10.7361 0.0000 25.9739 0.0000
# 6 0.0000 0.0000 0.0000 -5.8487 0.0000 16.2980
#
#
#
# Elastic Compliance Matrix: (Units=1/GPa)
#
#
# Indices 1 2 3 4 5 6 
#
# 1 0.014030 -0.006569 -0.005387 0.000000 0.001085 0.000000
# 2 -0.006569 0.018591 -0.001461 0.000000 0.005049 0.000000
# 3 -0.005387 -0.001461 0.013648 0.000000 -0.006207 0.000000
# 4 0.000000 0.000000 0.000000 0.043842 0.000000 0.015733
# 5 0.001085 0.005049 -0.006207 0.000000 0.042378 0.000000
# 6 0.000000 0.000000 0.000000 0.015733 0.000000 0.067003
#
#
# Mechanical properties :
#
#
# Convention : Reuss Voigt Hill
#
# Bulk Modulus (GPa) = 51.45519 56.03856 53.74687
# Shear Modulus (GPa) = 21.47711 24.72729 23.10220
#
# Velocity S-wave (km/s) = 3.30097 3.54194 3.42358
# Velocity P-wave (km/s) = 6.37450 6.71999 6.54952
#
# Compressibility (1/GPa) = 0.01943439
#
# Stress axis : x y z
#
# Youngs Moduli (GPa) = 71.27633 53.78884 73.27073
#
# Poissons Ratio (x) = 0.35336 0.39469
# Poissons Ratio (y) = 0.46824 0.10707
# Poissons Ratio (z) = 0.38395 0.07860
#
# Static dielectric constant tensor:
#      x y z
#    x 1.715040 0.000000 0.009120 
#    y 0.000000 1.718030 0.000000 
#    z 0.009120 0.000000 1.751930 
# 
# From -- ./inp_files/23636.got.cif
#   From: 2010.05.17/outbox.ucp.g08.bks.cvg/sg13_12_cif.got.tgz:23636.got - 2010.06.11 12:23:55.
