data_PCOD9238541
_publ_section_title
;
Structure prediction by ZEFSAII (Michael W. Deem and Ramdas Pophale) SiO2 
 PCOD9238541
Probable space group: P 2/C
;
_chemical_formula_sum "Si O2"
_cell_formula_units_Z 16
_cell_length_a 7.400065
_cell_length_b 5.515421
_cell_length_c 18.309074
_cell_angle_alpha 90.000000
_cell_angle_beta 133.606290
_cell_angle_gamma 90.000000
_cell_volume 541.099112
_symmetry_space_group_name_H-M "P 2/C"
_symmetry_group_IT_number 13
_symmetry_cell_setting 'monoclinic'
loop_
_space_group_symop_operation_xyz
x,y,z
-x,y,1/2-z
-x,-y,-z
x,-y,1/2+z
loop_
_atom_site_type_symbol
_atom_site_label
_atom_site_fract_x
_atom_site_fract_y
_atom_site_fract_z
Si Si1 0.262334 0.750001 0.091172
Si Si2 0.921689 0.750000 0.143980
Si Si3 0.088304 0.250000 0.390244
Si Si4 0.452533 0.749999 0.821646
O O1 0.139277 0.750001 0.139213
O O2 0.426493 0.508213 0.122814
O O3 0.426492 0.991789 0.122814
O O4 0.053255 0.750000 0.968609
O O5 0.781795 0.500804 0.091075
O O6 0.000000 0.750000 0.250000
O O7 0.781795 0.999197 0.091075
O O8 0.847393 0.250000 0.269724
O O9 0.500000 0.749999 0.750000
#
# Coordination Sequence:
#
# PCOD9238541 Si02
#       4
#     4   4   4   4
#     4  12  24  44  71 102 129 173 227 278 322 390
#     4  12  24  42  68  99 137 179 213 267 344 397
#     4  12  25  44  73  98 130 177 227 273 325 391
#     4  12  23  39  72 105 129 164 229 287 322 373
#
# _framework density 29.56944
#
# number of rings (size 3 to 8) (size 9 to 14) (size 15 to 20)
#    0.000    0.000    5.000    6.000    0.000    0.000 
#    0.000    0.000    0.000   51.000    0.000    0.000 
#    0.000    0.000    0.000    0.000    0.000    0.000 
#
# Total GULP energy -89515.151629 kJ/mol
# GULP energy per Si atom -5594.696977 kJ/mol
# Density = 2.950214 g / cm^3
# Si number density = 29.569440 Si / 1000 Ang^3
#
#
#
# Elastic Constant Matrix: (Units=GPa)
#
#
# Indices 1 2 3 4 5 6 
#
# 1 203.3918 49.3979 82.8309 0.0000 -20.4477 0.0000
# 2 49.3979 373.3178 101.4058 0.0000 12.7524 0.0000
# 3 82.8309 101.4058 211.5387 0.0000 -15.6568 0.0000
# 4 0.0000 0.0000 0.0000 36.2835 0.0000 -17.6794
# 5 -20.4477 12.7524 -15.6568 0.0000 69.9261 0.0000
# 6 0.0000 0.0000 0.0000 -17.6794 0.0000 -11.3639
#
#
#
# Elastic Compliance Matrix: (Units=1/GPa)
#
#
# Indices 1 2 3 4 5 6 
#
# 1 0.005975 -0.000261 -0.002117 0.000000 0.001321 0.000000
# 2 -0.000261 0.003149 -0.001480 0.000000 -0.000982 0.000000
# 3 -0.002117 -0.001480 0.006345 0.000000 0.001072 0.000000
# 4 0.000000 0.000000 0.000000 0.015677 0.000000 -0.024389
# 5 0.001321 -0.000982 0.001072 0.000000 0.015106 0.000000
# 6 0.000000 0.000000 0.000000 -0.024389 0.000000 -0.050054
#
#
# Mechanical properties :
#
#
# Convention : Reuss Voigt Hill
#
# Bulk Modulus (GPa) = 128.97519 139.50194 134.23856
# Shear Modulus (GPa) = 769.65416 55.94339 412.79878
#
# Velocity S-wave (km/s) = 16.15092 4.35435 11.82820
# Velocity P-wave (km/s) = 19.78674 8.51826 15.23279
#
# Compressibility (1/GPa) = 0.00775343
#
# Stress axis : x y z
#
# Youngs Moduli (GPa) = 167.37059 317.58735 157.60688
#
# Poissons Ratio (x) = 0.08280 0.33362
# Poissons Ratio (y) = 0.04364 0.23326
# Poissons Ratio (z) = 0.35428 0.47003
#
# Static dielectric constant tensor:
#      x y z
#    x 2.672170 0.000000 0.354600 
#    y 0.000000 2.407260 0.000000 
#    z 0.354600 0.000000 2.577490 
# 
# From -- ./inp_files/77047.got.cif
#   From: 2010.05.17/outbox.cif.g08.bks.cpg/sg13_39_cif.got.tgz:77047.got - 2010.06.03 16:44:36.
