data_PCOD9238932
_publ_section_title
;
Structure prediction by ZEFSAII (Michael W. Deem and Ramdas Pophale) SiO2 
 PCOD9238932
Probable space group: P 2/C
;
_chemical_formula_sum "Si O2"
_cell_formula_units_Z 26
_cell_length_a 12.000000
_cell_length_b 9.000000
_cell_length_c 15.000000
_cell_angle_alpha 90.000000
_cell_angle_beta 60.000000
_cell_angle_gamma 90.000000
_cell_volume 1402.961154
_symmetry_space_group_name_H-M "P 2/C"
_symmetry_group_IT_number 13
_symmetry_cell_setting 'monoclinic'
loop_
_space_group_symop_operation_xyz
x,y,z
-x,y,1/2-z
-x,-y,-z
x,-y,1/2+z
loop_
_atom_site_type_symbol
_atom_site_label
_atom_site_fract_x
_atom_site_fract_y
_atom_site_fract_z
Si Si1 0.627743 0.652589 0.153729
Si Si2 0.618956 0.330142 0.258493
Si Si3 0.101108 0.800626 0.397392
Si Si4 0.444457 0.238414 0.014017
Si Si5 0.284014 0.071742 0.560036
Si Si6 0.000000 0.159256 0.750000
Si Si7 0.834843 0.137243 0.087609
O O1 0.500000 0.726939 0.250000
O O2 0.634409 0.491604 0.202545
O O3 0.767245 0.725128 0.119924
O O4 0.593703 0.665772 0.060449
O O5 0.500000 0.260284 0.250000
O O6 0.585541 0.320034 0.378193
O O7 0.746603 0.236230 0.186704
O O8 0.050711 0.756504 0.318622
O O9 0.973145 0.787555 0.509930
O O10 0.132711 0.977025 0.383316
O O11 0.352471 0.090286 0.044004
O O12 0.597026 0.183328 0.955929
O O13 0.245063 0.107765 0.472616
O O14 0.139303 0.081997 0.664110
#
# Coordination Sequence:
#
# PCOD9238932 Si02
#       7
#     4   4   4   4   4   2   4
#     4  11  25  42  63  93 129 174 212 266 318 391
#     4  11  24  41  63  93 131 173 214 264 323 384
#     4  10  21  39  63  92 127 160 217 263 325 380
#     4  11  22  42  65  99 129 170 217 269 327 386
#     4  10  20  37  68  99 125 162 217 273 327 379
#     4  10  20  36  62  98 124 164 204 270 324 380
#     4  10  20  40  65  91 125 165 211 276 318 382
#
# _framework density 18.532230999999999
#
# number of rings (size 3 to 8) (size 9 to 14) (size 15 to 20)
#    0.000    1.538    3.077    1.846    0.000    4.923 
#    5.538    0.000    0.000    0.000    0.000    0.000 
#    0.000    0.000    0.000    0.000    0.000    0.000 
#
# Total GULP energy -144749.515725 kJ/mol
# GULP energy per Si atom -5567.289066 kJ/mol
# Density = 1.849005 g / cm^3
# Si number density = 18.532231 Si / 1000 Ang^3
#
#
#
# Elastic Constant Matrix: (Units=GPa)
#
#
# Indices 1 2 3 4 5 6 
#
# 1 164.1031 26.0794 61.7881 0.0000 -8.3650 0.0000
# 2 26.0794 56.8214 36.5924 0.0000 -6.5631 0.0000
# 3 61.7881 36.5924 143.3033 0.0000 2.7265 0.0000
# 4 0.0000 0.0000 0.0000 24.7304 0.0000 -4.4956
# 5 -8.3650 -6.5631 2.7265 0.0000 60.3157 0.0000
# 6 0.0000 0.0000 0.0000 -4.4956 0.0000 32.4378
#
#
#
# Elastic Compliance Matrix: (Units=1/GPa)
#
#
# Indices 1 2 3 4 5 6 
#
# 1 0.007454 -0.001464 -0.002859 0.000000 0.001004 0.000000
# 2 -0.001464 0.021745 -0.004967 0.000000 0.002388 0.000000
# 3 -0.002859 -0.004967 0.009505 0.000000 -0.001367 0.000000
# 4 0.000000 0.000000 0.000000 0.041481 0.000000 0.005749
# 5 0.001004 0.002388 -0.001367 0.000000 0.017040 0.000000
# 6 0.000000 0.000000 0.000000 0.005749 0.000000 0.031625
#
#
# Mechanical properties :
#
#
# Convention : Reuss Voigt Hill
#
# Bulk Modulus (GPa) = 49.69048 68.12752 58.90900
# Shear Modulus (GPa) = 32.43815 39.48131 35.95973
#
# Velocity S-wave (km/s) = 4.18827 4.62065 4.40976
# Velocity P-wave (km/s) = 7.08943 8.08138 7.60160
#
# Compressibility (1/GPa) = 0.02012458
#
# Stress axis : x y z
#
# Youngs Moduli (GPa) = 134.15400 45.98693 105.20409
#
# Poissons Ratio (x) = 0.06732 0.30081
# Poissons Ratio (y) = 0.19639 0.52254
# Poissons Ratio (z) = 0.38358 0.22841
#
# Static dielectric constant tensor:
#      x y z
#    x 1.640140 0.000000 -0.005550 
#    y 0.000000 1.675590 0.000000 
#    z -0.005550 0.000000 1.688160 
# 
# From -- ./inp_files/49887.got.cif
#   From: 2010.05.17/outbox.ucp.g08.bks.cvg/sg13_25_cif.got.tgz:49887.got - 2010.06.11 12:23:55.
