data_PCOD9238603
_publ_section_title
;
Structure prediction by ZEFSAII (Michael W. Deem and Ramdas Pophale) SiO2 
 PCOD9238603
Probable space group: P 2/C
;
_chemical_formula_sum "Si O2"
_cell_formula_units_Z 18
_cell_length_a 5.085468
_cell_length_b 9.947325
_cell_length_c 16.748386
_cell_angle_alpha 90.000000
_cell_angle_beta 65.542018
_cell_angle_gamma 90.000000
_cell_volume 771.219687
_symmetry_space_group_name_H-M "P 2/C"
_symmetry_group_IT_number 13
_symmetry_cell_setting 'monoclinic'
loop_
_space_group_symop_operation_xyz
x,y,z
-x,y,1/2-z
-x,-y,-z
x,-y,1/2+z
loop_
_atom_site_type_symbol
_atom_site_label
_atom_site_fract_x
_atom_site_fract_y
_atom_site_fract_z
Si Si1 0.000000 0.912637 0.250000
Si Si2 0.841628 0.979850 0.618455
Si Si3 0.000000 0.357454 0.250000
Si Si4 0.518655 0.757257 0.108405
Si Si5 0.381463 0.813930 0.578798
Si Si6 0.500000 0.543411 0.250000
O O1 0.789104 0.820715 0.327945
O O2 0.806826 0.006153 0.218236
O O3 0.648262 0.872982 0.595633
O O4 0.177480 0.936537 0.573238
O O5 0.752689 0.127097 0.599423
O O6 0.180339 0.271419 0.163163
O O7 0.226074 0.450832 0.267616
O O8 0.558146 0.635159 0.164684
O O9 0.529079 0.733917 0.012315
#
# Coordination Sequence:
#
# PCOD9238603 Si02
#       6
#     2   4   2   4   4   2
#     4  12  24  42  74 114 152 194 230 284 386 434
#     4  12  25  45  73 116 148 187 231 305 378 461
#     4  12  30  50  70 106 140 214 250 318 346 426
#     4  12  27  46  78 112 146 197 237 315 367 447
#     4  12  29  46  76 109 158 184 248 297 386 442
#     4  12  28  50  76  98 148 196 278 290 362 424
#
# _framework density 23.339653999999999
#
# number of rings (size 3 to 8) (size 9 to 14) (size 15 to 20)
#    0.000    0.000    4.444    4.000    6.222    1.778 
#    0.000    0.000    0.000    0.000    0.000    0.000 
#    0.000    0.000    0.000    0.000    0.000    0.000 
#
# Total GULP energy -100795.589219 kJ/mol
# GULP energy per Si atom -5599.754957 kJ/mol
# Density = 2.328653 g / cm^3
# Si number density = 23.339654 Si / 1000 Ang^3
#
#
#
# Elastic Constant Matrix: (Units=GPa)
#
#
# Indices 1 2 3 4 5 6 
#
# 1 166.9347 39.4361 54.3730 0.0000 25.9339 0.0000
# 2 39.4361 87.9990 64.7710 0.0000 14.8363 0.0000
# 3 54.3730 64.7710 220.6297 0.0000 18.0001 0.0000
# 4 0.0000 0.0000 0.0000 22.5801 0.0000 7.3791
# 5 25.9339 14.8363 18.0001 0.0000 39.4677 0.0000
# 6 0.0000 0.0000 0.0000 7.3791 0.0000 43.7636
#
#
#
# Elastic Compliance Matrix: (Units=1/GPa)
#
#
# Indices 1 2 3 4 5 6 
#
# 1 0.007328 -0.001989 -0.000925 0.000000 -0.003646 0.000000
# 2 -0.001989 0.015559 -0.003850 0.000000 -0.002786 0.000000
# 3 -0.000925 -0.003850 0.005944 0.000000 -0.000656 0.000000
# 4 0.000000 0.000000 0.000000 0.046869 0.000000 -0.007903
# 5 -0.003646 -0.002786 -0.000656 0.000000 0.029079 0.000000
# 6 0.000000 0.000000 0.000000 -0.007903 0.000000 0.024183
#
#
# Mechanical properties :
#
#
# Convention : Reuss Voigt Hill
#
# Bulk Modulus (GPa) = 65.34441 88.08040 76.71240
# Shear Modulus (GPa) = 33.87768 42.29450 38.08609
#
# Velocity S-wave (km/s) = 3.81400 4.26153 4.04396
# Velocity P-wave (km/s) = 6.88864 7.87621 7.39892
#
# Compressibility (1/GPa) = 0.01530353
#
# Stress axis : x y z
#
# Youngs Moduli (GPa) = 136.46860 64.27325 168.23136
#
# Poissons Ratio (x) = 0.12782 0.15555
# Poissons Ratio (y) = 0.27139 0.64773
# Poissons Ratio (z) = 0.12618 0.24747
#
# Static dielectric constant tensor:
#      x y z
#    x 1.879860 0.000000 0.001090 
#    y 0.000000 1.871000 0.000000 
#    z 0.001090 0.000000 2.000660 
# 
# From -- ./inp_files/43266.got.cif
#   From: 2010.05.17/outbox.cif.g08.bks.cpg/sg13_22_cif.got.tgz:43266.got - 2010.06.03 16:44:36.
