data_PCOD9238481
_publ_section_title
;
Structure prediction by ZEFSAII (Michael W. Deem and Ramdas Pophale) SiO2 
 PCOD9238481
Probable space group: P 2/C
;
_chemical_formula_sum "Si O2"
_cell_formula_units_Z 18
_cell_length_a 11.511634
_cell_length_b 7.250990
_cell_length_c 17.143807
_cell_angle_alpha 90.000000
_cell_angle_beta 31.451394
_cell_angle_gamma 90.000000
_cell_volume 746.663392
_symmetry_space_group_name_H-M "P 2/C"
_symmetry_group_IT_number 13
_symmetry_cell_setting 'monoclinic'
loop_
_space_group_symop_operation_xyz
x,y,z
-x,y,1/2-z
-x,-y,-z
x,-y,1/2+z
loop_
_atom_site_type_symbol
_atom_site_label
_atom_site_fract_x
_atom_site_fract_y
_atom_site_fract_z
Si Si1 0.000000 0.285185 0.750000
Si Si2 0.352124 0.842982 0.164975
Si Si3 0.351055 0.543176 0.464268
Si Si4 0.101224 0.300770 0.962619
Si Si5 0.386550 0.185193 0.232794
O O1 0.158530 0.163299 0.712888
O O2 0.150837 0.421592 0.612063
O O3 0.533935 0.685807 0.042578
O O4 0.238640 0.776907 0.311406
O O5 0.451040 0.042002 0.128178
O O6 0.257918 0.666615 0.446956
O O7 0.528250 0.390726 0.334384
O O8 0.880334 0.183728 0.107446
O O9 0.000000 0.500000 0.000000
O O10 0.500000 0.132267 0.250000
#
# Coordination Sequence:
#
# PCOD9238481 Si02
#       5
#     2   4   4   4   4
#     4  12  26  46  66  92 142 184 226 276 330 398
#     4  12  26  43  69 102 133 178 224 273 340 398
#     4  12  24  46  69  98 134 177 227 278 333 398
#     4  12  21  43  74 101 132 169 219 280 338 393
#     4  12  23  42  71 101 134 169 219 285 334 394
#
# _framework density 24.107247999999998
#
# number of rings (size 3 to 8) (size 9 to 14) (size 15 to 20)
#    0.000    0.000    6.667    3.333    0.000    2.667 
#    0.000    5.556    0.000    0.000    0.000    0.000 
#    0.000    0.000    0.000    0.000    0.000    0.000 
#
# Total GULP energy -100945.758743 kJ/mol
# GULP energy per Si atom -5608.097708 kJ/mol
# Density = 2.405238 g / cm^3
# Si number density = 24.107248 Si / 1000 Ang^3
#
#
#
# Elastic Constant Matrix: (Units=GPa)
#
#
# Indices 1 2 3 4 5 6 
#
# 1 176.6642 58.3615 3.3311 0.0000 -24.1603 0.0000
# 2 58.3615 112.0728 7.9869 0.0000 -15.5496 0.0000
# 3 3.3311 7.9869 92.0467 0.0000 -9.4103 0.0000
# 4 0.0000 0.0000 0.0000 27.8140 0.0000 5.8966
# 5 -24.1603 -15.5496 -9.4103 0.0000 32.1531 0.0000
# 6 0.0000 0.0000 0.0000 5.8966 0.0000 15.0952
#
#
#
# Elastic Compliance Matrix: (Units=1/GPa)
#
#
# Indices 1 2 3 4 5 6 
#
# 1 0.007280 -0.003264 0.000431 0.000000 0.004018 0.000000
# 2 -0.003264 0.011040 -0.000562 0.000000 0.002722 0.000000
# 3 0.000431 -0.000562 0.011239 0.000000 0.003341 0.000000
# 4 0.000000 0.000000 0.000000 0.039199 0.000000 -0.015312
# 5 0.004018 0.002722 0.003341 0.000000 0.036415 0.000000
# 6 0.000000 0.000000 0.000000 -0.015312 0.000000 0.072228
#
#
# Mechanical properties :
#
#
# Convention : Reuss Voigt Hill
#
# Bulk Modulus (GPa) = 43.92021 57.79363 50.85692
# Shear Modulus (GPa) = 26.07137 35.75273 30.91205
#
# Velocity S-wave (km/s) = 3.29215 3.85524 3.58477
# Velocity P-wave (km/s) = 5.71919 6.62139 6.18676
#
# Compressibility (1/GPa) = 0.02276856
#
# Stress axis : x y z
#
# Youngs Moduli (GPa) = 137.35894 90.57674 88.97762
#
# Poissons Ratio (x) = 0.29568 -0.03831
# Poissons Ratio (y) = 0.44839 0.04997
# Poissons Ratio (z) = -0.05914 0.05086
#
# Static dielectric constant tensor:
#      x y z
#    x 1.983650 0.000000 -0.055220 
#    y 0.000000 1.915870 0.000000 
#    z -0.055220 0.000000 2.022410 
# 
# From -- ./inp_files/66249.got.cif
#   From: 2010.05.17/outbox.cif.g08.bks.cpg/sg13_34_cif.got.tgz:66249.got - 2010.06.03 16:44:36.
