data_PCOD9238352
_publ_section_title
;
Structure prediction by ZEFSAII (Michael W. Deem and Ramdas Pophale) SiO2 
 PCOD9238352
Probable space group: P 2/C
;
_chemical_formula_sum "Si O2"
_cell_formula_units_Z 20
_cell_length_a 7.949383
_cell_length_b 5.261729
_cell_length_c 22.993341
_cell_angle_alpha 90.000000
_cell_angle_beta 53.802229
_cell_angle_gamma 90.000000
_cell_volume 776.119364
_symmetry_space_group_name_H-M "P 2/C"
_symmetry_group_IT_number 13
_symmetry_cell_setting 'monoclinic'
loop_
_space_group_symop_operation_xyz
x,y,z
-x,y,1/2-z
-x,-y,-z
x,-y,1/2+z
loop_
_atom_site_type_symbol
_atom_site_label
_atom_site_fract_x
_atom_site_fract_y
_atom_site_fract_z
Si Si1 0.214756 0.497926 0.057241
Si Si2 0.811452 0.198660 0.043590
Si Si3 0.221065 0.275205 0.740151
Si Si4 0.457834 0.158971 0.579716
Si Si5 0.169120 0.236227 0.324113
O O1 0.250811 0.755496 0.087021
O O2 0.076962 0.309301 0.123852
O O3 0.115043 0.595490 0.018382
O O4 0.392372 0.325828 0.991861
O O5 0.771288 0.241819 0.120000
O O6 0.588545 0.097469 0.062881
O O7 0.000000 0.000000 0.000000
O O8 0.403950 0.250255 0.655278
O O9 0.258120 0.528192 0.769644
O O10 0.000000 0.287539 0.750000
O O11 0.784048 0.027369 0.717370
#
# Coordination Sequence:
#
# PCOD9238352 Si02
#       5
#     4   4   4   4   4
#     4  11  25  49  80 111 153 208 275 318 397 478
#     4  12  26  47  76 115 155 202 266 335 401 468
#     4  12  28  50  79 112 160 204 265 324 406 477
#     4  11  27  47  79 115 151 211 264 332 386 486
#     4  12  27  49  79 113 158 210 253 333 406 472
#
# _framework density 25.769234999999998
#
# number of rings (size 3 to 8) (size 9 to 14) (size 15 to 20)
#    0.000    0.400    4.000    3.000    5.600    2.400 
#    0.000    0.000    0.000    0.000    0.000    0.000 
#    0.000    0.000    0.000    0.000    0.000    0.000 
#
# Total GULP energy -111677.880657 kJ/mol
# GULP energy per Si atom -5583.894033 kJ/mol
# Density = 2.571058 g / cm^3
# Si number density = 25.769235 Si / 1000 Ang^3
#
#
#
# Elastic Constant Matrix: (Units=GPa)
#
#
# Indices 1 2 3 4 5 6 
#
# 1 66.0055 29.7374 17.9044 0.0000 31.8867 0.0000
# 2 29.7374 81.0886 31.5180 0.0000 28.4055 0.0000
# 3 17.9044 31.5180 195.9634 0.0000 20.1710 0.0000
# 4 0.0000 0.0000 0.0000 54.4964 0.0000 18.8709
# 5 31.8867 28.4055 20.1710 0.0000 51.8613 0.0000
# 6 0.0000 0.0000 0.0000 18.8709 0.0000 16.7923
#
#
#
# Elastic Compliance Matrix: (Units=1/GPa)
#
#
# Indices 1 2 3 4 5 6 
#
# 1 0.022683 -0.004183 -0.000208 0.000000 -0.011574 0.000000
# 2 -0.004183 0.016568 -0.001681 0.000000 -0.005849 0.000000
# 3 -0.000208 -0.001681 0.005505 0.000000 -0.001092 0.000000
# 4 0.000000 0.000000 0.000000 0.030039 0.000000 -0.033758
# 5 -0.011574 -0.005849 -0.001092 0.000000 0.030027 0.000000
# 6 0.000000 0.000000 0.000000 -0.033758 0.000000 0.097487
#
#
# Mechanical properties :
#
#
# Convention : Reuss Voigt Hill
#
# Bulk Modulus (GPa) = 30.66314 55.70857 43.18585
# Shear Modulus (GPa) = 22.19026 42.22318 32.20672
#
# Velocity S-wave (km/s) = 2.93766 4.05224 3.53910
# Velocity P-wave (km/s) = 4.84060 6.59996 5.78752
#
# Compressibility (1/GPa) = 0.03261245
#
# Stress axis : x y z
#
# Youngs Moduli (GPa) = 44.08644 60.35573 181.66063
#
# Poissons Ratio (x) = 0.25246 0.03784
# Poissons Ratio (y) = 0.18441 0.30529
# Poissons Ratio (z) = 0.00918 0.10143
#
# Static dielectric constant tensor:
#      x y z
#    x 2.292880 0.000000 -0.127150 
#    y 0.000000 1.926600 0.000000 
#    z -0.127150 0.000000 1.974200 
# 
# From -- ./inp_files/84137.got.cif
#   From: 2010.05.17/outbox.cif.g08.bks.cpg/sg13_43_cif.got.tgz:84137.got - 2010.06.03 16:44:36.
