data_PCOD9238287
_publ_section_title
;
Structure prediction by ZEFSAII (Michael W. Deem and Ramdas Pophale) SiO2 
 PCOD9238287
Probable space group: P 2/C
;
_chemical_formula_sum "Si O2"
_cell_formula_units_Z 22
_cell_length_a 17.717419
_cell_length_b 9.628024
_cell_length_c 13.181972
_cell_angle_alpha 90.000000
_cell_angle_beta 30.258836
_cell_angle_gamma 90.000000
_cell_volume 1133.100835
_symmetry_space_group_name_H-M "P 2/C"
_symmetry_group_IT_number 13
_symmetry_cell_setting 'monoclinic'
loop_
_space_group_symop_operation_xyz
x,y,z
-x,y,1/2-z
-x,-y,-z
x,-y,1/2+z
loop_
_atom_site_type_symbol
_atom_site_label
_atom_site_fract_x
_atom_site_fract_y
_atom_site_fract_z
Si Si1 0.377117 0.878574 0.631814
Si Si2 0.821757 0.793655 0.439138
Si Si3 0.260604 0.523989 0.512013
Si Si4 0.882412 0.953037 0.721223
Si Si5 0.000000 0.266989 0.250000
Si Si6 0.537973 0.594004 0.049813
O O1 0.258497 0.901677 0.679547
O O2 0.467280 0.746485 0.488616
O O3 0.500000 0.000000 0.500000
O O4 0.279382 0.841780 0.846653
O O5 0.769518 0.640698 0.463806
O O6 0.000000 0.778234 0.250000
O O7 0.179530 0.918680 0.140256
O O8 0.135718 0.623568 0.607589
O O9 0.406711 0.562910 0.279658
O O10 0.304155 0.561528 0.577616
O O11 0.966352 0.840055 0.695707
O O12 0.000000 0.000000 0.500000
O O13 0.500000 0.500000 0.000000
#
# Coordination Sequence:
#
# PCOD9238287 Si02
#       6
#     4   4   4   4   2   4
#     4  12  28  46  72 106 142 193 236 296 367 427
#     4  12  25  47  71 107 142 183 241 298 358 428
#     4  11  26  43  74 103 141 190 237 298 354 434
#     4  12  26  46  71 104 146 183 238 301 357 427
#     4  12  24  46  72 104 136 188 238 288 356 422
#     4  11  25  46  66 103 148 182 240 291 359 422
#
# _framework density 19.415749000000002
#
# number of rings (size 3 to 8) (size 9 to 14) (size 15 to 20)
#    0.000    0.364    7.273    0.000    7.636    0.727 
#    0.000    3.636    0.000    0.000    0.000    0.000 
#    0.000    0.000    0.000    0.000    0.000    0.000 
#
# Total GULP energy -122606.919232 kJ/mol
# GULP energy per Si atom -5573.041783 kJ/mol
# Density = 1.937156 g / cm^3
# Si number density = 19.415749 Si / 1000 Ang^3
#
#
#
# Elastic Constant Matrix: (Units=GPa)
#
#
# Indices 1 2 3 4 5 6 
#
# 1 147.9750 87.2362 48.2198 0.0000 -9.1636 0.0000
# 2 87.2362 192.4999 52.3309 0.0000 -0.1904 0.0000
# 3 48.2198 52.3309 77.3983 0.0000 -3.6150 0.0000
# 4 0.0000 0.0000 0.0000 33.6997 0.0000 11.5323
# 5 -9.1636 -0.1904 -3.6150 0.0000 35.9336 0.0000
# 6 0.0000 0.0000 0.0000 11.5323 0.0000 -66.2203
#
#
#
# Elastic Compliance Matrix: (Units=1/GPa)
#
#
# Indices 1 2 3 4 5 6 
#
# 1 0.010280 -0.003606 -0.003863 0.000000 0.002214 0.000000
# 2 -0.003606 0.007636 -0.002971 0.000000 -0.001178 0.000000
# 3 -0.003863 -0.002971 0.017370 0.000000 0.000747 0.000000
# 4 0.000000 0.000000 0.000000 0.028005 0.000000 0.004877
# 5 0.002214 -0.001178 0.000747 0.000000 0.028463 0.000000
# 6 0.000000 0.000000 0.000000 0.004877 0.000000 -0.014252
#
#
# Mechanical properties :
#
#
# Convention : Reuss Voigt Hill
#
# Bulk Modulus (GPa) = 69.41615 88.16077 78.78846
# Shear Modulus (GPa) = 48.45772 16.02168 32.23970
#
# Velocity S-wave (km/s) = 5.00121 2.87573 4.07933
# Velocity P-wave (km/s) = 8.31743 7.51876 7.92816
#
# Compressibility (1/GPa) = 0.01440587
#
# Stress axis : x y z
#
# Youngs Moduli (GPa) = 97.27899 130.96656 57.56980
#
# Poissons Ratio (x) = 0.47230 0.22237
# Poissons Ratio (y) = 0.35081 0.17103
# Poissons Ratio (z) = 0.37576 0.38908
#
# Static dielectric constant tensor:
#      x y z
#    x 1.793040 0.000000 -0.033360 
#    y 0.000000 1.619040 0.000000 
#    z -0.033360 0.000000 1.678060 
# 
# From -- ./inp_files/55018.got.cif
#   From: 2010.05.17/outbox.cif.g08.bks.cpg/sg13_28_cif.got.tgz:55018.got - 2010.06.03 16:44:36.
