data_PCOD9238048
_publ_section_title
;
Structure prediction by ZEFSAII (Michael W. Deem and Ramdas Pophale) SiO2 
 PCOD9238048
Probable space group: P 2/C
;
_chemical_formula_sum "Si O2"
_cell_formula_units_Z 32
_cell_length_a 6.747036
_cell_length_b 11.523920
_cell_length_c 21.562765
_cell_angle_alpha 90.000000
_cell_angle_beta 112.102698
_cell_angle_gamma 90.000000
_cell_volume 1553.346172
_symmetry_space_group_name_H-M "P 2/C"
_symmetry_group_IT_number 13
_symmetry_cell_setting 'monoclinic'
loop_
_space_group_symop_operation_xyz
x,y,z
-x,y,1/2-z
-x,-y,-z
x,-y,1/2+z
loop_
_atom_site_type_symbol
_atom_site_label
_atom_site_fract_x
_atom_site_fract_y
_atom_site_fract_z
Si Si1 0.160386 0.907563 0.323181
Si Si2 0.910281 0.326309 0.924204
Si Si3 0.413875 0.870276 0.987333
Si Si4 0.875527 0.628012 0.170997
Si Si5 0.714108 0.266049 0.434784
Si Si6 0.376971 0.120773 0.614086
Si Si7 0.951012 0.923878 0.902497
Si Si8 0.447719 0.516854 0.067400
O O1 0.141691 0.768938 0.332015
O O2 0.406452 0.926826 0.330445
O O3 0.000000 0.935213 0.250000
O O4 0.073463 0.995242 0.365905
O O5 0.764746 0.224464 0.876470
O O6 0.757718 0.400704 0.950211
O O7 0.994170 0.400761 0.876355
O O8 0.105235 0.276980 0.988970
O O9 0.520287 0.803860 0.944060
O O10 0.160491 0.872308 0.958965
O O11 0.472936 0.825598 0.061899
O O12 0.500000 0.000000 0.000000
O O13 0.644874 0.569541 0.130480
O O14 0.000000 0.597583 0.250000
O O15 0.803684 0.192677 0.386835
O O16 0.625884 0.393814 0.413236
O O17 0.209953 0.015998 0.585208
O O18 0.500000 0.500000 0.000000
#
# Coordination Sequence:
#
# PCOD9238048 Si02
#       8
#     4   4   4   4   4   4   4   4
#     4  11  24  43  64  95 139 183 224 287 343 416
#     4  12  23  41  70 102 137 175 228 286 357 412
#     4  12  21  35  61  96 137 165 212 272 342 401
#     4  11  25  45  69 100 140 184 231 289 356 414
#     4  12  25  38  66 105 136 179 220 284 349 416
#     4  12  21  37  63  99 133 170 216 278 341 410
#     4  12  23  37  64  99 134 174 222 274 351 413
#     4  12  26  44  70 102 139 179 236 297 350 421
#
# _framework density 20.600687000000001
#
# number of rings (size 3 to 8) (size 9 to 14) (size 15 to 20)
#    0.000    0.250    7.500    3.000    0.000    1.000 
#    0.000    0.000    0.000   11.250    0.000    0.000 
#    0.000    0.000    0.000    0.000    0.000    0.000 
#
# Total GULP energy -178195.842517 kJ/mol
# GULP energy per Si atom -5568.620079 kJ/mol
# Density = 2.055380 g / cm^3
# Si number density = 20.600687 Si / 1000 Ang^3
#
#
#
# Elastic Constant Matrix: (Units=GPa)
#
#
# Indices 1 2 3 4 5 6 
#
# 1 117.2088 30.7586 30.1877 0.0000 19.7740 0.0000
# 2 30.7586 100.2122 7.4254 0.0000 1.8380 0.0000
# 3 30.1877 7.4254 75.0177 0.0000 17.9107 0.0000
# 4 0.0000 0.0000 0.0000 18.1370 0.0000 0.7520
# 5 19.7740 1.8380 17.9107 0.0000 18.3321 0.0000
# 6 0.0000 0.0000 0.0000 0.7520 0.0000 51.8939
#
#
#
# Elastic Compliance Matrix: (Units=1/GPa)
#
#
# Indices 1 2 3 4 5 6 
#
# 1 0.011614 -0.003235 -0.001878 0.000000 -0.010368 0.000000
# 2 -0.003235 0.010954 -0.000461 0.000000 0.002842 0.000000
# 3 -0.001878 -0.000461 0.017786 0.000000 -0.015305 0.000000
# 4 0.000000 0.000000 0.000000 0.055169 0.000000 -0.000799
# 5 -0.010368 0.002842 -0.015305 0.000000 0.080401 0.000000
# 6 0.000000 0.000000 0.000000 -0.000799 0.000000 0.019282
#
#
# Mechanical properties :
#
#
# Convention : Reuss Voigt Hill
#
# Bulk Modulus (GPa) = 34.24031 47.68690 40.96360
# Shear Modulus (GPa) = 23.13871 32.61038 27.87455
#
# Velocity S-wave (km/s) = 3.35505 3.98298 3.68243
# Velocity P-wave (km/s) = 5.62722 6.65963 6.16507
#
# Compressibility (1/GPa) = 0.02920535
#
# Stress axis : x y z
#
# Youngs Moduli (GPa) = 86.10583 91.29181 56.22529
#
# Poissons Ratio (x) = 0.29536 0.10558
# Poissons Ratio (y) = 0.27858 0.02591
# Poissons Ratio (z) = 0.16169 0.04207
#
# Static dielectric constant tensor:
#      x y z
#    x 1.515360 0.000000 -0.009630 
#    y 0.000000 1.549590 0.000000 
#    z -0.009630 0.000000 1.827330 
# 
# From -- ./inp_files/83817.got.cif
#   From: 2010.05.17/outbox.cif.g08.bks.cpg/sg13_42_cif.got.tgz:83817.got - 2010.06.03 16:44:36.
