data_PCOD9238548
_publ_section_title
;
Structure prediction by ZEFSAII (Michael W. Deem and Ramdas Pophale) SiO2 
 PCOD9238548
Probable space group: P 2/C
;
_chemical_formula_sum "Si O2"
_cell_formula_units_Z 22
_cell_length_a 13.376533
_cell_length_b 11.063396
_cell_length_c 15.855505
_cell_angle_alpha 90.000000
_cell_angle_beta 23.307740
_cell_angle_gamma 90.000000
_cell_volume 928.420569
_symmetry_space_group_name_H-M "P 2/C"
_symmetry_group_IT_number 13
_symmetry_cell_setting 'monoclinic'
loop_
_space_group_symop_operation_xyz
x,y,z
-x,y,1/2-z
-x,-y,-z
x,-y,1/2+z
loop_
_atom_site_type_symbol
_atom_site_label
_atom_site_fract_x
_atom_site_fract_y
_atom_site_fract_z
Si Si1 0.084470 0.796229 0.594034
Si Si2 0.848052 0.259983 0.788579
Si Si3 0.711948 0.458278 0.760532
Si Si4 0.232544 0.945337 0.940449
Si Si5 0.500000 0.601315 0.250000
Si Si6 0.625492 0.103782 0.346259
O O1 0.265862 0.693239 0.421810
O O2 0.000000 0.753907 0.750000
O O3 0.841906 0.823707 0.726563
O O4 0.217382 0.926978 0.499265
O O5 0.803899 0.337949 0.738972
O O6 0.000000 0.318545 0.750000
O O7 0.013572 0.142723 0.636707
O O8 0.580202 0.202767 0.020813
O O9 0.534866 0.465211 0.813043
O O10 0.000000 0.500000 0.500000
O O11 0.500000 0.500000 0.000000
O O12 0.500000 0.885340 0.750000
O O13 0.248907 0.964728 0.828707
O O14 0.500000 0.000000 0.500000
#
# Coordination Sequence:
#
# PCOD9238548 Si02
#       6
#     4   4   4   4   2   4
#     4  12  25  42  73 113 164 204 263 318 405 505
#     4  12  27  49  78 114 161 216 263 339 422 485
#     4  12  34  59  89 121 158 217 294 361 419 482
#     4  12  23  41  68 113 160 212 251 314 399 504
#     4  12  30  54  88 116 162 218 270 354 430 496
#     4  12  25  40  69 111 166 211 262 316 399 504
#
# _framework density 23.696158
#
# number of rings (size 3 to 8) (size 9 to 14) (size 15 to 20)
#    0.000    0.000    4.545    4.364   12.727    0.000 
#    0.000    0.000    0.000    0.000    0.000    0.000 
#    0.000    0.000    0.000    0.000    0.000    0.000 
#
# Total GULP energy -122577.595115 kJ/mol
# GULP energy per Si atom -5571.708869 kJ/mol
# Density = 2.364222 g / cm^3
# Si number density = 23.696158 Si / 1000 Ang^3
#
#
#
# Elastic Constant Matrix: (Units=GPa)
#
#
# Indices 1 2 3 4 5 6 
#
# 1 145.8157 14.2554 37.7379 0.0000 -7.5409 0.0000
# 2 14.2554 41.0605 21.6256 0.0000 2.4772 0.0000
# 3 37.7379 21.6256 123.5660 0.0000 -12.4791 0.0000
# 4 0.0000 0.0000 0.0000 23.8553 0.0000 -7.8788
# 5 -7.5409 2.4772 -12.4791 0.0000 52.5465 0.0000
# 6 0.0000 0.0000 0.0000 -7.8788 0.0000 32.9631
#
#
#
# Elastic Compliance Matrix: (Units=1/GPa)
#
#
# Indices 1 2 3 4 5 6 
#
# 1 0.007559 -0.001639 -0.001951 0.000000 0.000699 0.000000
# 2 -0.001639 0.027491 -0.004575 0.000000 -0.002618 0.000000
# 3 -0.001951 -0.004575 0.009716 0.000000 0.002243 0.000000
# 4 0.000000 0.000000 0.000000 0.045512 0.000000 0.010878
# 5 0.000699 -0.002618 0.002243 0.000000 0.019787 0.000000
# 6 0.000000 0.000000 0.000000 0.010878 0.000000 0.032937
#
#
# Mechanical properties :
#
#
# Convention : Reuss Voigt Hill
#
# Bulk Modulus (GPa) = 35.16717 50.85335 43.01026
# Shear Modulus (GPa) = 29.61882 37.66120 33.64001
#
# Velocity S-wave (km/s) = 3.53929 3.99097 3.77190
# Velocity P-wave (km/s) = 5.61918 6.53792 6.09588
#
# Compressibility (1/GPa) = 0.02843561
#
# Stress axis : x y z
#
# Youngs Moduli (GPa) = 132.28675 36.37582 102.92303
#
# Poissons Ratio (x) = 0.05962 0.20083
# Poissons Ratio (y) = 0.21681 0.47088
# Poissons Ratio (z) = 0.25813 0.16642
#
# Static dielectric constant tensor:
#      x y z
#    x 1.992740 0.000000 0.014080 
#    y 0.000000 1.930830 0.000000 
#    z 0.014080 0.000000 2.000940 
# 
# From -- ./inp_files/68501.got.cif
#   From: 2010.05.17/outbox.cif.g08.bks.cpg/sg13_35_cif.got.tgz:68501.got - 2010.06.03 16:44:36.
