data_PCOD9238889
_publ_section_title
;
Structure prediction by ZEFSAII (Michael W. Deem and Ramdas Pophale) SiO2 
 PCOD9238889
Probable space group: P 2/C
;
_chemical_formula_sum "Si O2"
_cell_formula_units_Z 24
_cell_length_a 18.000000
_cell_length_b 9.000000
_cell_length_c 24.000000
_cell_angle_alpha 90.000000
_cell_angle_beta 160.000000
_cell_angle_gamma 90.000000
_cell_volume 1329.774317
_symmetry_space_group_name_H-M "P 2/C"
_symmetry_group_IT_number 13
_symmetry_cell_setting 'monoclinic'
loop_
_space_group_symop_operation_xyz
x,y,z
-x,y,1/2-z
-x,-y,-z
x,-y,1/2+z
loop_
_atom_site_type_symbol
_atom_site_label
_atom_site_fract_x
_atom_site_fract_y
_atom_site_fract_z
Si Si1 0.177160 0.680167 0.761129
Si Si2 0.816151 0.647485 0.070961
Si Si3 0.329051 0.662131 0.078719
Si Si4 0.475849 0.165136 0.060036
Si Si5 0.799005 0.672771 0.230166
Si Si6 0.539994 0.186811 0.939078
O O1 0.290136 0.767117 0.789925
O O2 0.235112 0.504657 0.798966
O O3 0.918223 0.694742 0.576864
O O4 0.280652 0.743676 0.891707
O O5 0.000000 0.623938 0.250000
O O6 0.951415 0.694954 0.111493
O O7 0.694554 0.495077 0.970698
O O8 0.644164 0.767419 0.970956
O O9 0.500000 0.655001 0.250000
O O10 0.396777 0.780041 0.079556
O O11 0.475314 0.988264 0.060115
O O12 0.332856 0.233132 0.908782
O O13 0.689533 0.732703 0.208975
#
# Coordination Sequence:
#
# PCOD9238889 Si02
#       6
#     4   4   4   4   4   4
#     4  10  19  35  58  82 107 139 179 222 262 314
#     4   9  18  36  58  80 105 137 178 224 266 315
#     4  11  23  38  54  76 105 145 188 223 260 310
#     4  10  19  31  56  89 112 134 170 220 273 322
#     4   9  17  31  55  83 108 135 173 218 261 312
#     4  11  20  33  56  84 113 140 171 219 271 321
#
# _framework density 18.048175000000001
#
# number of rings (size 3 to 8) (size 9 to 14) (size 15 to 20)
#    0.000    2.000    0.000    8.500    0.000    5.333 
#    0.000    9.167    0.000    0.000    0.000    0.000 
#    0.000    0.000    0.000    0.000    0.000    0.000 
#
# Total GULP energy -133789.223612 kJ/mol
# GULP energy per Si atom -5574.550984 kJ/mol
# Density = 1.800710 g / cm^3
# Si number density = 18.048175 Si / 1000 Ang^3
#
#
#
# Elastic Constant Matrix: (Units=GPa)
#
#
# Indices 1 2 3 4 5 6 
#
# 1 81.3782 69.8489 59.7617 0.0000 24.7799 0.0000
# 2 69.8489 155.3716 45.6352 0.0000 19.4223 0.0000
# 3 59.7617 45.6352 70.6493 0.0000 6.5316 0.0000
# 4 0.0000 0.0000 0.0000 -3.5044 0.0000 1.6519
# 5 24.7799 19.4223 6.5316 0.0000 24.4939 0.0000
# 6 0.0000 0.0000 0.0000 1.6519 0.0000 20.4540
#
#
#
# Elastic Compliance Matrix: (Units=1/GPa)
#
#
# Indices 1 2 3 4 5 6 
#
# 1 0.081944 -0.013392 -0.055348 0.000000 -0.057523 0.000000
# 2 -0.013392 0.010793 0.003993 0.000000 0.003925 0.000000
# 3 -0.055348 0.003993 0.054862 0.000000 0.038198 0.000000
# 4 0.000000 0.000000 0.000000 -0.274894 0.000000 0.022201
# 5 -0.057523 0.003925 0.038198 0.000000 0.085723 0.000000
# 6 0.000000 0.000000 0.000000 0.022201 0.000000 0.047097
#
#
# Mechanical properties :
#
#
# Convention : Reuss Voigt Hill
#
# Bulk Modulus (GPa) = 55.22723 73.09898 64.16310
# Shear Modulus (GPa) = 35.44778 17.09894 26.27336
#
# Velocity S-wave (km/s) = 4.43658 3.08133 3.81955
# Velocity P-wave (km/s) = 7.54392 7.29723 7.42160
#
# Compressibility (1/GPa) = 0.01810701
#
# Stress axis : x y z
#
# Youngs Moduli (GPa) = 12.20341 92.65285 18.22766
#
# Poissons Ratio (x) = 1.24078 1.00886
# Poissons Ratio (y) = 0.16342 -0.07279
# Poissons Ratio (z) = 0.67543 -0.37000
#
# Static dielectric constant tensor:
#      x y z
#    x 1.685840 0.000000 0.049070 
#    y 0.000000 1.602920 0.000000 
#    z 0.049070 0.000000 1.614230 
# 
# From -- ./inp_files/87992.got.cif
#   From: 2010.05.17/outbox.ucp.g08.bks.cvg/sg13_44_cif.got.tgz:87992.got - 2010.06.11 12:23:55.
