data_PCOD9238634
_publ_section_title
;
Structure prediction by ZEFSAII (Michael W. Deem and Ramdas Pophale) SiO2 
 PCOD9238634
Probable space group: P 2/C
;
_chemical_formula_sum "Si O2"
_cell_formula_units_Z 26
_cell_length_a 11.354775
_cell_length_b 4.824329
_cell_length_c 22.675482
_cell_angle_alpha 90.000000
_cell_angle_beta 55.617040
_cell_angle_gamma 90.000000
_cell_volume 1025.118520
_symmetry_space_group_name_H-M "P 2/C"
_symmetry_group_IT_number 13
_symmetry_cell_setting 'monoclinic'
loop_
_space_group_symop_operation_xyz
x,y,z
-x,y,1/2-z
-x,-y,-z
x,-y,1/2+z
loop_
_atom_site_type_symbol
_atom_site_label
_atom_site_fract_x
_atom_site_fract_y
_atom_site_fract_z
Si Si1 0.669174 0.081982 0.797941
Si Si2 0.604162 0.455921 0.614923
Si Si3 0.097427 0.560518 0.415941
Si Si4 0.939795 0.029014 0.158867
Si Si5 0.362024 0.683444 0.021010
Si Si6 0.500000 0.166519 0.250000
Si Si7 0.241345 0.203899 0.115305
O O1 0.534594 0.263056 0.859017
O O2 0.833422 0.134666 0.734192
O O3 0.618338 0.017669 0.746337
O O4 0.690059 0.838395 0.839821
O O5 0.750440 0.334534 0.600357
O O6 0.647820 0.631865 0.545484
O O7 0.552473 0.652705 0.681559
O O8 0.024579 0.807867 0.401201
O O9 0.000000 0.500000 0.500000
O O10 0.112318 0.301675 0.364952
O O11 0.079199 0.113250 0.155388
O O12 0.246008 0.515954 0.091659
O O13 0.336356 0.000036 0.046459
O O14 0.500000 0.500000 0.000000
#
# Coordination Sequence:
#
# PCOD9238634 Si02
#       7
#     4   4   4   4   4   2   4
#     4  12  27  46  75 107 153 196 255 315 379 459
#     4  12  26  45  75 108 150 196 252 317 376 453
#     4  12  26  48  74 108 152 200 252 310 383 454
#     4  12  26  49  71 110 152 197 255 306 383 463
#     4  12  26  49  75 112 150 192 256 312 378 458
#     4  12  24  46  68 106 144 194 248 308 374 446
#     4  12  27  49  77 111 148 202 251 314 387 453
#
# _framework density 25.362921
#
# number of rings (size 3 to 8) (size 9 to 14) (size 15 to 20)
#    0.000    0.000    3.077    7.385    2.154    0.000 
#    0.000    3.077    0.000    0.000    0.000    0.000 
#    0.000    0.000    0.000    0.000    0.000    0.000 
#
# Total GULP energy -145277.736414 kJ/mol
# GULP energy per Si atom -5587.605247 kJ/mol
# Density = 2.530519 g / cm^3
# Si number density = 25.362921 Si / 1000 Ang^3
#
#
#
# Elastic Constant Matrix: (Units=GPa)
#
#
# Indices 1 2 3 4 5 6 
#
# 1 131.5496 10.6964 20.7340 0.0000 -8.2282 0.0000
# 2 10.6964 87.5480 9.6722 0.0000 3.7230 0.0000
# 3 20.7340 9.6722 107.9422 0.0000 15.4240 0.0000
# 4 0.0000 0.0000 0.0000 -179.8305 0.0000 -114.7649
# 5 -8.2282 3.7230 15.4240 0.0000 58.8887 0.0000
# 6 0.0000 0.0000 0.0000 -114.7649 0.0000 -35.0405
#
#
#
# Elastic Compliance Matrix: (Units=1/GPa)
#
#
# Indices 1 2 3 4 5 6 
#
# 1 0.008041 -0.000864 -0.001699 0.000000 0.001623 0.000000
# 2 -0.000864 0.011642 -0.000784 0.000000 -0.000651 0.000000
# 3 -0.001699 -0.000784 0.010064 0.000000 -0.002824 0.000000
# 4 0.000000 0.000000 0.000000 0.005101 0.000000 -0.016706
# 5 0.001623 -0.000651 -0.002824 0.000000 0.017989 0.000000
# 6 0.000000 0.000000 0.000000 -0.016706 0.000000 0.026178
#
#
# Mechanical properties :
#
#
# Convention : Reuss Voigt Hill
#
# Bulk Modulus (GPa) = 43.37725 45.47165 44.42445
# Shear Modulus (GPa) = 53.53678 -12.13397 20.70140
#
# Velocity S-wave (km/s) = 4.59936 -2.18964 2.86003
# Velocity P-wave (km/s) = 6.73389 3.40215 5.33478
#
# Compressibility (1/GPa) = 0.02305356
#
# Stress axis : x y z
#
# Youngs Moduli (GPa) = 124.35854 85.89460 99.36045
#
# Poissons Ratio (x) = 0.07419 0.16883
# Poissons Ratio (y) = 0.10742 0.07792
# Poissons Ratio (z) = 0.21130 0.06736
#
# Static dielectric constant tensor:
#      x y z
#    x 2.103010 0.000000 -0.081430 
#    y 0.000000 2.026060 0.000000 
#    z -0.081430 0.000000 2.033340 
# 
# From -- ./inp_files/77189.got.cif
#   From: 2010.05.17/outbox.cif.g08.bks.cpg/sg13_39_cif.got.tgz:77189.got - 2010.06.03 16:44:36.
