data_PCOD9238246
_publ_section_title
;
Structure prediction by ZEFSAII (Michael W. Deem and Ramdas Pophale) SiO2 
 PCOD9238246
Probable space group: P 2/C
;
_chemical_formula_sum "Si O2"
_cell_formula_units_Z 18
_cell_length_a 13.241944
_cell_length_b 4.794575
_cell_length_c 9.712918
_cell_angle_alpha 90.000000
_cell_angle_beta 78.852388
_cell_angle_gamma 90.000000
_cell_volume 605.033160
_symmetry_space_group_name_H-M "P 2/C"
_symmetry_group_IT_number 13
_symmetry_cell_setting 'monoclinic'
loop_
_space_group_symop_operation_xyz
x,y,z
-x,y,1/2-z
-x,-y,-z
x,-y,1/2+z
loop_
_atom_site_type_symbol
_atom_site_label
_atom_site_fract_x
_atom_site_fract_y
_atom_site_fract_z
Si Si1 0.888034 0.088839 0.592819
Si Si2 0.892335 0.636307 0.821501
Si Si3 0.335039 0.064450 0.964656
Si Si4 0.324901 0.575330 0.137655
Si Si5 0.500000 0.254292 0.250000
O O1 0.892420 0.936498 0.742995
O O2 0.773890 0.984246 0.574276
O O3 0.884448 0.362927 0.489101
O O4 0.000000 0.000000 0.500000
O O5 0.792948 0.478410 0.787257
O O6 0.000000 0.497033 0.750000
O O7 0.434112 0.944929 0.865648
O O8 0.334872 0.900965 0.109607
O O9 0.336883 0.391315 0.995473
O O10 0.416615 0.453146 0.200844
#
# Coordination Sequence:
#
# PCOD9238246 Si02
#       5
#     4   4   4   4   2
#     4   9  18  39  68 100 138 181 230 287 350 416
#     4   9  18  39  66 100 138 181 231 290 351 419
#     4  11  25  44  67 104 138 184 237 292 352 424
#     4  11  25  44  67 103 139 185 237 289 355 422
#     4  12  24  46  72  98 146 186 242 290 356 422
#
# _framework density 29.750436000000001
#
# number of rings (size 3 to 8) (size 9 to 14) (size 15 to 20)
#    0.000    1.778    2.222    1.333    0.000    3.556 
#    4.000   18.889    0.000    0.000    0.000    0.000 
#    0.000    0.000    0.000    0.000    0.000    0.000 
#
# Total GULP energy -100610.486713 kJ/mol
# GULP energy per Si atom -5589.471484 kJ/mol
# Density = 2.968272 g / cm^3
# Si number density = 29.750436 Si / 1000 Ang^3
#
#
#
# Elastic Constant Matrix: (Units=GPa)
#
#
# Indices 1 2 3 4 5 6 
#
# 1 258.7930 22.0519 47.8863 0.0000 -17.7327 0.0000
# 2 22.0519 115.0124 30.2614 0.0000 -4.2133 0.0000
# 3 47.8863 30.2614 136.4730 0.0000 -21.8064 0.0000
# 4 0.0000 0.0000 0.0000 41.3400 0.0000 6.0575
# 5 -17.7327 -4.2133 -21.8064 0.0000 66.7165 0.0000
# 6 0.0000 0.0000 0.0000 6.0575 0.0000 32.4740
#
#
#
# Elastic Compliance Matrix: (Units=1/GPa)
#
#
# Indices 1 2 3 4 5 6 
#
# 1 0.004181 -0.000445 -0.001261 0.000000 0.000671 0.000000
# 2 -0.000445 0.009281 -0.001928 0.000000 -0.000162 0.000000
# 3 -0.001261 -0.001928 0.008572 0.000000 0.002345 0.000000
# 4 0.000000 0.000000 0.000000 0.024869 0.000000 -0.004639
# 5 0.000671 -0.000162 0.002345 0.000000 0.015923 0.000000
# 6 0.000000 0.000000 0.000000 -0.004639 0.000000 0.031659
#
#
# Mechanical properties :
#
#
# Convention : Reuss Voigt Hill
#
# Bulk Modulus (GPa) = 67.72138 78.96417 73.34278
# Shear Modulus (GPa) = 46.87029 55.44469 51.15749
#
# Velocity S-wave (km/s) = 3.97350 4.32170 4.15125
# Velocity P-wave (km/s) = 6.62300 7.17653 6.90531
#
# Compressibility (1/GPa) = 0.01476639
#
# Stress axis : x y z
#
# Youngs Moduli (GPa) = 239.15505 107.74286 116.65720
#
# Poissons Ratio (x) = 0.04798 0.14713
# Poissons Ratio (y) = 0.10649 0.22488
# Poissons Ratio (z) = 0.30163 0.20770
#
# Static dielectric constant tensor:
#      x y z
#    x 2.211820 0.000000 0.008870 
#    y 0.000000 2.445010 0.000000 
#    z 0.008870 0.000000 2.710030 
# 
# From -- ./inp_files/31305.got.cif
#   From: 2010.05.17/outbox.cif.g08.bks.cpg/sg13_16_cif.got.tgz:31305.got - 2010.06.03 16:44:36.
