data_PCOD9238540
_publ_section_title
;
Structure prediction by ZEFSAII (Michael W. Deem and Ramdas Pophale) SiO2 
 PCOD9238540
Probable space group: P 2/C
;
_chemical_formula_sum "Si O2"
_cell_formula_units_Z 18
_cell_length_a 16.532679
_cell_length_b 10.518433
_cell_length_c 8.515747
_cell_angle_alpha 90.000000
_cell_angle_beta 34.085585
_cell_angle_gamma 90.000000
_cell_volume 829.925109
_symmetry_space_group_name_H-M "P 2/C"
_symmetry_group_IT_number 13
_symmetry_cell_setting 'monoclinic'
loop_
_space_group_symop_operation_xyz
x,y,z
-x,y,1/2-z
-x,-y,-z
x,-y,1/2+z
loop_
_atom_site_type_symbol
_atom_site_label
_atom_site_fract_x
_atom_site_fract_y
_atom_site_fract_z
Si Si1 0.916120 0.613854 0.227171
Si Si2 0.500000 0.302181 0.750000
Si Si3 0.556740 0.866643 0.474613
Si Si4 0.842258 0.246576 0.580068
Si Si5 0.659700 0.506653 0.815204
O O1 0.890900 0.745762 0.180765
O O2 0.759497 0.569938 0.527460
O O3 0.000000 0.633235 0.250000
O O4 0.000000 0.500000 0.000000
O O5 0.480875 0.225403 0.615878
O O6 0.636671 0.394284 0.495478
O O7 0.730991 0.861202 0.210346
O O8 0.500000 0.000000 0.500000
O O9 0.500000 0.840581 0.750000
O O10 0.743363 0.375171 0.717777
O O11 0.000000 0.255383 0.250000
O O12 0.500000 0.500000 0.000000
#
# Coordination Sequence:
#
# PCOD9238540 Si02
#       5
#     4   2   4   4   4
#     4  12  23  40  64 106 173 209 238 304 391 486
#     4  12  26  44  82 114 160 202 260 326 398 466
#     4  12  28  55  83 110 148 211 284 336 383 462
#     4  12  26  46  71 117 162 196 251 320 392 479
#     4  12  23  38  71 115 160 200 247 303 399 480
#
# _framework density 21.688703
#
# number of rings (size 3 to 8) (size 9 to 14) (size 15 to 20)
#    0.000    0.000    7.778    2.667    4.667    0.000 
#    0.000    1.111    0.000    0.000    0.000    0.000 
#    0.000    0.000    0.000    0.000    0.000    0.000 
#
# Total GULP energy -100210.216959 kJ/mol
# GULP energy per Si atom -5567.234275 kJ/mol
# Density = 2.163934 g / cm^3
# Si number density = 21.688703 Si / 1000 Ang^3
#
#
#
# Elastic Constant Matrix: (Units=GPa)
#
#
# Indices 1 2 3 4 5 6 
#
# 1 177.4474 50.7479 73.5493 0.0000 -2.0407 0.0000
# 2 50.7479 90.4944 51.0489 0.0000 -3.3676 0.0000
# 3 73.5493 51.0489 178.0295 0.0000 -15.8021 0.0000
# 4 0.0000 0.0000 0.0000 20.2663 0.0000 -1.0399
# 5 -2.0407 -3.3676 -15.8021 0.0000 48.6039 0.0000
# 6 0.0000 0.0000 0.0000 -1.0399 0.0000 43.8964
#
#
#
# Elastic Compliance Matrix: (Units=1/GPa)
#
#
# Indices 1 2 3 4 5 6 
#
# 1 0.007401 -0.002884 -0.002287 0.000000 -0.000633 0.000000
# 2 -0.002884 0.014312 -0.002919 0.000000 -0.000079 0.000000
# 3 -0.002287 -0.002919 0.007591 0.000000 0.002170 0.000000
# 4 0.000000 0.000000 0.000000 0.049403 0.000000 0.001170
# 5 -0.000633 -0.000079 0.002170 0.000000 0.021248 0.000000
# 6 0.000000 0.000000 0.000000 0.001170 0.000000 0.022809
#
#
# Mechanical properties :
#
#
# Convention : Reuss Voigt Hill
#
# Bulk Modulus (GPa) = 76.19614 88.51816 82.35715
# Shear Modulus (GPa) = 34.88754 40.59501 37.74127
#
# Velocity S-wave (km/s) = 4.01503 4.33102 4.17602
# Velocity P-wave (km/s) = 7.53007 8.11862 7.82988
#
# Compressibility (1/GPa) = 0.01312402
#
# Stress axis : x y z
#
# Youngs Moduli (GPa) = 135.12177 69.87382 131.72726
#
# Poissons Ratio (x) = 0.20150 0.30122
# Poissons Ratio (y) = 0.38967 0.38456
# Poissons Ratio (z) = 0.30898 0.20398
#
# Static dielectric constant tensor:
#      x y z
#    x 1.917080 0.000000 0.136040 
#    y 0.000000 1.871100 0.000000 
#    z 0.136040 0.000000 2.412650 
# 
# From -- ./inp_files/21695.got.cif
#   From: 2010.05.17/outbox.cif.g08.bks.cpg/sg13_11_cif.got.tgz:21695.got - 2010.06.03 16:44:36.
