data_PCOD9238712
_publ_section_title
;
Structure prediction by ZEFSAII (Michael W. Deem and Ramdas Pophale) SiO2 
 PCOD9238712
Probable space group: P 2/C
;
_chemical_formula_sum "Si O2"
_cell_formula_units_Z 22
_cell_length_a 4.948933
_cell_length_b 12.790360
_cell_length_c 13.981175
_cell_angle_alpha 90.000000
_cell_angle_beta 98.498514
_cell_angle_gamma 90.000000
_cell_volume 875.271838
_symmetry_space_group_name_H-M "P 2/C"
_symmetry_group_IT_number 13
_symmetry_cell_setting 'monoclinic'
loop_
_space_group_symop_operation_xyz
x,y,z
-x,y,1/2-z
-x,-y,-z
x,-y,1/2+z
loop_
_atom_site_type_symbol
_atom_site_label
_atom_site_fract_x
_atom_site_fract_y
_atom_site_fract_z
Si Si1 0.200788 0.789130 0.399098
Si Si2 0.500000 0.709535 0.750000
Si Si3 0.035879 0.425738 0.591811
Si Si4 0.500000 0.333581 0.750000
Si Si5 0.431786 0.126170 0.415021
Si Si6 0.000000 0.432666 0.250000
Si Si7 0.921134 0.003107 0.355537
O O1 0.314729 0.742375 0.305963
O O2 0.430518 0.833738 0.481301
O O3 0.072135 0.687687 0.441681
O O4 0.988908 0.882158 0.371328
O O5 0.574814 0.780872 0.662794
O O6 0.764668 0.638588 0.782766
O O7 0.315423 0.398603 0.664293
O O8 0.000000 0.500000 0.500000
O O9 0.873857 0.490943 0.664065
O O10 0.140969 0.075023 0.422074
O O11 0.624584 0.039181 0.373821
O O12 0.000000 0.029139 0.250000
#
# Coordination Sequence:
#
# PCOD9238712 Si02
#       7
#     4   2   4   2   4   2   4
#     4  12  29  47  80 112 159 210 263 334 407 479
#     4  12  25  47  74 110 154 198 259 331 392 466
#     4  12  28  51  77 112 155 211 269 331 402 480
#     4  12  27  51  78 116 160 208 273 325 416 470
#     4  12  27  49  77 118 156 210 266 328 399 489
#     4  12  26  48  74 110 150 200 264 324 388 474
#     4  12  25  49  78 115 163 205 265 327 402 480
#
# _framework density 25.13505
#
# number of rings (size 3 to 8) (size 9 to 14) (size 15 to 20)
#    0.000    0.000    3.636    4.909   10.182    0.727 
#    0.000    0.000    0.000    0.000    0.000    0.000 
#    0.000    0.000    0.000    0.000    0.000    0.000 
#
# Total GULP energy -123357.220352 kJ/mol
# GULP energy per Si atom -5607.146380 kJ/mol
# Density = 2.507784 g / cm^3
# Si number density = 25.135050 Si / 1000 Ang^3
#
#
#
# Elastic Constant Matrix: (Units=GPa)
#
#
# Indices 1 2 3 4 5 6 
#
# 1 86.3865 34.9094 9.9915 0.0000 -2.4356 0.0000
# 2 34.9094 156.2674 38.6193 0.0000 11.6711 0.0000
# 3 9.9915 38.6193 132.2150 0.0000 11.2505 0.0000
# 4 0.0000 0.0000 0.0000 48.1115 0.0000 -4.1599
# 5 -2.4356 11.6711 11.2505 0.0000 28.2005 0.0000
# 6 0.0000 0.0000 0.0000 -4.1599 0.0000 34.4828
#
#
#
# Elastic Compliance Matrix: (Units=1/GPa)
#
#
# Indices 1 2 3 4 5 6 
#
# 1 0.012889 -0.002987 -0.000312 0.000000 0.002474 0.000000
# 2 -0.002987 0.007714 -0.001795 0.000000 -0.002735 0.000000
# 3 -0.000312 -0.001795 0.008333 0.000000 -0.002609 0.000000
# 4 0.000000 0.000000 0.000000 0.021004 0.000000 0.002534
# 5 0.002474 -0.002735 -0.002609 0.000000 0.037846 0.000000
# 6 0.000000 0.000000 0.000000 0.002534 0.000000 0.029306
#
#
# Mechanical properties :
#
#
# Convention : Reuss Voigt Hill
#
# Bulk Modulus (GPa) = 53.33721 60.21216 56.77469
# Shear Modulus (GPa) = 37.44479 41.58221 39.51350
#
# Velocity S-wave (km/s) = 3.86391 4.07178 3.96921
# Velocity P-wave (km/s) = 6.41660 6.79068 6.60629
#
# Compressibility (1/GPa) = 0.01874864
#
# Stress axis : x y z
#
# Youngs Moduli (GPa) = 77.58699 129.62804 120.00079
#
# Poissons Ratio (x) = 0.38719 0.03745
# Poissons Ratio (y) = 0.23175 0.21539
# Poissons Ratio (z) = 0.02421 0.23267
#
# Static dielectric constant tensor:
#      x y z
#    x 2.031200 0.000000 -0.028900 
#    y 0.000000 1.973250 0.000000 
#    z -0.028900 0.000000 2.046850 
# 
# From -- ./inp_files/43784.got.cif
#   From: 2010.05.17/outbox.cif.g08.bks.cpg/sg13_22_cif.got.tgz:43784.got - 2010.06.03 16:44:36.
