data_PCOD9238327
_publ_section_title
;
Structure prediction by ZEFSAII (Michael W. Deem and Ramdas Pophale) SiO2 
 PCOD9238327
Probable space group: P 2/C
;
_chemical_formula_sum "Si O2"
_cell_formula_units_Z 20
_cell_length_a 12.578587
_cell_length_b 9.786676
_cell_length_c 16.921811
_cell_angle_alpha 90.000000
_cell_angle_beta 25.851668
_cell_angle_gamma 90.000000
_cell_volume 908.328701
_symmetry_space_group_name_H-M "P 2/C"
_symmetry_group_IT_number 13
_symmetry_cell_setting 'monoclinic'
loop_
_space_group_symop_operation_xyz
x,y,z
-x,y,1/2-z
-x,-y,-z
x,-y,1/2+z
loop_
_atom_site_type_symbol
_atom_site_label
_atom_site_fract_x
_atom_site_fract_y
_atom_site_fract_z
Si Si1 0.230546 0.074431 0.931600
Si Si2 0.541177 0.344668 0.005788
Si Si3 0.252986 0.399614 0.458608
Si Si4 0.097382 0.167194 0.844651
Si Si5 0.001714 0.676247 0.655048
O O1 0.500000 0.012832 0.750000
O O2 0.181620 0.120408 0.874455
O O3 0.204878 0.213868 0.996760
O O4 0.032623 0.970131 0.099985
O O5 0.697991 0.244817 0.843960
O O6 0.500000 0.500000 0.000000
O O7 0.681208 0.359302 0.995242
O O8 0.266872 0.286395 0.196908
O O9 0.500000 0.437345 0.250000
O O10 0.075037 0.528209 0.575009
O O11 0.120507 0.275904 0.504005
O O12 0.000000 0.666715 0.750000
#
# Coordination Sequence:
#
# PCOD9238327 Si02
#       5
#     4   4   4   4   4
#     4  11  26  45  72 103 142 187 241 285 352 424
#     4  12  24  43  71 103 144 182 239 294 358 419
#     4  12  25  42  71 101 141 187 236 293 354 417
#     4  11  25  48  69 100 143 187 233 293 351 430
#     4  12  24  40  66 103 137 183 236 296 349 415
#
# _framework density 22.018463000000001
#
# number of rings (size 3 to 8) (size 9 to 14) (size 15 to 20)
#    0.000    0.400    4.000    4.200    2.800    5.600 
#    0.000    0.000    0.000    0.000    0.000    0.000 
#    0.000    0.000    0.000    0.000    0.000    0.000 
#
# Total GULP energy -111856.845040 kJ/mol
# GULP energy per Si atom -5592.842252 kJ/mol
# Density = 2.196835 g / cm^3
# Si number density = 22.018463 Si / 1000 Ang^3
#
#
#
# Elastic Constant Matrix: (Units=GPa)
#
#
# Indices 1 2 3 4 5 6 
#
# 1 39.2683 31.2501 37.1016 0.0000 -2.1095 0.0000
# 2 31.2501 99.9471 29.7935 0.0000 2.9952 0.0000
# 3 37.1016 29.7935 126.4389 0.0000 -7.9625 0.0000
# 4 0.0000 0.0000 0.0000 47.9620 0.0000 4.1662
# 5 -2.1095 2.9952 -7.9625 0.0000 31.7279 0.0000
# 6 0.0000 0.0000 0.0000 4.1662 0.0000 9.0110
#
#
#
# Elastic Compliance Matrix: (Units=1/GPa)
#
#
# Indices 1 2 3 4 5 6 
#
# 1 0.043667 -0.010647 -0.010220 0.000000 0.001343 0.000000
# 2 -0.010647 0.013446 -0.000171 0.000000 -0.002020 0.000000
# 3 -0.010220 -0.000171 0.011082 0.000000 0.002118 0.000000
# 4 0.000000 0.000000 0.000000 0.021722 0.000000 -0.010043
# 5 0.001343 -0.002020 0.002118 0.000000 0.032329 0.000000
# 6 0.000000 0.000000 0.000000 -0.010043 0.000000 0.115619
#
#
# Mechanical properties :
#
#
# Convention : Reuss Voigt Hill
#
# Bulk Modulus (GPa) = 38.28800 51.32719 44.80760
# Shear Modulus (GPa) = 17.32214 28.90745 23.11479
#
# Velocity S-wave (km/s) = 2.80788 3.62729 3.24356
# Velocity P-wave (km/s) = 5.28574 6.39567 5.86701
#
# Compressibility (1/GPa) = 0.02611784
#
# Stress axis : x y z
#
# Youngs Moduli (GPa) = 22.90050 74.37221 90.23945
#
# Poissons Ratio (x) = 0.79184 0.92225
# Poissons Ratio (y) = 0.24382 0.01546
# Poissons Ratio (z) = 0.23404 0.01274
#
# Static dielectric constant tensor:
#      x y z
#    x 1.788590 0.000000 -0.022540 
#    y 0.000000 1.755630 0.000000 
#    z -0.022540 0.000000 1.856940 
# 
# From -- ./inp_files/79731.got.cif
#   From: 2010.05.17/outbox.cif.g08.bks.cpg/sg13_40_cif.got.tgz:79731.got - 2010.06.03 16:44:36.
