data_PCOD9238260
_publ_section_title
;
Structure prediction by ZEFSAII (Michael W. Deem and Ramdas Pophale) SiO2 
 PCOD9238260
Probable space group: P 2/C
;
_chemical_formula_sum "Si O2"
_cell_formula_units_Z 20
_cell_length_a 10.758497
_cell_length_b 7.132456
_cell_length_c 15.349230
_cell_angle_alpha 90.000000
_cell_angle_beta 40.463793
_cell_angle_gamma 90.000000
_cell_volume 764.363914
_symmetry_space_group_name_H-M "P 2/C"
_symmetry_group_IT_number 13
_symmetry_cell_setting 'monoclinic'
loop_
_space_group_symop_operation_xyz
x,y,z
-x,y,1/2-z
-x,-y,-z
x,-y,1/2+z
loop_
_atom_site_type_symbol
_atom_site_label
_atom_site_fract_x
_atom_site_fract_y
_atom_site_fract_z
Si Si1 0.727083 0.424998 0.470325
Si Si2 0.827739 0.925396 0.209714
Si Si3 0.143496 0.506027 0.789653
Si Si4 0.557200 0.242312 0.344836
Si Si5 0.752653 0.953459 0.044094
O O1 0.801041 0.402820 0.332632
O O2 0.569648 0.586763 0.550571
O O3 0.917318 0.479952 0.423513
O O4 0.662816 0.231093 0.547946
O O5 0.807208 0.711251 0.247847
O O6 0.673066 0.071187 0.329233
O O7 0.795187 0.921539 0.122802
O O8 0.044302 0.997664 0.109578
O O9 0.267819 0.633094 0.789275
O O10 0.392724 0.124331 0.385192
#
# Coordination Sequence:
#
# PCOD9238260 Si02
#       5
#     4   4   4   4   4
#     4  11  25  46  71 107 144 185 238 294 357 422
#     4  11  25  45  69 104 144 187 237 291 348 419
#     4  11  25  46  71 107 144 185 238 294 357 422
#     4  12  24  45  73 101 138 194 232 290 354 425
#     4  11  25  45  69 104 144 187 237 291 348 419
#
# _framework density 26.16555
#
# number of rings (size 3 to 8) (size 9 to 14) (size 15 to 20)
#    0.000    0.800    4.000    2.400    0.000    7.200 
#    0.000    0.000    0.000    0.000    0.000    0.000 
#    0.000    0.000    0.000    0.000    0.000    0.000 
#
# Total GULP energy -111862.374403 kJ/mol
# GULP energy per Si atom -5593.118720 kJ/mol
# Density = 2.610600 g / cm^3
# Si number density = 26.165550 Si / 1000 Ang^3
#
#
#
# Elastic Constant Matrix: (Units=GPa)
#
#
# Indices 1 2 3 4 5 6 
#
# 1 66.4295 56.2955 55.6484 0.0000 -26.1406 0.0000
# 2 56.2955 212.7304 48.9568 0.0000 -7.4923 0.0000
# 3 55.6484 48.9568 97.4524 0.0000 -34.9961 0.0000
# 4 0.0000 0.0000 0.0000 40.7950 0.0000 -10.8819
# 5 -26.1406 -7.4923 -34.9961 0.0000 46.0384 0.0000
# 6 0.0000 0.0000 0.0000 -10.8819 0.0000 31.0578
#
#
#
# Elastic Compliance Matrix: (Units=1/GPa)
#
#
# Indices 1 2 3 4 5 6 
#
# 1 0.034972 -0.005705 -0.014177 0.000000 0.008152 0.000000
# 2 -0.005705 0.006333 -0.000986 0.000000 -0.002958 0.000000
# 3 -0.014177 -0.000986 0.021875 0.000000 0.008419 0.000000
# 4 0.000000 0.000000 0.000000 0.027040 0.000000 0.009474
# 5 0.008152 -0.002958 0.008419 0.000000 0.032268 0.000000
# 6 0.000000 0.000000 0.000000 0.009474 0.000000 0.035518
#
#
# Mechanical properties :
#
#
# Convention : Reuss Voigt Hill
#
# Bulk Modulus (GPa) = 46.63084 77.60153 62.11619
# Shear Modulus (GPa) = 24.16738 37.95900 31.06319
#
# Velocity S-wave (km/s) = 3.04243 3.81297 3.44928
# Velocity P-wave (km/s) = 5.49563 7.00766 6.29719
#
# Compressibility (1/GPa) = 0.02144504
#
# Stress axis : x y z
#
# Youngs Moduli (GPa) = 28.59414 157.89498 45.71368
#
# Poissons Ratio (x) = 0.90081 0.64806
# Poissons Ratio (y) = 0.16313 0.04508
# Poissons Ratio (z) = 0.40537 0.15572
#
# Static dielectric constant tensor:
#      x y z
#    x 2.294700 0.000000 -0.002100 
#    y 0.000000 1.997860 0.000000 
#    z -0.002100 0.000000 2.047370 
# 
# From -- ./inp_files/77101.got.cif
#   From: 2010.05.17/outbox.cif.g08.bks.cpg/sg13_39_cif.got.tgz:77101.got - 2010.06.03 16:44:36.
