data_PCOD9238842
_publ_section_title
;
Structure prediction by ZEFSAII (Michael W. Deem and Ramdas Pophale) SiO2 
 PCOD9238842
Probable space group: P 2/C
;
_chemical_formula_sum "Si O2"
_cell_formula_units_Z 24
_cell_length_a 17.158654
_cell_length_b 7.038734
_cell_length_c 19.516739
_cell_angle_alpha 90.000000
_cell_angle_beta 160.236595
_cell_angle_gamma 90.000000
_cell_volume 797.035382
_symmetry_space_group_name_H-M "P 2/C"
_symmetry_group_IT_number 13
_symmetry_cell_setting 'monoclinic'
loop_
_space_group_symop_operation_xyz
x,y,z
-x,y,1/2-z
-x,-y,-z
x,-y,1/2+z
loop_
_atom_site_type_symbol
_atom_site_label
_atom_site_fract_x
_atom_site_fract_y
_atom_site_fract_z
Si Si1 0.207239 0.478736 0.473309
Si Si2 0.562790 0.514481 0.664059
Si Si3 0.062790 0.014480 0.664060
Si Si4 0.850650 0.577683 0.778087
Si Si5 0.649350 0.077683 0.721914
Si Si6 0.707239 0.021263 0.973308
O O1 0.434005 0.573598 0.627574
O O2 0.250000 0.249999 0.500000
O O3 0.000000 0.519900 0.250000
O O4 0.091894 0.515432 0.452493
O O5 0.772570 0.593956 0.792204
O O6 0.350636 0.516605 0.433378
O O7 0.630436 0.294544 0.729388
O O8 0.130437 0.794543 0.729389
O O9 0.850637 0.016603 0.433379
O O10 0.934006 0.073599 0.627574
O O11 0.272570 0.093955 0.792204
O O12 0.408107 0.984567 0.547508
O O13 0.500000 0.980098 0.750000
#
# Coordination Sequence:
#
# PCOD9238842 Si02
#       6
#     4   4   4   4   4   4
#     4   8  14  26  43  60  80 108 140 170 201 242
#     4   9  17  29  45  64  85 110 140 173 208 246
#     4   9  17  29  45  64  85 110 140 173 208 246
#     4   9  17  29  45  64  85 110 140 173 208 246
#     4   9  17  29  45  64  85 110 140 173 208 246
#     4   8  14  26  43  60  80 108 140 170 201 242
#
# _framework density 30.111587
#
# number of rings (size 3 to 8) (size 9 to 14) (size 15 to 20)
#    0.000    3.333    0.000    0.000    0.000    1.333 
#    0.000    1.667    0.000    0.000    0.000    0.000 
#    0.000    0.000    0.000    0.000    0.000    0.000 
#
# Total GULP energy -134244.597917 kJ/mol
# GULP energy per Si atom -5593.524913 kJ/mol
# Density = 3.004305 g / cm^3
# Si number density = 30.111587 Si / 1000 Ang^3
#
#
#
# Elastic Constant Matrix: (Units=GPa)
#
#
# Indices 1 2 3 4 5 6 
#
# 1 342.3257 23.2002 103.4202 0.0000 83.0139 0.0000
# 2 23.2002 89.4519 16.7676 0.0000 2.0172 0.0000
# 3 103.4202 16.7676 183.3793 0.0000 73.4424 0.0000
# 4 0.0000 0.0000 0.0000 11.5933 0.0000 6.4562
# 5 83.0139 2.0172 73.4424 0.0000 78.0847 0.0000
# 6 0.0000 0.0000 0.0000 6.4562 0.0000 16.6337
#
#
#
# Elastic Compliance Matrix: (Units=1/GPa)
#
#
# Indices 1 2 3 4 5 6 
#
# 1 0.004084 -0.000829 -0.000798 0.000000 -0.003570 0.000000
# 2 -0.000829 0.011601 -0.001325 0.000000 0.001829 0.000000
# 3 -0.000798 -0.001325 0.009098 0.000000 -0.007675 0.000000
# 4 0.000000 0.000000 0.000000 0.110043 0.000000 -0.042712
# 5 -0.003570 0.001829 -0.007675 0.000000 0.023774 0.000000
# 6 0.000000 0.000000 0.000000 -0.042712 0.000000 0.076697
#
#
# Mechanical properties :
#
#
# Convention : Reuss Voigt Hill
#
# Bulk Modulus (GPa) = 52.96894 100.21478 76.59186
# Shear Modulus (GPa) = 20.20240 52.71358 36.45799
#
# Velocity S-wave (km/s) = 2.59302 4.18857 3.48338
# Velocity P-wave (km/s) = 5.15694 7.53296 6.45521
#
# Compressibility (1/GPa) = 0.01887899
#
# Stress axis : x y z
#
# Youngs Moduli (GPa) = 244.84736 86.19584 109.91507
#
# Poissons Ratio (x) = 0.07148 0.08767
# Poissons Ratio (y) = 0.20304 0.14569
# Poissons Ratio (z) = 0.19529 0.11425
#
# Static dielectric constant tensor:
#      x y z
#    x 2.448050 0.000000 -0.025280 
#    y 0.000000 2.364420 0.000000 
#    z -0.025280 0.000000 2.397010 
# 
# From -- ./inp_files/21360.got.cif
#   From: 2010.05.17/outbox.cif.g08.bks.cpg/sg13_11_cif.got.tgz:21360.got - 2010.06.03 16:44:36.
