data_PCOD9238585
_publ_section_title
;
Structure prediction by ZEFSAII (Michael W. Deem and Ramdas Pophale) SiO2 
 PCOD9238585
Probable space group: P 2/C
;
_chemical_formula_sum "Si O2"
_cell_formula_units_Z 14
_cell_length_a 9.356999
_cell_length_b 7.462372
_cell_length_c 9.626316
_cell_angle_alpha 90.000000
_cell_angle_beta 56.485503
_cell_angle_gamma 90.000000
_cell_volume 560.412005
_symmetry_space_group_name_H-M "P 2/C"
_symmetry_group_IT_number 13
_symmetry_cell_setting 'monoclinic'
loop_
_space_group_symop_operation_xyz
x,y,z
-x,y,1/2-z
-x,-y,-z
x,-y,1/2+z
loop_
_atom_site_type_symbol
_atom_site_label
_atom_site_fract_x
_atom_site_fract_y
_atom_site_fract_z
Si Si1 0.656997 0.894420 0.857729
Si Si2 0.076012 0.153700 0.863979
Si Si3 0.500000 0.410631 0.250000
Si Si4 0.156188 0.385592 0.059832
O O1 0.600001 0.725199 0.797299
O O2 0.781571 0.800509 0.901546
O O3 0.739083 0.068161 0.743566
O O4 0.500000 0.000000 0.000000
O O5 0.000000 0.168227 0.750000
O O6 0.074097 0.330597 0.956483
O O7 0.000000 0.000000 0.000000
O O8 0.340242 0.511748 0.420485
O O9 0.000000 0.446216 0.250000
#
# Coordination Sequence:
#
# PCOD9238585 Si02
#       4
#     4   4   2   4
#     4  12  25  49  78 110 159 209 274 330 398 485
#     4  12  23  49  82 115 155 211 279 326 387 488
#     4  12  30  50  76 122 164 212 262 350 408 482
#     4  12  26  52  78 119 165 209 268 334 416 475
#
# _framework density 24.981622000000002
#
# number of rings (size 3 to 8) (size 9 to 14) (size 15 to 20)
#    0.000    0.000    5.714    4.286    0.000    1.143 
#    5.143    1.429    0.000    0.000    0.000    0.000 
#    0.000    0.000    0.000    0.000    0.000    0.000 
#
# Total GULP energy -77947.969450 kJ/mol
# GULP energy per Si atom -5567.712104 kJ/mol
# Density = 2.492476 g / cm^3
# Si number density = 24.981622 Si / 1000 Ang^3
#
#
#
# Elastic Constant Matrix: (Units=GPa)
#
#
# Indices 1 2 3 4 5 6 
#
# 1 103.3584 47.0750 85.9850 0.0000 21.8304 0.0000
# 2 47.0750 154.6316 73.9489 0.0000 3.9327 0.0000
# 3 85.9850 73.9489 213.6414 0.0000 -24.9625 0.0000
# 4 0.0000 0.0000 0.0000 65.3195 0.0000 -11.8715
# 5 21.8304 3.9327 -24.9625 0.0000 78.5772 0.0000
# 6 0.0000 0.0000 0.0000 -11.8715 0.0000 94.5771
#
#
#
# Elastic Compliance Matrix: (Units=1/GPa)
#
#
# Indices 1 2 3 4 5 6 
#
# 1 0.018456 -0.001747 -0.007698 0.000000 -0.007485 0.000000
# 2 -0.001747 0.008043 -0.002151 0.000000 -0.000601 0.000000
# 3 -0.007698 -0.002151 0.009125 0.000000 0.005145 0.000000
# 4 0.000000 0.000000 0.000000 0.015667 0.000000 0.001967
# 5 -0.007485 -0.000601 0.005145 0.000000 0.016470 0.000000
# 6 0.000000 0.000000 0.000000 0.001967 0.000000 0.010820
#
#
# Mechanical properties :
#
#
# Convention : Reuss Voigt Hill
#
# Bulk Modulus (GPa) = 80.44023 98.40546 89.42284
# Shear Modulus (GPa) = 47.20740 65.33628 56.27184
#
# Velocity S-wave (km/s) = 4.35177 5.11962 4.75123
# Velocity P-wave (km/s) = 7.58420 8.62694 8.12232
#
# Compressibility (1/GPa) = 0.01243159
#
# Stress axis : x y z
#
# Youngs Moduli (GPa) = 54.18407 124.33632 109.59353
#
# Poissons Ratio (x) = 0.21719 0.84364
# Poissons Ratio (y) = 0.09465 0.23574
# Poissons Ratio (z) = 0.41710 0.26745
#
# Static dielectric constant tensor:
#      x y z
#    x 1.514490 0.000000 0.815310 
#    y 0.000000 1.890450 0.000000 
#    z 0.815310 0.000000 0.990270 
# 
# From -- ./inp_files/10827.got.cif
#   From: 2010.05.17/outbox.cif.g08.bks.cpg/sg13_6_cif.got.tgz:10827.got - 2010.06.03 16:44:36.
