data_PCOD9238148
_publ_section_title
;
Structure prediction by ZEFSAII (Michael W. Deem and Ramdas Pophale) SiO2 
 PCOD9238148
Probable space group: P 2/C
;
_chemical_formula_sum "Si O2"
_cell_formula_units_Z 16
_cell_length_a 9.010911
_cell_length_b 7.075228
_cell_length_c 21.591725
_cell_angle_alpha 90.000000
_cell_angle_beta 154.184285
_cell_angle_gamma 90.000000
_cell_volume 599.463467
_symmetry_space_group_name_H-M "P 2/C"
_symmetry_group_IT_number 13
_symmetry_cell_setting 'monoclinic'
loop_
_space_group_symop_operation_xyz
x,y,z
-x,y,1/2-z
-x,-y,-z
x,-y,1/2+z
loop_
_atom_site_type_symbol
_atom_site_label
_atom_site_fract_x
_atom_site_fract_y
_atom_site_fract_z
Si Si1 0.683171 0.855396 0.384737
Si Si2 0.888190 0.375617 0.373632
Si Si3 0.178294 0.363090 0.883688
Si Si4 0.969491 0.962692 0.807385
O O1 0.500000 0.843705 0.250000
O O2 0.398268 0.936253 0.323528
O O3 0.843572 0.662323 0.470611
O O4 0.000000 0.000000 0.500000
O O5 0.500000 0.360446 0.250000
O O6 0.961984 0.558774 0.360267
O O7 0.969686 0.200733 0.357831
O O8 0.000000 0.377400 0.750000
O O9 0.226295 0.139571 0.912551
O O10 0.500000 0.500000 0.000000
O O11 0.000000 0.882895 0.750000
#
# Coordination Sequence:
#
# PCOD9238148 Si02
#       4
#     4   4   4   4
#     4  12  23  47  71 105 155 189 248 312 366 451
#     4  12  25  46  78 109 148 199 249 305 381 447
#     4  11  27  50  73 110 154 195 252 309 374 450
#     4  11  24  45  77 107 149 194 246 308 371 443
#
# _framework density 26.690536000000002
#
# number of rings (size 3 to 8) (size 9 to 14) (size 15 to 20)
#    0.000    0.500    5.000    3.750    0.000   10.000 
#    0.000    3.750    0.000    0.000    0.000    0.000 
#    0.000    0.000    0.000    0.000    0.000    0.000 
#
# Total GULP energy -89926.180925 kJ/mol
# GULP energy per Si atom -5620.386308 kJ/mol
# Density = 2.662979 g / cm^3
# Si number density = 26.690536 Si / 1000 Ang^3
#
#
#
# Elastic Constant Matrix: (Units=GPa)
#
#
# Indices 1 2 3 4 5 6 
#
# 1 175.2628 43.2860 73.5900 0.0000 -9.8299 0.0000
# 2 43.2860 156.2972 46.2073 0.0000 -7.4743 0.0000
# 3 73.5900 46.2073 169.2621 0.0000 -20.7489 0.0000
# 4 0.0000 0.0000 0.0000 35.0073 0.0000 11.8081
# 5 -9.8299 -7.4743 -20.7489 0.0000 47.2396 0.0000
# 6 0.0000 0.0000 0.0000 11.8081 0.0000 63.9611
#
#
#
# Elastic Compliance Matrix: (Units=1/GPa)
#
#
# Indices 1 2 3 4 5 6 
#
# 1 0.007168 -0.001156 -0.002790 0.000000 0.000083 0.000000
# 2 -0.001156 0.007150 -0.001416 0.000000 0.000269 0.000000
# 3 -0.002790 -0.001416 0.007831 0.000000 0.002635 0.000000
# 4 0.000000 0.000000 0.000000 0.030462 0.000000 -0.005624
# 5 0.000083 0.000269 0.002635 0.000000 0.022386 0.000000
# 6 0.000000 0.000000 0.000000 -0.005624 0.000000 0.016673
#
#
# Mechanical properties :
#
#
# Convention : Reuss Voigt Hill
#
# Bulk Modulus (GPa) = 87.54658 91.88763 89.71710
# Shear Modulus (GPa) = 47.08000 51.75752 49.41876
#
# Velocity S-wave (km/s) = 4.20446 4.40838 4.30763
# Velocity P-wave (km/s) = 7.51278 7.77261 7.64380
#
# Compressibility (1/GPa) = 0.01142249
#
# Stress axis : x y z
#
# Youngs Moduli (GPa) = 139.51725 139.86411 127.70049
#
# Poissons Ratio (x) = 0.16170 0.35634
# Poissons Ratio (y) = 0.16130 0.18086
# Poissons Ratio (z) = 0.38932 0.19809
#
# Static dielectric constant tensor:
#      x y z
#    x 1.992400 0.000000 0.054200 
#    y 0.000000 2.098800 0.000000 
#    z 0.054200 0.000000 2.060270 
# 
# From -- ./inp_files/75892.got.cif
#   From: 2010.05.17/outbox.cif.g08.bks.cpg/sg13_38_cif.got.tgz:75892.got - 2010.06.03 16:44:36.
