data_PCOD9238084
_publ_section_title
;
Structure prediction by ZEFSAII (Michael W. Deem and Ramdas Pophale) SiO2 
 PCOD9238084
Probable space group: P 2/C
;
_chemical_formula_sum "Si O2"
_cell_formula_units_Z 24
_cell_length_a 22.250107
_cell_length_b 10.831513
_cell_length_c 22.822967
_cell_angle_alpha 90.000000
_cell_angle_beta 167.135634
_cell_angle_gamma 90.000000
_cell_volume 1224.627516
_symmetry_space_group_name_H-M "P 2/C"
_symmetry_group_IT_number 13
_symmetry_cell_setting 'monoclinic'
loop_
_space_group_symop_operation_xyz
x,y,z
-x,y,1/2-z
-x,-y,-z
x,-y,1/2+z
loop_
_atom_site_type_symbol
_atom_site_label
_atom_site_fract_x
_atom_site_fract_y
_atom_site_fract_z
Si Si1 0.875459 0.145915 0.946000
Si Si2 0.000000 0.080455 0.250000
Si Si3 0.983464 0.854084 0.054003
Si Si4 0.704066 0.756415 0.565967
Si Si5 0.705862 0.500000 0.500001
Si Si6 0.427873 0.243589 0.065970
Si Si7 0.500000 0.919537 0.750000
O O1 0.591440 0.191115 0.701451
O O2 0.889052 0.162671 0.889052
O O3 0.111313 0.223368 0.201534
O O4 0.919840 0.999999 0.000000
O O5 0.154040 0.162502 0.349290
O O6 0.230431 0.999996 0.500000
O O7 0.188546 0.808884 0.298555
O O8 0.708251 0.776629 0.798471
O O9 0.695574 0.619067 0.532123
O O10 0.631329 0.380938 0.467881
O O11 0.000000 0.485937 0.750000
O O12 0.500000 0.514060 0.250000
O O13 0.455461 0.162510 0.150711
#
# Coordination Sequence:
#
# PCOD9238084 Si02
#       7
#     4   2   4   4   4   4   2
#     4  11  24  44  68  97 133 172 214 269 329 383
#     4  12  24  38  64  98 132 160 210 278 328 388
#     4  11  24  44  68  97 133 172 214 269 329 383
#     4  12  24  43  66  96 130 174 220 261 327 387
#     4  12  26  46  65  92 135 180 212 264 326 390
#     4  12  24  43  66  96 130 174 220 261 327 387
#     4  12  24  38  64  98 132 160 210 278 328 388
#
# _framework density 19.597795999999999
#
# number of rings (size 3 to 8) (size 9 to 14) (size 15 to 20)
#    0.000    0.333    1.667    9.000    2.333    2.667 
#    0.000    5.000    0.000    0.000    0.000    0.000 
#    0.000    0.000    0.000    0.000    0.000    0.000 
#
# Total GULP energy -134416.999194 kJ/mol
# GULP energy per Si atom -5600.708300 kJ/mol
# Density = 1.955319 g / cm^3
# Si number density = 19.597796 Si / 1000 Ang^3
#
#
#
# Elastic Constant Matrix: (Units=GPa)
#
#
# Indices 1 2 3 4 5 6 
#
# 1 113.3482 87.0302 43.9124 0.0000 0.4241 0.0000
# 2 87.0302 179.7837 79.8135 0.0000 -0.2744 0.0000
# 3 43.9124 79.8135 157.1238 0.0000 1.2310 0.0000
# 4 0.0000 0.0000 0.0000 13.4715 0.0000 -3.3401
# 5 0.4241 -0.2744 1.2310 0.0000 40.3588 0.0000
# 6 0.0000 0.0000 0.0000 -3.3401 0.0000 101.7828
#
#
#
# Elastic Compliance Matrix: (Units=1/GPa)
#
#
# Indices 1 2 3 4 5 6 
#
# 1 0.014088 -0.006550 -0.000609 0.000000 -0.000174 0.000000
# 2 -0.006550 0.010228 -0.003367 0.000000 0.000241 0.000000
# 3 -0.000609 -0.003367 0.008247 0.000000 -0.000268 0.000000
# 4 0.000000 0.000000 0.000000 0.074840 0.000000 0.002456
# 5 -0.000174 0.000241 -0.000268 0.000000 0.024789 0.000000
# 6 0.000000 0.000000 0.000000 0.002456 0.000000 0.009905
#
#
# Mechanical properties :
#
#
# Convention : Reuss Voigt Hill
#
# Bulk Modulus (GPa) = 86.86643 96.86311 91.86477
# Shear Modulus (GPa) = 29.94285 47.08927 38.51606
#
# Velocity S-wave (km/s) = 3.91304 4.90714 4.43801
# Velocity P-wave (km/s) = 8.05212 9.03546 8.55792
#
# Compressibility (1/GPa) = 0.01151193
#
# Stress axis : x y z
#
# Youngs Moduli (GPa) = 70.98347 97.77244 121.25782
#
# Poissons Ratio (x) = 0.64037 0.07383
# Poissons Ratio (y) = 0.46491 0.40825
# Poissons Ratio (z) = 0.04322 0.32918
#
# Static dielectric constant tensor:
#      x y z
#    x 1.669330 0.000000 0.000640 
#    y 0.000000 1.673160 0.000000 
#    z 0.000640 0.000000 1.686400 
# 
# From -- ./inp_files/89143.got.cif
#   From: 2010.05.17/outbox.cif.g08.bks.cpg/sg13_45_cif.got.tgz:89143.got - 2010.06.03 16:44:36.
