data_PCOD9238572
_publ_section_title
;
Structure prediction by ZEFSAII (Michael W. Deem and Ramdas Pophale) SiO2 
 PCOD9238572
Probable space group: P 2/C
;
_chemical_formula_sum "Si O2"
_cell_formula_units_Z 26
_cell_length_a 8.756277
_cell_length_b 20.717493
_cell_length_c 8.650247
_cell_angle_alpha 90.000000
_cell_angle_beta 52.269409
_cell_angle_gamma 90.000000
_cell_volume 1241.095166
_symmetry_space_group_name_H-M "P 2/C"
_symmetry_group_IT_number 13
_symmetry_cell_setting 'monoclinic'
loop_
_space_group_symop_operation_xyz
x,y,z
-x,y,1/2-z
-x,-y,-z
x,-y,1/2+z
loop_
_atom_site_type_symbol
_atom_site_label
_atom_site_fract_x
_atom_site_fract_y
_atom_site_fract_z
Si Si1 0.788195 0.260967 0.948475
Si Si2 0.085264 0.435822 0.868423
Si Si3 0.462118 0.359441 0.600625
Si Si4 0.500000 0.901782 0.250000
Si Si5 0.632377 0.119171 0.012299
Si Si6 0.143885 0.989291 0.548780
Si Si7 0.142764 0.331631 0.291293
O O1 0.646123 0.306819 0.938079
O O2 0.000000 0.273727 0.750000
O O3 0.744943 0.185831 0.961359
O O4 0.779180 0.280764 0.133444
O O5 0.315081 0.420330 0.711356
O O6 0.000000 0.433378 0.750000
O O7 0.000000 0.500000 0.000000
O O8 0.992604 0.379484 0.028219
O O9 0.500000 0.333986 0.750000
O O10 0.673625 0.369260 0.394935
O O11 0.531499 0.872738 0.404558
O O12 0.317467 0.946640 0.387310
O O13 0.500000 0.112191 0.250000
O O14 0.768333 0.055256 0.933034
O O15 0.000000 0.951729 0.750000
O O16 0.000000 0.000000 0.500000
O O17 0.000000 0.303288 0.250000
#
# Coordination Sequence:
#
# PCOD9238572 Si02
#       7
#     4   4   4   2   4   4   4
#     4  12  25  48  72 105 146 186 239 303 359 434
#     4  12  26  47  69 106 145 182 239 291 345 431
#     4  12  24  45  75 101 139 189 231 290 363 420
#     4  12  26  48  74 102 156 190 244 310 362 438
#     4  12  26  46  71 109 145 191 249 302 363 440
#     4  12  23  44  73 103 143 196 242 300 371 430
#     4  12  23  47  74 103 141 188 234 292 364 422
#
# _framework density 20.949238000000001
#
# number of rings (size 3 to 8) (size 9 to 14) (size 15 to 20)
#    0.000    0.000    6.923    3.692    1.077    0.615 
#    2.769    0.769    0.000    0.000    0.000    0.000 
#    0.000    0.000    0.000    0.000    0.000    0.000 
#
# Total GULP energy -145087.695857 kJ/mol
# GULP energy per Si atom -5580.295995 kJ/mol
# Density = 2.090156 g / cm^3
# Si number density = 20.949238 Si / 1000 Ang^3
#
#
#
# Elastic Constant Matrix: (Units=GPa)
#
#
# Indices 1 2 3 4 5 6 
#
# 1 149.9274 21.7300 60.2563 0.0000 19.5700 0.0000
# 2 21.7300 58.8038 12.9502 0.0000 6.1838 0.0000
# 3 60.2563 12.9502 155.1891 0.0000 -6.4573 0.0000
# 4 0.0000 0.0000 0.0000 29.2776 0.0000 -1.8164
# 5 19.5700 6.1838 -6.4573 0.0000 56.4151 0.0000
# 6 0.0000 0.0000 0.0000 -1.8164 0.0000 11.1247
#
#
#
# Elastic Compliance Matrix: (Units=1/GPa)
#
#
# Indices 1 2 3 4 5 6 
#
# 1 0.008743 -0.002159 -0.003347 0.000000 -0.003179 0.000000
# 2 -0.002159 0.018102 -0.000727 0.000000 -0.001318 0.000000
# 3 -0.003347 -0.000727 0.007893 0.000000 0.002144 0.000000
# 4 0.000000 0.000000 0.000000 0.034505 0.000000 0.005634
# 5 -0.003179 -0.001318 0.002144 0.000000 0.019219 0.000000
# 6 0.000000 0.000000 0.000000 0.005634 0.000000 0.090810
#
#
# Mechanical properties :
#
#
# Convention : Reuss Voigt Hill
#
# Bulk Modulus (GPa) = 44.89929 61.53259 53.21594
# Shear Modulus (GPa) = 25.10506 37.29572 31.20039
#
# Velocity S-wave (km/s) = 3.46551 4.22393 3.86337
# Velocity P-wave (km/s) = 6.12307 7.29553 6.73486
#
# Compressibility (1/GPa) = 0.02227207
#
# Stress axis : x y z
#
# Youngs Moduli (GPa) = 114.37800 55.24117 126.69285
#
# Poissons Ratio (x) = 0.11929 0.42401
# Poissons Ratio (y) = 0.24699 0.09211
# Poissons Ratio (z) = 0.38280 0.04016
#
# Static dielectric constant tensor:
#      x y z
#    x 1.829850 0.000000 0.024230 
#    y 0.000000 1.741450 0.000000 
#    z 0.024230 0.000000 1.768920 
# 
# From -- ./inp_files/13635.got.cif
#   From: 2010.05.17/outbox.cif.g08.bks.cpg/sg13_7_cif.got.tgz:13635.got - 2010.06.03 16:44:36.
