data_PCOD9238570
_publ_section_title
;
Structure prediction by ZEFSAII (Michael W. Deem and Ramdas Pophale) SiO2 
 PCOD9238570
Probable space group: P 2/C
;
_chemical_formula_sum "Si O2"
_cell_formula_units_Z 28
_cell_length_a 19.882086
_cell_length_b 10.162081
_cell_length_c 8.911177
_cell_angle_alpha 90.000000
_cell_angle_beta 131.453263
_cell_angle_gamma 90.000000
_cell_volume 1349.425704
_symmetry_space_group_name_H-M "P 2/C"
_symmetry_group_IT_number 13
_symmetry_cell_setting 'monoclinic'
loop_
_space_group_symop_operation_xyz
x,y,z
-x,y,1/2-z
-x,-y,-z
x,-y,1/2+z
loop_
_atom_site_type_symbol
_atom_site_label
_atom_site_fract_x
_atom_site_fract_y
_atom_site_fract_z
Si Si1 0.500000 0.000000 0.000000
Si Si2 0.679542 0.388202 0.069412
Si Si3 0.263104 0.350598 0.999965
Si Si4 0.239424 0.848821 0.972017
Si Si5 0.046256 0.379860 0.656297
Si Si6 0.969609 0.869796 0.874804
Si Si7 0.321675 0.089474 0.912750
Si Si8 0.500000 0.226757 0.750000
O O1 0.577780 0.937542 0.997274
O O2 0.511103 0.869031 0.123686
O O3 0.712586 0.369079 0.288963
O O4 0.688904 0.537772 0.029566
O O5 0.737518 0.299032 0.041288
O O6 0.582575 0.323257 0.906883
O O7 0.155143 0.373073 0.823716
O O8 0.300295 0.208906 0.996645
O O9 0.136607 0.865992 0.782215
O O10 0.293030 0.954307 0.950944
O O11 0.262690 0.879598 0.178326
O O12 0.000000 0.380711 0.750000
O O13 0.000000 0.500000 0.500000
O O14 0.014254 0.250572 0.524604
O O15 0.000000 0.868844 0.750000
O O16 0.000000 0.000000 0.000000
#
# Coordination Sequence:
#
# PCOD9238570 Si02
#       8
#     2   4   4   4   4   4   4   2
#     4  12  24  50  74 110 138 178 244 294 372 434
#     4  12  27  49  72 105 145 190 237 300 363 435
#     4  12  27  48  73 108 150 192 244 299 366 434
#     4  12  23  44  70 102 142 189 242 295 364 426
#     4  12  25  46  73 106 145 199 248 298 357 430
#     4  12  25  42  66 102 144 187 240 301 357 426
#     4  12  25  45  74 107 141 190 235 303 361 437
#     4  12  28  50  76 110 144 180 240 298 368 442
#
# _framework density 20.749568
#
# number of rings (size 3 to 8) (size 9 to 14) (size 15 to 20)
#    0.000    0.000    2.857    7.714    2.000    0.571 
#    0.000    0.000    0.000    0.000    0.000    0.000 
#    0.000    0.000    0.000    0.000    0.000    0.000 
#
# Total GULP energy -156171.996064 kJ/mol
# GULP energy per Si atom -5577.571288 kJ/mol
# Density = 2.070234 g / cm^3
# Si number density = 20.749568 Si / 1000 Ang^3
#
#
#
# Elastic Constant Matrix: (Units=GPa)
#
#
# Indices 1 2 3 4 5 6 
#
# 1 99.1626 32.1085 23.1845 0.0000 10.1818 0.0000
# 2 32.1085 111.7147 50.5738 0.0000 11.1144 0.0000
# 3 23.1845 50.5738 105.7575 0.0000 -4.1150 0.0000
# 4 0.0000 0.0000 0.0000 39.8308 0.0000 -7.3256
# 5 10.1818 11.1144 -4.1150 0.0000 40.1350 0.0000
# 6 0.0000 0.0000 0.0000 -7.3256 0.0000 24.4364
#
#
#
# Elastic Compliance Matrix: (Units=1/GPa)
#
#
# Indices 1 2 3 4 5 6 
#
# 1 0.011445 -0.002391 -0.001459 0.000000 -0.002391 0.000000
# 2 -0.002391 0.012512 -0.005593 0.000000 -0.003432 0.000000
# 3 -0.001459 -0.005593 0.012575 0.000000 0.003208 0.000000
# 4 0.000000 0.000000 0.000000 0.026571 0.000000 0.007966
# 5 -0.002391 -0.003432 0.003208 0.000000 0.026802 0.000000
# 6 0.000000 0.000000 0.000000 0.007966 0.000000 0.043311
#
#
# Mechanical properties :
#
#
# Convention : Reuss Voigt Hill
#
# Bulk Modulus (GPa) = 56.66752 58.70760 57.68756
# Shear Modulus (GPa) = 31.64912 34.93163 33.29038
#
# Velocity S-wave (km/s) = 3.90973 4.10748 4.00983
# Velocity P-wave (km/s) = 6.91020 7.13092 7.02143
#
# Compressibility (1/GPa) = 0.01764679
#
# Stress axis : x y z
#
# Youngs Moduli (GPa) = 87.37245 79.92421 79.52582
#
# Poissons Ratio (x) = 0.19113 0.11599
# Poissons Ratio (y) = 0.20894 0.44475
# Poissons Ratio (z) = 0.12743 0.44698
#
# Static dielectric constant tensor:
#      x y z
#    x 1.856220 0.000000 0.050030 
#    y 0.000000 1.692020 0.000000 
#    z 0.050030 0.000000 1.740340 
# 
# From -- ./inp_files/23020.got.cif
#   From: 2010.05.17/outbox.cif.g08.bks.cpg/sg13_12_cif.got.tgz:23020.got - 2010.06.03 16:44:36.
