data_PCOD9238698
_publ_section_title
;
Structure prediction by ZEFSAII (Michael W. Deem and Ramdas Pophale) SiO2 
 PCOD9238698
Probable space group: P 2/C
;
_chemical_formula_sum "Si O2"
_cell_formula_units_Z 16
_cell_length_a 7.641934
_cell_length_b 11.402165
_cell_length_c 8.319762
_cell_angle_alpha 90.000000
_cell_angle_beta 75.897676
_cell_angle_gamma 90.000000
_cell_volume 703.090953
_symmetry_space_group_name_H-M "P 2/C"
_symmetry_group_IT_number 13
_symmetry_cell_setting 'monoclinic'
loop_
_space_group_symop_operation_xyz
x,y,z
-x,y,1/2-z
-x,-y,-z
x,-y,1/2+z
loop_
_atom_site_type_symbol
_atom_site_label
_atom_site_fract_x
_atom_site_fract_y
_atom_site_fract_z
Si Si1 0.211431 0.466305 0.665138
Si Si2 0.021234 0.867531 0.937809
Si Si3 0.378901 0.734564 0.935472
Si Si4 0.294137 0.312415 0.947167
O O1 0.277128 0.386722 0.501089
O O2 0.300788 0.400617 0.795680
O O3 0.256577 0.598885 0.605642
O O4 0.000000 0.460624 0.750000
O O5 0.782095 0.825376 0.550506
O O6 0.000000 0.860751 0.750000
O O7 0.868713 0.778789 0.039499
O O8 0.000000 0.000000 0.000000
O O9 0.500000 0.733217 0.750000
O O10 0.522681 0.754266 0.046722
#
# Coordination Sequence:
#
# PCOD9238698 Si02
#       4
#     4   4   4   4
#     4  12  25  45  80 115 161 208 246 316 397 463
#     4  12  29  53  80 109 155 204 263 322 381 453
#     4  12  26  49  78 113 154 204 251 321 389 455
#     4  12  26  49  77 117 159 198 261 314 387 467
#
# _framework density 22.756657000000001
#
# number of rings (size 3 to 8) (size 9 to 14) (size 15 to 20)
#    0.000    0.000    5.000    4.500    3.500    1.000 
#    0.000    0.000    0.000    0.000    0.000    0.000 
#    0.000    0.000    0.000    0.000    0.000    0.000 
#
# Total GULP energy -89555.724503 kJ/mol
# GULP energy per Si atom -5597.232781 kJ/mol
# Density = 2.270486 g / cm^3
# Si number density = 22.756657 Si / 1000 Ang^3
#
#
#
# Elastic Constant Matrix: (Units=GPa)
#
#
# Indices 1 2 3 4 5 6 
#
# 1 215.5951 88.0312 44.8917 0.0000 0.0612 0.0000
# 2 88.0312 168.6915 52.0008 0.0000 -6.0177 0.0000
# 3 44.8917 52.0008 77.5138 0.0000 11.1579 0.0000
# 4 0.0000 0.0000 0.0000 27.1623 0.0000 7.4395
# 5 0.0612 -6.0177 11.1579 0.0000 39.8628 0.0000
# 6 0.0000 0.0000 0.0000 7.4395 0.0000 20.1336
#
#
#
# Elastic Compliance Matrix: (Units=1/GPa)
#
#
# Indices 1 2 3 4 5 6 
#
# 1 0.006078 -0.002622 -0.001775 0.000000 0.000092 0.000000
# 2 -0.002622 0.008880 -0.004827 0.000000 0.002696 0.000000
# 3 -0.001775 -0.004827 0.017997 0.000000 -0.005763 0.000000
# 4 0.000000 0.000000 0.000000 0.040961 0.000000 -0.015135
# 5 0.000092 0.002696 -0.005763 0.000000 0.027106 0.000000
# 6 0.000000 0.000000 0.000000 -0.015135 0.000000 0.055261
#
#
# Mechanical properties :
#
#
# Convention : Reuss Voigt Hill
#
# Bulk Modulus (GPa) = 68.92580 92.40531 80.66555
# Shear Modulus (GPa) = 27.84490 35.89020 31.86755
#
# Velocity S-wave (km/s) = 3.50179 3.97562 3.74620
# Velocity P-wave (km/s) = 6.83403 7.85926 7.36451
#
# Compressibility (1/GPa) = 0.01450836
#
# Stress axis : x y z
#
# Youngs Moduli (GPa) = 164.52060 112.60970 55.56586
#
# Poissons Ratio (x) = 0.29522 0.09861
# Poissons Ratio (y) = 0.43131 0.26822
# Poissons Ratio (z) = 0.29197 0.54358
#
# Static dielectric constant tensor:
#      x y z
#    x 1.797040 0.000000 0.016870 
#    y 0.000000 1.786600 0.000000 
#    z 0.016870 0.000000 1.942500 
# 
# From -- ./inp_files/11218.got.cif
#   From: 2010.05.17/outbox.cif.g08.bks.cpg/sg13_6_cif.got.tgz:11218.got - 2010.06.03 16:44:36.
