data_PCOD9238023
_publ_section_title
;
Structure prediction by ZEFSAII (Michael W. Deem and Ramdas Pophale) SiO2 
 PCOD9238023
Probable space group: P 2/C
;
_chemical_formula_sum "Si O2"
_cell_formula_units_Z 20
_cell_length_a 10.403443
_cell_length_b 11.731456
_cell_length_c 10.401897
_cell_angle_alpha 90.000000
_cell_angle_beta 136.928231
_cell_angle_gamma 90.000000
_cell_volume 866.976895
_symmetry_space_group_name_H-M "P 2/C"
_symmetry_group_IT_number 13
_symmetry_cell_setting 'monoclinic'
loop_
_space_group_symop_operation_xyz
x,y,z
-x,y,1/2-z
-x,-y,-z
x,-y,1/2+z
loop_
_atom_site_type_symbol
_atom_site_label
_atom_site_fract_x
_atom_site_fract_y
_atom_site_fract_z
Si Si1 0.000000 0.608607 0.250000
Si Si2 0.686916 0.140358 0.954229
Si Si3 0.648410 0.318734 0.147739
Si Si4 0.000000 0.034633 0.750000
Si Si5 0.635652 0.522701 0.952890
Si Si6 0.972396 0.776186 0.444590
O O1 0.097399 0.686044 0.212902
O O2 0.154264 0.540138 0.441915
O O3 0.500000 0.093270 0.750000
O O4 0.825626 0.200099 0.951390
O O5 0.619072 0.230654 0.010863
O O6 0.815635 0.044504 0.114037
O O7 0.464058 0.355288 0.092726
O O8 0.829306 0.270027 0.354313
O O9 0.676623 0.443331 0.104588
O O10 0.003825 0.111039 0.881306
O O11 0.500000 0.464606 0.750000
#
# Coordination Sequence:
#
# PCOD9238023 Si02
#       6
#     2   4   4   2   4   4
#     4  11  24  41  70  98 140 185 222 291 350 408
#     4  12  25  45  73 103 142 187 231 294 349 417
#     4  11  24  45  71 100 144 182 230 292 348 418
#     4  11  26  47  72 104 138 187 244 289 348 416
#     4  11  24  44  69 106 138 182 236 283 350 429
#     4  11  24  47  69 103 144 183 236 292 348 419
#
# _framework density 23.068667000000001
#
# number of rings (size 3 to 8) (size 9 to 14) (size 15 to 20)
#    0.000    0.800    4.000    2.400    2.800    3.200 
#    7.200    0.000    0.000    0.000    0.000    0.000 
#    0.000    0.000    0.000    0.000    0.000    0.000 
#
# Total GULP energy -111659.005853 kJ/mol
# GULP energy per Si atom -5582.950293 kJ/mol
# Density = 2.301616 g / cm^3
# Si number density = 23.068667 Si / 1000 Ang^3
#
#
#
# Elastic Constant Matrix: (Units=GPa)
#
#
# Indices 1 2 3 4 5 6 
#
# 1 45.3244 18.6829 47.8847 0.0000 -2.0978 0.0000
# 2 18.6829 78.3519 69.7164 0.0000 6.6620 0.0000
# 3 47.8847 69.7164 187.1644 0.0000 21.9903 0.0000
# 4 0.0000 0.0000 0.0000 -95.6879 0.0000 -159.9719
# 5 -2.0978 6.6620 21.9903 0.0000 42.0579 0.0000
# 6 0.0000 0.0000 0.0000 -159.9719 0.0000 -135.7517
#
#
#
# Elastic Compliance Matrix: (Units=1/GPa)
#
#
# Indices 1 2 3 4 5 6 
#
# 1 0.031689 -0.000331 -0.008711 0.000000 0.006188 0.000000
# 2 -0.000331 0.019115 -0.007115 0.000000 0.000676 0.000000
# 3 -0.008711 -0.007115 0.010804 0.000000 -0.004957 0.000000
# 4 0.000000 0.000000 0.000000 0.010773 0.000000 -0.012695
# 5 0.006188 0.000676 -0.004957 0.000000 0.026570 0.000000
# 6 0.000000 0.000000 0.000000 -0.012695 0.000000 0.007594
#
#
# Mechanical properties :
#
#
# Convention : Reuss Voigt Hill
#
# Bulk Modulus (GPa) = 34.13668 64.82319 49.47993
# Shear Modulus (GPa) = 33.64200 -26.23922 3.70139
#
# Velocity S-wave (km/s) = 3.82297 -3.37625 1.26807
# Velocity P-wave (km/s) = 5.85805 3.60032 4.86205
#
# Compressibility (1/GPa) = 0.02929401
#
# Stress axis : x y z
#
# Youngs Moduli (GPa) = 31.55645 52.31472 92.55806
#
# Poissons Ratio (x) = 0.01734 0.80627
# Poissons Ratio (y) = 0.01046 0.65852
# Poissons Ratio (z) = 0.27489 0.37220
#
# Static dielectric constant tensor:
#      x y z
#    x 2.034510 0.000000 -0.020930 
#    y 0.000000 1.862630 0.000000 
#    z -0.020930 0.000000 1.875200 
# 
# From -- ./inp_files/33447.got.cif
#   From: 2010.05.17/outbox.cif.g08.bks.cpg/sg13_17_cif.got.tgz:33447.got - 2010.06.03 16:44:36.
