data_PCOD9238813
_publ_section_title
;
Structure prediction by ZEFSAII (Michael W. Deem and Ramdas Pophale) SiO2 
 PCOD9238813
Probable space group: P 2/C
;
_chemical_formula_sum "Si O2"
_cell_formula_units_Z 24
_cell_length_a 9.298636
_cell_length_b 10.583538
_cell_length_c 10.365908
_cell_angle_alpha 90.000000
_cell_angle_beta 66.153600
_cell_angle_gamma 90.000000
_cell_volume 933.048310
_symmetry_space_group_name_H-M "P 2/C"
_symmetry_group_IT_number 13
_symmetry_cell_setting 'monoclinic'
loop_
_space_group_symop_operation_xyz
x,y,z
-x,y,1/2-z
-x,-y,-z
x,-y,1/2+z
loop_
_atom_site_type_symbol
_atom_site_label
_atom_site_fract_x
_atom_site_fract_y
_atom_site_fract_z
Si Si1 0.180636 0.947274 0.149781
Si Si2 0.235188 0.240964 0.855818
Si Si3 0.825886 0.552057 0.322820
Si Si4 0.128800 0.243079 0.466772
Si Si5 0.413604 0.864274 0.523994
Si Si6 0.616428 0.639064 0.810800
O O1 0.257220 0.855977 0.228346
O O2 0.193714 0.889392 0.001011
O O3 0.000000 0.942602 0.250000
O O4 0.245252 0.086684 0.136034
O O5 0.224744 0.377443 0.791220
O O6 0.059388 0.226396 0.981352
O O7 0.369727 0.203951 0.907091
O O8 0.849979 0.658274 0.421938
O O9 0.688975 0.451472 0.393102
O O10 0.000000 0.492675 0.250000
O O11 0.231534 0.304280 0.317731
O O12 0.477388 0.756391 0.593662
O O13 0.500000 0.000000 0.500000
O O14 0.500000 0.577588 0.750000
#
# Coordination Sequence:
#
# PCOD9238813 Si02
#       6
#     4   4   4   4   4   4
#     4   9  21  41  67  95 128 178 229 286 342 413
#     4   9  22  44  71  99 133 182 229 295 354 400
#     4   9  22  46  74 105 135 180 236 290 349 416
#     4   9  21  44  71 101 138 171 238 295 344 420
#     4  12  28  42  65  99 142 188 233 285 351 416
#     4  12  28  42  66 100 144 186 229 292 353 415
#
# _framework density 25.722142000000002
#
# number of rings (size 3 to 8) (size 9 to 14) (size 15 to 20)
#    0.000    2.000    0.000    3.000   11.667    3.333 
#    6.000    0.000    0.000    0.000    0.000    0.000 
#    0.000    0.000    0.000    0.000    0.000    0.000 
#
# Total GULP energy -134215.818010 kJ/mol
# GULP energy per Si atom -5592.325750 kJ/mol
# Density = 2.566360 g / cm^3
# Si number density = 25.722142 Si / 1000 Ang^3
#
#
#
# Elastic Constant Matrix: (Units=GPa)
#
#
# Indices 1 2 3 4 5 6 
#
# 1 121.7718 54.6386 29.9789 0.0000 12.1921 0.0000
# 2 54.6386 71.8858 -5.0513 0.0000 4.9650 0.0000
# 3 29.9789 -5.0513 40.2135 0.0000 3.4699 0.0000
# 4 0.0000 0.0000 0.0000 20.3370 0.0000 -3.9137
# 5 12.1921 4.9650 3.4699 0.0000 23.9375 0.0000
# 6 0.0000 0.0000 0.0000 -3.9137 0.0000 47.7882
#
#
#
# Elastic Compliance Matrix: (Units=1/GPa)
#
#
# Indices 1 2 3 4 5 6 
#
# 1 0.019843 -0.015930 -0.016412 0.000000 -0.004424 0.000000
# 2 -0.015930 0.027071 0.015251 0.000000 0.000288 0.000000
# 3 -0.016412 0.015251 0.039058 0.000000 -0.000466 0.000000
# 4 0.000000 0.000000 0.000000 0.049959 0.000000 0.004092
# 5 -0.004424 0.000288 -0.000466 0.000000 0.044036 0.000000
# 6 0.000000 0.000000 0.000000 0.004092 0.000000 0.021261
#
#
# Mechanical properties :
#
#
# Convention : Reuss Voigt Hill
#
# Bulk Modulus (GPa) = 19.30860 43.66705 31.48783
# Shear Modulus (GPa) = 19.78831 28.69955 24.24393
#
# Velocity S-wave (km/s) = 2.77665 3.34391 3.07340
# Velocity P-wave (km/s) = 4.21932 5.64998 4.98623
#
# Compressibility (1/GPa) = 0.05179039
#
# Stress axis : x y z
#
# Youngs Moduli (GPa) = 50.39473 36.94006 25.60263
#
# Poissons Ratio (x) = 0.58846 0.42020
# Poissons Ratio (y) = 0.80280 -0.39048
# Poissons Ratio (z) = 0.82710 -0.56339
#
# Static dielectric constant tensor:
#      x y z
#    x 2.057760 0.000000 -0.058810 
#    y 0.000000 2.019990 0.000000 
#    z -0.058810 0.000000 2.089760 
# 
# From -- ./inp_files/29375.got.cif
#   From: 2010.05.17/outbox.cif.g08.bks.cpg/sg13_15_cif.got.tgz:29375.got - 2010.06.03 16:44:36.
