data_PCOD9238448
_publ_section_title
;
Structure prediction by ZEFSAII (Michael W. Deem and Ramdas Pophale) SiO2 
 PCOD9238448
Probable space group: P 2/C
;
_chemical_formula_sum "Si O2"
_cell_formula_units_Z 16
_cell_length_a 18.213158
_cell_length_b 4.917714
_cell_length_c 13.758954
_cell_angle_alpha 90.000000
_cell_angle_beta 28.902785
_cell_angle_gamma 90.000000
_cell_volume 595.625311
_symmetry_space_group_name_H-M "P 2/C"
_symmetry_group_IT_number 13
_symmetry_cell_setting 'monoclinic'
loop_
_space_group_symop_operation_xyz
x,y,z
-x,y,1/2-z
-x,-y,-z
x,-y,1/2+z
loop_
_atom_site_type_symbol
_atom_site_label
_atom_site_fract_x
_atom_site_fract_y
_atom_site_fract_z
Si Si1 0.236680 0.089458 0.565717
Si Si2 0.718713 0.593437 0.663153
Si Si3 0.449863 0.192259 0.969001
Si Si4 0.041725 0.411078 0.342792
O O1 0.276396 0.130920 0.406413
O O2 0.373544 0.980775 0.472588
O O3 0.180586 0.391615 0.654785
O O4 0.418364 0.598773 0.214386
O O5 0.902266 0.107675 0.244520
O O6 0.885663 0.465587 0.465988
O O7 0.679115 0.640502 0.822288
O O8 0.500000 0.000000 0.000000
O O9 0.000000 0.500000 0.500000
#
# Coordination Sequence:
#
# PCOD9238448 Si02
#       4
#     4   4   4   4
#     4  12  29  52  86 122 164 222 283 354 418 510
#     4  11  28  52  85 124 167 224 289 347 434 505
#     4  11  27  54  83 118 174 222 281 355 425 517
#     4  12  26  53  85 120 167 221 284 348 425 506
#
# _framework density 26.862522999999999
#
# number of rings (size 3 to 8) (size 9 to 14) (size 15 to 20)
#    0.000    0.500    2.500    3.000   10.500    3.000 
#    0.000    0.000    0.000    0.000    0.000    0.000 
#    0.000    0.000    0.000    0.000    0.000    0.000 
#
# Total GULP energy -89767.432864 kJ/mol
# GULP energy per Si atom -5610.464554 kJ/mol
# Density = 2.680138 g / cm^3
# Si number density = 26.862523 Si / 1000 Ang^3
#
#
#
# Elastic Constant Matrix: (Units=GPa)
#
#
# Indices 1 2 3 4 5 6 
#
# 1 179.0681 35.3351 61.9549 0.0000 -12.0040 0.0000
# 2 35.3351 78.1398 17.3871 0.0000 3.4769 0.0000
# 3 61.9549 17.3871 144.7946 0.0000 2.5024 0.0000
# 4 0.0000 0.0000 0.0000 68.7681 0.0000 -5.3267
# 5 -12.0040 3.4769 2.5024 0.0000 51.4539 0.0000
# 6 0.0000 0.0000 0.0000 -5.3267 0.0000 57.1080
#
#
#
# Elastic Compliance Matrix: (Units=1/GPa)
#
#
# Indices 1 2 3 4 5 6 
#
# 1 0.007227 -0.002735 -0.002799 0.000000 0.002007 0.000000
# 2 -0.002735 0.014218 -0.000510 0.000000 -0.001574 0.000000
# 3 -0.002799 -0.000510 0.008183 0.000000 -0.001016 0.000000
# 4 0.000000 0.000000 0.000000 0.014647 0.000000 0.001366
# 5 0.002007 -0.001574 -0.001016 0.000000 0.020059 0.000000
# 6 0.000000 0.000000 0.000000 0.001366 0.000000 0.017638
#
#
# Mechanical properties :
#
#
# Convention : Reuss Voigt Hill
#
# Bulk Modulus (GPa) = 57.00976 70.15072 63.58024
# Shear Modulus (GPa) = 50.04764 54.62102 52.33433
#
# Velocity S-wave (km/s) = 4.32105 4.51416 4.41866
# Velocity P-wave (km/s) = 6.79442 7.30354 7.05357
#
# Compressibility (1/GPa) = 0.01754086
#
# Stress axis : x y z
#
# Youngs Moduli (GPa) = 138.37244 70.33499 122.21066
#
# Poissons Ratio (x) = 0.19234 0.34201
# Poissons Ratio (y) = 0.37839 0.06233
# Poissons Ratio (z) = 0.38724 0.03587
#
# Static dielectric constant tensor:
#      x y z
#    x 2.108800 0.000000 0.049900 
#    y 0.000000 2.059210 0.000000 
#    z 0.049900 0.000000 2.196640 
# 
# From -- ./inp_files/56038.got.cif
#   From: 2010.05.17/outbox.cif.g08.bks.cpg/sg13_29_cif.got.tgz:56038.got - 2010.06.03 16:44:36.
