data_PCOD9238291
_publ_section_title
;
Structure prediction by ZEFSAII (Michael W. Deem and Ramdas Pophale) SiO2 
 PCOD9238291
Probable space group: P 2/C
;
_chemical_formula_sum "Si O2"
_cell_formula_units_Z 20
_cell_length_a 9.711731
_cell_length_b 11.976753
_cell_length_c 11.437162
_cell_angle_alpha 90.000000
_cell_angle_beta 133.870122
_cell_angle_gamma 90.000000
_cell_volume 959.039793
_symmetry_space_group_name_H-M "P 2/C"
_symmetry_group_IT_number 13
_symmetry_cell_setting 'monoclinic'
loop_
_space_group_symop_operation_xyz
x,y,z
-x,y,1/2-z
-x,-y,-z
x,-y,1/2+z
loop_
_atom_site_type_symbol
_atom_site_label
_atom_site_fract_x
_atom_site_fract_y
_atom_site_fract_z
Si Si1 0.700047 0.937024 0.612945
Si Si2 0.281574 0.223313 0.590026
Si Si3 0.002967 0.580276 0.616358
Si Si4 0.696361 0.758259 0.802331
Si Si5 0.027104 0.134048 0.641970
O O1 0.744222 0.881725 0.513285
O O2 0.656384 0.833041 0.667976
O O3 0.500000 0.000000 0.500000
O O4 0.869426 0.015547 0.764584
O O5 0.500000 0.241011 0.750000
O O6 0.176589 0.192206 0.647032
O O7 0.176185 0.334001 0.483734
O O8 0.180958 0.658130 0.681105
O O9 0.000000 0.533329 0.750000
O O10 0.000000 0.500000 0.500000
O O11 0.500000 0.725145 0.750000
O O12 0.824907 0.842231 0.959441
O O13 0.000000 0.191954 0.750000
#
# Coordination Sequence:
#
# PCOD9238291 Si02
#       5
#     4   4   4   4   4
#     4  12  24  40  68 104 153 191 235 285 360 445
#     4  11  25  46  70 106 144 189 241 299 366 451
#     4  11  26  52  78 103 140 192 253 323 380 427
#     4  11  26  46  67 104 146 188 242 297 362 448
#     4  11  26  37  65 102 145 197 234 284 353 442
#
# _framework density 20.854192999999999
#
# number of rings (size 3 to 8) (size 9 to 14) (size 15 to 20)
#    0.000    0.800    4.000    1.800   11.200    4.000 
#    0.000    2.000    0.000    0.000    0.000    0.000 
#    0.000    0.000    0.000    0.000    0.000    0.000 
#
# Total GULP energy -111437.805994 kJ/mol
# GULP energy per Si atom -5571.890300 kJ/mol
# Density = 2.080673 g / cm^3
# Si number density = 20.854193 Si / 1000 Ang^3
#
#
#
# Elastic Constant Matrix: (Units=GPa)
#
#
# Indices 1 2 3 4 5 6 
#
# 1 145.2967 36.1808 75.4631 0.0000 -14.0963 0.0000
# 2 36.1808 84.2074 41.7018 0.0000 -5.3425 0.0000
# 3 75.4631 41.7018 66.5018 0.0000 0.6550 0.0000
# 4 0.0000 0.0000 0.0000 35.5369 0.0000 6.1038
# 5 -14.0963 -5.3425 0.6550 0.0000 51.6115 0.0000
# 6 0.0000 0.0000 0.0000 6.1038 0.0000 -3.3205
#
#
#
# Elastic Compliance Matrix: (Units=1/GPa)
#
#
# Indices 1 2 3 4 5 6 
#
# 1 0.019031 0.004241 -0.024313 0.000000 0.005945 0.000000
# 2 0.004241 0.018362 -0.016359 0.000000 0.003267 0.000000
# 3 -0.024313 -0.016359 0.052974 0.000000 -0.009006 0.000000
# 4 0.000000 0.000000 0.000000 0.021387 0.000000 0.039314
# 5 0.005945 0.003267 -0.009006 0.000000 0.021452 0.000000
# 6 0.000000 0.000000 0.000000 0.039314 0.000000 -0.228889
#
#
# Mechanical properties :
#
#
# Convention : Reuss Voigt Hill
#
# Bulk Modulus (GPa) = 57.12978 66.96633 62.04806
# Shear Modulus (GPa) = -294.35412 26.27624 -134.03894
#
# Velocity S-wave (km/s) = -11.89349 3.55350 -8.02583
# Velocity P-wave (km/s) = 12.69458 7.00127 7.48781
#
# Compressibility (1/GPa) = 0.01750401
#
# Stress axis : x y z
#
# Youngs Moduli (GPa) = 52.54620 54.46052 18.87724
#
# Poissons Ratio (x) = -0.23096 0.45897
# Poissons Ratio (y) = -0.22285 0.30881
# Poissons Ratio (z) = 1.27757 0.89092
#
# Static dielectric constant tensor:
#      x y z
#    x 1.728330 0.000000 -0.066960 
#    y 0.000000 1.692260 0.000000 
#    z -0.066960 0.000000 1.880410 
# 
# From -- ./inp_files/29624.got.cif
#   From: 2010.05.17/outbox.cif.g08.bks.cpg/sg13_15_cif.got.tgz:29624.got - 2010.06.03 16:44:36.
