data_PCOD9238057
_publ_section_title
;
Structure prediction by ZEFSAII (Michael W. Deem and Ramdas Pophale) SiO2 
 PCOD9238057
Probable space group: P 2/C
;
_chemical_formula_sum "Si O2"
_cell_formula_units_Z 12
_cell_length_a 4.992256
_cell_length_b 13.781867
_cell_length_c 9.473328
_cell_angle_alpha 90.000000
_cell_angle_beta 60.570942
_cell_angle_gamma 90.000000
_cell_volume 567.685820
_symmetry_space_group_name_H-M "P 2/C"
_symmetry_group_IT_number 13
_symmetry_cell_setting 'monoclinic'
loop_
_space_group_symop_operation_xyz
x,y,z
-x,y,1/2-z
-x,-y,-z
x,-y,1/2+z
loop_
_atom_site_type_symbol
_atom_site_label
_atom_site_fract_x
_atom_site_fract_y
_atom_site_fract_z
Si Si1 0.575824 0.902834 0.066592
Si Si2 0.143261 0.583389 0.867634
Si Si3 0.216636 0.199561 0.431943
O O1 0.500000 0.915626 0.250000
O O2 0.355329 0.824049 0.049220
O O3 0.930243 0.868965 0.966248
O O4 0.500000 0.000000 0.000000
O O5 0.500000 0.563435 0.750000
O O6 0.111821 0.689324 0.945981
O O7 0.000000 0.588109 0.750000
O O8 0.000000 0.500000 0.000000
O O9 0.500000 0.185142 0.250000
#
# Coordination Sequence:
#
# PCOD9238057 Si02
#       3
#     4   4   4
#     4  12  26  44  67  98 131 171 219 273 327 389
#     4  11  24  43  68  99 133 174 217 269 328 387
#     4  11  24  45  68  95 132 175 218 268 327 388
#
# _framework density 21.138452999999998
#
# number of rings (size 3 to 8) (size 9 to 14) (size 15 to 20)
#    0.000    0.667    0.000    9.000    0.000    6.667 
#    0.000    0.000    0.000    0.000    0.000    0.000 
#    0.000    0.000    0.000    0.000    0.000    0.000 
#
# Total GULP energy -67230.710928 kJ/mol
# GULP energy per Si atom -5602.559244 kJ/mol
# Density = 2.109034 g / cm^3
# Si number density = 21.138453 Si / 1000 Ang^3
#
#
#
# Elastic Constant Matrix: (Units=GPa)
#
#
# Indices 1 2 3 4 5 6 
#
# 1 195.7808 85.9702 73.7526 0.0000 13.5027 0.0000
# 2 85.9702 164.3981 104.1553 0.0000 5.4703 0.0000
# 3 73.7526 104.1553 118.6669 0.0000 25.9467 0.0000
# 4 0.0000 0.0000 0.0000 42.0232 0.0000 3.5215
# 5 13.5027 5.4703 25.9467 0.0000 59.4388 0.0000
# 6 0.0000 0.0000 0.0000 3.5215 0.0000 43.9124
#
#
#
# Elastic Compliance Matrix: (Units=1/GPa)
#
#
# Indices 1 2 3 4 5 6 
#
# 1 0.006962 -0.002106 -0.002404 0.000000 -0.000338 0.000000
# 2 -0.002106 0.015471 -0.013337 0.000000 0.004876 0.000000
# 3 -0.002404 -0.013337 0.023481 0.000000 -0.008476 0.000000
# 4 0.000000 0.000000 0.000000 0.023957 0.000000 -0.001921
# 5 -0.000338 0.004876 -0.008476 0.000000 0.020152 0.000000
# 6 0.000000 0.000000 0.000000 -0.001921 0.000000 0.022927
#
#
# Mechanical properties :
#
#
# Convention : Reuss Voigt Hill
#
# Bulk Modulus (GPa) = 97.85429 111.84465 104.84947
# Shear Modulus (GPa) = 32.88383 43.40607 38.14495
#
# Velocity S-wave (km/s) = 3.94844 4.53638 4.25258
# Velocity P-wave (km/s) = 8.19631 8.97016 8.59195
#
# Compressibility (1/GPa) = 0.01021928
#
# Stress axis : x y z
#
# Youngs Moduli (GPa) = 143.64601 64.63524 42.58847
#
# Poissons Ratio (x) = 0.13612 0.10240
# Poissons Ratio (y) = 0.30251 0.56800
# Poissons Ratio (z) = 0.34538 0.86203
#
# Static dielectric constant tensor:
#      x y z
#    x 1.728890 0.000000 -0.011050 
#    y 0.000000 1.774750 0.000000 
#    z -0.011050 0.000000 1.727170 
# 
# From -- ./inp_files/8848.got.cif
#   From: 2010.05.17/outbox.cif.g08.bks.cpg/sg13_5_cif.got.tgz:8848.got - 2010.06.03 16:44:36.
