data_PCOD9238178
_publ_section_title
;
Structure prediction by ZEFSAII (Michael W. Deem and Ramdas Pophale) SiO2 
 PCOD9238178
Probable space group: P 2/C
;
_chemical_formula_sum "Si O2"
_cell_formula_units_Z 26
_cell_length_a 9.992706
_cell_length_b 8.982514
_cell_length_c 17.557118
_cell_angle_alpha 90.000000
_cell_angle_beta 142.473592
_cell_angle_gamma 90.000000
_cell_volume 959.935626
_symmetry_space_group_name_H-M "P 2/C"
_symmetry_group_IT_number 13
_symmetry_cell_setting 'monoclinic'
loop_
_space_group_symop_operation_xyz
x,y,z
-x,y,1/2-z
-x,-y,-z
x,-y,1/2+z
loop_
_atom_site_type_symbol
_atom_site_label
_atom_site_fract_x
_atom_site_fract_y
_atom_site_fract_z
Si Si1 0.049180 0.100162 0.396389
Si Si2 0.000000 0.510198 0.750000
Si Si3 0.652541 0.347548 0.445395
Si Si4 0.690735 0.223759 0.109714
Si Si5 0.305201 0.584537 0.259496
Si Si6 0.500000 0.875033 0.750000
Si Si7 0.163555 0.861645 0.115729
Si Si8 0.000000 0.500000 0.500000
O O1 0.264637 0.114575 0.440524
O O2 0.091349 0.186854 0.496924
O O3 0.846529 0.162004 0.251306
O O4 0.015307 0.928710 0.406350
O O5 0.816084 0.626019 0.637952
O O6 0.863369 0.415664 0.747102
O O7 0.555356 0.272829 0.479439
O O8 0.527401 0.506259 0.384824
O O9 0.889484 0.387375 0.516936
O O10 0.546484 0.230002 0.340677
O O11 0.209902 0.479002 0.149811
O O12 0.702140 0.986448 0.833649
O O13 0.317880 0.743771 0.226280
#
# Coordination Sequence:
#
# PCOD9238178 Si02
#       8
#     4   2   4   4   4   2   4   2
#     4   9  20  40  70 106 144 194 244 281 376 450
#     4   8  20  40  66  98 140 188 232 286 370 432
#     4  11  24  47  70 102 138 195 246 301 375 441
#     4   9  19  42  72  99 146 196 231 306 360 445
#     4  11  25  43  70 104 145 177 243 312 365 426
#     4  12  24  44  64 100 148 188 240 302 366 440
#     4  11  25  38  69 110 144 188 245 305 356 448
#     4  12  26  40  80  98 132 190 258 304 362 444
#
# _framework density 27.085146999999999
#
# number of rings (size 3 to 8) (size 9 to 14) (size 15 to 20)
#    0.000    1.846    3.077    0.000   12.923    1.231 
#    0.000    5.385    0.000    0.000    0.000    0.000 
#    0.000    0.000    0.000    0.000    0.000    0.000 
#
# Total GULP energy -144775.345253 kJ/mol
# GULP energy per Si atom -5568.282510 kJ/mol
# Density = 2.702350 g / cm^3
# Si number density = 27.085147 Si / 1000 Ang^3
#
#
#
# Elastic Constant Matrix: (Units=GPa)
#
#
# Indices 1 2 3 4 5 6 
#
# 1 180.4842 56.2337 2.1633 0.0000 -7.2857 0.0000
# 2 56.2337 116.1132 31.2197 0.0000 -15.5792 0.0000
# 3 2.1633 31.2197 74.5840 0.0000 -32.9440 0.0000
# 4 0.0000 0.0000 0.0000 -984.5112 0.0000 118.2036
# 5 -7.2857 -15.5792 -32.9440 0.0000 26.2881 0.0000
# 6 0.0000 0.0000 0.0000 118.2036 0.0000 31.7754
#
#
#
# Elastic Compliance Matrix: (Units=1/GPa)
#
#
# Indices 1 2 3 4 5 6 
#
# 1 0.006745 -0.003568 0.002665 0.000000 0.003094 0.000000
# 2 -0.003568 0.011618 -0.004827 0.000000 -0.000153 0.000000
# 3 0.002665 -0.004827 0.032284 0.000000 0.038336 0.000000
# 4 0.000000 0.000000 0.000000 -0.000702 0.000000 0.002612
# 5 0.003094 -0.000153 0.038336 0.000000 0.086849 0.000000
# 6 0.000000 0.000000 0.000000 0.002612 0.000000 0.021755
#
#
# Mechanical properties :
#
#
# Convention : Reuss Voigt Hill
#
# Bulk Modulus (GPa) = 25.51955 61.15721 43.33838
# Shear Modulus (GPa) = 27.31177 -166.51855 -69.60339
#
# Velocity S-wave (km/s) = 3.17892 -7.84940 -5.07482
# Velocity P-wave (km/s) = 4.78712 7.71506 4.27818
#
# Compressibility (1/GPa) = 0.03918564
#
# Stress axis : x y z
#
# Youngs Moduli (GPa) = 148.25112 86.07612 30.97511
#
# Poissons Ratio (x) = 0.30712 -0.08253
# Poissons Ratio (y) = 0.52897 0.14952
# Poissons Ratio (z) = -0.39502 0.41550
#
# Static dielectric constant tensor:
#      x y z
#    x 2.300420 0.000000 0.073260 
#    y 0.000000 1.885010 0.000000 
#    z 0.073260 0.000000 2.133950 
# 
# From -- ./inp_files/78180.got.cif
#   From: 2010.05.17/outbox.cif.g08.bks.cpg/sg13_40_cif.got.tgz:78180.got - 2010.06.03 16:44:36.
