data_PCOD9238728
_publ_section_title
;
Structure prediction by ZEFSAII (Michael W. Deem and Ramdas Pophale) SiO2 
 PCOD9238728
Probable space group: P 2/C
;
_chemical_formula_sum "Si O2"
_cell_formula_units_Z 24
_cell_length_a 14.554302
_cell_length_b 6.611203
_cell_length_c 13.805281
_cell_angle_alpha 90.000000
_cell_angle_beta 53.542559
_cell_angle_gamma 90.000000
_cell_volume 1068.401203
_symmetry_space_group_name_H-M "P 2/C"
_symmetry_group_IT_number 13
_symmetry_cell_setting 'monoclinic'
loop_
_space_group_symop_operation_xyz
x,y,z
-x,y,1/2-z
-x,-y,-z
x,-y,1/2+z
loop_
_atom_site_type_symbol
_atom_site_label
_atom_site_fract_x
_atom_site_fract_y
_atom_site_fract_z
Si Si1 0.753171 0.708965 0.704209
Si Si2 0.205272 0.619565 0.177025
Si Si3 0.112435 0.047805 0.992850
Si Si4 0.715490 0.592395 0.071194
Si Si5 0.500000 0.181334 0.750000
Si Si6 0.387154 0.954048 0.130404
Si Si7 0.000000 0.901525 0.250000
O O1 0.823195 0.553549 0.726764
O O2 0.811822 0.861931 0.592703
O O3 0.683295 0.563502 0.676995
O O4 0.690742 0.847798 0.821495
O O5 0.095244 0.761841 0.239773
O O6 0.312868 0.760758 0.142535
O O7 0.235240 0.519492 0.054324
O O8 0.068626 0.029882 0.129344
O O9 0.189536 0.250940 0.944613
O O10 0.000000 0.000000 0.000000
O O11 0.595363 0.701618 0.127263
O O12 0.574371 0.065248 0.782213
O O13 0.500000 0.000000 0.000000
#
# Coordination Sequence:
#
# PCOD9238728 Si02
#       7
#     4   4   4   4   2   4   2
#     4  12  25  51  76 106 157 193 257 317 384 462
#     4  12  29  50  74 120 149 200 262 314 387 463
#     4  12  28  50  77 111 155 203 255 321 383 456
#     4  12  28  48  79 115 148 202 258 309 390 460
#     4  12  26  50  74 110 156 198 254 314 388 454
#     4  12  29  48  78 113 152 202 256 322 386 457
#     4  12  28  48  78 112 160 198 258 322 384 458
#
# _framework density 22.463473
#
# number of rings (size 3 to 8) (size 9 to 14) (size 15 to 20)
#    0.000    0.000    5.000    3.000   14.000    2.667 
#    0.000    0.000    0.000    0.000    0.000    0.000 
#    0.000    0.000    0.000    0.000    0.000    0.000 
#
# Total GULP energy -134057.391693 kJ/mol
# GULP energy per Si atom -5585.724654 kJ/mol
# Density = 2.241234 g / cm^3
# Si number density = 22.463473 Si / 1000 Ang^3
#
#
#
# Elastic Constant Matrix: (Units=GPa)
#
#
# Indices 1 2 3 4 5 6 
#
# 1 91.4650 38.8892 -1.7848 0.0000 -6.8234 0.0000
# 2 38.8892 102.6969 33.2428 0.0000 -3.6209 0.0000
# 3 -1.7848 33.2428 115.3121 0.0000 -7.9486 0.0000
# 4 0.0000 0.0000 0.0000 24.7270 0.0000 12.7203
# 5 -6.8234 -3.6209 -7.9486 0.0000 39.6330 0.0000
# 6 0.0000 0.0000 0.0000 12.7203 0.0000 30.6713
#
#
#
# Elastic Compliance Matrix: (Units=1/GPa)
#
#
# Indices 1 2 3 4 5 6 
#
# 1 0.013565 -0.005709 0.002009 0.000000 0.002217 0.000000
# 2 -0.005709 0.013147 -0.003918 0.000000 -0.000567 0.000000
# 3 0.002009 -0.003918 0.009970 0.000000 0.001987 0.000000
# 4 0.000000 0.000000 0.000000 0.051410 0.000000 -0.021321
# 5 0.002217 -0.000567 0.001987 0.000000 0.025960 0.000000
# 6 0.000000 0.000000 0.000000 -0.021321 0.000000 0.041446
#
#
# Mechanical properties :
#
#
# Convention : Reuss Voigt Hill
#
# Bulk Modulus (GPa) = 46.62861 50.01870 48.32366
# Shear Modulus (GPa) = 28.10846 34.94805 31.52826
#
# Velocity S-wave (km/s) = 3.54120 3.94861 3.75044
# Velocity P-wave (km/s) = 6.12558 6.56534 6.34927
#
# Compressibility (1/GPa) = 0.02144606
#
# Stress axis : x y z
#
# Youngs Moduli (GPa) = 73.71937 76.06117 100.30497
#
# Poissons Ratio (x) = 0.43422 -0.20146
# Poissons Ratio (y) = 0.42085 0.39296
# Poissons Ratio (z) = -0.14807 0.29798
#
# Static dielectric constant tensor:
#      x y z
#    x 1.859580 0.000000 0.035760 
#    y 0.000000 1.652100 0.000000 
#    z 0.035760 0.000000 1.816840 
# 
# From -- ./inp_files/52119.got.cif
#   From: 2010.05.17/outbox.cif.g08.bks.cpg/sg13_27_cif.got.tgz:52119.got - 2010.06.03 16:44:36.
