data_PCOD9238373
_publ_section_title
;
Structure prediction by ZEFSAII (Michael W. Deem and Ramdas Pophale) SiO2 
 PCOD9238373
Probable space group: P 2/C
;
_chemical_formula_sum "Si O2"
_cell_formula_units_Z 18
_cell_length_a 7.293610
_cell_length_b 7.738600
_cell_length_c 17.576024
_cell_angle_alpha 90.000000
_cell_angle_beta 59.147843
_cell_angle_gamma 90.000000
_cell_volume 851.652735
_symmetry_space_group_name_H-M "P 2/C"
_symmetry_group_IT_number 13
_symmetry_cell_setting 'monoclinic'
loop_
_space_group_symop_operation_xyz
x,y,z
-x,y,1/2-z
-x,-y,-z
x,-y,1/2+z
loop_
_atom_site_type_symbol
_atom_site_label
_atom_site_fract_x
_atom_site_fract_y
_atom_site_fract_z
Si Si1 0.700646 0.178736 0.680614
Si Si2 0.032065 0.305439 0.017964
Si Si3 0.436535 0.188112 0.344996
Si Si4 0.308772 0.421323 0.093571
Si Si5 0.000000 0.693724 0.250000
O O1 0.500000 0.296096 0.750000
O O2 0.839315 0.229032 0.579073
O O3 0.866817 0.190520 0.716735
O O4 0.568136 0.017090 0.669980
O O5 0.157934 0.313174 0.069616
O O6 0.803975 0.223181 0.079314
O O7 0.000000 0.500000 0.000000
O O8 0.500000 0.265503 0.250000
O O9 0.589338 0.282108 0.371304
O O10 0.167095 0.568326 0.167605
O O11 0.500000 0.500000 0.000000
#
# Coordination Sequence:
#
# PCOD9238373 Si02
#       5
#     4   4   4   4   2
#     4  11  26  44  68 100 143 181 228 289 352 411
#     4  12  23  42  70 100 133 180 231 287 337 411
#     4  11  26  44  65 100 139 178 226 286 348 410
#     4  12  24  40  69 102 131 180 233 281 341 410
#     4  12  24  42  72 102 138 186 236 282 344 420
#
# _framework density 21.135375
#
# number of rings (size 3 to 8) (size 9 to 14) (size 15 to 20)
#    0.000    0.444    4.444    3.333    0.000    4.444 
#    0.000    0.000    0.000    0.000    0.000    0.000 
#    0.000    0.000    0.000    0.000    0.000    0.000 
#
# Total GULP energy -100255.181086 kJ/mol
# GULP energy per Si atom -5569.732283 kJ/mol
# Density = 2.108727 g / cm^3
# Si number density = 21.135375 Si / 1000 Ang^3
#
#
#
# Elastic Constant Matrix: (Units=GPa)
#
#
# Indices 1 2 3 4 5 6 
#
# 1 181.4986 42.4295 45.1634 0.0000 35.2209 0.0000
# 2 42.4295 51.1647 14.6841 0.0000 14.6122 0.0000
# 3 45.1634 14.6841 143.8883 0.0000 -0.2031 0.0000
# 4 0.0000 0.0000 0.0000 65.6532 0.0000 -14.8556
# 5 35.2209 14.6122 -0.2031 0.0000 51.8815 0.0000
# 6 0.0000 0.0000 0.0000 -14.8556 0.0000 39.8568
#
#
#
# Elastic Compliance Matrix: (Units=1/GPa)
#
#
# Indices 1 2 3 4 5 6 
#
# 1 0.007919 -0.004847 -0.001997 0.000000 -0.004019 0.000000
# 2 -0.004847 0.024925 -0.001028 0.000000 -0.003734 0.000000
# 3 -0.001997 -0.001028 0.007684 0.000000 0.001675 0.000000
# 4 0.000000 0.000000 0.000000 0.016634 0.000000 0.006200
# 5 -0.004019 -0.003734 0.001675 0.000000 0.023061 0.000000
# 6 0.000000 0.000000 0.000000 0.006200 0.000000 0.027401
#
#
# Mechanical properties :
#
#
# Convention : Reuss Voigt Hill
#
# Bulk Modulus (GPa) = 40.34475 64.56726 52.45601
# Shear Modulus (GPa) = 37.98546 49.76327 43.87436
#
# Velocity S-wave (km/s) = 4.24399 4.85758 4.56112
# Velocity P-wave (km/s) = 6.56852 7.87891 7.25337
#
# Compressibility (1/GPa) = 0.02478637
#
# Stress axis : x y z
#
# Youngs Moduli (GPa) = 126.27081 40.12014 130.14324
#
# Poissons Ratio (x) = 0.19444 0.25987
# Poissons Ratio (y) = 0.61197 0.13375
# Poissons Ratio (z) = 0.25214 0.04123
#
# Static dielectric constant tensor:
#      x y z
#    x 1.744950 0.000000 -0.055130 
#    y 0.000000 1.758120 0.000000 
#    z -0.055130 0.000000 1.766400 
# 
# From -- ./inp_files/60550.got.cif
#   From: 2010.05.17/outbox.cif.g08.bks.cpg/sg13_31_cif.got.tgz:60550.got - 2010.06.03 16:44:36.
