data_PCOD9238727
_publ_section_title
;
Structure prediction by ZEFSAII (Michael W. Deem and Ramdas Pophale) SiO2 
 PCOD9238727
Probable space group: P 2/C
;
_chemical_formula_sum "Si O2"
_cell_formula_units_Z 18
_cell_length_a 13.335240
_cell_length_b 8.272600
_cell_length_c 12.831275
_cell_angle_alpha 90.000000
_cell_angle_beta 31.224669
_cell_angle_gamma 90.000000
_cell_volume 733.793199
_symmetry_space_group_name_H-M "P 2/C"
_symmetry_group_IT_number 13
_symmetry_cell_setting 'monoclinic'
loop_
_space_group_symop_operation_xyz
x,y,z
-x,y,1/2-z
-x,-y,-z
x,-y,1/2+z
loop_
_atom_site_type_symbol
_atom_site_label
_atom_site_fract_x
_atom_site_fract_y
_atom_site_fract_z
Si Si1 0.065525 0.701551 0.024325
Si Si2 0.269335 0.803391 0.629392
Si Si3 0.382572 0.668157 0.091531
Si Si4 0.692999 0.112684 0.025278
Si Si5 0.000000 0.568879 0.750000
O O1 0.843917 0.682003 0.183546
O O2 0.922208 0.458116 0.913848
O O3 0.183643 0.743960 0.815893
O O4 0.148000 0.834534 0.032228
O O5 0.498127 0.788102 0.441512
O O6 0.175100 0.680631 0.631866
O O7 0.228499 0.983446 0.627382
O O8 0.500000 0.500000 0.000000
O O9 0.381854 0.731176 0.972994
O O10 0.500000 0.044078 0.250000
#
# Coordination Sequence:
#
# PCOD9238727 Si02
#       5
#     4   4   4   4   2
#     4  12  26  53  81 111 166 212 267 340 402 490
#     4  12  29  50  77 119 161 213 273 332 412 480
#     4  12  25  50  80 116 157 211 265 332 408 486
#     4  12  27  52  80 118 170 212 271 344 408 483
#     4  12  26  50  80 120 154 214 272 330 414 486
#
# _framework density 24.530071
#
# number of rings (size 3 to 8) (size 9 to 14) (size 15 to 20)
#    0.000    0.000    6.667    1.333    3.111    2.667 
#    0.000    0.000    0.000    0.000    0.000    0.000 
#    0.000    0.000    0.000    0.000    0.000    0.000 
#
# Total GULP energy -100629.671453 kJ/mol
# GULP energy per Si atom -5590.537303 kJ/mol
# Density = 2.447424 g / cm^3
# Si number density = 24.530071 Si / 1000 Ang^3
#
#
#
# Elastic Constant Matrix: (Units=GPa)
#
#
# Indices 1 2 3 4 5 6 
#
# 1 206.0268 92.0459 80.7094 0.0000 -35.0438 0.0000
# 2 92.0459 130.7471 60.4812 0.0000 -6.7926 0.0000
# 3 80.7094 60.4812 97.2267 0.0000 -3.4930 0.0000
# 4 0.0000 0.0000 0.0000 24.7159 0.0000 1.0837
# 5 -35.0438 -6.7926 -3.4930 0.0000 44.6103 0.0000
# 6 0.0000 0.0000 0.0000 1.0837 0.0000 61.5681
#
#
#
# Elastic Compliance Matrix: (Units=1/GPa)
#
#
# Indices 1 2 3 4 5 6 
#
# 1 0.010020 -0.004164 -0.005483 0.000000 0.006808 0.000000
# 2 -0.004164 0.012525 -0.004396 0.000000 -0.001708 0.000000
# 3 -0.005483 -0.004396 0.017441 0.000000 -0.003611 0.000000
# 4 0.000000 0.000000 0.000000 0.040491 0.000000 -0.000713
# 5 0.006808 -0.001708 -0.003611 0.000000 0.027221 0.000000
# 6 0.000000 0.000000 0.000000 -0.000713 0.000000 0.016255
#
#
# Mechanical properties :
#
#
# Convention : Reuss Voigt Hill
#
# Bulk Modulus (GPa) = 84.03005 100.05262 92.04134
# Shear Modulus (GPa) = 32.05024 39.56312 35.80668
#
# Velocity S-wave (km/s) = 3.61857 4.02038 3.82475
# Velocity P-wave (km/s) = 7.19646 7.90111 7.55700
#
# Compressibility (1/GPa) = 0.01190050
#
# Stress axis : x y z
#
# Youngs Moduli (GPa) = 99.80107 79.84335 57.33517
#
# Poissons Ratio (x) = 0.33248 0.31436
# Poissons Ratio (y) = 0.41558 0.25203
# Poissons Ratio (z) = 0.54719 0.35097
#
# Static dielectric constant tensor:
#      x y z
#    x 1.901780 0.000000 0.013620 
#    y 0.000000 1.990610 0.000000 
#    z 0.013620 0.000000 2.065960 
# 
# From -- ./inp_files/32864.got.cif
#   From: 2010.05.17/outbox.cif.g08.bks.cpg/sg13_17_cif.got.tgz:32864.got - 2010.06.03 16:44:36.
