data_PCOD9238492
_publ_section_title
;
Structure prediction by ZEFSAII (Michael W. Deem and Ramdas Pophale) SiO2 
 PCOD9238492
Probable space group: P 2/C
;
_chemical_formula_sum "Si O2"
_cell_formula_units_Z 20
_cell_length_a 4.999052
_cell_length_b 9.212504
_cell_length_c 20.212367
_cell_angle_alpha 90.000000
_cell_angle_beta 94.719662
_cell_angle_gamma 90.000000
_cell_volume 927.699698
_symmetry_space_group_name_H-M "P 2/C"
_symmetry_group_IT_number 13
_symmetry_cell_setting 'monoclinic'
loop_
_space_group_symop_operation_xyz
x,y,z
-x,y,1/2-z
-x,-y,-z
x,-y,1/2+z
loop_
_atom_site_type_symbol
_atom_site_label
_atom_site_fract_x
_atom_site_fract_y
_atom_site_fract_z
Si Si1 0.077922 0.991909 0.580462
Si Si2 0.384525 0.357604 0.530819
Si Si3 0.928237 0.692354 0.111541
Si Si4 0.616662 0.802857 0.602359
Si Si5 0.255350 0.451085 0.293540
O O1 0.340863 0.892191 0.592914
O O2 0.850771 0.916162 0.620100
O O3 0.000000 0.000000 0.500000
O O4 0.084879 0.154608 0.610591
O O5 0.500000 0.500000 0.500000
O O6 0.635711 0.285793 0.573557
O O7 0.308831 0.255303 0.468950
O O8 0.131923 0.400270 0.570304
O O9 0.862250 0.595588 0.173829
O O10 0.630635 0.665560 0.651435
O O11 0.500000 0.487828 0.250000
O O12 0.000000 0.385186 0.250000
#
# Coordination Sequence:
#
# PCOD9238492 Si02
#       5
#     4   4   4   4   4
#     4  12  23  41  67 113 147 173 206 285 374 443
#     4  12  22  37  68 109 138 171 219 293 359 417
#     4  12  25  41  70 103 143 174 225 287 355 418
#     4  12  24  42  70 102 145 177 225 284 355 424
#     4  12  28  49  69  96 134 196 256 291 324 399
#
# _framework density 21.558700999999999
#
# number of rings (size 3 to 8) (size 9 to 14) (size 15 to 20)
#    0.000    0.000    6.000    4.800    2.800    0.000 
#    0.000    4.000    0.000    0.000    0.000    0.000 
#    0.000    0.000    0.000    0.000    0.000    0.000 
#
# Total GULP energy -111720.393729 kJ/mol
# GULP energy per Si atom -5586.019686 kJ/mol
# Density = 2.150963 g / cm^3
# Si number density = 21.558701 Si / 1000 Ang^3
#
#
#
# Elastic Constant Matrix: (Units=GPa)
#
#
# Indices 1 2 3 4 5 6 
#
# 1 136.0986 27.8743 61.1165 0.0000 -29.6719 0.0000
# 2 27.8743 107.2055 43.8361 0.0000 -6.6571 0.0000
# 3 61.1165 43.8361 104.7566 0.0000 -21.3512 0.0000
# 4 0.0000 0.0000 0.0000 5.8479 0.0000 -7.4346
# 5 -29.6719 -6.6571 -21.3512 0.0000 35.3768 0.0000
# 6 0.0000 0.0000 0.0000 -7.4346 0.0000 44.2779
#
#
#
# Elastic Compliance Matrix: (Units=1/GPa)
#
#
# Indices 1 2 3 4 5 6 
#
# 1 0.011020 -0.000443 -0.004991 0.000000 0.006147 0.000000
# 2 -0.000443 0.011292 -0.004686 0.000000 -0.001075 0.000000
# 3 -0.004991 -0.004686 0.015263 0.000000 0.004144 0.000000
# 4 0.000000 0.000000 0.000000 0.217412 0.000000 0.036505
# 5 0.006147 -0.001075 0.004144 0.000000 0.035722 0.000000
# 6 0.000000 0.000000 0.000000 0.036505 0.000000 0.028714
#
#
# Mechanical properties :
#
#
# Convention : Reuss Voigt Hill
#
# Bulk Modulus (GPa) = 57.68377 68.19051 62.93714
# Shear Modulus (GPa) = 14.47423 31.44943 22.96183
#
# Velocity S-wave (km/s) = 2.59392 3.82354 3.26710
# Velocity P-wave (km/s) = 5.98214 7.15482 6.59460
#
# Compressibility (1/GPa) = 0.01733590
#
# Stress axis : x y z
#
# Youngs Moduli (GPa) = 90.74664 88.55505 65.51683
#
# Poissons Ratio (x) = 0.03921 0.32699
# Poissons Ratio (y) = 0.04018 0.30702
# Poissons Ratio (z) = 0.45291 0.41498
#
# Static dielectric constant tensor:
#      x y z
#    x 1.824830 0.000000 0.038600 
#    y 0.000000 2.036380 0.000000 
#    z 0.038600 0.000000 1.821890 
# 
# From -- ./inp_files/73036.got.cif
#   From: 2010.05.17/outbox.cif.g08.bks.cpg/sg13_37_cif.got.tgz:73036.got - 2010.06.03 16:44:36.
