data_PCOD9238558
_publ_section_title
;
Structure prediction by ZEFSAII (Michael W. Deem and Ramdas Pophale) SiO2 
 PCOD9238558
Probable space group: P 2/C
;
_chemical_formula_sum "Si O2"
_cell_formula_units_Z 26
_cell_length_a 19.310795
_cell_length_b 9.689505
_cell_length_c 7.537937
_cell_angle_alpha 90.000000
_cell_angle_beta 128.538594
_cell_angle_gamma 90.000000
_cell_volume 1103.229236
_symmetry_space_group_name_H-M "P 2/C"
_symmetry_group_IT_number 13
_symmetry_cell_setting 'monoclinic'
loop_
_space_group_symop_operation_xyz
x,y,z
-x,y,1/2-z
-x,-y,-z
x,-y,1/2+z
loop_
_atom_site_type_symbol
_atom_site_label
_atom_site_fract_x
_atom_site_fract_y
_atom_site_fract_z
Si Si1 0.898992 0.538868 0.367092
Si Si2 0.897596 0.965239 0.862550
Si Si3 0.370537 0.616442 0.233092
Si Si4 0.826664 0.799136 0.066792
Si Si5 0.634610 0.701749 0.683775
Si Si6 0.823712 0.299760 0.068523
Si Si7 0.500000 0.283129 0.250000
O O1 0.868323 0.652898 0.177644
O O2 0.836886 0.404596 0.255463
O O3 0.883007 0.620810 0.521560
O O4 0.000000 0.500000 0.500000
O O5 0.861852 0.848139 0.672623
O O6 0.835390 0.099967 0.750150
O O7 0.885793 0.885718 0.027064
O O8 0.000000 0.000000 0.000000
O O9 0.355237 0.451264 0.212074
O O10 0.442192 0.640275 0.503666
O O11 0.391976 0.672115 0.066356
O O12 0.279363 0.691599 0.142866
O O13 0.728103 0.779009 0.838625
O O14 0.570375 0.781519 0.721763
#
# Coordination Sequence:
#
# PCOD9238558 Si02
#       7
#     4   4   4   4   4   4   2
#     4  12  25  42  69 106 146 195 246 311 381 440
#     4  12  27  48  74 103 142 202 262 305 365 445
#     4  12  23  43  72 113 153 199 243 305 389 463
#     4  12  26  49  70 103 148 197 252 314 375 453
#     4  12  24  44  72 113 156 195 249 304 393 463
#     4  12  24  46  70 105 150 193 244 312 373 447
#     4  12  26  40  76 118 158 190 242 314 390 468
#
# _framework density 23.567178999999999
#
# number of rings (size 3 to 8) (size 9 to 14) (size 15 to 20)
#    0.000    0.000    4.615    6.462    0.000    2.462 
#    0.000    0.000    0.000    3.692    0.000    0.000 
#    0.000    0.000    0.000    0.000    0.000    0.000 
#
# Total GULP energy -145351.494362 kJ/mol
# GULP energy per Si atom -5590.442091 kJ/mol
# Density = 2.351354 g / cm^3
# Si number density = 23.567179 Si / 1000 Ang^3
#
#
#
# Elastic Constant Matrix: (Units=GPa)
#
#
# Indices 1 2 3 4 5 6 
#
# 1 137.0632 16.4183 45.4862 0.0000 -0.0512 0.0000
# 2 16.4183 103.9074 44.7855 0.0000 12.8023 0.0000
# 3 45.4862 44.7855 147.2398 0.0000 -1.2970 0.0000
# 4 0.0000 0.0000 0.0000 23.1561 0.0000 0.3470
# 5 -0.0512 12.8023 -1.2970 0.0000 58.0511 0.0000
# 6 0.0000 0.0000 0.0000 0.3470 0.0000 20.1331
#
#
#
# Elastic Compliance Matrix: (Units=1/GPa)
#
#
# Indices 1 2 3 4 5 6 
#
# 1 0.008134 -0.000233 -0.002442 0.000000 0.000004 0.000000
# 2 -0.000233 0.011463 -0.003438 0.000000 -0.002605 0.000000
# 3 -0.002442 -0.003438 0.008600 0.000000 0.000948 0.000000
# 4 0.000000 0.000000 0.000000 0.043196 0.000000 -0.000744
# 5 0.000004 -0.002605 0.000948 0.000000 0.017822 0.000000
# 6 0.000000 0.000000 0.000000 -0.000744 0.000000 0.049682
#
#
# Mechanical properties :
#
#
# Convention : Reuss Voigt Hill
#
# Bulk Modulus (GPa) = 62.60973 66.84338 64.72656
# Shear Modulus (GPa) = 31.95949 39.03608 35.49779
#
# Velocity S-wave (km/s) = 3.68652 4.07427 3.88524
# Velocity P-wave (km/s) = 6.68915 7.11037 6.90298
#
# Compressibility (1/GPa) = 0.01597196
#
# Stress axis : x y z
#
# Youngs Moduli (GPa) = 122.93742 87.23352 116.27920
#
# Poissons Ratio (x) = 0.02035 0.28394
# Poissons Ratio (y) = 0.02868 0.39973
# Poissons Ratio (z) = 0.30020 0.29988
#
# Static dielectric constant tensor:
#      x y z
#    x 2.044990 0.000000 -0.086360 
#    y 0.000000 1.845720 0.000000 
#    z -0.086360 0.000000 2.122190 
# 
# From -- ./inp_files/23001.got.cif
#   From: 2010.05.17/outbox.cif.g08.bks.cpg/sg13_12_cif.got.tgz:23001.got - 2010.06.03 16:44:36.
