data_PCOD9238819
_publ_section_title
;
Structure prediction by ZEFSAII (Michael W. Deem and Ramdas Pophale) SiO2 
 PCOD9238819
Probable space group: P 2/C
;
_chemical_formula_sum "Si O2"
_cell_formula_units_Z 16
_cell_length_a 19.709933
_cell_length_b 4.869519
_cell_length_c 9.610307
_cell_angle_alpha 90.000000
_cell_angle_beta 139.964575
_cell_angle_gamma 90.000000
_cell_volume 593.329273
_symmetry_space_group_name_H-M "P 2/C"
_symmetry_group_IT_number 13
_symmetry_cell_setting 'monoclinic'
loop_
_space_group_symop_operation_xyz
x,y,z
-x,y,1/2-z
-x,-y,-z
x,-y,1/2+z
loop_
_atom_site_type_symbol
_atom_site_label
_atom_site_fract_x
_atom_site_fract_y
_atom_site_fract_z
Si Si1 0.384699 0.534545 0.028933
Si Si2 0.790337 0.826875 0.569811
Si Si3 0.067087 0.664561 0.221181
Si Si4 0.395072 0.843214 0.790323
O O1 0.500000 0.656935 0.250000
O O2 0.386087 0.565495 0.866258
O O3 0.387170 0.250305 0.117429
O O4 0.283592 0.695872 0.927193
O O5 0.851512 0.570613 0.601259
O O6 0.707479 0.977309 0.340068
O O7 0.871734 0.068230 0.740551
O O8 0.000000 0.751597 0.250000
O O9 0.000000 0.500000 0.000000
O O10 0.500000 0.000000 0.000000
#
# Coordination Sequence:
#
# PCOD9238819 Si02
#       4
#     4   4   4   4
#     4  12  28  50  80 121 172 216 273 326 419 509
#     4  12  28  50  84 117 161 216 269 349 420 486
#     4  12  30  54  79 114 157 213 289 350 416 486
#     4  12  29  51  82 122 174 221 274 336 417 517
#
# _framework density 26.966474999999999
#
# number of rings (size 3 to 8) (size 9 to 14) (size 15 to 20)
#    0.000    0.000    5.000    2.250   10.500    0.000 
#    0.000    0.000    0.000    0.000    0.000    0.000 
#    0.000    0.000    0.000    0.000    0.000    0.000 
#
# Total GULP energy -89649.555116 kJ/mol
# GULP energy per Si atom -5603.097195 kJ/mol
# Density = 2.690510 g / cm^3
# Si number density = 26.966475 Si / 1000 Ang^3
#
#
#
# Elastic Constant Matrix: (Units=GPa)
#
#
# Indices 1 2 3 4 5 6 
#
# 1 86.7910 26.1964 28.0426 0.0000 27.3311 0.0000
# 2 26.1964 167.5271 42.6223 0.0000 24.9733 0.0000
# 3 28.0426 42.6223 112.9540 0.0000 27.1024 0.0000
# 4 0.0000 0.0000 0.0000 72.7134 0.0000 18.7758
# 5 27.3311 24.9733 27.1024 0.0000 47.4032 0.0000
# 6 0.0000 0.0000 0.0000 18.7758 0.0000 40.9300
#
#
#
# Elastic Compliance Matrix: (Units=1/GPa)
#
#
# Indices 1 2 3 4 5 6 
#
# 1 0.014494 -0.000812 -0.001610 0.000000 -0.007008 0.000000
# 2 -0.000812 0.006889 -0.001900 0.000000 -0.002075 0.000000
# 3 -0.001610 -0.001900 0.011019 0.000000 -0.004370 0.000000
# 4 0.000000 0.000000 0.000000 0.015601 0.000000 -0.007156
# 5 -0.007008 -0.002075 -0.004370 0.000000 0.028728 0.000000
# 6 0.000000 0.000000 0.000000 -0.007156 0.000000 0.027715
#
#
# Mechanical properties :
#
#
# Convention : Reuss Voigt Hill
#
# Bulk Modulus (GPa) = 42.09331 62.33277 52.21304
# Shear Modulus (GPa) = 41.31922 50.23671 45.77797
#
# Velocity S-wave (km/s) = 3.91864 4.32085 4.12465
# Velocity P-wave (km/s) = 6.00980 6.93240 6.48752
#
# Compressibility (1/GPa) = 0.02375675
#
# Stress axis : x y z
#
# Youngs Moduli (GPa) = 68.99233 145.16212 90.75604
#
# Poissons Ratio (x) = 0.11788 0.14616
# Poissons Ratio (y) = 0.05602 0.17244
# Poissons Ratio (z) = 0.11111 0.27582
#
# Static dielectric constant tensor:
#      x y z
#    x 2.103910 0.000000 -0.005230 
#    y 0.000000 2.107720 0.000000 
#    z -0.005230 0.000000 2.170620 
# 
# From -- ./inp_files/31588.got.cif
#   From: 2010.05.17/outbox.cif.g08.bks.cpg/sg13_16_cif.got.tgz:31588.got - 2010.06.03 16:44:36.
