data_PCOD9238533
_publ_section_title
;
Structure prediction by ZEFSAII (Michael W. Deem and Ramdas Pophale) SiO2 
 PCOD9238533
Probable space group: P 2/C
;
_chemical_formula_sum "Si O2"
_cell_formula_units_Z 16
_cell_length_a 8.273852
_cell_length_b 16.713490
_cell_length_c 5.341893
_cell_angle_alpha 90.000000
_cell_angle_beta 114.058153
_cell_angle_gamma 90.000000
_cell_volume 674.533805
_symmetry_space_group_name_H-M "P 2/C"
_symmetry_group_IT_number 13
_symmetry_cell_setting 'monoclinic'
loop_
_space_group_symop_operation_xyz
x,y,z
-x,y,1/2-z
-x,-y,-z
x,-y,1/2+z
loop_
_atom_site_type_symbol
_atom_site_label
_atom_site_fract_x
_atom_site_fract_y
_atom_site_fract_z
Si Si1 0.000000 0.275038 0.750000
Si Si2 0.000000 0.552546 0.750000
Si Si3 0.500000 0.054682 0.250000
Si Si4 0.000000 0.050603 0.250000
Si Si5 0.761254 0.822964 0.743582
Si Si6 0.697690 0.666265 0.415259
O O1 0.922030 0.220496 0.482965
O O2 0.827276 0.319597 0.756229
O O3 0.825021 0.607883 0.652525
O O4 0.000000 0.500000 0.500000
O O5 0.342893 0.120278 0.130957
O O6 0.500000 0.000000 0.500000
O O7 0.833901 0.108922 0.109125
O O8 0.000000 0.000000 0.500000
O O9 0.668001 0.750962 0.538785
O O10 0.500000 0.633352 0.250000
#
# Coordination Sequence:
#
# PCOD9238533 Si02
#       6
#     2   2   2   2   4   4
#     4  12  22  48  80 116 158 204 296 340 394 480
#     4  12  28  56  85 127 176 204 258 342 412 498
#     4  12  30  48  68 114 164 208 278 356 418 474
#     4  12  24  40  67  97 144 206 260 324 410 464
#     4  12  25  46  74 104 153 213 272 342 397 483
#     4  12  27  50  85 119 159 221 273 331 408 499
#
# _framework density 23.720085000000001
#
# number of rings (size 3 to 8) (size 9 to 14) (size 15 to 20)
#    0.000    0.000    5.000    4.500    5.250    1.000 
#    0.000    0.000    0.000    0.000    0.000    0.000 
#    0.000    0.000    0.000    0.000    0.000    0.000 
#
# Total GULP energy -89384.279025 kJ/mol
# GULP energy per Si atom -5586.517439 kJ/mol
# Density = 2.366610 g / cm^3
# Si number density = 23.720085 Si / 1000 Ang^3
#
#
#
# Elastic Constant Matrix: (Units=GPa)
#
#
# Indices 1 2 3 4 5 6 
#
# 1 138.0544 54.4823 47.2088 0.0000 18.7137 0.0000
# 2 54.4823 137.3128 64.6003 0.0000 -2.9493 0.0000
# 3 47.2088 64.6003 130.5630 0.0000 -6.7239 0.0000
# 4 0.0000 0.0000 0.0000 41.2331 0.0000 -16.5345
# 5 18.7137 -2.9493 -6.7239 0.0000 49.0582 0.0000
# 6 0.0000 0.0000 0.0000 -16.5345 0.0000 24.1795
#
#
#
# Elastic Compliance Matrix: (Units=1/GPa)
#
#
# Indices 1 2 3 4 5 6 
#
# 1 0.009736 -0.002861 -0.002321 0.000000 -0.004204 0.000000
# 2 -0.002861 0.010333 -0.004018 0.000000 0.001162 0.000000
# 3 -0.002321 -0.004018 0.010595 0.000000 0.002096 0.000000
# 4 0.000000 0.000000 0.000000 0.033415 0.000000 0.022850
# 5 -0.004204 0.001162 0.002096 0.000000 0.022345 0.000000
# 6 0.000000 0.000000 0.000000 0.022850 0.000000 0.056983
#
#
# Mechanical properties :
#
#
# Convention : Reuss Voigt Hill
#
# Bulk Modulus (GPa) = 81.54956 82.05701 81.80329
# Shear Modulus (GPa) = 30.13919 38.87007 34.50463
#
# Velocity S-wave (km/s) = 3.56844 4.05248 3.81814
# Velocity P-wave (km/s) = 7.17168 7.52102 7.34843
#
# Compressibility (1/GPa) = 0.01226248
#
# Stress axis : x y z
#
# Youngs Moduli (GPa) = 102.70719 96.77358 94.38800
#
# Poissons Ratio (x) = 0.27691 0.21909
# Poissons Ratio (y) = 0.29389 0.37928
# Poissons Ratio (z) = 0.23840 0.38887
#
# Static dielectric constant tensor:
#      x y z
#    x 2.190970 0.000000 -0.065870 
#    y 0.000000 1.901190 0.000000 
#    z -0.065870 0.000000 1.841190 
# 
# From -- ./inp_files/1132.got.cif
#   From: 2010.05.17/outbox.cif.g08.bks.cpg/sg13_1_cif.got.tgz:1132.got - 2010.06.03 16:44:36.
