data_PCOD9238432
_publ_section_title
;
Structure prediction by ZEFSAII (Michael W. Deem and Ramdas Pophale) SiO2 
 PCOD9238432
Probable space group: P 2/C
;
_chemical_formula_sum "Si O2"
_cell_formula_units_Z 18
_cell_length_a 12.412434
_cell_length_b 5.250438
_cell_length_c 20.670819
_cell_angle_alpha 90.000000
_cell_angle_beta 35.341969
_cell_angle_gamma 90.000000
_cell_volume 779.255662
_symmetry_space_group_name_H-M "P 2/C"
_symmetry_group_IT_number 13
_symmetry_cell_setting 'monoclinic'
loop_
_space_group_symop_operation_xyz
x,y,z
-x,y,1/2-z
-x,-y,-z
x,-y,1/2+z
loop_
_atom_site_type_symbol
_atom_site_label
_atom_site_fract_x
_atom_site_fract_y
_atom_site_fract_z
Si Si1 0.978981 0.775936 0.565389
Si Si2 0.293909 0.395161 0.449549
Si Si3 0.319360 0.616162 0.244139
Si Si4 0.500000 0.985164 0.750000
Si Si5 0.005210 0.868079 0.173133
O O1 0.861677 0.443320 0.513738
O O2 0.783949 0.627314 0.673489
O O3 0.000000 0.000000 0.500000
O O4 0.014843 0.906704 0.616847
O O5 0.475242 0.551143 0.380705
O O6 0.185410 0.294901 0.564993
O O7 0.381868 0.177857 0.359927
O O8 0.363184 0.830972 0.276250
O O9 0.180126 0.717111 0.257926
O O10 0.000000 0.940290 0.250000
#
# Coordination Sequence:
#
# PCOD9238432 Si02
#       5
#     4   4   4   2   4
#     4  11  28  48  76 117 155 200 257 324 388 448
#     4  11  27  46  79 111 157 199 253 325 379 460
#     4  11  27  46  79 111 157 199 253 325 379 460
#     4  12  26  46  76 124 148 196 262 316 392 448
#     4  11  28  50  72 110 160 208 258 312 386 464
#
# _framework density 23.098965
#
# number of rings (size 3 to 8) (size 9 to 14) (size 15 to 20)
#    0.000    0.889    0.000    3.333   18.667    8.889 
#    0.000    7.778    0.000    0.000    0.000    0.000 
#    0.000    0.000    0.000    0.000    0.000    0.000 
#
# Total GULP energy -100705.137217 kJ/mol
# GULP energy per Si atom -5594.729845 kJ/mol
# Density = 2.304639 g / cm^3
# Si number density = 23.098965 Si / 1000 Ang^3
#
#
#
# Elastic Constant Matrix: (Units=GPa)
#
#
# Indices 1 2 3 4 5 6 
#
# 1 100.2240 15.1330 57.4208 0.0000 14.3814 0.0000
# 2 15.1330 89.6376 29.6912 0.0000 0.4918 0.0000
# 3 57.4208 29.6912 143.4057 0.0000 -15.8080 0.0000
# 4 0.0000 0.0000 0.0000 46.0849 0.0000 -17.2465
# 5 14.3814 0.4918 -15.8080 0.0000 66.4839 0.0000
# 6 0.0000 0.0000 0.0000 -17.2465 0.0000 33.1999
#
#
#
# Elastic Compliance Matrix: (Units=1/GPa)
#
#
# Indices 1 2 3 4 5 6 
#
# 1 0.014173 -0.000347 -0.006101 0.000000 -0.004514 0.000000
# 2 -0.000347 0.012017 -0.002414 0.000000 -0.000588 0.000000
# 3 -0.006101 -0.002414 0.010334 0.000000 0.003795 0.000000
# 4 0.000000 0.000000 0.000000 0.026935 0.000000 0.013992
# 5 -0.004514 -0.000588 0.003795 0.000000 0.016924 0.000000
# 6 0.000000 0.000000 0.000000 0.013992 0.000000 0.037389
#
#
# Mechanical properties :
#
#
# Convention : Reuss Voigt Hill
#
# Bulk Modulus (GPa) = 53.18884 59.75082 56.46983
# Shear Modulus (GPa) = 35.26990 44.55524 39.91257
#
# Velocity S-wave (km/s) = 3.91180 4.39667 4.16130
# Velocity P-wave (km/s) = 6.59389 7.19012 6.89845
#
# Compressibility (1/GPa) = 0.01880094
#
# Stress axis : x y z
#
# Youngs Moduli (GPa) = 70.55668 83.21244 96.76746
#
# Poissons Ratio (x) = 0.02889 0.59035
# Poissons Ratio (y) = 0.02450 0.23358
# Poissons Ratio (z) = 0.43044 0.20086
#
# Static dielectric constant tensor:
#      x y z
#    x 1.882130 0.000000 -0.073200 
#    y 0.000000 2.026050 0.000000 
#    z -0.073200 0.000000 1.875010 
# 
# From -- ./inp_files/77103.got.cif
#   From: 2010.05.17/outbox.cif.g08.bks.cpg/sg13_39_cif.got.tgz:77103.got - 2010.06.03 16:44:36.
