data_PCOD9238329
_publ_section_title
;
Structure prediction by ZEFSAII (Michael W. Deem and Ramdas Pophale) SiO2 
 PCOD9238329
Probable space group: P 2/C
;
_chemical_formula_sum "Si O2"
_cell_formula_units_Z 20
_cell_length_a 8.246475
_cell_length_b 12.504803
_cell_length_c 8.852154
_cell_angle_alpha 90.000000
_cell_angle_beta 72.925347
_cell_angle_gamma 90.000000
_cell_volume 872.603747
_symmetry_space_group_name_H-M "P 2/C"
_symmetry_group_IT_number 13
_symmetry_cell_setting 'monoclinic'
loop_
_space_group_symop_operation_xyz
x,y,z
-x,y,1/2-z
-x,-y,-z
x,-y,1/2+z
loop_
_atom_site_type_symbol
_atom_site_label
_atom_site_fract_x
_atom_site_fract_y
_atom_site_fract_z
Si Si1 0.312519 0.583643 0.731368
Si Si2 0.848943 0.587482 0.408175
Si Si3 0.126354 0.977392 0.603736
Si Si4 0.666014 0.774797 0.006685
Si Si5 0.267196 0.204403 0.672404
O O1 0.500000 0.596273 0.750000
O O2 0.303348 0.478625 0.629108
O O3 0.280650 0.686539 0.631346
O O4 0.178479 0.568371 0.906095
O O5 0.835265 0.714583 0.401746
O O6 0.000000 0.559941 0.250000
O O7 0.277297 0.896384 0.536550
O O8 0.000000 0.917321 0.750000
O O9 0.198089 0.085796 0.659701
O O10 0.000000 0.000000 0.500000
O O11 0.743633 0.754830 0.151881
O O12 0.463183 0.780547 0.074552
#
# Coordination Sequence:
#
# PCOD9238329 Si02
#       5
#     4   4   4   4   4
#     4  12  26  48  74 109 143 197 246 299 366 446
#     4  12  27  45  75 105 152 185 245 305 374 429
#     4  12  26  46  72 105 147 190 236 304 368 432
#     4  11  26  45  75 102 146 192 247 297 362 439
#     4  11  25  48  70 106 145 196 242 301 361 440
#
# _framework density 22.919908
#
# number of rings (size 3 to 8) (size 9 to 14) (size 15 to 20)
#    0.000    0.400    4.000    3.600    5.600    0.800 
#    3.600    0.000    0.000    0.000    0.000    0.000 
#    0.000    0.000    0.000    0.000    0.000    0.000 
#
# Total GULP energy -111635.404968 kJ/mol
# GULP energy per Si atom -5581.770248 kJ/mol
# Density = 2.286774 g / cm^3
# Si number density = 22.919908 Si / 1000 Ang^3
#
#
#
# Elastic Constant Matrix: (Units=GPa)
#
#
# Indices 1 2 3 4 5 6 
#
# 1 66.2860 16.3048 38.7127 0.0000 -4.6441 0.0000
# 2 16.3048 99.2982 41.3456 0.0000 4.7341 0.0000
# 3 38.7127 41.3456 160.7627 0.0000 -10.8087 0.0000
# 4 0.0000 0.0000 0.0000 67.5316 0.0000 -19.4646
# 5 -4.6441 4.7341 -10.8087 0.0000 20.8550 0.0000
# 6 0.0000 0.0000 0.0000 -19.4646 0.0000 54.9414
#
#
#
# Elastic Compliance Matrix: (Units=1/GPa)
#
#
# Indices 1 2 3 4 5 6 
#
# 1 0.017804 -0.001474 -0.003750 0.000000 0.002356 0.000000
# 2 -0.001474 0.011769 -0.002977 0.000000 -0.004543 0.000000
# 3 -0.003750 -0.002977 0.008163 0.000000 0.004071 0.000000
# 4 0.000000 0.000000 0.000000 0.016492 0.000000 0.005843
# 5 0.002356 -0.004543 0.004071 0.000000 0.051616 0.000000
# 6 0.000000 0.000000 0.000000 0.005843 0.000000 0.020271
#
#
# Mechanical properties :
#
#
# Convention : Reuss Voigt Hill
#
# Bulk Modulus (GPa) = 46.87587 57.67479 52.27533
# Shear Modulus (GPa) = 33.41616 43.99786 38.70701
#
# Velocity S-wave (km/s) = 3.82246 4.38612 4.11395
# Velocity P-wave (km/s) = 6.32282 7.13225 6.73969
#
# Compressibility (1/GPa) = 0.02133294
#
# Stress axis : x y z
#
# Youngs Moduli (GPa) = 56.16783 84.96902 122.50829
#
# Poissons Ratio (x) = 0.12528 0.45937
# Poissons Ratio (y) = 0.08281 0.36473
# Poissons Ratio (z) = 0.21061 0.25297
#
# Static dielectric constant tensor:
#      x y z
#    x 1.536330 0.000000 0.056650 
#    y 0.000000 1.846540 0.000000 
#    z 0.056650 0.000000 1.818850 
# 
# From -- ./inp_files/11700.got.cif
#   From: 2010.05.17/outbox.cif.g08.bks.cpg/sg13_6_cif.got.tgz:11700.got - 2010.06.03 16:44:36.
