data_PCOD9238017
_publ_section_title
;
Structure prediction by ZEFSAII (Michael W. Deem and Ramdas Pophale) SiO2 
 PCOD9238017
Probable space group: P 2/C
;
_chemical_formula_sum "Si O2"
_cell_formula_units_Z 18
_cell_length_a 10.837581
_cell_length_b 4.980746
_cell_length_c 13.524309
_cell_angle_alpha 90.000000
_cell_angle_beta 86.122581
_cell_angle_gamma 90.000000
_cell_volume 728.360859
_symmetry_space_group_name_H-M "P 2/C"
_symmetry_group_IT_number 13
_symmetry_cell_setting 'monoclinic'
loop_
_space_group_symop_operation_xyz
x,y,z
-x,y,1/2-z
-x,-y,-z
x,-y,1/2+z
loop_
_atom_site_type_symbol
_atom_site_label
_atom_site_fract_x
_atom_site_fract_y
_atom_site_fract_z
Si Si1 0.737246 0.692677 0.579462
Si Si2 0.618143 0.197825 0.495787
Si Si3 0.000000 0.572530 0.250000
Si Si4 0.935350 0.801548 0.427228
Si Si5 0.218322 0.200768 0.192533
O O1 0.630642 0.474707 0.557149
O O2 0.857188 0.611338 0.506307
O O3 0.749667 0.744750 0.695142
O O4 0.713277 0.990701 0.539817
O O5 0.665321 0.265808 0.383092
O O6 0.500000 0.000000 0.500000
O O7 0.044468 0.734967 0.342271
O O8 0.900272 0.391688 0.310611
O O9 0.836513 0.926047 0.351726
O O10 0.000000 0.000000 0.500000
#
# Coordination Sequence:
#
# PCOD9238017 Si02
#       5
#     4   4   2   4   4
#     4  11  25  45  74 105 147 196 251 315 382 451
#     4  11  26  50  74 105 144 194 258 326 383 451
#     4  12  22  40  70 102 156 196 254 294 382 460
#     4  11  24  41  66 110 161 206 250 306 374 470
#     4  11  26  42  69 111 147 199 255 302 388 464
#
# _framework density 24.713024000000001
#
# number of rings (size 3 to 8) (size 9 to 14) (size 15 to 20)
#    0.000    0.889    2.222    4.000    9.333    2.667 
#    0.000    2.222    0.000    0.000    0.000    0.000 
#    0.000    0.000    0.000    0.000    0.000    0.000 
#
# Total GULP energy -100276.355688 kJ/mol
# GULP energy per Si atom -5570.908649 kJ/mol
# Density = 2.465678 g / cm^3
# Si number density = 24.713024 Si / 1000 Ang^3
#
#
#
# Elastic Constant Matrix: (Units=GPa)
#
#
# Indices 1 2 3 4 5 6 
#
# 1 78.1378 9.8236 55.6511 0.0000 -13.5178 0.0000
# 2 9.8236 100.4570 47.8764 0.0000 2.9681 0.0000
# 3 55.6511 47.8764 269.2389 0.0000 0.2667 0.0000
# 4 0.0000 0.0000 0.0000 43.3543 0.0000 7.9182
# 5 -13.5178 2.9681 0.2667 0.0000 31.9624 0.0000
# 6 0.0000 0.0000 0.0000 7.9182 0.0000 44.6081
#
#
#
# Elastic Compliance Matrix: (Units=1/GPa)
#
#
# Indices 1 2 3 4 5 6 
#
# 1 0.016432 -0.000209 -0.003366 0.000000 0.006997 0.000000
# 2 -0.000209 0.010911 -0.001896 0.000000 -0.001086 0.000000
# 3 -0.003366 -0.001896 0.004748 0.000000 -0.001287 0.000000
# 4 0.000000 0.000000 0.000000 0.023839 0.000000 -0.004232
# 5 0.006997 -0.001086 -0.001287 0.000000 0.034358 0.000000
# 6 0.000000 0.000000 0.000000 -0.004232 0.000000 0.023169
#
#
# Mechanical properties :
#
#
# Convention : Reuss Voigt Hill
#
# Bulk Modulus (GPa) = 47.28482 74.94844 61.11663
# Shear Modulus (GPa) = 38.03782 46.28379 42.16080
#
# Velocity S-wave (km/s) = 3.92750 4.33234 4.13488
# Velocity P-wave (km/s) = 6.30413 7.44439 6.89786
#
# Compressibility (1/GPa) = 0.02114844
#
# Stress axis : x y z
#
# Youngs Moduli (GPa) = 60.85613 91.65427 210.59965
#
# Poissons Ratio (x) = 0.01919 0.70892
# Poissons Ratio (y) = 0.01274 0.39925
# Poissons Ratio (z) = 0.20485 0.17376
#
# Static dielectric constant tensor:
#      x y z
#    x 2.281970 0.000000 -0.180420 
#    y 0.000000 2.574280 0.000000 
#    z -0.180420 0.000000 2.233860 
# 
# From -- ./inp_files/31278.got.cif
#   From: 2010.05.17/outbox.cif.g08.bks.cpg/sg13_16_cif.got.tgz:31278.got - 2010.06.03 16:44:36.
