data_PCOD9238973
_publ_section_title
;
Structure prediction by ZEFSAII (Michael W. Deem and Ramdas Pophale) SiO2 
 PCOD9238973
Probable space group: P 2/C
;
_chemical_formula_sum "Si O2"
_cell_formula_units_Z 32
_cell_length_a 15.000000
_cell_length_b 12.000000
_cell_length_c 27.000000
_cell_angle_alpha 90.000000
_cell_angle_beta 20.000000
_cell_angle_gamma 90.000000
_cell_volume 1662.217897
_symmetry_space_group_name_H-M "P 2/C"
_symmetry_group_IT_number 13
_symmetry_cell_setting 'monoclinic'
loop_
_space_group_symop_operation_xyz
x,y,z
-x,y,1/2-z
-x,-y,-z
x,-y,1/2+z
loop_
_atom_site_type_symbol
_atom_site_label
_atom_site_fract_x
_atom_site_fract_y
_atom_site_fract_z
Si Si1 0.979270 0.367580 0.569954
Si Si2 0.027035 0.031227 0.333189
Si Si3 0.564718 0.893245 0.570535
Si Si4 0.050918 0.634075 0.524232
Si Si5 0.467765 0.602708 0.388533
Si Si6 0.734383 0.867961 0.374057
Si Si7 0.505929 0.339472 0.142253
Si Si8 0.775514 0.760344 0.907471
O O1 0.996317 0.501061 0.553932
O O2 0.759424 0.350842 0.726659
O O3 0.904149 0.324828 0.554903
O O4 0.265602 0.329820 0.436368
O O5 0.279564 0.062838 0.233295
O O6 0.894215 0.143028 0.380933
O O7 0.150190 0.958866 0.223937
O O8 0.801664 0.954604 0.474424
O O9 0.622851 0.920180 0.482685
O O10 0.565426 0.759828 0.573473
O O11 0.782701 0.681798 0.686082
O O12 0.301399 0.643596 0.428008
O O13 0.479462 0.467688 0.384009
O O14 0.312223 0.653274 0.515571
O O15 0.492623 0.803987 0.476707
O O16 0.000000 0.801032 0.250000
O O17 0.000000 0.737772 0.750000
#
# Coordination Sequence:
#
# PCOD9238973 Si02
#       8
#     4   4   4   4   4   4   4   4
#     4   9  18  33  60  82 114 147 188 239 281 332
#     4  11  21  36  58  81 108 145 201 256 285 312
#     4  11  21  34  56  82 112 147 187 244 290 330
#     4   9  17  35  57  86 111 148 189 234 286 328
#     4  10  22  36  56  86 124 153 186 229 280 359
#     4  10  22  34  54  79 105 145 195 251 285 312
#     4  10  21  36  55  87 124 147 183 229 293 355
#     4  12  22  37  57  82 117 157 193 235 284 335
#
# _framework density 19.251387000000001
#
# number of rings (size 3 to 8) (size 9 to 14) (size 15 to 20)
#    0.000    1.750    2.500    3.000    3.500    3.000 
#    0.000    2.500    0.000    0.000    0.000   15.750 
#    0.000    0.000    0.000    0.000    0.000    0.000 
#
# Total GULP energy -178286.193926 kJ/mol
# GULP energy per Si atom -5571.443560 kJ/mol
# Density = 1.920757 g / cm^3
# Si number density = 19.251387 Si / 1000 Ang^3
#
#
#
# Elastic Constant Matrix: (Units=GPa)
#
#
# Indices 1 2 3 4 5 6 
#
# 1 11.0786 16.3559 18.3633 0.0000 -9.2024 0.0000
# 2 16.3559 51.0123 28.9359 0.0000 -2.2018 0.0000
# 3 18.3633 28.9359 111.0920 0.0000 -22.6504 0.0000
# 4 0.0000 0.0000 0.0000 14.8426 0.0000 -4.8309
# 5 -9.2024 -2.2018 -22.6504 0.0000 27.4529 0.0000
# 6 0.0000 0.0000 0.0000 -4.8309 0.0000 3.2031
#
#
#
# Elastic Compliance Matrix: (Units=1/GPa)
#
#
# Indices 1 2 3 4 5 6 
#
# 1 0.320574 -0.093135 -0.010033 0.000000 0.091711 0.000000
# 2 -0.093135 0.050381 -0.003930 0.000000 -0.030421 0.000000
# 3 -0.010033 -0.003930 0.013145 0.000000 0.007167 0.000000
# 4 0.000000 0.000000 0.000000 0.132334 0.000000 0.199587
# 5 0.091711 -0.030421 0.007167 0.000000 0.070641 0.000000
# 6 0.000000 0.000000 0.000000 0.199587 0.000000 0.613219
#
#
# Mechanical properties :
#
#
# Convention : Reuss Voigt Hill
#
# Bulk Modulus (GPa) = 5.88570 33.38814 19.63692
# Shear Modulus (GPa) = 3.39876 16.40156 9.90016
#
# Velocity S-wave (km/s) = 1.33015 2.92202 2.27018
# Velocity P-wave (km/s) = 2.32873 5.36331 4.13450
#
# Compressibility (1/GPa) = 0.16990343
#
# Stress axis : x y z
#
# Youngs Moduli (GPa) = 3.11941 19.84874 76.07496
#
# Poissons Ratio (x) = 1.84862 0.76325
# Poissons Ratio (y) = 0.29053 0.29898
# Poissons Ratio (z) = 0.03130 0.07801
#
# Static dielectric constant tensor:
#      x y z
#    x 1.735560 0.000000 -0.038070 
#    y 0.000000 1.694190 0.000000 
#    z -0.038070 0.000000 1.698470 
# 
# From -- ./inp_files/92929.got.cif
#   From: 2010.05.17/outbox.ucp.g08.bks.cvg/sg13_47_cif.got.tgz:92929.got - 2010.06.11 12:23:55.
