data_PCOD9238866
_publ_section_title
;
Structure prediction by ZEFSAII (Michael W. Deem and Ramdas Pophale) SiO2 
 PCOD9238866
Probable space group: P 2/C
;
_chemical_formula_sum "Si O2"
_cell_formula_units_Z 26
_cell_length_a 21.000000
_cell_length_b 9.000000
_cell_length_c 15.000000
_cell_angle_alpha 90.000000
_cell_angle_beta 30.000000
_cell_angle_gamma 90.000000
_cell_volume 1417.500000
_symmetry_space_group_name_H-M "P 2/C"
_symmetry_group_IT_number 13
_symmetry_cell_setting 'monoclinic'
loop_
_space_group_symop_operation_xyz
x,y,z
-x,y,1/2-z
-x,-y,-z
x,-y,1/2+z
loop_
_atom_site_type_symbol
_atom_site_label
_atom_site_fract_x
_atom_site_fract_y
_atom_site_fract_z
Si Si1 0.129432 0.414402 0.862515
Si Si2 0.201393 0.009746 0.429363
Si Si3 0.769204 0.573124 0.439233
Si Si4 0.000000 0.242220 0.750000
Si Si5 0.646283 0.882175 0.596838
Si Si6 0.856077 0.064826 0.689818
Si Si7 0.145289 0.334294 0.040554
O O1 0.225408 0.470305 0.671013
O O2 0.120775 0.239478 0.852556
O O3 0.161040 0.420080 0.927781
O O4 0.000000 0.500000 0.000000
O O5 0.088331 0.129240 0.585807
O O6 0.318181 0.059646 0.348496
O O7 0.221693 0.001017 0.299345
O O8 0.167359 0.841258 0.500518
O O9 0.901951 0.655482 0.312083
O O10 0.666678 0.703497 0.573890
O O11 0.764506 0.422259 0.500892
O O12 0.500000 0.917745 0.750000
O O13 0.762165 0.943818 0.390584
O O14 0.000000 0.000000 0.500000
O O15 0.000000 0.347851 0.250000
#
# Coordination Sequence:
#
# PCOD9238866 Si02
#       7
#     4   4   4   2   4   4   4
#     4  10  18  28  47  75 112 136 165 213 273 331
#     4  10  20  33  53  81 114 140 180 232 278 326
#     4  10  19  33  51  75 108 143 183 218 272 332
#     4  10  16  30  50  80 110 142 172 224 278 328
#     4  10  23  40  57  76 109 155 193 223 270 331
#     4  10  21  34  57  86 111 140 181 231 283 331
#     4  11  19  29  49  80 111 140 168 228 290 326
#
# _framework density 18.342151999999999
#
# number of rings (size 3 to 8) (size 9 to 14) (size 15 to 20)
#    0.000    1.846    3.077    2.769    2.154    1.846 
#    0.000    0.769    0.000    8.308    0.000    0.000 
#    0.000    0.000    0.000    0.000    0.000    0.000 
#
# Total GULP energy -144759.080457 kJ/mol
# GULP energy per Si atom -5567.656941 kJ/mol
# Density = 1.830040 g / cm^3
# Si number density = 18.342152 Si / 1000 Ang^3
#
#
#
# Elastic Constant Matrix: (Units=GPa)
#
#
# Indices 1 2 3 4 5 6 
#
# 1 73.7742 -6.3289 28.2866 0.0000 5.8296 0.0000
# 2 -6.3289 22.2031 2.2659 0.0000 5.1635 0.0000
# 3 28.2866 2.2659 45.8338 0.0000 -3.5150 0.0000
# 4 0.0000 0.0000 0.0000 13.3570 0.0000 6.6699
# 5 5.8296 5.1635 -3.5150 0.0000 33.6289 0.0000
# 6 0.0000 0.0000 0.0000 6.6699 0.0000 23.8292
#
#
#
# Elastic Compliance Matrix: (Units=1/GPa)
#
#
# Indices 1 2 3 4 5 6 
#
# 1 0.019771 0.008385 -0.013083 0.000000 -0.006082 0.000000
# 2 0.008385 0.050644 -0.008454 0.000000 -0.010113 0.000000
# 3 -0.013083 -0.008454 0.030831 0.000000 0.006789 0.000000
# 4 0.000000 0.000000 0.000000 0.087031 0.000000 -0.024360
# 5 -0.006082 -0.010113 0.006789 0.000000 0.033053 0.000000
# 6 0.000000 0.000000 0.000000 -0.024360 0.000000 0.048784
#
#
# Mechanical properties :
#
#
# Convention : Reuss Voigt Hill
#
# Bulk Modulus (GPa) = 13.34368 21.13981 17.24175
# Shear Modulus (GPa) = 15.55703 22.00221 18.77962
#
# Velocity S-wave (km/s) = 2.91547 3.46720 3.20324
# Velocity P-wave (km/s) = 4.31555 5.25156 4.80640
#
# Compressibility (1/GPa) = 0.07494183
#
# Stress axis : x y z
#
# Youngs Moduli (GPa) = 50.57895 19.74577 32.43525
#
# Poissons Ratio (x) = -0.16557 0.42434
# Poissons Ratio (y) = -0.42412 0.27422
# Poissons Ratio (z) = 0.66172 0.16694
#
# Static dielectric constant tensor:
#      x y z
#    x 1.706160 0.000000 0.043220 
#    y 0.000000 1.656010 0.000000 
#    z 0.043220 0.000000 1.643230 
# 
# From -- ./inp_files/53356.got.cif
#   From: 2010.05.17/outbox.ucp.g08.bks.cvg/sg13_27_cif.got.tgz:53356.got - 2010.06.11 12:23:55.
