data_PCOD9238490
_publ_section_title
;
Structure prediction by ZEFSAII (Michael W. Deem and Ramdas Pophale) SiO2 
 PCOD9238490
Probable space group: P 2/C
;
_chemical_formula_sum "Si O2"
_cell_formula_units_Z 30
_cell_length_a 11.793897
_cell_length_b 5.468495
_cell_length_c 19.241994
_cell_angle_alpha 90.000000
_cell_angle_beta 89.895253
_cell_angle_gamma 90.000000
_cell_volume 1241.007766
_symmetry_space_group_name_H-M "P 2/C"
_symmetry_group_IT_number 13
_symmetry_cell_setting 'monoclinic'
loop_
_space_group_symop_operation_xyz
x,y,z
-x,y,1/2-z
-x,-y,-z
x,-y,1/2+z
loop_
_atom_site_type_symbol
_atom_site_label
_atom_site_fract_x
_atom_site_fract_y
_atom_site_fract_z
Si Si1 0.239338 0.177237 0.130556
Si Si2 0.515212 0.283160 0.334466
Si Si3 0.044336 0.450899 0.629696
Si Si4 0.609212 0.778107 0.127757
Si Si5 0.000000 0.905725 0.250000
Si Si6 0.782964 0.432371 0.106647
Si Si7 0.769675 0.936527 0.718725
Si Si8 0.125154 0.881317 0.012031
O O1 0.359249 0.311030 0.131521
O O2 0.123285 0.322069 0.147968
O O3 0.260054 0.029836 0.201428
O O4 0.206451 0.039645 0.060866
O O5 0.500000 0.233791 0.250000
O O6 0.469003 0.557409 0.347046
O O7 0.458688 0.040061 0.373464
O O8 0.057797 0.262920 0.692422
O O9 0.096401 0.356382 0.557746
O O10 0.909882 0.470518 0.618836
O O11 0.692896 0.625013 0.074410
O O12 0.709137 0.844355 0.180869
O O13 0.904534 0.056632 0.211674
O O14 0.737190 0.311551 0.178567
O O15 0.807861 0.202383 0.055975
O O16 0.000000 0.000000 0.000000
#
# Coordination Sequence:
#
# PCOD9238490 Si02
#       8
#     4   4   4   4   2   4   4   4
#     4  12  27  46  74 110 153 197 261 317 390 455
#     4  12  27  46  78 110 154 199 261 322 382 457
#     4  12  25  42  72 110 153 194 249 316 391 461
#     4  12  26  47  74 112 148 202 254 311 389 447
#     4  12  22  36  70 110 156 180 240 318 396 460
#     4  12  25  46  74 107 153 202 254 313 388 470
#     4  12  24  45  71 113 151 195 249 319 390 458
#     4  12  27  47  71 113 155 207 258 312 396 470
#
# _framework density 24.173901000000001
#
# number of rings (size 3 to 8) (size 9 to 14) (size 15 to 20)
#    0.000    0.000    6.667    3.200    3.733    0.000 
#    0.000    1.333    0.000    0.000    0.000    0.000 
#    0.000    0.000    0.000    0.000    0.000    0.000 
#
# Total GULP energy -167279.993310 kJ/mol
# GULP energy per Si atom -5575.999777 kJ/mol
# Density = 2.411888 g / cm^3
# Si number density = 24.173901 Si / 1000 Ang^3
#
#
#
# Elastic Constant Matrix: (Units=GPa)
#
#
# Indices 1 2 3 4 5 6 
#
# 1 111.0288 18.4246 -1.0941 0.0000 5.6991 0.0000
# 2 18.4246 81.9169 -2.6215 0.0000 -4.5763 0.0000
# 3 -1.0941 -2.6215 62.2936 0.0000 5.4213 0.0000
# 4 0.0000 0.0000 0.0000 34.5691 0.0000 -11.3793
# 5 5.6991 -4.5763 5.4213 0.0000 21.8484 0.0000
# 6 0.0000 0.0000 0.0000 -11.3793 0.0000 35.1317
#
#
#
# Elastic Compliance Matrix: (Units=1/GPa)
#
#
# Indices 1 2 3 4 5 6 
#
# 1 0.009550 -0.002308 0.000337 0.000000 -0.003058 0.000000
# 2 -0.002308 0.012915 0.000220 0.000000 0.003253 0.000000
# 3 0.000337 0.000220 0.016427 0.000000 -0.004118 0.000000
# 4 0.000000 0.000000 0.000000 0.032380 0.000000 0.010488
# 5 -0.003058 0.003253 -0.004118 0.000000 0.048271 0.000000
# 6 0.000000 0.000000 0.000000 0.010488 0.000000 0.031861
#
#
# Mechanical properties :
#
#
# Convention : Reuss Voigt Hill
#
# Bulk Modulus (GPa) = 28.25729 31.62859 29.94294
# Shear Modulus (GPa) = 29.99346 34.34519 32.16933
#
# Velocity S-wave (km/s) = 3.52623 3.77338 3.65190
# Velocity P-wave (km/s) = 5.31918 5.66540 5.49501
#
# Compressibility (1/GPa) = 0.03538910
#
# Stress axis : x y z
#
# Youngs Moduli (GPa) = 104.71245 77.42712 60.87709
#
# Poissons Ratio (x) = 0.17870 -0.02050
# Poissons Ratio (y) = 0.24168 -0.01339
# Poissons Ratio (z) = -0.03526 -0.01703
#
# Static dielectric constant tensor:
#      x y z
#    x 2.053000 0.000000 -0.024290 
#    y 0.000000 2.025620 0.000000 
#    z -0.024290 0.000000 1.919770 
# 
# From -- ./inp_files/77516.got.cif
#   From: 2010.05.17/outbox.cif.g08.bks.cpg/sg13_39_cif.got.tgz:77516.got - 2010.06.03 16:44:36.
