data_PCOD9238271
_publ_section_title
;
Structure prediction by ZEFSAII (Michael W. Deem and Ramdas Pophale) SiO2 
 PCOD9238271
Probable space group: P 2/C
;
_chemical_formula_sum "Si O2"
_cell_formula_units_Z 20
_cell_length_a 6.809660
_cell_length_b 6.762077
_cell_length_c 22.160724
_cell_angle_alpha 90.000000
_cell_angle_beta 99.719576
_cell_angle_gamma 90.000000
_cell_volume 1005.797103
_symmetry_space_group_name_H-M "P 2/C"
_symmetry_group_IT_number 13
_symmetry_cell_setting 'monoclinic'
loop_
_space_group_symop_operation_xyz
x,y,z
-x,y,1/2-z
-x,-y,-z
x,-y,1/2+z
loop_
_atom_site_type_symbol
_atom_site_label
_atom_site_fract_x
_atom_site_fract_y
_atom_site_fract_z
Si Si1 0.402120 0.913481 0.326873
Si Si2 0.500000 0.559596 0.250000
Si Si3 0.000000 0.063987 0.250000
Si Si4 0.219274 0.473980 0.038077
Si Si5 0.745412 0.254479 0.331474
Si Si6 0.537741 0.804037 0.039687
O O1 0.205364 0.956967 0.277835
O O2 0.570596 0.086348 0.329480
O O3 0.476397 0.705619 0.304675
O O4 0.355696 0.875268 0.393990
O O5 0.675061 0.413343 0.277975
O O6 0.057312 0.170439 0.189957
O O7 0.222381 0.361433 0.102721
O O8 0.338351 0.682192 0.047489
O O9 0.334976 0.340457 0.995423
O O10 0.000000 0.500000 0.000000
O O11 0.500000 0.000000 0.000000
#
# Coordination Sequence:
#
# PCOD9238271 Si02
#       6
#     4   2   2   4   4   4
#     4  12  25  46  68 104 139 178 227 284 341 403
#     4  12  22  46  70  92 140 180 212 282 352 382
#     4  12  26  42  72 104 132 182 232 272 344 412
#     4  11  27  44  70 107 133 181 233 280 336 405
#     4  12  25  46  67 101 146 170 226 294 331 405
#     4  11  25  45  72  97 141 182 220 281 346 394
#
# _framework density 19.884723999999999
#
# number of rings (size 3 to 8) (size 9 to 14) (size 15 to 20)
#    0.000    0.400    8.000    0.000    2.800    6.400 
#    0.000    0.000    0.000    0.000    0.000    0.000 
#    0.000    0.000    0.000    0.000    0.000    0.000 
#
# Total GULP energy -111586.387650 kJ/mol
# GULP energy per Si atom -5579.319383 kJ/mol
# Density = 1.983947 g / cm^3
# Si number density = 19.884724 Si / 1000 Ang^3
#
#
#
# Elastic Constant Matrix: (Units=GPa)
#
#
# Indices 1 2 3 4 5 6 
#
# 1 74.7601 20.2399 4.7934 0.0000 7.4769 0.0000
# 2 20.2399 87.5380 11.9473 0.0000 3.3613 0.0000
# 3 4.7934 11.9473 116.3635 0.0000 -4.3751 0.0000
# 4 0.0000 0.0000 0.0000 43.8627 0.0000 -2.5513
# 5 7.4769 3.3613 -4.3751 0.0000 34.0293 0.0000
# 6 0.0000 0.0000 0.0000 -2.5513 0.0000 9.6598
#
#
#
# Elastic Compliance Matrix: (Units=1/GPa)
#
#
# Indices 1 2 3 4 5 6 
#
# 1 0.014561 -0.003202 -0.000381 0.000000 -0.002932 0.000000
# 2 -0.003202 0.012348 -0.001161 0.000000 -0.000665 0.000000
# 3 -0.000381 -0.001161 0.008779 0.000000 0.001327 0.000000
# 4 0.000000 0.000000 0.000000 0.023154 0.000000 0.006115
# 5 -0.002932 -0.000665 0.001327 0.000000 0.030267 0.000000
# 6 0.000000 0.000000 0.000000 0.006115 0.000000 0.105137
#
#
# Mechanical properties :
#
#
# Convention : Reuss Voigt Hill
#
# Bulk Modulus (GPa) = 38.16969 39.18033 38.67501
# Shear Modulus (GPa) = 23.53316 33.62244 28.57780
#
# Velocity S-wave (km/s) = 3.44391 4.11648 3.79512
# Velocity P-wave (km/s) = 5.92040 6.50695 6.22059
#
# Compressibility (1/GPa) = 0.02619880
#
# Stress axis : x y z
#
# Youngs Moduli (GPa) = 68.67818 80.98516 113.91399
#
# Poissons Ratio (x) = 0.25931 0.04343
# Poissons Ratio (y) = 0.21991 0.13224
# Poissons Ratio (z) = 0.02619 0.09402
#
# Static dielectric constant tensor:
#      x y z
#    x 1.674980 0.000000 -0.023310 
#    y 0.000000 1.699940 0.000000 
#    z -0.023310 0.000000 1.751370 
# 
# From -- ./inp_files/89984.got.cif
#   From: 2010.05.17/outbox.cif.g08.bks.cpg/sg13_45_cif.got.tgz:89984.got - 2010.06.03 16:44:36.
