data_PCOD9238832
_publ_section_title
;
Structure prediction by ZEFSAII (Michael W. Deem and Ramdas Pophale) SiO2 
 PCOD9238832
Probable space group: P 2/C
;
_chemical_formula_sum "Si O2"
_cell_formula_units_Z 20
_cell_length_a 13.010521
_cell_length_b 7.383600
_cell_length_c 8.396667
_cell_angle_alpha 90.000000
_cell_angle_beta 125.317135
_cell_angle_gamma 90.000000
_cell_volume 658.174679
_symmetry_space_group_name_H-M "P 2/C"
_symmetry_group_IT_number 13
_symmetry_cell_setting 'monoclinic'
loop_
_space_group_symop_operation_xyz
x,y,z
-x,y,1/2-z
-x,-y,-z
x,-y,1/2+z
loop_
_atom_site_type_symbol
_atom_site_label
_atom_site_fract_x
_atom_site_fract_y
_atom_site_fract_z
Si Si1 0.750002 0.250003 0.250003
Si Si2 0.023094 0.703984 0.450674
Si Si3 0.523100 0.796012 0.450679
Si Si4 0.631222 0.419583 0.460789
Si Si5 0.131222 0.080414 0.460788
O O1 0.884432 0.394727 0.346066
O O2 0.725269 0.357649 0.412010
O O3 0.774734 0.142355 0.087993
O O4 0.615574 0.105280 0.153940
O O5 0.000000 0.661579 0.250000
O O6 0.901068 0.782890 0.426685
O O7 0.133424 0.880552 0.546968
O O8 0.500000 0.838421 0.250000
O O9 0.633426 0.619444 0.546970
O O10 0.401071 0.717113 0.426688
O O11 0.500000 0.438760 0.250000
O O12 0.000000 0.061240 0.250000
#
# Coordination Sequence:
#
# PCOD9238832 Si02
#       5
#     4   4   4   4   4
#     4   8  12  20  36  58  76  98 132 158 190 238
#     4   8  14  24  40  58  77 103 131 161 197 233
#     4   8  14  24  40  58  77 103 131 161 197 233
#     4   8  14  24  40  58  77 103 131 161 197 233
#     4   8  14  24  40  58  77 103 131 161 197 233
#
# _framework density 30.387070000000001
#
# number of rings (size 3 to 8) (size 9 to 14) (size 15 to 20)
#    2.400    1.600    0.000    0.000    0.000    0.000 
#    0.000    0.000    0.000    9.600    0.000   44.800 
#    0.000    0.000    0.000    0.000    0.000    0.000 
#
# Total GULP energy -111365.772301 kJ/mol
# GULP energy per Si atom -5568.288615 kJ/mol
# Density = 3.031791 g / cm^3
# Si number density = 30.387070 Si / 1000 Ang^3
#
#
#
# Elastic Constant Matrix: (Units=GPa)
#
#
# Indices 1 2 3 4 5 6 
#
# 1 198.5171 44.7447 61.7982 0.0000 -53.0781 0.0000
# 2 44.7447 168.1259 37.9403 0.0000 -58.8603 0.0000
# 3 61.7982 37.9403 219.7686 0.0000 -22.0238 0.0000
# 4 0.0000 0.0000 0.0000 43.6652 0.0000 -38.7757
# 5 -53.0781 -58.8603 -22.0238 0.0000 88.3467 0.0000
# 6 0.0000 0.0000 0.0000 -38.7757 0.0000 38.1176
#
#
#
# Elastic Compliance Matrix: (Units=1/GPa)
#
#
# Indices 1 2 3 4 5 6 
#
# 1 0.006431 -0.000209 -0.001435 0.000000 0.003367 0.000000
# 2 -0.000209 0.007919 -0.000813 0.000000 0.004948 0.000000
# 3 -0.001435 -0.000813 0.005080 0.000000 -0.000137 0.000000
# 4 0.000000 0.000000 0.000000 0.236973 0.000000 0.241065
# 5 0.003367 0.004948 -0.000137 0.000000 0.016604 0.000000
# 6 0.000000 0.000000 0.000000 0.241065 0.000000 0.271462
#
#
# Mechanical properties :
#
#
# Convention : Reuss Voigt Hill
#
# Bulk Modulus (GPa) = 68.88116 97.26423 83.07269
# Shear Modulus (GPa) = 9.02166 63.48778 36.25472
#
# Velocity S-wave (km/s) = 1.72492 4.57585 3.45787
# Velocity P-wave (km/s) = 5.16568 7.74569 6.58331
#
# Compressibility (1/GPa) = 0.01451776
#
# Stress axis : x y z
#
# Youngs Moduli (GPa) = 155.48693 126.27584 196.83894
#
# Poissons Ratio (x) = 0.02640 0.28246
# Poissons Ratio (y) = 0.03251 0.15993
# Poissons Ratio (z) = 0.22312 0.10260
#
# Static dielectric constant tensor:
#      x y z
#    x 2.690310 0.000000 0.316670 
#    y 0.000000 3.313660 0.000000 
#    z 0.316670 0.000000 2.272530 
# 
# From -- ./inp_files/15361.got.cif
#   From: 2010.05.17/outbox.cif.g08.bks.cpg/sg13_8_cif.got.tgz:15361.got - 2010.06.03 16:44:36.
