data_PCOD9238740
_publ_section_title
;
Structure prediction by ZEFSAII (Michael W. Deem and Ramdas Pophale) SiO2 
 PCOD9238740
Probable space group: P 2/C
;
_chemical_formula_sum "Si O2"
_cell_formula_units_Z 16
_cell_length_a 7.854065
_cell_length_b 17.654270
_cell_length_c 8.248039
_cell_angle_alpha 90.000000
_cell_angle_beta 33.577652
_cell_angle_gamma 90.000000
_cell_volume 632.517312
_symmetry_space_group_name_H-M "P 2/C"
_symmetry_group_IT_number 13
_symmetry_cell_setting 'monoclinic'
loop_
_space_group_symop_operation_xyz
x,y,z
-x,y,1/2-z
-x,-y,-z
x,-y,1/2+z
loop_
_atom_site_type_symbol
_atom_site_label
_atom_site_fract_x
_atom_site_fract_y
_atom_site_fract_z
Si Si1 0.408678 0.168400 0.145246
Si Si2 0.202093 0.925088 0.363977
Si Si3 0.816071 0.565514 0.556556
Si Si4 0.661382 0.317539 0.463403
O O1 0.500000 0.195708 0.250000
O O2 0.491540 0.238283 0.963332
O O3 0.060489 0.138837 0.395524
O O4 0.632486 0.098137 0.933099
O O5 0.500000 0.928226 0.250000
O O6 0.000000 0.000000 0.500000
O O7 0.500000 0.529334 0.750000
O O8 0.711883 0.629423 0.767237
O O9 0.000000 0.500000 0.500000
O O10 0.000000 0.592963 0.250000
O O11 0.000000 0.297796 0.250000
O O12 0.500000 0.352108 0.750000
#
# Coordination Sequence:
#
# PCOD9238740 Si02
#       4
#     4   4   4   4
#     4  12  26  46  73 107 145 191 247 307 372 444
#     4  12  26  47  72 105 145 193 246 307 374 446
#     4  12  27  49  77 113 153 198 249 309 373 445
#     4  12  26  48  76 109 149 198 250 309 373 445
#
# _framework density 25.295750999999999
#
# number of rings (size 3 to 8) (size 9 to 14) (size 15 to 20)
#    0.000    0.000    0.000   10.500    0.000    6.000 
#    0.000    1.250    0.000    0.000    0.000    0.000 
#    0.000    0.000    0.000    0.000    0.000    0.000 
#
# Total GULP energy -89585.317293 kJ/mol
# GULP energy per Si atom -5599.082331 kJ/mol
# Density = 2.523818 g / cm^3
# Si number density = 25.295751 Si / 1000 Ang^3
#
#
#
# Elastic Constant Matrix: (Units=GPa)
#
#
# Indices 1 2 3 4 5 6 
#
# 1 146.7264 59.9374 57.7096 0.0000 -7.3880 0.0000
# 2 59.9374 131.5453 60.0776 0.0000 -2.7538 0.0000
# 3 57.7096 60.0776 180.2966 0.0000 11.3705 0.0000
# 4 0.0000 0.0000 0.0000 8.4433 0.0000 9.9848
# 5 -7.3880 -2.7538 11.3705 0.0000 60.2768 0.0000
# 6 0.0000 0.0000 0.0000 9.9848 0.0000 -97.2850
#
#
#
# Elastic Compliance Matrix: (Units=1/GPa)
#
#
# Indices 1 2 3 4 5 6 
#
# 1 0.008918 -0.003179 -0.001877 0.000000 0.001302 0.000000
# 2 -0.003179 0.010158 -0.002401 0.000000 0.000527 0.000000
# 3 -0.001877 -0.002401 0.007053 0.000000 -0.001670 0.000000
# 4 0.000000 0.000000 0.000000 0.105618 0.000000 0.010840
# 5 0.001302 0.000527 -0.001670 0.000000 0.017089 0.000000
# 6 0.000000 0.000000 0.000000 0.010840 0.000000 -0.009167
#
#
# Mechanical properties :
#
#
# Convention : Reuss Voigt Hill
#
# Bulk Modulus (GPa) = 89.16671 90.44637 89.80654
# Shear Modulus (GPa) = 31.58160 13.00993 22.29577
#
# Velocity S-wave (km/s) = 3.53724 2.27031 2.97206
# Velocity P-wave (km/s) = 7.21172 6.53495 6.88166
#
# Compressibility (1/GPa) = 0.01121495
#
# Stress axis : x y z
#
# Youngs Moduli (GPa) = 112.13494 98.44813 141.79297
#
# Poissons Ratio (x) = 0.31293 0.26620
# Poissons Ratio (y) = 0.35644 0.34037
# Poissons Ratio (z) = 0.21052 0.23632
#
# Static dielectric constant tensor:
#      x y z
#    x 2.254960 0.000000 0.222610 
#    y 0.000000 1.951710 0.000000 
#    z 0.222610 0.000000 2.132870 
# 
# From -- ./inp_files/12950.got.cif
#   From: 2010.05.17/outbox.cif.g08.bks.cpg/sg13_7_cif.got.tgz:12950.got - 2010.06.03 16:44:36.
