data_PCOD9238682
_publ_section_title
;
Structure prediction by ZEFSAII (Michael W. Deem and Ramdas Pophale) SiO2 
 PCOD9238682
Probable space group: P 2/C
;
_chemical_formula_sum "Si O2"
_cell_formula_units_Z 16
_cell_length_a 8.179784
_cell_length_b 17.981756
_cell_length_c 9.260293
_cell_angle_alpha 90.000000
_cell_angle_beta 146.739092
_cell_angle_gamma 90.000000
_cell_volume 747.029291
_symmetry_space_group_name_H-M "P 2/C"
_symmetry_group_IT_number 13
_symmetry_cell_setting 'monoclinic'
loop_
_space_group_symop_operation_xyz
x,y,z
-x,y,1/2-z
-x,-y,-z
x,-y,1/2+z
loop_
_atom_site_type_symbol
_atom_site_label
_atom_site_fract_x
_atom_site_fract_y
_atom_site_fract_z
Si Si1 0.302246 0.047379 0.747208
Si Si2 0.191073 0.784709 0.247529
Si Si3 0.809635 0.299689 0.247632
Si Si4 0.831482 0.559284 0.973105
O O1 0.500000 0.057982 0.750000
O O2 0.252201 0.127948 0.780717
O O3 0.000000 0.000000 0.500000
O O4 0.500000 0.000000 0.000000
O O5 0.488273 0.734085 0.470464
O O6 0.000000 0.769316 0.250000
O O7 0.998475 0.764214 0.965422
O O8 0.793564 0.365398 0.352784
O O9 0.000000 0.325272 0.250000
O O10 0.500000 0.529062 0.750000
O O11 0.000000 0.571031 0.250000
O O12 0.000000 0.500000 0.000000
#
# Coordination Sequence:
#
# PCOD9238682 Si02
#       4
#     4   4   4   4
#     4  12  25  44  67  97 133 175 223 276 334 398
#     4  12  25  44  68  97 133 176 222 275 334 399
#     4  12  25  44  68  99 134 175 222 275 334 398
#     4  12  26  46  71 101 137 178 224 278 336 401
#
# _framework density 21.41817
#
# number of rings (size 3 to 8) (size 9 to 14) (size 15 to 20)
#    0.000    0.000    0.000   12.000    0.000    2.000 
#    0.000    0.000    0.000    0.000    0.000    0.000 
#    0.000    0.000    0.000    0.000    0.000    0.000 
#
# Total GULP energy -89641.875569 kJ/mol
# GULP energy per Si atom -5602.617223 kJ/mol
# Density = 2.136942 g / cm^3
# Si number density = 21.418170 Si / 1000 Ang^3
#
#
#
# Elastic Constant Matrix: (Units=GPa)
#
#
# Indices 1 2 3 4 5 6 
#
# 1 163.1265 19.0090 48.2337 0.0000 16.1184 0.0000
# 2 19.0090 71.4255 -22.5443 0.0000 19.0196 0.0000
# 3 48.2337 -22.5443 82.1018 0.0000 23.0729 0.0000
# 4 0.0000 0.0000 0.0000 -24.9789 0.0000 60.7712
# 5 16.1184 19.0196 23.0729 0.0000 44.8022 0.0000
# 6 0.0000 0.0000 0.0000 60.7712 0.0000 -39.3898
#
#
#
# Elastic Compliance Matrix: (Units=1/GPa)
#
#
# Indices 1 2 3 4 5 6 
#
# 1 0.008669 -0.005467 -0.007448 0.000000 0.003037 0.000000
# 2 -0.005467 0.024084 0.014201 0.000000 -0.015571 0.000000
# 3 -0.007448 0.014201 0.025017 0.000000 -0.016232 0.000000
# 4 0.000000 0.000000 0.000000 0.014539 0.000000 0.022431
# 5 0.003037 -0.015571 -0.016232 0.000000 0.036197 0.000000
# 6 0.000000 0.000000 0.000000 0.022431 0.000000 0.009220
#
#
# Mechanical properties :
#
#
# Convention : Reuss Voigt Hill
#
# Bulk Modulus (GPa) = 16.57222 45.11676 30.84449
# Shear Modulus (GPa) = 36.96356 14.21708 25.59032
#
# Velocity S-wave (km/s) = 4.15879 2.57920 3.46033
# Velocity P-wave (km/s) = 5.55112 5.47541 5.51340
#
# Compressibility (1/GPa) = 0.06034196
#
# Stress axis : x y z
#
# Youngs Moduli (GPa) = 115.34906 41.52130 39.97338
#
# Poissons Ratio (x) = 0.22699 0.29772
# Poissons Ratio (y) = 0.63060 -0.56765
# Poissons Ratio (z) = 0.85911 -0.58963
#
# Static dielectric constant tensor:
#      x y z
#    x 1.817410 0.000000 0.013520 
#    y 0.000000 2.877620 0.000000 
#    z 0.013520 0.000000 1.718520 
# 
# From -- ./inp_files/12965.got.cif
#   From: 2010.05.17/outbox.cif.g08.bks.cpg/sg13_7_cif.got.tgz:12965.got - 2010.06.03 16:44:36.
