data_PCOD9238919
_publ_section_title
;
Structure prediction by ZEFSAII (Michael W. Deem and Ramdas Pophale) SiO2 
 PCOD9238919
Probable space group: P 2/C
;
_chemical_formula_sum "Si O2"
_cell_formula_units_Z 28
_cell_length_a 30.000000
_cell_length_b 9.000000
_cell_length_c 30.000000
_cell_angle_alpha 90.000000
_cell_angle_beta 170.000000
_cell_angle_gamma 90.000000
_cell_volume 1406.550239
_symmetry_space_group_name_H-M "P 2/C"
_symmetry_group_IT_number 13
_symmetry_cell_setting 'monoclinic'
loop_
_space_group_symop_operation_xyz
x,y,z
-x,y,1/2-z
-x,-y,-z
x,-y,1/2+z
loop_
_atom_site_type_symbol
_atom_site_label
_atom_site_fract_x
_atom_site_fract_y
_atom_site_fract_z
Si Si1 0.426420 0.671013 0.414806
Si Si2 0.483179 0.968681 0.286387
Si Si3 0.976906 0.219070 0.305490
Si Si4 0.778453 0.488388 0.499501
Si Si5 0.179189 0.323699 0.763782
Si Si6 0.940393 0.329350 0.371048
Si Si7 0.346765 0.265041 0.204744
O O1 0.500000 0.500000 0.500000
O O2 0.296905 0.735523 0.332592
O O3 0.696988 0.728336 0.660760
O O4 0.206296 0.683564 0.160280
O O5 0.500000 0.000816 0.250000
O O6 0.718287 0.859264 0.532076
O O7 0.462021 0.118016 0.294801
O O8 0.214117 0.889620 0.031200
O O9 0.946583 0.255418 0.328210
O O10 0.072583 0.367074 0.373521
O O11 0.500000 0.517830 0.250000
O O12 0.717003 0.381356 0.397462
O O13 0.000000 0.420185 0.750000
O O14 0.098934 0.494411 0.675906
O O15 0.921056 0.248018 0.530549
O O16 0.421128 0.322426 0.035573
#
# Coordination Sequence:
#
# PCOD9238919 Si02
#       7
#     4   4   4   4   4   4   4
#     4  10  20  34  63  98 138 165 202 266 330 395
#     4  12  27  47  64  91 130 184 223 259 330 405
#     4  12  25  43  68  93 132 170 221 274 324 396
#     4  12  25  41  66 100 128 165 219 291 342 372
#     4  11  21  39  65 100 132 168 211 268 332 385
#     4  11  21  38  63 101 131 165 213 268 328 383
#     4  12  25  42  67  94 134 169 221 272 322 396
#
# _framework density 19.906860999999999
#
# number of rings (size 3 to 8) (size 9 to 14) (size 15 to 20)
#    0.000    0.571    1.429    9.857    2.000    1.143 
#    0.000    0.000    0.000   17.143    0.000    0.000 
#    0.000    0.000    0.000    0.000    0.000    0.000 
#
# Total GULP energy -156501.220273 kJ/mol
# GULP energy per Si atom -5589.329295 kJ/mol
# Density = 1.986155 g / cm^3
# Si number density = 19.906861 Si / 1000 Ang^3
#
#
#
# Elastic Constant Matrix: (Units=GPa)
#
#
# Indices 1 2 3 4 5 6 
#
# 1 146.0379 10.5748 45.9848 0.0000 16.9992 0.0000
# 2 10.5748 9.4616 -17.0906 0.0000 8.2533 0.0000
# 3 45.9848 -17.0906 148.8830 0.0000 6.7007 0.0000
# 4 0.0000 0.0000 0.0000 21.5329 0.0000 8.3470
# 5 16.9992 8.2533 6.7007 0.0000 58.7354 0.0000
# 6 0.0000 0.0000 0.0000 8.3470 0.0000 28.1854
#
#
#
# Elastic Compliance Matrix: (Units=1/GPa)
#
#
# Indices 1 2 3 4 5 6 
#
# 1 0.010208 -0.022648 -0.005793 0.000000 0.000889 0.000000
# 2 -0.022648 0.214005 0.032788 0.000000 -0.027257 0.000000
# 3 -0.005793 0.032788 0.012466 0.000000 -0.004353 0.000000
# 4 0.000000 0.000000 0.000000 0.052463 0.000000 -0.015537
# 5 0.000889 -0.027257 -0.004353 0.000000 0.021095 0.000000
# 6 0.000000 0.000000 0.000000 -0.015537 0.000000 0.040081
#
#
# Mechanical properties :
#
#
# Convention : Reuss Voigt Hill
#
# Bulk Modulus (GPa) = 4.07543 42.59116 23.33330
# Shear Modulus (GPa) = 11.80880 39.35165 25.58022
#
# Velocity S-wave (km/s) = 2.43822 4.45093 3.58857
# Velocity P-wave (km/s) = 3.15883 6.91781 5.37747
#
# Compressibility (1/GPa) = 0.24537280
#
# Stress axis : x y z
#
# Youngs Moduli (GPa) = 97.96176 4.67280 80.22109
#
# Poissons Ratio (x) = 0.10583 0.46470
# Poissons Ratio (y) = 2.21863 -2.63028
# Poissons Ratio (z) = 0.56746 -0.15321
#
# Static dielectric constant tensor:
#      x y z
#    x 1.751020 0.000000 -0.003180 
#    y 0.000000 1.737290 0.000000 
#    z -0.003180 0.000000 1.682330 
# 
# From -- ./inp_files/98103.got.cif
#   From: 2010.05.17/outbox.ucp.g08.bks.cvg/sg13_50_cif.got.tgz:98103.got - 2010.06.11 12:23:55.
