data_PCOD9238444
_publ_section_title
;
Structure prediction by ZEFSAII (Michael W. Deem and Ramdas Pophale) SiO2 
 PCOD9238444
Probable space group: P 2/C
;
_chemical_formula_sum "Si O2"
_cell_formula_units_Z 14
_cell_length_a 8.701873
_cell_length_b 5.059481
_cell_length_c 13.996252
_cell_angle_alpha 90.000000
_cell_angle_beta 116.750098
_cell_angle_gamma 90.000000
_cell_volume 550.264261
_symmetry_space_group_name_H-M "P 2/C"
_symmetry_group_IT_number 13
_symmetry_cell_setting 'monoclinic'
loop_
_space_group_symop_operation_xyz
x,y,z
-x,y,1/2-z
-x,-y,-z
x,-y,1/2+z
loop_
_atom_site_type_symbol
_atom_site_label
_atom_site_fract_x
_atom_site_fract_y
_atom_site_fract_z
Si Si1 0.682533 0.435667 0.181738
Si Si2 0.000000 0.825299 0.250000
Si Si3 0.293924 0.578601 0.587387
Si Si4 0.183089 0.099419 0.447473
O O1 0.708068 0.376817 0.300376
O O2 0.486012 0.527971 0.116641
O O3 0.831320 0.644515 0.199220
O O4 0.709304 0.198054 0.114772
O O5 0.008627 0.001886 0.347574
O O6 0.168867 0.350552 0.512754
O O7 0.261852 0.853696 0.525463
#
# Coordination Sequence:
#
# PCOD9238444 Si02
#       4
#     4   2   4   4
#     4  11  27  51  72 114 142 190 244 302 350 443
#     4  12  28  46  72 106 162 180 240 298 366 424
#     4  11  28  46  84 100 144 193 250 288 364 421
#     4  12  26  49  73 112 142 195 235 307 354 428
#
# _framework density 25.442323999999999
#
# number of rings (size 3 to 8) (size 9 to 14) (size 15 to 20)
#    0.000    0.571    2.857    2.571    8.000    4.571 
#    0.000    0.000    0.000    0.000    0.000    0.000 
#    0.000    0.000    0.000    0.000    0.000    0.000 
#
# Total GULP energy -78495.034920 kJ/mol
# GULP energy per Si atom -5606.788209 kJ/mol
# Density = 2.538442 g / cm^3
# Si number density = 25.442324 Si / 1000 Ang^3
#
#
#
# Elastic Constant Matrix: (Units=GPa)
#
#
# Indices 1 2 3 4 5 6 
#
# 1 90.4230 47.1313 28.0007 0.0000 -0.9330 0.0000
# 2 47.1313 168.3327 95.1541 0.0000 3.8201 0.0000
# 3 28.0007 95.1541 195.3215 0.0000 -33.0327 0.0000
# 4 0.0000 0.0000 0.0000 -104.5670 0.0000 97.9500
# 5 -0.9330 3.8201 -33.0327 0.0000 39.7822 0.0000
# 6 0.0000 0.0000 0.0000 97.9500 0.0000 -46.3839
#
#
#
# Elastic Compliance Matrix: (Units=1/GPa)
#
#
# Indices 1 2 3 4 5 6 
#
# 1 0.012966 -0.003674 0.000049 0.000000 0.000698 0.000000
# 2 -0.003674 0.010100 -0.005320 0.000000 -0.005473 0.000000
# 3 0.000049 -0.005320 0.009064 0.000000 0.008038 0.000000
# 4 0.000000 0.000000 0.000000 0.009777 0.000000 0.020647
# 5 0.000698 -0.005473 0.008038 0.000000 0.032353 0.000000
# 6 0.000000 0.000000 0.000000 0.020647 0.000000 0.022042
#
#
# Mechanical properties :
#
#
# Convention : Reuss Voigt Hill
#
# Bulk Modulus (GPa) = 70.21838 88.29438 79.25638
# Shear Modulus (GPa) = 42.03852 -3.31434 19.36209
#
# Velocity S-wave (km/s) = 4.06927 -1.14259 2.76165
# Velocity P-wave (km/s) = 7.05248 5.74790 6.43335
#
# Compressibility (1/GPa) = 0.01424128
#
# Stress axis : x y z
#
# Youngs Moduli (GPa) = 77.12413 99.00530 110.33143
#
# Poissons Ratio (x) = 0.36373 -0.00540
# Poissons Ratio (y) = 0.28334 0.58691
# Poissons Ratio (z) = -0.00378 0.52666
#
# Static dielectric constant tensor:
#      x y z
#    x 2.055530 0.000000 -0.003020 
#    y 0.000000 1.971830 0.000000 
#    z -0.003020 0.000000 1.976350 
# 
# From -- ./inp_files/48495.got.cif
#   From: 2010.05.17/outbox.cif.g08.bks.cpg/sg13_25_cif.got.tgz:48495.got - 2010.06.03 16:44:36.
