data_PCOD9238802
_publ_section_title
;
Structure prediction by ZEFSAII (Michael W. Deem and Ramdas Pophale) SiO2 
 PCOD9238802
Probable space group: P 2/C
;
_chemical_formula_sum "Si O2"
_cell_formula_units_Z 16
_cell_length_a 8.102628
_cell_length_b 9.821580
_cell_length_c 17.802051
_cell_angle_alpha 90.000000
_cell_angle_beta 151.512460
_cell_angle_gamma 90.000000
_cell_volume 675.719123
_symmetry_space_group_name_H-M "P 2/C"
_symmetry_group_IT_number 13
_symmetry_cell_setting 'monoclinic'
loop_
_space_group_symop_operation_xyz
x,y,z
-x,y,1/2-z
-x,-y,-z
x,-y,1/2+z
loop_
_atom_site_type_symbol
_atom_site_label
_atom_site_fract_x
_atom_site_fract_y
_atom_site_fract_z
Si Si1 0.980864 0.103027 0.559876
Si Si2 0.625014 0.091347 0.632926
Si Si3 0.599637 0.654071 0.565106
Si Si4 0.220768 0.367406 0.073239
O O1 0.012678 0.237198 0.521362
O O2 0.265222 0.120447 0.737559
O O3 0.640650 0.036429 0.467428
O O4 0.000000 0.000000 0.500000
O O5 0.497374 0.227727 0.535381
O O6 0.000000 0.048217 0.750000
O O7 0.500000 0.500000 0.500000
O O8 0.388916 0.658537 0.558779
O O9 0.000000 0.664244 0.750000
O O10 0.500000 0.358525 0.250000
O O11 0.000000 0.500000 0.000000
#
# Coordination Sequence:
#
# PCOD9238802 Si02
#       4
#     4   4   4   4
#     4  12  29  51  81 121 166 215 270 343 422 494
#     4  12  27  51  85 120 165 214 279 342 413 499
#     4  12  29  52  84 120 165 219 280 342 414 497
#     4  12  29  51  78 114 165 214 274 338 415 495
#
# _framework density 23.678478999999999
#
# number of rings (size 3 to 8) (size 9 to 14) (size 15 to 20)
#    0.000    0.000    2.500    5.250   14.000    0.000 
#    0.000    0.000    0.000    0.000    0.000    0.000 
#    0.000    0.000    0.000    0.000    0.000    0.000 
#
# Total GULP energy -89167.063768 kJ/mol
# GULP energy per Si atom -5572.941485 kJ/mol
# Density = 2.362459 g / cm^3
# Si number density = 23.678479 Si / 1000 Ang^3
#
#
#
# Elastic Constant Matrix: (Units=GPa)
#
#
# Indices 1 2 3 4 5 6 
#
# 1 101.9306 62.6426 52.0064 0.0000 -5.6038 0.0000
# 2 62.6426 219.3243 105.9279 0.0000 -22.3412 0.0000
# 3 52.0064 105.9279 218.2198 0.0000 -30.9387 0.0000
# 4 0.0000 0.0000 0.0000 54.2968 0.0000 -16.2826
# 5 -5.6038 -22.3412 -30.9387 0.0000 61.2517 0.0000
# 6 0.0000 0.0000 0.0000 -16.2826 0.0000 77.7801
#
#
#
# Elastic Compliance Matrix: (Units=1/GPa)
#
#
# Indices 1 2 3 4 5 6 
#
# 1 0.012345 -0.002782 -0.001697 0.000000 -0.000742 0.000000
# 2 -0.002782 0.006616 -0.002416 0.000000 0.000939 0.000000
# 3 -0.001697 -0.002416 0.006476 0.000000 0.002235 0.000000
# 4 0.000000 0.000000 0.000000 0.019651 0.000000 0.004114
# 5 -0.000742 0.000939 0.002235 0.000000 0.017729 0.000000
# 6 0.000000 0.000000 0.000000 0.004114 0.000000 0.013718
#
#
# Mechanical properties :
#
#
# Convention : Reuss Voigt Hill
#
# Bulk Modulus (GPa) = 85.84542 108.95874 97.40208
# Shear Modulus (GPa) = 53.07375 59.92557 56.49966
#
# Velocity S-wave (km/s) = 4.73951 5.03617 4.89009
# Velocity P-wave (km/s) = 8.14150 8.94053 8.55035
#
# Compressibility (1/GPa) = 0.01164885
#
# Stress axis : x y z
#
# Youngs Moduli (GPa) = 81.00223 151.14083 154.40686
#
# Poissons Ratio (x) = 0.42049 0.26202
# Poissons Ratio (y) = 0.22535 0.37298
# Poissons Ratio (z) = 0.13746 0.36509
#
# Static dielectric constant tensor:
#      x y z
#    x 1.783590 0.000000 -0.156820 
#    y 0.000000 3.701100 0.000000 
#    z -0.156820 0.000000 1.688050 
# 
# From -- ./inp_files/63996.got.cif
#   From: 2010.05.17/outbox.cif.g08.bks.cpg/sg13_32_cif.got.tgz:63996.got - 2010.06.03 16:44:36.
