data_PCOD9238011
_publ_section_title
;
Structure prediction by ZEFSAII (Michael W. Deem and Ramdas Pophale) SiO2 
 PCOD9238011
Probable space group: P 2/C
;
_chemical_formula_sum "Si O2"
_cell_formula_units_Z 16
_cell_length_a 6.748660
_cell_length_b 27.202194
_cell_length_c 5.096033
_cell_angle_alpha 90.000000
_cell_angle_beta 127.867178
_cell_angle_gamma 90.000000
_cell_volume 738.534110
_symmetry_space_group_name_H-M "P 2/C"
_symmetry_group_IT_number 13
_symmetry_cell_setting 'monoclinic'
loop_
_space_group_symop_operation_xyz
x,y,z
-x,y,1/2-z
-x,-y,-z
x,-y,1/2+z
loop_
_atom_site_type_symbol
_atom_site_label
_atom_site_fract_x
_atom_site_fract_y
_atom_site_fract_z
Si Si1 0.500000 0.330523 0.250000
Si Si2 0.000000 0.535409 0.750000
Si Si3 0.000000 0.207292 0.250000
Si Si4 0.500000 0.399980 0.750000
Si Si5 0.656670 0.876066 0.618486
Si Si6 0.000000 0.964973 0.750000
Si Si7 0.000000 0.730488 0.250000
O O1 0.539084 0.365174 0.532362
O O2 0.756233 0.298743 0.443790
O O3 0.747661 0.567889 0.515826
O O4 0.000000 0.500000 0.500000
O O5 0.851076 0.167718 0.311358
O O6 0.102065 0.241132 0.570434
O O7 0.500000 0.885319 0.750000
O O8 0.773790 0.926938 0.611148
O O9 0.500000 0.856045 0.250000
O O10 0.000000 0.000000 0.500000
#
# Coordination Sequence:
#
# PCOD9238011 Si02
#       7
#     2   2   2   2   4   2   2
#     4  12  26  45  68 102 134 192 228 283 360 412
#     4  12  24  42  70 105 136 185 238 286 344 408
#     4  11  26  43  66  97 130 171 218 303 334 409
#     4  12  24  45  68  96 148 180 228 295 346 410
#     4  11  24  42  66  93 128 172 218 269 356 402
#     4  11  24  41  62  95 132 165 220 271 326 423
#     4  12  26  44  70  99 136 175 244 284 344 430
#
# _framework density 21.664539000000001
#
# number of rings (size 3 to 8) (size 9 to 14) (size 15 to 20)
#    0.000    0.500    0.000    8.250    5.250    7.000 
#    0.000    0.000    0.000    0.000    0.000    0.000 
#    0.000    0.000    0.000    0.000    0.000    0.000 
#
# Total GULP energy -89302.525776 kJ/mol
# GULP energy per Si atom -5581.407861 kJ/mol
# Density = 2.161523 g / cm^3
# Si number density = 21.664539 Si / 1000 Ang^3
#
#
#
# Elastic Constant Matrix: (Units=GPa)
#
#
# Indices 1 2 3 4 5 6 
#
# 1 136.2740 48.6039 45.2598 0.0000 -17.4793 0.0000
# 2 48.6039 108.2547 53.7127 0.0000 2.1621 0.0000
# 3 45.2598 53.7127 114.1745 0.0000 -6.0233 0.0000
# 4 0.0000 0.0000 0.0000 -26.4379 0.0000 -148.6110
# 5 -17.4793 2.1621 -6.0233 0.0000 60.8618 0.0000
# 6 0.0000 0.0000 0.0000 -148.6110 0.0000 -226.3723
#
#
#
# Elastic Compliance Matrix: (Units=1/GPa)
#
#
# Indices 1 2 3 4 5 6 
#
# 1 0.009552 -0.003303 -0.002092 0.000000 0.002653 0.000000
# 2 -0.003303 0.013253 -0.005026 0.000000 -0.001917 0.000000
# 3 -0.002092 -0.005026 0.011993 0.000000 0.000765 0.000000
# 4 0.000000 0.000000 0.000000 0.014060 0.000000 -0.009230
# 5 0.002653 -0.001917 0.000765 0.000000 0.017336 0.000000
# 6 0.000000 0.000000 0.000000 -0.009230 0.000000 0.001642
#
#
# Mechanical properties :
#
#
# Convention : Reuss Voigt Hill
#
# Bulk Modulus (GPa) = 71.66772 72.65068 72.15920
# Shear Modulus (GPa) = 53.57280 -24.31456 14.62912
#
# Velocity S-wave (km/s) = 4.97815 -3.35374 2.60139
# Velocity P-wave (km/s) = 8.13604 4.31398 6.51174
#
# Compressibility (1/GPa) = 0.01395328
#
# Stress axis : x y z
#
# Youngs Moduli (GPa) = 104.69466 75.45579 83.38267
#
# Poissons Ratio (x) = 0.24925 0.17447
# Poissons Ratio (y) = 0.34584 0.41911
# Poissons Ratio (z) = 0.21906 0.37927
#
# Static dielectric constant tensor:
#      x y z
#    x 1.811470 0.000000 0.077600 
#    y 0.000000 1.804490 0.000000 
#    z 0.077600 0.000000 1.791040 
# 
# From -- ./inp_files/609.got.cif
#   From: 2010.05.17/outbox.cif.g08.bks.cpg/sg13_1_cif.got.tgz:609.got - 2010.06.03 16:44:36.
