data_PCOD9238370
_publ_section_title
;
Structure prediction by ZEFSAII (Michael W. Deem and Ramdas Pophale) SiO2 
 PCOD9238370
Probable space group: P 2/C
;
_chemical_formula_sum "Si O2"
_cell_formula_units_Z 18
_cell_length_a 17.195383
_cell_length_b 8.554773
_cell_length_c 21.957207
_cell_angle_alpha 90.000000
_cell_angle_beta 164.355586
_cell_angle_gamma 90.000000
_cell_volume 871.012133
_symmetry_space_group_name_H-M "P 2/C"
_symmetry_group_IT_number 13
_symmetry_cell_setting 'monoclinic'
loop_
_space_group_symop_operation_xyz
x,y,z
-x,y,1/2-z
-x,-y,-z
x,-y,1/2+z
loop_
_atom_site_type_symbol
_atom_site_label
_atom_site_fract_x
_atom_site_fract_y
_atom_site_fract_z
Si Si1 0.400456 0.320639 0.911375
Si Si2 0.500000 0.668393 0.250000
Si Si3 0.834513 0.423681 0.432888
Si Si4 0.658468 0.856167 0.489497
Si Si5 0.348557 0.214703 0.006492
O O1 0.434393 0.235948 0.000901
O O2 0.065240 0.314336 0.639446
O O3 0.500000 0.500000 0.000000
O O4 0.556377 0.237027 0.972522
O O5 0.758784 0.556743 0.424310
O O6 0.565482 0.767499 0.358795
O O7 0.456214 0.336400 0.307983
O O8 0.000000 0.500000 0.500000
O O9 0.000000 0.858915 0.750000
O O10 0.567739 0.036765 0.415426
O O11 0.000000 0.239092 0.750000
#
# Coordination Sequence:
#
# PCOD9238370 Si02
#       5
#     4   2   4   4   4
#     4  12  23  43  71 101 137 176 231 284 336 407
#     4  12  24  44  68  96 140 172 230 280 334 414
#     4  12  24  44  71 104 130 181 231 281 341 401
#     4  11  26  43  67 100 137 184 221 283 347 404
#     4  11  26  46  67 100 138 178 227 280 347 410
#
# _framework density 20.665611999999999
#
# number of rings (size 3 to 8) (size 9 to 14) (size 15 to 20)
#    0.000    0.444    4.444    3.333    0.000    7.111 
#    0.000    0.000    0.000    0.000    0.000    0.000 
#    0.000    0.000    0.000    0.000    0.000    0.000 
#
# Total GULP energy -100627.852868 kJ/mol
# GULP energy per Si atom -5590.436270 kJ/mol
# Density = 2.061858 g / cm^3
# Si number density = 20.665612 Si / 1000 Ang^3
#
#
#
# Elastic Constant Matrix: (Units=GPa)
#
#
# Indices 1 2 3 4 5 6 
#
# 1 141.6671 61.0791 22.1691 0.0000 5.3296 0.0000
# 2 61.0791 118.1015 44.4250 0.0000 10.6292 0.0000
# 3 22.1691 44.4250 75.3396 0.0000 -5.1851 0.0000
# 4 0.0000 0.0000 0.0000 37.2469 0.0000 -9.0742
# 5 5.3296 10.6292 -5.1851 0.0000 33.3461 0.0000
# 6 0.0000 0.0000 0.0000 -9.0742 0.0000 33.3397
#
#
#
# Elastic Compliance Matrix: (Units=1/GPa)
#
#
# Indices 1 2 3 4 5 6 
#
# 1 0.009086 -0.004759 0.000138 0.000000 0.000086 0.000000
# 2 -0.004759 0.014090 -0.007242 0.000000 -0.004857 0.000000
# 3 0.000138 -0.007242 0.017851 0.000000 0.005062 0.000000
# 4 0.000000 0.000000 0.000000 0.028755 0.000000 0.007826
# 5 0.000086 -0.004857 0.005062 0.000000 0.032310 0.000000
# 6 0.000000 0.000000 0.000000 0.007826 0.000000 0.032124
#
#
# Mechanical properties :
#
#
# Convention : Reuss Voigt Hill
#
# Bulk Modulus (GPa) = 57.79732 65.60607 61.70169
# Shear Modulus (GPa) = 30.54231 34.61554 32.57892
#
# Velocity S-wave (km/s) = 3.84855 4.09715 3.97480
# Velocity P-wave (km/s) = 6.91210 7.36190 7.14054
#
# Compressibility (1/GPa) = 0.01730184
#
# Stress axis : x y z
#
# Youngs Moduli (GPa) = 110.06469 70.97402 56.01835
#
# Poissons Ratio (x) = 0.33774 -0.00776
# Poissons Ratio (y) = 0.52376 0.40569
# Poissons Ratio (z) = -0.01524 0.51400
#
# Static dielectric constant tensor:
#      x y z
#    x 1.869960 0.000000 -0.047030 
#    y 0.000000 1.799850 0.000000 
#    z -0.047030 0.000000 1.838410 
# 
# From -- ./inp_files/79891.got.cif
#   From: 2010.05.17/outbox.cif.g08.bks.cpg/sg13_40_cif.got.tgz:79891.got - 2010.06.03 16:44:36.
