data_PCOD9238368
_publ_section_title
;
Structure prediction by ZEFSAII (Michael W. Deem and Ramdas Pophale) SiO2 
 PCOD9238368
Probable space group: P 2/C
;
_chemical_formula_sum "Si O2"
_cell_formula_units_Z 10
_cell_length_a 8.632213
_cell_length_b 12.208857
_cell_length_c 5.123542
_cell_angle_alpha 90.000000
_cell_angle_beta 57.259201
_cell_angle_gamma 90.000000
_cell_volume 454.180464
_symmetry_space_group_name_H-M "P 2/C"
_symmetry_group_IT_number 13
_symmetry_cell_setting 'monoclinic'
loop_
_space_group_symop_operation_xyz
x,y,z
-x,y,1/2-z
-x,-y,-z
x,-y,1/2+z
loop_
_atom_site_type_symbol
_atom_site_label
_atom_site_fract_x
_atom_site_fract_y
_atom_site_fract_z
Si Si1 0.000000 0.578411 0.250000
Si Si2 0.500000 0.915940 0.250000
Si Si3 0.000000 0.926485 0.250000
Si Si4 0.303829 0.236890 0.566835
O O1 0.177831 0.655558 0.149407
O O2 0.000000 0.500000 0.500000
O O3 0.656808 0.825908 0.192536
O O4 0.500000 0.000000 0.500000
O O5 0.177292 0.852408 0.045418
O O6 0.000000 0.000000 0.500000
O O7 0.500000 0.252728 0.250000
#
# Coordination Sequence:
#
# PCOD9238368 Si02
#       4
#     2   2   2   4
#     4  11  30  53  76 104 142 189 254 319 372 414
#     4  12  24  40  70 112 148 186 228 282 354 442
#     4  11  26  41  64 104 148 193 230 283 350 432
#     4  11  27  46  75 105 148 189 251 295 362 437
#
# _framework density 22.017679999999999
#
# number of rings (size 3 to 8) (size 9 to 14) (size 15 to 20)
#    0.000    0.800    2.000    2.400   11.200    4.800 
#    0.000    0.000    0.000    0.000    0.000    0.000 
#    0.000    0.000    0.000    0.000    0.000    0.000 
#
# Total GULP energy -55707.534518 kJ/mol
# GULP energy per Si atom -5570.753452 kJ/mol
# Density = 2.196757 g / cm^3
# Si number density = 22.017680 Si / 1000 Ang^3
#
#
#
# Elastic Constant Matrix: (Units=GPa)
#
#
# Indices 1 2 3 4 5 6 
#
# 1 182.4971 126.0332 87.6306 0.0000 -7.6495 0.0000
# 2 126.0332 211.0536 106.4696 0.0000 5.8632 0.0000
# 3 87.6306 106.4696 159.8610 0.0000 18.3401 0.0000
# 4 0.0000 0.0000 0.0000 17.3114 0.0000 12.7074
# 5 -7.6495 5.8632 18.3401 0.0000 61.6882 0.0000
# 6 0.0000 0.0000 0.0000 12.7074 0.0000 61.5156
#
#
#
# Elastic Compliance Matrix: (Units=1/GPa)
#
#
# Indices 1 2 3 4 5 6 
#
# 1 0.010186 -0.004805 -0.002672 0.000000 0.002514 0.000000
# 2 -0.004805 0.009436 -0.003603 0.000000 -0.000422 0.000000
# 3 -0.002672 -0.003603 0.010476 0.000000 -0.003103 0.000000
# 4 0.000000 0.000000 0.000000 0.068090 0.000000 -0.014065
# 5 0.002514 -0.000422 -0.003103 0.000000 0.017485 0.000000
# 6 0.000000 0.000000 0.000000 -0.014065 0.000000 0.019162
#
#
# Mechanical properties :
#
#
# Convention : Reuss Voigt Hill
#
# Bulk Modulus (GPa) = 125.95615 132.63095 129.29355
# Shear Modulus (GPa) = 31.32041 43.65493 37.48767
#
# Velocity S-wave (km/s) = 3.77571 4.45761 4.13075
# Velocity P-wave (km/s) = 8.73722 9.32002 9.03332
#
# Compressibility (1/GPa) = 0.00793927
#
# Stress axis : x y z
#
# Youngs Moduli (GPa) = 98.17297 105.97284 95.45848
#
# Poissons Ratio (x) = 0.50915 0.25509
# Poissons Ratio (y) = 0.47168 0.34391
# Poissons Ratio (z) = 0.26234 0.38179
#
# Static dielectric constant tensor:
#      x y z
#    x 1.850890 0.000000 -0.030940 
#    y 0.000000 1.810200 0.000000 
#    z -0.030940 0.000000 1.888190 
# 
# From -- ./inp_files/735.got.cif
#   From: 2010.05.17/outbox.cif.g08.bks.cpg/sg13_1_cif.got.tgz:735.got - 2010.06.03 16:44:36.
