data_PCOD9238410
_publ_section_title
;
Structure prediction by ZEFSAII (Michael W. Deem and Ramdas Pophale) SiO2 
 PCOD9238410
Probable space group: P 2/C
;
_chemical_formula_sum "Si O2"
_cell_formula_units_Z 18
_cell_length_a 20.797561
_cell_length_b 6.539398
_cell_length_c 9.572382
_cell_angle_alpha 90.000000
_cell_angle_beta 147.872257
_cell_angle_gamma 90.000000
_cell_volume 692.349903
_symmetry_space_group_name_H-M "P 2/C"
_symmetry_group_IT_number 13
_symmetry_cell_setting 'monoclinic'
loop_
_space_group_symop_operation_xyz
x,y,z
-x,y,1/2-z
-x,-y,-z
x,-y,1/2+z
loop_
_atom_site_type_symbol
_atom_site_label
_atom_site_fract_x
_atom_site_fract_y
_atom_site_fract_z
Si Si1 0.077422 0.123397 0.030251
Si Si2 0.756398 0.749574 0.180249
Si Si3 0.530657 0.191674 0.653632
Si Si4 0.500000 0.569501 0.750000
Si Si5 0.782302 0.584508 0.526743
O O1 0.192907 0.976464 0.211300
O O2 0.118085 0.320872 0.188046
O O3 0.000000 0.158551 0.750000
O O4 0.000000 0.000000 0.000000
O O5 0.805365 0.627681 0.406771
O O6 0.782903 0.650103 0.077872
O O7 0.614082 0.704923 0.925893
O O8 0.500000 0.106029 0.750000
O O9 0.460842 0.410144 0.554705
O O10 0.500000 0.000000 0.500000
O O11 0.661661 0.284096 0.850892
#
# Coordination Sequence:
#
# PCOD9238410 Si02
#       5
#     4   4   4   2   4
#     4  12  28  51  74 106 143 198 263 309 376 449
#     4  11  26  48  76 108 153 194 242 319 375 453
#     4   9  21  41  68 107 150 194 240 293 365 450
#     4   8  22  46  68 114 152 196 246 298 388 446
#     4  11  27  46  72 110 144 197 249 307 384 440
#
# _framework density 25.998415000000001
#
# number of rings (size 3 to 8) (size 9 to 14) (size 15 to 20)
#    0.667    0.889    2.222    0.000    6.222    8.889 
#    0.000    0.000    0.000    0.000    0.000    0.000 
#    0.000    0.000    0.000    0.000    0.000    0.000 
#
# Total GULP energy -100501.132911 kJ/mol
# GULP energy per Si atom -5583.396273 kJ/mol
# Density = 2.593924 g / cm^3
# Si number density = 25.998415 Si / 1000 Ang^3
#
#
#
# Elastic Constant Matrix: (Units=GPa)
#
#
# Indices 1 2 3 4 5 6 
#
# 1 87.4921 11.2314 14.1894 0.0000 -31.6794 0.0000
# 2 11.2314 77.2259 48.1951 0.0000 1.6900 0.0000
# 3 14.1894 48.1951 97.5676 0.0000 -21.5053 0.0000
# 4 0.0000 0.0000 0.0000 46.9594 0.0000 -18.6016
# 5 -31.6794 1.6900 -21.5053 0.0000 55.7830 0.0000
# 6 0.0000 0.0000 0.0000 -18.6016 0.0000 49.1493
#
#
#
# Elastic Compliance Matrix: (Units=1/GPa)
#
#
# Indices 1 2 3 4 5 6 
#
# 1 0.014923 -0.003286 0.001468 0.000000 0.009140 0.000000
# 2 -0.003286 0.020546 -0.011169 0.000000 -0.006794 0.000000
# 3 0.001468 -0.011169 0.017279 0.000000 0.007833 0.000000
# 4 0.000000 0.000000 0.000000 0.025051 0.000000 0.009481
# 5 0.009140 -0.006794 0.007833 0.000000 0.026343 0.000000
# 6 0.000000 0.000000 0.000000 0.009481 0.000000 0.023934
#
#
# Mechanical properties :
#
#
# Convention : Reuss Voigt Hill
#
# Bulk Modulus (GPa) = 37.35014 45.50193 41.42603
# Shear Modulus (GPa) = 30.67956 42.95631 36.81794
#
# Velocity S-wave (km/s) = 3.43892 4.06922 3.76727
# Velocity P-wave (km/s) = 5.49233 6.29427 5.90693
#
# Compressibility (1/GPa) = 0.02677366
#
# Stress axis : x y z
#
# Youngs Moduli (GPa) = 67.01089 48.67198 57.87267
#
# Poissons Ratio (x) = 0.15995 -0.08494
# Poissons Ratio (y) = 0.22022 0.64635
# Poissons Ratio (z) = -0.09835 0.54359
#
# Static dielectric constant tensor:
#      x y z
#    x 2.255460 0.000000 0.235770 
#    y 0.000000 2.105950 0.000000 
#    z 0.235770 0.000000 2.500810 
# 
# From -- ./inp_files/22931.got.cif
#   From: 2010.05.17/outbox.cif.g08.bks.cpg/sg13_12_cif.got.tgz:22931.got - 2010.06.03 16:44:36.
