data_PCOD9238943
_publ_section_title
;
Structure prediction by ZEFSAII (Michael W. Deem and Ramdas Pophale) SiO2 
 PCOD9238943
Probable space group: P 2/C
;
_chemical_formula_sum "Si O2"
_cell_formula_units_Z 24
_cell_length_a 15.000000
_cell_length_b 9.000000
_cell_length_c 18.000000
_cell_angle_alpha 90.000000
_cell_angle_beta 30.000000
_cell_angle_gamma 90.000000
_cell_volume 1215.000000
_symmetry_space_group_name_H-M "P 2/C"
_symmetry_group_IT_number 13
_symmetry_cell_setting 'monoclinic'
loop_
_space_group_symop_operation_xyz
x,y,z
-x,y,1/2-z
-x,-y,-z
x,-y,1/2+z
loop_
_atom_site_type_symbol
_atom_site_label
_atom_site_fract_x
_atom_site_fract_y
_atom_site_fract_z
Si Si1 0.650310 0.670457 0.704247
Si Si2 0.980980 0.805868 0.850492
Si Si3 0.306627 0.653562 0.354010
Si Si4 0.375516 0.196824 0.129204
Si Si5 0.046206 0.911204 0.043338
Si Si6 0.664479 0.852772 0.308081
O O1 0.500000 0.678602 0.750000
O O2 0.732470 0.507442 0.650223
O O3 0.568051 0.703638 0.843272
O O4 0.802227 0.792198 0.579821
O O5 0.000000 0.804627 0.750000
O O6 0.171745 0.781991 0.751670
O O7 0.905755 0.964661 0.931701
O O8 0.841540 0.686800 0.978812
O O9 0.500000 0.648502 0.250000
O O10 0.312599 0.782267 0.288693
O O11 0.385158 0.026748 0.151809
O O12 0.506567 0.223376 0.966589
O O13 0.859658 0.839303 0.203337
O O14 0.000000 0.000000 0.000000
#
# Coordination Sequence:
#
# PCOD9238943 Si02
#       6
#     4   4   4   4   4   4
#     4  11  24  40  61  87 128 167 203 254 314 369
#     4  11  22  39  65  93 123 160 206 262 307 373
#     4  11  23  39  58  89 125 168 209 249 313 381
#     4  10  21  39  61  94 121 157 212 259 305 363
#     4  11  20  42  62  93 119 159 210 255 311 371
#     4  10  20  37  63  87 120 157 203 260 304 370
#
# _framework density 19.753086
#
# number of rings (size 3 to 8) (size 9 to 14) (size 15 to 20)
#    0.000    1.333    5.000    1.000    0.000   10.000 
#    0.000    4.167    0.000    0.000    0.000    0.000 
#    0.000    0.000    0.000    0.000    0.000    0.000 
#
# Total GULP energy -133863.507470 kJ/mol
# GULP energy per Si atom -5577.646145 kJ/mol
# Density = 1.970813 g / cm^3
# Si number density = 19.753086 Si / 1000 Ang^3
#
#
#
# Elastic Constant Matrix: (Units=GPa)
#
#
# Indices 1 2 3 4 5 6 
#
# 1 67.4555 43.1733 20.1167 0.0000 23.8629 0.0000
# 2 43.1733 29.4092 43.9391 0.0000 0.7086 0.0000
# 3 20.1167 43.9391 106.6996 0.0000 16.4701 0.0000
# 4 0.0000 0.0000 0.0000 -5.4624 0.0000 -13.7847
# 5 23.8629 0.7086 16.4701 0.0000 31.5386 0.0000
# 6 0.0000 0.0000 0.0000 -13.7847 0.0000 17.1471
#
#
#
# Elastic Compliance Matrix: (Units=1/GPa)
#
#
# Indices 1 2 3 4 5 6 
#
# 1 -0.009569 0.037388 -0.015859 0.000000 0.014682 0.000000
# 2 0.037388 -0.046503 0.017736 0.000000 -0.036506 0.000000
# 3 -0.015859 0.017736 0.003554 0.000000 0.009745 0.000000
# 4 0.000000 0.000000 0.000000 -0.060444 0.000000 -0.048592
# 5 0.014682 -0.036506 0.009745 0.000000 0.016330 0.000000
# 6 0.000000 0.000000 0.000000 -0.048592 0.000000 0.019255
#
#
# Mechanical properties :
#
#
# Convention : Reuss Voigt Hill
#
# Bulk Modulus (GPa) = 38.44237 46.44694 42.44465
# Shear Modulus (GPa) = -33.95858 15.06701 -9.44579
#
# Velocity S-wave (km/s) = -4.15077 2.76482 -2.18913
# Velocity P-wave (km/s) = 1.86229 5.81009 3.89159
#
# Compressibility (1/GPa) = 0.02601297
#
# Stress axis : x y z
#
# Youngs Moduli (GPa) = -104.49967 -21.50401 281.36467
#
# Poissons Ratio (x) = 0.80400 4.46208
# Poissons Ratio (y) = 3.90706 -4.99031
# Poissons Ratio (z) = -1.65723 0.38140
#
# Static dielectric constant tensor:
#      x y z
#    x 1.806100 0.000000 -0.067460 
#    y 0.000000 1.731150 0.000000 
#    z -0.067460 0.000000 1.756850 
# 
# From -- ./inp_files/68058.got.cif
#   From: 2010.05.17/outbox.ucp.g08.bks.cvg/sg13_35_cif.got.tgz:68058.got - 2010.06.11 12:23:55.
