data_PCOD9238216
_publ_section_title
;
Structure prediction by ZEFSAII (Michael W. Deem and Ramdas Pophale) SiO2 
 PCOD9238216
Probable space group: P 2/C
;
_chemical_formula_sum "Si O2"
_cell_formula_units_Z 20
_cell_length_a 10.169015
_cell_length_b 9.386450
_cell_length_c 10.620720
_cell_angle_alpha 90.000000
_cell_angle_beta 124.518213
_cell_angle_gamma 90.000000
_cell_volume 835.281804
_symmetry_space_group_name_H-M "P 2/C"
_symmetry_group_IT_number 13
_symmetry_cell_setting 'monoclinic'
loop_
_space_group_symop_operation_xyz
x,y,z
-x,y,1/2-z
-x,-y,-z
x,-y,1/2+z
loop_
_atom_site_type_symbol
_atom_site_label
_atom_site_fract_x
_atom_site_fract_y
_atom_site_fract_z
Si Si1 0.404964 0.245009 0.320611
Si Si2 0.899269 0.554385 0.818102
Si Si3 0.908606 0.959075 0.078558
Si Si4 0.339379 0.921890 0.201827
Si Si5 0.736828 0.272154 0.626169
O O1 0.500000 0.300052 0.250000
O O2 0.237691 0.326837 0.235050
O O3 0.546675 0.268173 0.498630
O O4 0.376029 0.076044 0.283447
O O5 0.804038 0.420319 0.708031
O O6 0.000000 0.603975 0.750000
O O7 0.000000 0.500000 0.000000
O O8 0.000000 0.008160 0.250000
O O9 0.842578 0.799071 0.071419
O O10 0.747560 0.047884 0.975556
O O11 0.000000 0.000000 0.000000
O O12 0.500000 0.844896 0.250000
O O13 0.236885 0.832998 0.242555
#
# Coordination Sequence:
#
# PCOD9238216 Si02
#       5
#     4   4   4   4   4
#     4  11  24  48  78 109 156 205 258 313 393 471
#     4  12  30  53  78 112 156 206 266 327 386 458
#     4  12  25  43  74 114 160 201 247 316 398 449
#     4  11  25  45  75 115 154 195 256 319 390 473
#     4  12  25  49  78 110 158 205 253 319 390 470
#
# _framework density 23.944013000000002
#
# number of rings (size 3 to 8) (size 9 to 14) (size 15 to 20)
#    0.000    0.400    6.000    3.000    2.800    2.400 
#    3.600    0.000    0.000    0.000    0.000    0.000 
#    0.000    0.000    0.000    0.000    0.000    0.000 
#
# Total GULP energy -111683.673625 kJ/mol
# GULP energy per Si atom -5584.183681 kJ/mol
# Density = 2.388952 g / cm^3
# Si number density = 23.944013 Si / 1000 Ang^3
#
#
#
# Elastic Constant Matrix: (Units=GPa)
#
#
# Indices 1 2 3 4 5 6 
#
# 1 142.8645 44.2528 16.0072 0.0000 -16.5258 0.0000
# 2 44.2528 73.6983 3.3849 0.0000 -5.9440 0.0000
# 3 16.0072 3.3849 130.0486 0.0000 -1.5018 0.0000
# 4 0.0000 0.0000 0.0000 23.5921 0.0000 3.1986
# 5 -16.5258 -5.9440 -1.5018 0.0000 37.6739 0.0000
# 6 0.0000 0.0000 0.0000 3.1986 0.0000 42.4880
#
#
#
# Elastic Compliance Matrix: (Units=1/GPa)
#
#
# Indices 1 2 3 4 5 6 
#
# 1 0.009061 -0.005145 -0.000945 0.000000 0.003125 0.000000
# 2 -0.005145 0.016680 0.000204 0.000000 0.000383 0.000000
# 3 -0.000945 0.000204 0.007800 0.000000 -0.000072 0.000000
# 4 0.000000 0.000000 0.000000 0.042824 0.000000 -0.003224
# 5 0.003125 0.000383 -0.000072 0.000000 0.027972 0.000000
# 6 0.000000 0.000000 0.000000 -0.003224 0.000000 0.023779
#
#
# Mechanical properties :
#
#
# Convention : Reuss Voigt Hill
#
# Bulk Modulus (GPa) = 45.94202 52.65572 49.29887
# Shear Modulus (GPa) = 33.98024 39.61522 36.79773
#
# Velocity S-wave (km/s) = 3.77125 4.07196 3.92449
# Velocity P-wave (km/s) = 6.17997 6.64430 6.41634
#
# Compressibility (1/GPa) = 0.02176657
#
# Stress axis : x y z
#
# Youngs Moduli (GPa) = 110.36581 59.95267 128.21083
#
# Poissons Ratio (x) = 0.30847 0.12119
# Poissons Ratio (y) = 0.56785 -0.02610
# Poissons Ratio (z) = 0.10432 -0.01220
#
# Static dielectric constant tensor:
#      x y z
#    x 1.333960 0.000000 0.317070 
#    y 0.000000 1.886030 0.000000 
#    z 0.317070 0.000000 1.948690 
# 
# From -- ./inp_files/32774.got.cif
#   From: 2010.05.17/outbox.cif.g08.bks.cpg/sg13_17_cif.got.tgz:32774.got - 2010.06.03 16:44:36.
