data_PCOD9238779
_publ_section_title
;
Structure prediction by ZEFSAII (Michael W. Deem and Ramdas Pophale) SiO2 
 PCOD9238779
Probable space group: P 2/C
;
_chemical_formula_sum "Si O2"
_cell_formula_units_Z 14
_cell_length_a 5.092576
_cell_length_b 8.899460
_cell_length_c 11.712550
_cell_angle_alpha 90.000000
_cell_angle_beta 79.263311
_cell_angle_gamma 90.000000
_cell_volume 521.533738
_symmetry_space_group_name_H-M "P 2/C"
_symmetry_group_IT_number 13
_symmetry_cell_setting 'monoclinic'
loop_
_space_group_symop_operation_xyz
x,y,z
-x,y,1/2-z
-x,-y,-z
x,-y,1/2+z
loop_
_atom_site_type_symbol
_atom_site_label
_atom_site_fract_x
_atom_site_fract_y
_atom_site_fract_z
Si Si1 0.000000 0.988722 0.250000
Si Si2 0.387617 0.256544 0.617219
Si Si3 0.897281 0.452623 0.634203
Si Si4 0.715188 0.781655 0.641310
O O1 0.946254 0.097428 0.146107
O O2 0.752576 0.883030 0.308358
O O3 0.675191 0.322533 0.629046
O O4 0.377432 0.225404 0.482186
O O5 0.177587 0.391087 0.662060
O O6 0.787447 0.614838 0.677821
O O7 0.000000 0.500000 0.500000
O O8 0.500000 0.834712 0.750000
#
# Coordination Sequence:
#
# PCOD9238779 Si02
#       4
#     2   4   4   4
#     4  12  30  50  82 118 172 210 264 332 410 482
#     4  12  29  51  84 117 164 215 267 331 408 478
#     4  12  26  52  83 119 158 211 275 333 396 477
#     4  12  29  50  81 122 164 210 272 335 401 476
#
# _framework density 26.843900000000001
#
# number of rings (size 3 to 8) (size 9 to 14) (size 15 to 20)
#    0.000    0.000    2.857    5.143    8.000    1.143 
#    0.000    0.000    0.000    0.000    0.000    0.000 
#    0.000    0.000    0.000    0.000    0.000    0.000 
#
# Total GULP energy -78390.135795 kJ/mol
# GULP energy per Si atom -5599.295414 kJ/mol
# Density = 2.678280 g / cm^3
# Si number density = 26.843900 Si / 1000 Ang^3
#
#
#
# Elastic Constant Matrix: (Units=GPa)
#
#
# Indices 1 2 3 4 5 6 
#
# 1 168.1069 87.8733 69.5920 0.0000 27.3180 0.0000
# 2 87.8733 225.2881 64.5987 0.0000 24.6341 0.0000
# 3 69.5920 64.5987 117.4853 0.0000 29.9774 0.0000
# 4 0.0000 0.0000 0.0000 33.9037 0.0000 10.9479
# 5 27.3180 24.6341 29.9774 0.0000 63.5960 0.0000
# 6 0.0000 0.0000 0.0000 10.9479 0.0000 59.9223
#
#
#
# Elastic Compliance Matrix: (Units=1/GPa)
#
#
# Indices 1 2 3 4 5 6 
#
# 1 0.008856 -0.002264 -0.003699 0.000000 -0.001183 0.000000
# 2 -0.002264 0.005882 -0.001773 0.000000 -0.000470 0.000000
# 3 -0.003699 -0.001773 0.012614 0.000000 -0.003670 0.000000
# 4 0.000000 0.000000 0.000000 0.031345 0.000000 -0.005727
# 5 -0.001183 -0.000470 -0.003670 0.000000 0.018145 0.000000
# 6 0.000000 0.000000 0.000000 -0.005727 0.000000 0.017735
#
#
# Mechanical properties :
#
#
# Convention : Reuss Voigt Hill
#
# Bulk Modulus (GPa) = 84.17706 106.11203 95.14455
# Shear Modulus (GPa) = 43.85718 50.73881 47.29799
#
# Velocity S-wave (km/s) = 4.04640 4.35229 4.20213
# Velocity P-wave (km/s) = 7.29775 8.05430 7.68534
#
# Compressibility (1/GPa) = 0.01187972
#
# Stress axis : x y z
#
# Youngs Moduli (GPa) = 112.92293 170.02053 79.27735
#
# Poissons Ratio (x) = 0.38495 0.29322
# Poissons Ratio (y) = 0.25567 0.14055
# Poissons Ratio (z) = 0.41766 0.30143
#
# Static dielectric constant tensor:
#      x y z
#    x 3.259830 0.000000 4.564460 
#    y 0.000000 -1.023830 0.000000 
#    z 4.564460 0.000000 25.415960 
# 
# From -- ./inp_files/25264.got.cif
#   From: 2010.05.17/outbox.cif.g08.bks.cpg/sg13_13_cif.got.tgz:25264.got - 2010.06.03 16:44:36.
