data_PCOD9238055
_publ_section_title
;
Structure prediction by ZEFSAII (Michael W. Deem and Ramdas Pophale) SiO2 
 PCOD9238055
Probable space group: P 2/C
;
_chemical_formula_sum "Si O2"
_cell_formula_units_Z 16
_cell_length_a 9.147660
_cell_length_b 7.739721
_cell_length_c 18.535277
_cell_angle_alpha 90.000000
_cell_angle_beta 29.387294
_cell_angle_gamma 90.000000
_cell_volume 643.961327
_symmetry_space_group_name_H-M "P 2/C"
_symmetry_group_IT_number 13
_symmetry_cell_setting 'monoclinic'
loop_
_space_group_symop_operation_xyz
x,y,z
-x,y,1/2-z
-x,-y,-z
x,-y,1/2+z
loop_
_atom_site_type_symbol
_atom_site_label
_atom_site_fract_x
_atom_site_fract_y
_atom_site_fract_z
Si Si1 0.190648 0.446697 0.351311
Si Si2 0.208332 0.033751 0.342304
Si Si3 0.777884 0.382236 0.910008
Si Si4 0.677440 0.897354 0.861164
O O1 0.500000 0.513829 0.250000
O O2 0.212064 0.241190 0.333092
O O3 0.000000 0.500000 0.500000
O O4 0.015700 0.520945 0.358146
O O5 0.500000 0.952843 0.250000
O O6 0.224547 0.988023 0.250264
O O7 0.000000 0.000000 0.500000
O O8 0.000000 0.318715 0.750000
O O9 0.500000 0.500000 0.000000
O O10 0.583989 0.244305 0.040565
O O11 0.000000 0.827144 0.750000
O O12 0.500000 0.000000 0.000000
#
# Coordination Sequence:
#
# PCOD9238055 Si02
#       4
#     4   4   4   4
#     4  11  24  43  68 101 142 186 239 297 363 440
#     4  11  24  44  69 101 140 185 237 296 358 434
#     4  12  24  43  72 107 148 196 246 308 377 447
#     4  12  26  46  72 107 146 189 243 305 373 449
#
# _framework density 24.846212000000001
#
# number of rings (size 3 to 8) (size 9 to 14) (size 15 to 20)
#    0.000    0.500    0.000   10.500    0.000    3.000 
#    0.000    0.000    0.000    0.000    0.000    0.000 
#    0.000    0.000    0.000    0.000    0.000    0.000 
#
# Total GULP energy -89097.211441 kJ/mol
# GULP energy per Si atom -5568.575715 kJ/mol
# Density = 2.478966 g / cm^3
# Si number density = 24.846212 Si / 1000 Ang^3
#
#
#
# Elastic Constant Matrix: (Units=GPa)
#
#
# Indices 1 2 3 4 5 6 
#
# 1 186.9164 37.3761 80.5585 0.0000 1.0341 0.0000
# 2 37.3761 58.6879 22.3036 0.0000 5.8009 0.0000
# 3 80.5585 22.3036 281.8961 0.0000 8.7302 0.0000
# 4 0.0000 0.0000 0.0000 25.2789 0.0000 16.0365
# 5 1.0341 5.8009 8.7302 0.0000 73.8477 0.0000
# 6 0.0000 0.0000 0.0000 16.0365 0.0000 22.1185
#
#
#
# Elastic Compliance Matrix: (Units=1/GPa)
#
#
# Indices 1 2 3 4 5 6 
#
# 1 0.006814 -0.003746 -0.001663 0.000000 0.000395 0.000000
# 2 -0.003746 0.019738 -0.000446 0.000000 -0.001445 0.000000
# 3 -0.001663 -0.000446 0.004071 0.000000 -0.000423 0.000000
# 4 0.000000 0.000000 0.000000 0.073250 0.000000 -0.053108
# 5 0.000395 -0.001445 -0.000423 0.000000 0.013699 0.000000
# 6 0.000000 0.000000 0.000000 -0.053108 0.000000 0.083716
#
#
# Mechanical properties :
#
#
# Convention : Reuss Voigt Hill
#
# Bulk Modulus (GPa) = 52.87918 89.77519 71.32719
# Shear Modulus (GPa) = 22.79953 50.06650 36.43301
#
# Velocity S-wave (km/s) = 3.03252 4.49381 3.83344
# Velocity P-wave (km/s) = 5.79572 7.94585 6.95438
#
# Compressibility (1/GPa) = 0.01891103
#
# Stress axis : x y z
#
# Youngs Moduli (GPa) = 146.76365 50.66441 245.63671
#
# Poissons Ratio (x) = 0.18981 0.40849
# Poissons Ratio (y) = 0.54984 0.10961
# Poissons Ratio (z) = 0.24407 0.02261
#
# Static dielectric constant tensor:
#      x y z
#    x 1.856150 0.000000 -0.063340 
#    y 0.000000 2.019210 0.000000 
#    z -0.063340 0.000000 1.831420 
# 
# From -- ./inp_files/14698.got.cif
#   From: 2010.05.17/outbox.cif.g08.bks.cpg/sg13_8_cif.got.tgz:14698.got - 2010.06.03 16:44:36.
