data_PCOD9238061
_publ_section_title
;
Structure prediction by ZEFSAII (Michael W. Deem and Ramdas Pophale) SiO2 
 PCOD9238061
Probable space group: P 2/C
;
_chemical_formula_sum "Si O2"
_cell_formula_units_Z 26
_cell_length_a 18.716300
_cell_length_b 4.969569
_cell_length_c 20.402112
_cell_angle_alpha 90.000000
_cell_angle_beta 148.789239
_cell_angle_gamma 90.000000
_cell_volume 983.333667
_symmetry_space_group_name_H-M "P 2/C"
_symmetry_group_IT_number 13
_symmetry_cell_setting 'monoclinic'
loop_
_space_group_symop_operation_xyz
x,y,z
-x,y,1/2-z
-x,-y,-z
x,-y,1/2+z
loop_
_atom_site_type_symbol
_atom_site_label
_atom_site_fract_x
_atom_site_fract_y
_atom_site_fract_z
Si Si1 0.136468 0.397335 0.142791
Si Si2 0.500000 0.352157 0.250000
Si Si3 0.699904 0.824342 0.525242
Si Si4 0.141130 0.686307 0.396260
Si Si5 0.403604 0.027184 0.789668
Si Si6 0.758202 0.925966 0.211498
Si Si7 0.232869 0.443500 0.588855
O O1 0.118570 0.118559 0.165812
O O2 0.234404 0.374258 0.155382
O O3 0.202913 0.619859 0.242425
O O4 0.000000 0.500000 0.000000
O O5 0.637710 0.524421 0.358275
O O6 0.526621 0.178191 0.206306
O O7 0.787512 0.551114 0.590033
O O8 0.535940 0.767477 0.395632
O O9 0.725145 0.988012 0.612652
O O10 0.766189 0.042420 0.525843
O O11 0.115498 0.549006 0.447843
O O12 0.000000 0.763866 0.250000
O O13 0.267919 0.160392 0.649418
O O14 0.364902 0.989121 0.835355
#
# Coordination Sequence:
#
# PCOD9238061 Si02
#       7
#     4   2   4   4   4   4   4
#     4  11  25  46  70 102 140 189 239 288 352 429
#     4  12  18  42  66  96 142 164 242 288 352 410
#     4  12  26  47  73 101 149 188 235 296 361 427
#     4  12  28  48  70 107 144 194 238 288 360 428
#     4  11  24  43  69 106 137 182 237 296 357 419
#     4  11  25  45  70 106 137 187 234 294 358 425
#     4  11  25  42  73 102 140 186 236 301 351 419
#
# _framework density 26.440669
#
# number of rings (size 3 to 8) (size 9 to 14) (size 15 to 20)
#    0.000    0.615    3.077    4.615    4.308    0.000 
#    0.000    3.846    0.000    0.000    0.000    0.000 
#    0.000    0.000    0.000    0.000    0.000    0.000 
#
# Total GULP energy -145284.027113 kJ/mol
# GULP energy per Si atom -5587.847197 kJ/mol
# Density = 2.638049 g / cm^3
# Si number density = 26.440669 Si / 1000 Ang^3
#
#
#
# Elastic Constant Matrix: (Units=GPa)
#
#
# Indices 1 2 3 4 5 6 
#
# 1 83.9313 5.6205 -3.5326 0.0000 -19.0413 0.0000
# 2 5.6205 111.5018 -8.5409 0.0000 -7.3512 0.0000
# 3 -3.5326 -8.5409 78.9825 0.0000 -11.8020 0.0000
# 4 0.0000 0.0000 0.0000 34.0101 0.0000 -2.1935
# 5 -19.0413 -7.3512 -11.8020 0.0000 47.2513 0.0000
# 6 0.0000 0.0000 0.0000 -2.1935 0.0000 36.5739
#
#
#
# Elastic Compliance Matrix: (Units=1/GPa)
#
#
# Indices 1 2 3 4 5 6 
#
# 1 0.013274 -0.000186 0.001422 0.000000 0.005675 0.000000
# 2 -0.000186 0.009182 0.001233 0.000000 0.001661 0.000000
# 3 0.001422 0.001233 0.013475 0.000000 0.004130 0.000000
# 4 0.000000 0.000000 0.000000 0.029517 0.000000 0.001770
# 5 0.005675 0.001661 0.004130 0.000000 0.024741 0.000000
# 6 0.000000 0.000000 0.000000 0.001770 0.000000 0.027448
#
#
# Mechanical properties :
#
#
# Convention : Reuss Voigt Hill
#
# Bulk Modulus (GPa) = 24.46893 29.05662 26.76277
# Shear Modulus (GPa) = 39.58105 42.29164 40.93634
#
# Velocity S-wave (km/s) = 3.87327 4.00370 3.93903
# Velocity P-wave (km/s) = 5.41086 5.69088 5.55263
#
# Compressibility (1/GPa) = 0.04086816
#
# Stress axis : x y z
#
# Youngs Moduli (GPa) = 75.33317 108.91093 74.21087
#
# Poissons Ratio (x) = 0.02026 -0.10550
# Poissons Ratio (y) = 0.01402 -0.09149
# Poissons Ratio (z) = -0.10710 -0.13427
#
# Static dielectric constant tensor:
#      x y z
#    x 2.197310 0.000000 0.097400 
#    y 0.000000 2.177660 0.000000 
#    z 0.097400 0.000000 2.297000 
# 
# From -- ./inp_files/81430.got.cif
#   From: 2010.05.17/outbox.cif.g08.bks.cpg/sg13_41_cif.got.tgz:81430.got - 2010.06.03 16:44:36.
