data_PCOD9238020
_publ_section_title
;
Structure prediction by ZEFSAII (Michael W. Deem and Ramdas Pophale) SiO2 
 PCOD9238020
Probable space group: P 2/C
;
_chemical_formula_sum "Si O2"
_cell_formula_units_Z 20
_cell_length_a 16.353388
_cell_length_b 6.184983
_cell_length_c 8.049828
_cell_angle_alpha 90.000000
_cell_angle_beta 61.731817
_cell_angle_gamma 90.000000
_cell_volume 717.101799
_symmetry_space_group_name_H-M "P 2/C"
_symmetry_group_IT_number 13
_symmetry_cell_setting 'monoclinic'
loop_
_space_group_symop_operation_xyz
x,y,z
-x,y,1/2-z
-x,-y,-z
x,-y,1/2+z
loop_
_atom_site_type_symbol
_atom_site_label
_atom_site_fract_x
_atom_site_fract_y
_atom_site_fract_z
Si Si1 0.073857 0.793201 0.420698
Si Si2 0.563680 0.165569 0.538750
Si Si3 0.729056 0.838540 0.378696
Si Si4 0.887339 0.309642 0.228646
Si Si5 0.700884 0.558986 0.726129
O O1 0.163460 0.905653 0.244413
O O2 0.078866 0.560421 0.320452
O O3 0.101777 0.754797 0.588406
O O4 0.961281 0.824962 0.543212
O O5 0.500000 0.242591 0.750000
O O6 0.654519 0.019924 0.490503
O O7 0.500000 0.000000 0.500000
O O8 0.604078 0.358255 0.390825
O O9 0.715533 0.657016 0.531722
O O10 0.706319 0.698741 0.235972
O O11 0.786460 0.334479 0.244678
#
# Coordination Sequence:
#
# PCOD9238020 Si02
#       5
#     4   4   4   4   4
#     4   9  17  31  56  90 127 164 204 246 303 367
#     4  12  28  48  65  91 124 164 212 266 319 370
#     4  11  24  41  67  97 125 167 208 255 315 373
#     4   9  17  31  56  90 127 165 201 250 301 364
#     4  11  24  41  67  96 127 165 208 258 311 375
#
# _framework density 27.890044
#
# number of rings (size 3 to 8) (size 9 to 14) (size 15 to 20)
#    0.000    1.600    2.000    4.800    5.600    4.000 
#    0.000    1.000    0.000    0.000    0.000    0.000 
#    0.000    0.000    0.000    0.000    0.000    0.000 
#
# Total GULP energy -112047.904194 kJ/mol
# GULP energy per Si atom -5602.395210 kJ/mol
# Density = 2.782656 g / cm^3
# Si number density = 27.890044 Si / 1000 Ang^3
#
#
#
# Elastic Constant Matrix: (Units=GPa)
#
#
# Indices 1 2 3 4 5 6 
#
# 1 117.5814 37.8182 59.9502 0.0000 -20.3030 0.0000
# 2 37.8182 30.7530 42.6707 0.0000 -22.0102 0.0000
# 3 59.9502 42.6707 207.9770 0.0000 -51.2523 0.0000
# 4 0.0000 0.0000 0.0000 65.4620 0.0000 -5.3472
# 5 -20.3030 -22.0102 -51.2523 0.0000 67.1666 0.0000
# 6 0.0000 0.0000 0.0000 -5.3472 0.0000 -88.1032
#
#
#
# Elastic Compliance Matrix: (Units=1/GPa)
#
#
# Indices 1 2 3 4 5 6 
#
# 1 0.014400 -0.017914 -0.001046 0.000000 -0.002316 0.000000
# 2 -0.017914 0.073371 -0.006526 0.000000 0.013648 0.000000
# 3 -0.001046 -0.006526 0.007197 0.000000 0.003037 0.000000
# 4 0.000000 0.000000 0.000000 0.015201 0.000000 -0.000923
# 5 -0.002316 0.013648 0.003037 0.000000 0.020978 0.000000
# 6 0.000000 0.000000 0.000000 -0.000923 0.000000 -0.011294
#
#
# Mechanical properties :
#
#
# Convention : Reuss Voigt Hill
#
# Bulk Modulus (GPa) = 22.73007 70.79884 46.76446
# Shear Modulus (GPa) = 26.95553 23.29656 25.12604
#
# Velocity S-wave (km/s) = 3.11222 2.89329 3.00475
# Velocity P-wave (km/s) = 4.59153 6.04993 5.37046
#
# Compressibility (1/GPa) = 0.04399458
#
# Stress axis : x y z
#
# Youngs Moduli (GPa) = 69.44405 13.62943 138.94315
#
# Poissons Ratio (x) = 0.24416 0.14535
# Poissons Ratio (y) = 1.24404 0.90677
# Poissons Ratio (z) = 0.07265 0.08895
#
# Static dielectric constant tensor:
#      x y z
#    x 2.219030 0.000000 0.062710 
#    y 0.000000 2.469650 0.000000 
#    z 0.062710 0.000000 2.151300 
# 
# From -- ./inp_files/21035.got.cif
#   From: 2010.05.17/outbox.cif.g08.bks.cpg/sg13_11_cif.got.tgz:21035.got - 2010.06.03 16:44:36.
