data_PCOD9238375
_publ_section_title
;
Structure prediction by ZEFSAII (Michael W. Deem and Ramdas Pophale) SiO2 
 PCOD9238375
Probable space group: P 2/C
;
_chemical_formula_sum "Si O2"
_cell_formula_units_Z 16
_cell_length_a 15.138577
_cell_length_b 4.821437
_cell_length_c 8.594684
_cell_angle_alpha 90.000000
_cell_angle_beta 66.431412
_cell_angle_gamma 90.000000
_cell_volume 574.993356
_symmetry_space_group_name_H-M "P 2/C"
_symmetry_group_IT_number 13
_symmetry_cell_setting 'monoclinic'
loop_
_space_group_symop_operation_xyz
x,y,z
-x,y,1/2-z
-x,-y,-z
x,-y,1/2+z
loop_
_atom_site_type_symbol
_atom_site_label
_atom_site_fract_x
_atom_site_fract_y
_atom_site_fract_z
Si Si1 0.930277 0.641910 0.173203
Si Si2 0.670349 0.262451 0.057570
Si Si3 0.193539 0.753892 0.514356
Si Si4 0.500000 0.500000 0.500000
Si Si5 0.500000 0.953260 0.250000
O O1 0.863526 0.818293 0.104824
O O2 0.871525 0.405860 0.310631
O O3 0.000000 0.790622 0.250000
O O4 0.000000 0.500000 0.000000
O O5 0.728449 0.519703 0.080973
O O6 0.603726 0.335456 0.958694
O O7 0.748296 0.023198 0.974076
O O8 0.585539 0.164380 0.236047
O O9 0.466184 0.746054 0.404564
#
# Coordination Sequence:
#
# PCOD9238375 Si02
#       5
#     4   4   4   2   2
#     4   9  22  51  77 111 155 199 254 337 426 473
#     4  12  28  45  76 115 157 206 274 314 397 452
#     4  11  26  44  78 114 150 204 269 329 380 506
#     4  12  28  52  76 110 166 216 262 332 398 466
#     4  12  28  50  76 112 164 216 262 334 394 468
#
# _framework density 27.826405000000001
#
# number of rings (size 3 to 8) (size 9 to 14) (size 15 to 20)
#    0.000    1.000    2.500    1.500    7.000    0.000 
#    0.000   25.000    0.000    0.000    0.000    0.000 
#    0.000    0.000    0.000    0.000    0.000    0.000 
#
# Total GULP energy -89308.161400 kJ/mol
# GULP energy per Si atom -5581.760088 kJ/mol
# Density = 2.776307 g / cm^3
# Si number density = 27.826405 Si / 1000 Ang^3
#
#
#
# Elastic Constant Matrix: (Units=GPa)
#
#
# Indices 1 2 3 4 5 6 
#
# 1 207.5925 55.8985 55.4157 0.0000 18.0676 0.0000
# 2 55.8985 141.7354 28.5317 0.0000 5.2078 0.0000
# 3 55.4157 28.5317 158.9600 0.0000 -8.8610 0.0000
# 4 0.0000 0.0000 0.0000 39.2576 0.0000 3.1164
# 5 18.0676 5.2078 -8.8610 0.0000 37.2081 0.0000
# 6 0.0000 0.0000 0.0000 3.1164 0.0000 43.9728
#
#
#
# Elastic Compliance Matrix: (Units=1/GPa)
#
#
# Indices 1 2 3 4 5 6 
#
# 1 0.006134 -0.001905 -0.001974 0.000000 -0.003182 0.000000
# 2 -0.001905 0.007980 -0.000789 0.000000 -0.000380 0.000000
# 3 -0.001974 -0.000789 0.007277 0.000000 0.002802 0.000000
# 4 0.000000 0.000000 0.000000 0.025617 0.000000 -0.001815
# 5 -0.003182 -0.000380 0.002802 0.000000 0.029141 0.000000
# 6 0.000000 0.000000 0.000000 -0.001815 0.000000 0.022870
#
#
# Mechanical properties :
#
#
# Convention : Reuss Voigt Hill
#
# Bulk Modulus (GPa) = 82.95889 87.55332 85.25610
# Shear Modulus (GPa) = 44.49480 48.65051 46.57266
#
# Velocity S-wave (km/s) = 4.00310 4.18587 4.09551
# Velocity P-wave (km/s) = 7.15851 7.40908 7.28487
#
# Compressibility (1/GPa) = 0.01205416
#
# Stress axis : x y z
#
# Youngs Moduli (GPa) = 163.02849 125.32093 137.42187
#
# Poissons Ratio (x) = 0.23872 0.27125
# Poissons Ratio (y) = 0.31055 0.10847
# Poissons Ratio (z) = 0.32179 0.09892
#
# Static dielectric constant tensor:
#      x y z
#    x 2.173360 0.000000 -0.072050 
#    y 0.000000 2.081490 0.000000 
#    z -0.072050 0.000000 2.062210 
# 
# From -- ./inp_files/17616.got.cif
#   From: 2010.05.17/outbox.cif.g08.bks.cpg/sg13_9_cif.got.tgz:17616.got - 2010.06.03 16:44:36.
