data_PCOD9238610
_publ_section_title
;
Structure prediction by ZEFSAII (Michael W. Deem and Ramdas Pophale) SiO2 
 PCOD9238610
Probable space group: P 2/C
;
_chemical_formula_sum "Si O2"
_cell_formula_units_Z 16
_cell_length_a 15.746297
_cell_length_b 4.426008
_cell_length_c 8.607266
_cell_angle_alpha 90.000000
_cell_angle_beta 108.149750
_cell_angle_gamma 90.000000
_cell_volume 570.022149
_symmetry_space_group_name_H-M "P 2/C"
_symmetry_group_IT_number 13
_symmetry_cell_setting 'monoclinic'
loop_
_space_group_symop_operation_xyz
x,y,z
-x,y,1/2-z
-x,-y,-z
x,-y,1/2+z
loop_
_atom_site_type_symbol
_atom_site_label
_atom_site_fract_x
_atom_site_fract_y
_atom_site_fract_z
Si Si1 0.192977 0.327641 0.711792
Si Si2 0.689431 0.247710 0.996533
Si Si3 0.063586 0.826135 0.652833
Si Si4 0.441633 0.720065 0.579335
O O1 0.244681 0.157327 0.603731
O O2 0.120237 0.562631 0.606294
O O3 0.135055 0.068499 0.761972
O O4 0.257009 0.539325 0.852494
O O5 0.622908 0.481855 0.875776
O O6 0.625330 0.980133 0.024034
O O7 0.000000 0.698653 0.750000
O O8 0.000000 0.000000 0.500000
O O9 0.500000 0.862969 0.750000
O O10 0.500000 0.500000 0.500000
#
# Coordination Sequence:
#
# PCOD9238610 Si02
#       4
#     4   4   4   4
#     4  12  25  45  71 105 147 194 246 306 369 440
#     4  12  26  47  72 107 147 193 246 306 372 449
#     4  12  24  43  69 103 144 194 247 304 364 436
#     4  12  27  49  75 107 145 191 245 308 378 453
#
# _framework density 28.069082999999999
#
# number of rings (size 3 to 8) (size 9 to 14) (size 15 to 20)
#    0.000    0.000    0.000   10.500    0.000    4.000 
#    0.000    0.000    0.000    0.000    0.000    0.000 
#    0.000    0.000    0.000    0.000    0.000    0.000 
#
# Total GULP energy -89598.044598 kJ/mol
# GULP energy per Si atom -5599.877787 kJ/mol
# Density = 2.800520 g / cm^3
# Si number density = 28.069083 Si / 1000 Ang^3
#
#
#
# Elastic Constant Matrix: (Units=GPa)
#
#
# Indices 1 2 3 4 5 6 
#
# 1 151.3357 73.2346 66.6193 0.0000 -8.6063 0.0000
# 2 73.2346 152.4078 24.5239 0.0000 17.4825 0.0000
# 3 66.6193 24.5239 101.6728 0.0000 17.6667 0.0000
# 4 0.0000 0.0000 0.0000 44.3683 0.0000 24.6983
# 5 -8.6063 17.4825 17.6667 0.0000 48.3893 0.0000
# 6 0.0000 0.0000 0.0000 24.6983 0.0000 74.0946
#
#
#
# Elastic Compliance Matrix: (Units=1/GPa)
#
#
# Indices 1 2 3 4 5 6 
#
# 1 0.014120 -0.006242 -0.009155 0.000000 0.008109 0.000000
# 2 -0.006242 0.009770 0.002711 0.000000 -0.005630 0.000000
# 3 -0.009155 0.002711 0.016692 0.000000 -0.008702 0.000000
# 4 0.000000 0.000000 0.000000 0.027674 0.000000 -0.009225
# 5 0.008109 -0.005630 -0.008702 0.000000 0.027319 0.000000
# 6 0.000000 0.000000 0.000000 -0.009225 0.000000 0.016571
#
#
# Mechanical properties :
#
#
# Convention : Reuss Voigt Hill
#
# Bulk Modulus (GPa) = 65.74088 81.57466 73.65777
# Shear Modulus (GPa) = 35.06633 49.43968 42.25301
#
# Velocity S-wave (km/s) = 3.53836 4.20141 3.88406
# Velocity P-wave (km/s) = 6.33761 7.25679 6.81272
#
# Compressibility (1/GPa) = 0.01521124
#
# Stress axis : x y z
#
# Youngs Moduli (GPa) = 70.82342 102.35310 59.90799
#
# Poissons Ratio (x) = 0.63886 0.54846
# Poissons Ratio (y) = 0.44206 -0.16244
# Poissons Ratio (z) = 0.64840 -0.27752
#
# Static dielectric constant tensor:
#      x y z
#    x 2.253010 0.000000 0.077940 
#    y 0.000000 2.145150 0.000000 
#    z 0.077940 0.000000 2.083540 
# 
# From -- ./inp_files/17447.got.cif
#   From: 2010.05.17/outbox.cif.g08.bks.cpg/sg13_9_cif.got.tgz:17447.got - 2010.06.03 16:44:36.
