data_PCOD9238567
_publ_section_title
;
Structure prediction by ZEFSAII (Michael W. Deem and Ramdas Pophale) SiO2 
 PCOD9238567
Probable space group: P 2/C
;
_chemical_formula_sum "Si O2"
_cell_formula_units_Z 18
_cell_length_a 10.245443
_cell_length_b 7.289264
_cell_length_c 21.985438
_cell_angle_alpha 90.000000
_cell_angle_beta 147.450522
_cell_angle_gamma 90.000000
_cell_volume 883.393494
_symmetry_space_group_name_H-M "P 2/C"
_symmetry_group_IT_number 13
_symmetry_cell_setting 'monoclinic'
loop_
_space_group_symop_operation_xyz
x,y,z
-x,y,1/2-z
-x,-y,-z
x,-y,1/2+z
loop_
_atom_site_type_symbol
_atom_site_label
_atom_site_fract_x
_atom_site_fract_y
_atom_site_fract_z
Si Si1 0.901565 0.684249 0.108125
Si Si2 0.745375 0.836141 0.164407
Si Si3 0.705192 0.000044 0.448257
Si Si4 0.500000 0.799459 0.750000
Si Si5 0.001663 0.626626 0.940814
O O1 0.718384 0.718927 0.092356
O O2 0.163339 0.710541 0.243607
O O3 0.881204 0.492355 0.066843
O O4 0.863847 0.845344 0.044224
O O5 0.516688 0.950261 0.094103
O O6 0.000000 0.945466 0.250000
O O7 0.856105 0.816374 0.495007
O O8 0.597050 0.079706 0.343768
O O9 0.724932 0.676738 0.816929
O O10 0.000000 0.500000 0.000000
#
# Coordination Sequence:
#
# PCOD9238567 Si02
#       5
#     4   4   4   2   4
#     4   9  22  45  63 100 128 175 224 270 340 388
#     4   8  22  40  71  94 133 176 220 277 333 401
#     4  12  23  44  68  97 137 175 228 276 332 402
#     4  12  28  42  70 100 136 190 216 280 342 390
#     4  12  27  42  67  97 136 176 226 276 332 402
#
# _framework density 20.375972000000001
#
# number of rings (size 3 to 8) (size 9 to 14) (size 15 to 20)
#    1.333    0.000    2.222    2.667    6.222    0.889 
#    0.000    8.889    0.000    0.000    0.000    0.000 
#    0.000    0.000    0.000    0.000    0.000    0.000 
#
# Total GULP energy -100404.297057 kJ/mol
# GULP energy per Si atom -5578.016503 kJ/mol
# Density = 2.032960 g / cm^3
# Si number density = 20.375972 Si / 1000 Ang^3
#
#
#
# Elastic Constant Matrix: (Units=GPa)
#
#
# Indices 1 2 3 4 5 6 
#
# 1 103.8490 46.3670 41.8253 0.0000 -10.2247 0.0000
# 2 46.3670 111.2262 54.7291 0.0000 -22.5106 0.0000
# 3 41.8253 54.7291 82.4778 0.0000 -30.0346 0.0000
# 4 0.0000 0.0000 0.0000 29.7090 0.0000 -3.5355
# 5 -10.2247 -22.5106 -30.0346 0.0000 47.5530 0.0000
# 6 0.0000 0.0000 0.0000 -3.5355 0.0000 36.7494
#
#
#
# Elastic Compliance Matrix: (Units=1/GPa)
#
#
# Indices 1 2 3 4 5 6 
#
# 1 0.012963 -0.003290 -0.005120 0.000000 -0.002004 0.000000
# 2 -0.003290 0.014217 -0.007237 0.000000 0.001452 0.000000
# 3 -0.005120 -0.007237 0.023214 0.000000 0.010135 0.000000
# 4 0.000000 0.000000 0.000000 0.034050 0.000000 0.003276
# 5 -0.002004 0.001452 0.010135 0.000000 0.027687 0.000000
# 6 0.000000 0.000000 0.000000 0.003276 0.000000 0.027526
#
#
# Mechanical properties :
#
#
# Convention : Reuss Voigt Hill
#
# Bulk Modulus (GPa) = 52.35710 64.82178 58.58944
# Shear Modulus (GPa) = 28.19792 33.11105 30.65449
#
# Velocity S-wave (km/s) = 3.72409 4.03551 3.88292
# Velocity P-wave (km/s) = 6.65155 7.32091 6.99424
#
# Compressibility (1/GPa) = 0.01909961
#
# Stress axis : x y z
#
# Youngs Moduli (GPa) = 77.14088 70.33895 43.07776
#
# Poissons Ratio (x) = 0.23142 0.22058
# Poissons Ratio (y) = 0.25380 0.31174
# Poissons Ratio (z) = 0.39500 0.50902
#
# Static dielectric constant tensor:
#      x y z
#    x 1.749030 0.000000 -0.002210 
#    y 0.000000 1.692740 0.000000 
#    z -0.002210 0.000000 1.731490 
# 
# From -- ./inp_files/41166.got.cif
#   From: 2010.05.17/outbox.cif.g08.bks.cpg/sg13_21_cif.got.tgz:41166.got - 2010.06.03 16:44:36.
