data_PCOD9238183
_publ_section_title
;
Structure prediction by ZEFSAII (Michael W. Deem and Ramdas Pophale) SiO2 
 PCOD9238183
Probable space group: P 2/C
;
_chemical_formula_sum "Si O2"
_cell_formula_units_Z 20
_cell_length_a 4.972065
_cell_length_b 7.586038
_cell_length_c 21.121986
_cell_angle_alpha 90.000000
_cell_angle_beta 73.255672
_cell_angle_gamma 90.000000
_cell_volume 762.905327
_symmetry_space_group_name_H-M "P 2/C"
_symmetry_group_IT_number 13
_symmetry_cell_setting 'monoclinic'
loop_
_space_group_symop_operation_xyz
x,y,z
-x,y,1/2-z
-x,-y,-z
x,-y,1/2+z
loop_
_atom_site_type_symbol
_atom_site_label
_atom_site_fract_x
_atom_site_fract_y
_atom_site_fract_z
Si Si1 0.343356 0.123011 0.323586
Si Si2 0.938481 0.213981 0.681533
Si Si3 0.049895 0.576887 0.629029
Si Si4 0.640314 0.542189 0.058327
Si Si5 0.483329 0.932282 0.072950
O O1 0.500000 0.188922 0.250000
O O2 0.055297 0.232820 0.343106
O O3 0.314316 0.913546 0.316648
O O4 0.449946 0.103648 0.388440
O O5 0.888383 0.419628 0.676010
O O6 0.000000 0.176903 0.750000
O O7 0.187602 0.146906 0.618196
O O8 0.919620 0.549959 0.566926
O O9 0.373711 0.528024 0.618190
O O10 0.673624 0.753850 0.061456
O O11 0.500000 0.500000 0.000000
O O12 0.500000 0.000000 0.000000
#
# Coordination Sequence:
#
# PCOD9238183 Si02
#       5
#     4   4   4   4   4
#     4  12  26  45  76 107 146 196 255 311 377 449
#     4  11  25  48  73 104 150 197 249 315 378 449
#     4  11  27  45  73 108 147 191 252 308 372 451
#     4  11  24  47  71 107 152 197 242 307 377 450
#     4  11  25  45  73 106 149 195 246 311 375 447
#
# _framework density 26.215571000000001
#
# number of rings (size 3 to 8) (size 9 to 14) (size 15 to 20)
#    0.000    0.800    4.000    1.800    5.600    7.200 
#    0.000    0.000    0.000    0.000    0.000    0.000 
#    0.000    0.000    0.000    0.000    0.000    0.000 
#
# Total GULP energy -111672.145293 kJ/mol
# GULP energy per Si atom -5583.607265 kJ/mol
# Density = 2.615590 g / cm^3
# Si number density = 26.215571 Si / 1000 Ang^3
#
#
#
# Elastic Constant Matrix: (Units=GPa)
#
#
# Indices 1 2 3 4 5 6 
#
# 1 90.2736 6.1978 12.2707 0.0000 2.5819 0.0000
# 2 6.1978 137.7141 5.6056 0.0000 -3.2417 0.0000
# 3 12.2707 5.6056 155.7636 0.0000 6.4829 0.0000
# 4 0.0000 0.0000 0.0000 31.8553 0.0000 1.2060
# 5 2.5819 -3.2417 6.4829 0.0000 25.5864 0.0000
# 6 0.0000 0.0000 0.0000 1.2060 0.0000 45.7241
#
#
#
# Elastic Compliance Matrix: (Units=1/GPa)
#
#
# Indices 1 2 3 4 5 6 
#
# 1 0.011252 -0.000496 -0.000827 0.000000 -0.000989 0.000000
# 2 -0.000496 0.007319 -0.000268 0.000000 0.001045 0.000000
# 3 -0.000827 -0.000268 0.006562 0.000000 -0.001613 0.000000
# 4 0.000000 0.000000 0.000000 0.031423 0.000000 -0.000829
# 5 -0.000989 0.001045 -0.001613 0.000000 0.039724 0.000000
# 6 0.000000 0.000000 0.000000 -0.000829 0.000000 0.021892
#
#
# Mechanical properties :
#
#
# Convention : Reuss Voigt Hill
#
# Bulk Modulus (GPa) = 45.55619 47.98882 46.77250
# Shear Modulus (GPa) = 38.85834 44.61164 41.73499
#
# Velocity S-wave (km/s) = 3.85419 4.12967 3.99431
# Velocity P-wave (km/s) = 6.10095 6.40969 6.25723
#
# Compressibility (1/GPa) = 0.02195091
#
# Stress axis : x y z
#
# Youngs Moduli (GPa) = 88.87121 136.62601 152.39388
#
# Poissons Ratio (x) = 0.06777 0.12609
# Poissons Ratio (y) = 0.04408 0.04082
# Poissons Ratio (z) = 0.07353 0.03659
#
# Static dielectric constant tensor:
#      x y z
#    x 2.169610 0.000000 0.120650 
#    y 0.000000 2.047420 0.000000 
#    z 0.120650 0.000000 2.413700 
# 
# From -- ./inp_files/60587.got.cif
#   From: 2010.05.17/outbox.cif.g08.bks.cpg/sg13_31_cif.got.tgz:60587.got - 2010.06.03 16:44:36.
