data_PCOD9238138
_publ_section_title
;
Structure prediction by ZEFSAII (Michael W. Deem and Ramdas Pophale) SiO2 
 PCOD9238138
Probable space group: P 2/C
;
_chemical_formula_sum "Si O2"
_cell_formula_units_Z 14
_cell_length_a 5.061043
_cell_length_b 10.414486
_cell_length_c 11.241217
_cell_angle_alpha 90.000000
_cell_angle_beta 102.514462
_cell_angle_gamma 90.000000
_cell_volume 578.426785
_symmetry_space_group_name_H-M "P 2/C"
_symmetry_group_IT_number 13
_symmetry_cell_setting 'monoclinic'
loop_
_space_group_symop_operation_xyz
x,y,z
-x,y,1/2-z
-x,-y,-z
x,-y,1/2+z
loop_
_atom_site_type_symbol
_atom_site_label
_atom_site_fract_x
_atom_site_fract_y
_atom_site_fract_z
Si Si1 0.362086 0.502330 0.359285
Si Si2 0.000000 0.287381 0.250000
Si Si3 0.519462 0.214400 0.877721
Si Si4 0.090660 0.146460 0.023999
O O1 0.500000 0.455810 0.250000
O O2 0.500000 0.500000 0.500000
O O3 0.135795 0.395160 0.348250
O O4 0.344932 0.654717 0.337152
O O5 0.868700 0.194408 0.336529
O O6 0.500000 0.140682 0.750000
O O7 0.836539 0.224705 0.940869
O O8 0.365592 0.159225 0.976333
O O9 0.000000 0.000000 0.000000
#
# Coordination Sequence:
#
# PCOD9238138 Si02
#       4
#     4   2   4   4
#     4  11  24  45  73 111 155 196 256 326 390 456
#     4  12  28  44  80 110 160 196 264 320 398 454
#     4  11  26  47  76 107 150 200 255 315 389 454
#     4  12  28  50  74 111 155 206 258 310 382 466
#
# _framework density 24.203582000000001
#
# number of rings (size 3 to 8) (size 9 to 14) (size 15 to 20)
#    0.000    0.571    2.857    3.429   12.000    2.286 
#    0.000    0.000    0.000    0.000    0.000    0.000 
#    0.000    0.000    0.000    0.000    0.000    0.000 
#
# Total GULP energy -77934.035550 kJ/mol
# GULP energy per Si atom -5566.716825 kJ/mol
# Density = 2.414849 g / cm^3
# Si number density = 24.203582 Si / 1000 Ang^3
#
#
#
# Elastic Constant Matrix: (Units=GPa)
#
#
# Indices 1 2 3 4 5 6 
#
# 1 80.0297 -5.4423 34.2833 0.0000 -10.3103 0.0000
# 2 -5.4423 112.7646 5.5580 0.0000 0.0723 0.0000
# 3 34.2833 5.5580 182.6284 0.0000 -4.8428 0.0000
# 4 0.0000 0.0000 0.0000 5.2469 0.0000 -2.6676
# 5 -10.3103 0.0723 -4.8428 0.0000 41.7593 0.0000
# 6 0.0000 0.0000 0.0000 -2.6676 0.0000 14.3617
#
#
#
# Elastic Compliance Matrix: (Units=1/GPa)
#
#
# Indices 1 2 3 4 5 6 
#
# 1 0.014064 0.000804 -0.002580 0.000000 0.003172 0.000000
# 2 0.000804 0.008927 -0.000419 0.000000 0.000134 0.000000
# 3 -0.002580 -0.000419 0.005974 0.000000 0.000056 0.000000
# 4 0.000000 0.000000 0.000000 0.210462 0.000000 0.039092
# 5 0.003172 0.000134 0.000056 0.000000 0.024736 0.000000
# 6 0.000000 0.000000 0.000000 0.039092 0.000000 0.076891
#
#
# Mechanical properties :
#
#
# Convention : Reuss Voigt Hill
#
# Bulk Modulus (GPa) = 40.69252 49.35784 45.02518
# Shear Modulus (GPa) = 14.13876 35.00851 24.57363
#
# Velocity S-wave (km/s) = 2.41956 3.80731 3.18982
# Velocity P-wave (km/s) = 4.96536 6.30591 5.67536
#
# Compressibility (1/GPa) = 0.02457454
#
# Stress axis : x y z
#
# Youngs Moduli (GPa) = 71.10305 112.01476 167.38468
#
# Poissons Ratio (x) = -0.09005 0.43194
# Poissons Ratio (y) = -0.05716 0.07014
# Poissons Ratio (z) = 0.18348 0.04694
#
# Static dielectric constant tensor:
#      x y z
#    x 2.025410 0.000000 -0.013420 
#    y 0.000000 2.370090 0.000000 
#    z -0.013420 0.000000 1.864490 
# 
# From -- ./inp_files/25307.got.cif
#   From: 2010.05.17/outbox.cif.g08.bks.cpg/sg13_13_cif.got.tgz:25307.got - 2010.06.03 16:44:36.
