data_PCOD9238037
_publ_section_title
;
Structure prediction by ZEFSAII (Michael W. Deem and Ramdas Pophale) SiO2 
 PCOD9238037
Probable space group: P 2/C
;
_chemical_formula_sum "Si O2"
_cell_formula_units_Z 30
_cell_length_a 13.918307
_cell_length_b 9.448508
_cell_length_c 10.985602
_cell_angle_alpha 90.000000
_cell_angle_beta 70.154920
_cell_angle_gamma 90.000000
_cell_volume 1358.891956
_symmetry_space_group_name_H-M "P 2/C"
_symmetry_group_IT_number 13
_symmetry_cell_setting 'monoclinic'
loop_
_space_group_symop_operation_xyz
x,y,z
-x,y,1/2-z
-x,-y,-z
x,-y,1/2+z
loop_
_atom_site_type_symbol
_atom_site_label
_atom_site_fract_x
_atom_site_fract_y
_atom_site_fract_z
Si Si1 0.944616 0.154306 0.391014
Si Si2 0.318721 0.557057 0.760503
Si Si3 0.334234 0.792055 0.940767
Si Si4 0.291351 0.887884 0.464197
Si Si5 0.251127 0.262230 0.745271
Si Si6 0.545245 0.261448 0.467845
Si Si7 0.970706 0.833141 0.138332
Si Si8 0.500000 0.373407 0.750000
O O1 0.821631 0.156591 0.441909
O O2 0.987110 0.224576 0.496214
O O3 0.000000 0.215028 0.250000
O O4 0.976201 0.987235 0.382460
O O5 0.290054 0.689177 0.856324
O O6 0.238556 0.432137 0.766973
O O7 0.381698 0.614877 0.616668
O O8 0.403532 0.476314 0.802801
O O9 0.456881 0.776742 0.909510
O O10 0.299683 0.949710 0.924653
O O11 0.290996 0.758171 0.092799
O O12 0.315370 0.794961 0.333607
O O13 0.375292 0.862051 0.532439
O O14 0.151310 0.164093 0.799980
O O15 0.494605 0.299478 0.619906
O O16 0.000000 0.754983 0.250000
#
# Coordination Sequence:
#
# PCOD9238037 Si02
#       8
#     4   4   4   4   4   4   4   2
#     4   9  18  38  65  92 129 169 213 271 343 410
#     4  12  24  42  65  92 129 185 230 262 320 398
#     4  12  24  40  64  95 139 182 218 269 332 382
#     4  11  25  40  64 102 133 168 223 280 334 394
#     4  11  24  42  68  96 130 174 228 275 326 398
#     4  12  23  41  64  93 136 176 224 274 320 389
#     4   9  18  37  64  94 122 163 215 273 336 399
#     4  12  20  42  66  82 126 190 222 260 324 386
#
# _framework density 22.076812
#
# number of rings (size 3 to 8) (size 9 to 14) (size 15 to 20)
#    0.000    1.067    4.000    3.200    1.867    0.000 
#    7.200    0.000    0.000    4.000    0.000    0.000 
#    0.000    0.000    0.000    0.000    0.000    0.000 
#
# Total GULP energy -167261.591240 kJ/mol
# GULP energy per Si atom -5575.386375 kJ/mol
# Density = 2.202656 g / cm^3
# Si number density = 22.076812 Si / 1000 Ang^3
#
#
#
# Elastic Constant Matrix: (Units=GPa)
#
#
# Indices 1 2 3 4 5 6 
#
# 1 21.4951 0.4146 19.3284 0.0000 2.3104 0.0000
# 2 0.4146 94.9010 31.5683 0.0000 -1.7968 0.0000
# 3 19.3284 31.5683 164.7319 0.0000 8.4930 0.0000
# 4 0.0000 0.0000 0.0000 29.2363 0.0000 -4.1050
# 5 2.3104 -1.7968 8.4930 0.0000 25.1763 0.0000
# 6 0.0000 0.0000 0.0000 -4.1050 0.0000 -31.9233
#
#
#
# Elastic Compliance Matrix: (Units=1/GPa)
#
#
# Indices 1 2 3 4 5 6 
#
# 1 0.052498 0.001846 -0.006383 0.000000 -0.002533 0.000000
# 2 0.001846 0.011380 -0.002474 0.000000 0.001477 0.000000
# 3 -0.006383 -0.002474 0.007401 0.000000 -0.002087 0.000000
# 4 0.000000 0.000000 0.000000 0.033597 0.000000 -0.004320
# 5 -0.002533 0.001477 -0.002087 0.000000 0.040762 0.000000
# 6 0.000000 0.000000 0.000000 -0.004320 0.000000 -0.030770
#
#
# Mechanical properties :
#
#
# Convention : Reuss Voigt Hill
#
# Bulk Modulus (GPa) = 17.46468 42.63896 30.05182
# Shear Modulus (GPa) = 33.78914 19.81898 26.80406
#
# Velocity S-wave (km/s) = 3.91644 2.99946 3.48821
# Velocity P-wave (km/s) = 5.32723 5.59924 5.46493
#
# Compressibility (1/GPa) = 0.05725841
#
# Stress axis : x y z
#
# Youngs Moduli (GPa) = 19.04818 87.87338 135.11619
#
# Poissons Ratio (x) = -0.16221 0.86244
# Poissons Ratio (y) = -0.03516 0.33422
# Poissons Ratio (z) = 0.12158 0.21736
#
# Static dielectric constant tensor:
#      x y z
#    x 1.972280 0.000000 0.036830 
#    y 0.000000 1.876580 0.000000 
#    z 0.036830 0.000000 1.854180 
# 
# From -- ./inp_files/36425.got.cif
#   From: 2010.05.17/outbox.cif.g08.bks.cpg/sg13_19_cif.got.tgz:36425.got - 2010.06.03 16:44:36.
