data_PCOD9238908
_publ_section_title
;
Structure prediction by ZEFSAII (Michael W. Deem and Ramdas Pophale) SiO2 
 PCOD9238908
Probable space group: P 2/C
;
_chemical_formula_sum "Si O2"
_cell_formula_units_Z 24
_cell_length_a 18.000000
_cell_length_b 15.000000
_cell_length_c 9.000000
_cell_angle_alpha 90.000000
_cell_angle_beta 30.000000
_cell_angle_gamma 90.000000
_cell_volume 1215.000000
_symmetry_space_group_name_H-M "P 2/C"
_symmetry_group_IT_number 13
_symmetry_cell_setting 'monoclinic'
loop_
_space_group_symop_operation_xyz
x,y,z
-x,y,1/2-z
-x,-y,-z
x,-y,1/2+z
loop_
_atom_site_type_symbol
_atom_site_label
_atom_site_fract_x
_atom_site_fract_y
_atom_site_fract_z
Si Si1 0.680087 0.252802 0.290088
Si Si2 0.092080 0.875254 0.241057
Si Si3 0.157343 0.388735 0.055394
Si Si4 0.162835 0.567466 0.894341
Si Si5 0.127633 0.925009 0.649895
Si Si6 0.341225 0.218217 0.825424
O O1 0.732107 0.354249 0.225449
O O2 0.515080 0.238809 0.515826
O O3 0.686645 0.212980 0.447030
O O4 0.788451 0.200644 0.991088
O O5 0.000000 0.878140 0.250000
O O6 0.965192 0.860331 0.580893
O O7 0.157160 0.974815 0.158282
O O8 0.144421 0.423340 0.248546
O O9 0.000000 0.367302 0.250000
O O10 0.218989 0.470623 0.849816
O O11 0.255113 0.300650 0.900955
O O12 0.000000 0.578629 0.250000
O O13 0.278522 0.872102 0.359378
O O14 0.000000 0.937976 0.750000
#
# Coordination Sequence:
#
# PCOD9238908 Si02
#       6
#     4   4   4   4   4   4
#     4  10  21  36  59  82 115 151 194 222 283 343
#     4  10  19  37  62  85 106 150 193 232 272 342
#     4  10  20  36  59  84 113 146 188 232 279 328
#     4  10  20  35  59  85 109 147 190 233 275 330
#     4  10  21  36  60  86 113 141 189 238 286 323
#     4  10  21  37  56  85 115 154 182 235 283 333
#
# _framework density 19.753086
#
# number of rings (size 3 to 8) (size 9 to 14) (size 15 to 20)
#    0.000    2.000    1.667    3.000    2.333    1.333 
#    3.000    0.833    0.000    0.000    0.000    0.000 
#    0.000    0.000    0.000    0.000    0.000    0.000 
#
# Total GULP energy -133720.445308 kJ/mol
# GULP energy per Si atom -5571.685221 kJ/mol
# Density = 1.970813 g / cm^3
# Si number density = 19.753086 Si / 1000 Ang^3
#
#
#
# Elastic Constant Matrix: (Units=GPa)
#
#
# Indices 1 2 3 4 5 6 
#
# 1 82.0455 38.8389 24.3681 0.0000 -23.6990 0.0000
# 2 38.8389 86.0411 23.9945 0.0000 -35.5495 0.0000
# 3 24.3681 23.9945 38.8719 0.0000 -17.1281 0.0000
# 4 0.0000 0.0000 0.0000 1.6670 0.0000 5.3461
# 5 -23.6990 -35.5495 -17.1281 0.0000 33.5338 0.0000
# 6 0.0000 0.0000 0.0000 5.3461 0.0000 25.9702
#
#
#
# Elastic Compliance Matrix: (Units=1/GPa)
#
#
# Indices 1 2 3 4 5 6 
#
# 1 0.017367 -0.004170 -0.006262 0.000000 0.004654 0.000000
# 2 -0.004170 0.022177 -0.002599 0.000000 0.019235 0.000000
# 3 -0.006262 -0.002599 0.036250 0.000000 0.011334 0.000000
# 4 0.000000 0.000000 0.000000 1.765396 0.000000 -0.363416
# 5 0.004654 0.019235 0.011334 0.000000 0.059291 0.000000
# 6 0.000000 0.000000 0.000000 -0.363416 0.000000 0.113317
#
#
# Mechanical properties :
#
#
# Convention : Reuss Voigt Hill
#
# Bulk Modulus (GPa) = 20.10842 42.37349 31.24095
# Shear Modulus (GPa) = 2.43139 20.21800 11.32470
#
# Velocity S-wave (km/s) = 1.11066 3.20275 2.39699
# Velocity P-wave (km/s) = 3.44191 5.93085 4.84880
#
# Compressibility (1/GPa) = 0.04973042
#
# Stress axis : x y z
#
# Youngs Moduli (GPa) = 57.58174 45.09162 27.58638
#
# Poissons Ratio (x) = 0.18803 0.17275
# Poissons Ratio (y) = 0.24012 0.07171
# Poissons Ratio (z) = 0.36058 0.11721
#
# Static dielectric constant tensor:
#      x y z
#    x 1.739200 0.000000 0.045140 
#    y 0.000000 1.718300 0.000000 
#    z 0.045140 0.000000 1.612080 
# 
# From -- ./inp_files/21918.got.cif
#   From: 2010.05.17/outbox.ucp.g08.bks.cvg/sg13_11_cif.got.tgz:21918.got - 2010.06.11 12:23:55.
