data_PCOD9238026
_publ_section_title
;
Structure prediction by ZEFSAII (Michael W. Deem and Ramdas Pophale) SiO2 
 PCOD9238026
Probable space group: P 2/C
;
_chemical_formula_sum "Si O2"
_cell_formula_units_Z 28
_cell_length_a 9.892994
_cell_length_b 7.806535
_cell_length_c 15.386399
_cell_angle_alpha 90.000000
_cell_angle_beta 112.437529
_cell_angle_gamma 90.000000
_cell_volume 1098.333500
_symmetry_space_group_name_H-M "P 2/C"
_symmetry_group_IT_number 13
_symmetry_cell_setting 'monoclinic'
loop_
_space_group_symop_operation_xyz
x,y,z
-x,y,1/2-z
-x,-y,-z
x,-y,1/2+z
loop_
_atom_site_type_symbol
_atom_site_label
_atom_site_fract_x
_atom_site_fract_y
_atom_site_fract_z
Si Si1 0.615646 0.682059 0.901040
Si Si2 0.688183 0.918916 0.212942
Si Si3 0.000000 0.719350 0.750000
Si Si4 0.627680 0.092471 0.896559
Si Si5 0.101862 0.634714 0.449089
Si Si6 0.923024 0.226806 0.045220
Si Si7 0.694305 0.333313 0.225471
Si Si8 0.000000 0.771970 0.250000
O O1 0.451888 0.609912 0.859727
O O2 0.684080 0.620192 0.824984
O O3 0.615296 0.887344 0.895020
O O4 0.723135 0.644613 0.005594
O O5 0.541045 0.854613 0.127830
O O6 0.669659 0.857140 0.308117
O O7 0.843506 0.866049 0.214090
O O8 0.688766 0.125946 0.217343
O O9 0.983035 0.820472 0.654837
O O10 0.847994 0.617964 0.722205
O O11 0.761840 0.154546 0.988399
O O12 0.083754 0.432765 0.461536
O O13 0.045216 0.789356 0.499903
O O14 0.011221 0.670059 0.341637
#
# Coordination Sequence:
#
# PCOD9238026 Si02
#       8
#     4   4   2   4   4   4   4   2
#     4   9  19  40  64  89 122 161 198 243 301 359
#     4   9  19  36  62  94 125 154 197 249 299 356
#     4  12  22  38  62  92 119 158 205 246 297 354
#     4   9  19  40  64  89 122 161 198 243 301 359
#     4  11  24  42  61  88 123 161 201 249 301 354
#     4  11  24  42  61  88 123 161 201 249 301 354
#     4   9  19  36  62  94 125 154 197 249 299 356
#     4  12  22  38  62  92 119 158 205 246 297 354
#
# _framework density 25.493168000000001
#
# number of rings (size 3 to 8) (size 9 to 14) (size 15 to 20)
#    0.000    2.000    2.857    2.571    0.000    4.000 
#    0.000   10.000    0.000    0.000    0.000    0.000 
#    0.000    0.000    0.000    0.000    0.000    0.000 
#
# Total GULP energy -156458.697734 kJ/mol
# GULP energy per Si atom -5587.810633 kJ/mol
# Density = 2.543514 g / cm^3
# Si number density = 25.493168 Si / 1000 Ang^3
#
#
#
# Elastic Constant Matrix: (Units=GPa)
#
#
# Indices 1 2 3 4 5 6 
#
# 1 157.7181 14.7079 43.8030 0.0000 37.2221 0.0000
# 2 14.7079 33.3820 4.6342 0.0000 5.4940 0.0000
# 3 43.8030 4.6342 134.6054 0.0000 40.4603 0.0000
# 4 0.0000 0.0000 0.0000 6.5588 0.0000 3.2086
# 5 37.2221 5.4940 40.4603 0.0000 39.3221 0.0000
# 6 0.0000 0.0000 0.0000 3.2086 0.0000 4.6396
#
#
#
# Elastic Compliance Matrix: (Units=1/GPa)
#
#
# Indices 1 2 3 4 5 6 
#
# 1 0.008379 -0.002459 -0.000523 0.000000 -0.007050 0.000000
# 2 -0.002459 0.031393 0.000490 0.000000 -0.002562 0.000000
# 3 -0.000523 0.000490 0.010792 0.000000 -0.010678 0.000000
# 4 0.000000 0.000000 0.000000 0.230425 0.000000 -0.159354
# 5 -0.007050 -0.002562 -0.010678 0.000000 0.043449 0.000000
# 6 0.000000 0.000000 0.000000 -0.159354 0.000000 0.325740
#
#
# Mechanical properties :
#
#
# Convention : Reuss Voigt Hill
#
# Bulk Modulus (GPa) = 21.93954 50.22173 36.08064
# Shear Modulus (GPa) = 7.45873 27.60811 17.53342
#
# Velocity S-wave (km/s) = 1.71235 3.29441 2.62538
# Velocity P-wave (km/s) = 3.54037 5.84925 4.83466
#
# Compressibility (1/GPa) = 0.04557981
#
# Stress axis : x y z
#
# Youngs Moduli (GPa) = 119.35038 31.85384 92.66095
#
# Poissons Ratio (x) = 0.07832 0.04845
# Poissons Ratio (y) = 0.29346 -0.04536
# Poissons Ratio (z) = 0.06241 -0.01559
#
# Static dielectric constant tensor:
#      x y z
#    x 2.162820 0.000000 -0.089970 
#    y 0.000000 2.038170 0.000000 
#    z -0.089970 0.000000 2.000930 
# 
# From -- ./inp_files/47090.got.cif
#   From: 2010.05.17/outbox.cif.g08.bks.cpg/sg13_24_cif.got.tgz:47090.got - 2010.06.03 16:44:36.
