data_PCOD9238384
_publ_section_title
;
Structure prediction by ZEFSAII (Michael W. Deem and Ramdas Pophale) SiO2 
 PCOD9238384
Probable space group: P 2/C
;
_chemical_formula_sum "Si O2"
_cell_formula_units_Z 12
_cell_length_a 14.792883
_cell_length_b 4.960031
_cell_length_c 20.501264
_cell_angle_alpha 90.000000
_cell_angle_beta 20.927822
_cell_angle_gamma 90.000000
_cell_volume 537.302771
_symmetry_space_group_name_H-M "P 2/C"
_symmetry_group_IT_number 13
_symmetry_cell_setting 'monoclinic'
loop_
_space_group_symop_operation_xyz
x,y,z
-x,y,1/2-z
-x,-y,-z
x,-y,1/2+z
loop_
_atom_site_type_symbol
_atom_site_label
_atom_site_fract_x
_atom_site_fract_y
_atom_site_fract_z
Si Si1 0.523563 0.791545 0.045381
Si Si2 0.064980 0.466315 0.313497
Si Si3 0.288794 0.970181 0.947174
O O1 0.277139 0.602382 0.216843
O O2 0.582637 0.939297 0.072244
O O3 0.764540 0.611105 0.863545
O O4 0.500000 0.000000 0.000000
O O5 0.917299 0.197899 0.434179
O O6 0.858971 0.694724 0.441311
O O7 0.500000 0.939829 0.750000
#
# Coordination Sequence:
#
# PCOD9238384 Si02
#       3
#     4   4   4
#     4  11  26  45  75 103 136 187 240 282 343 413
#     4  11  26  46  72 102 139 186 234 285 341 422
#     4  12  28  46  71 106 146 182 227 292 355 407
#
# _framework density 22.333776
#
# number of rings (size 3 to 8) (size 9 to 14) (size 15 to 20)
#    0.000    0.667    3.333    2.000   14.000    2.667 
#    0.000    0.000    0.000    0.000    0.000    0.000 
#    0.000    0.000    0.000    0.000    0.000    0.000 
#
# Total GULP energy -67207.899416 kJ/mol
# GULP energy per Si atom -5600.658285 kJ/mol
# Density = 2.228294 g / cm^3
# Si number density = 22.333776 Si / 1000 Ang^3
#
#
#
# Elastic Constant Matrix: (Units=GPa)
#
#
# Indices 1 2 3 4 5 6 
#
# 1 -29.3544 23.8482 135.3889 0.0000 21.7419 0.0000
# 2 23.8482 132.8131 66.8550 0.0000 13.3523 0.0000
# 3 135.3889 66.8550 132.5136 0.0000 5.1376 0.0000
# 4 0.0000 0.0000 0.0000 57.2588 0.0000 -27.2541
# 5 21.7419 13.3523 5.1376 0.0000 21.6645 0.0000
# 6 0.0000 0.0000 0.0000 -27.2541 0.0000 -47.5891
#
#
#
# Elastic Compliance Matrix: (Units=1/GPa)
#
#
# Indices 1 2 3 4 5 6 
#
# 1 -0.004761 -0.002680 0.006023 0.000000 0.005002 0.000000
# 2 -0.002680 0.009166 -0.001788 0.000000 -0.002536 0.000000
# 3 0.006023 -0.001788 0.002510 0.000000 -0.005537 0.000000
# 4 0.000000 0.000000 0.000000 0.013724 0.000000 -0.007859
# 5 0.005002 -0.002536 -0.005537 0.000000 0.044015 0.000000
# 6 0.000000 0.000000 0.000000 -0.007859 0.000000 -0.016512
#
#
# Mechanical properties :
#
#
# Convention : Reuss Voigt Hill
#
# Bulk Modulus (GPa) = 99.76073 76.46184 88.11128
# Shear Modulus (GPa) = 103.36486 6.92552 55.14519
#
# Velocity S-wave (km/s) = 6.81046 1.76285 4.97443
# Velocity P-wave (km/s) = 10.32512 6.20111 8.51651
#
# Compressibility (1/GPa) = 0.01002398
#
# Stress axis : x y z
#
# Youngs Moduli (GPa) = -210.02502 109.10362 398.40759
#
# Poissons Ratio (x) = 0.29234 -2.39944
# Poissons Ratio (y) = -0.56276 0.71244
# Poissons Ratio (z) = 1.26489 0.19510
#
# Static dielectric constant tensor:
#      x y z
#    x 1.835850 0.000000 -0.052080 
#    y 0.000000 1.843040 0.000000 
#    z -0.052080 0.000000 1.780980 
# 
# From -- ./inp_files/26945.got.cif
#   From: 2010.05.17/outbox.cif.g08.bks.cpg/sg13_14_cif.got.tgz:26945.got - 2010.06.03 16:44:36.
