data_PCOD9238197
_publ_section_title
;
Structure prediction by ZEFSAII (Michael W. Deem and Ramdas Pophale) SiO2 
 PCOD9238197
Probable space group: P 2/C
;
_chemical_formula_sum "Si O2"
_cell_formula_units_Z 20
_cell_length_a 20.671374
_cell_length_b 6.448774
_cell_length_c 14.985882
_cell_angle_alpha 90.000000
_cell_angle_beta 152.505428
_cell_angle_gamma 90.000000
_cell_volume 922.264230
_symmetry_space_group_name_H-M "P 2/C"
_symmetry_group_IT_number 13
_symmetry_cell_setting 'monoclinic'
loop_
_space_group_symop_operation_xyz
x,y,z
-x,y,1/2-z
-x,-y,-z
x,-y,1/2+z
loop_
_atom_site_type_symbol
_atom_site_label
_atom_site_fract_x
_atom_site_fract_y
_atom_site_fract_z
Si Si1 0.508399 0.515103 0.617808
Si Si2 0.202047 0.567277 0.778065
Si Si3 0.500000 0.113029 0.250000
Si Si4 0.262023 0.787998 0.020975
Si Si5 0.000000 0.005092 0.250000
Si Si6 0.023813 0.194479 0.592646
O O1 0.500000 0.500000 0.500000
O O2 0.365894 0.401193 0.470998
O O3 0.498783 0.733236 0.661145
O O4 0.640674 0.387091 0.815813
O O5 0.111410 0.661560 0.588134
O O6 0.158552 0.328704 0.731031
O O7 0.167711 0.684661 0.827749
O O8 0.365347 0.964161 0.105431
O O9 0.144738 0.872818 0.945141
O O10 0.035556 0.870607 0.207985
O O11 0.000000 0.000000 0.500000
#
# Coordination Sequence:
#
# PCOD9238197 Si02
#       6
#     4   4   2   4   2   4
#     4  12  28  43  74 107 142 195 245 305 362 439
#     4  11  24  48  70 100 149 183 244 302 365 425
#     4  12  24  50  72 100 148 196 236 300 372 424
#     4  12  26  48  73 107 145 192 244 303 368 433
#     4  12  28  44  76 106 146 188 252 296 366 446
#     4  11  26  45  71 104 140 193 231 302 363 431
#
# _framework density 21.685759000000001
#
# number of rings (size 3 to 8) (size 9 to 14) (size 15 to 20)
#    0.000    0.400    6.000    1.200    5.600    1.600 
#    0.000    0.000    0.000    0.000    0.000    0.000 
#    0.000    0.000    0.000    0.000    0.000    0.000 
#
# Total GULP energy -111676.689399 kJ/mol
# GULP energy per Si atom -5583.834470 kJ/mol
# Density = 2.163640 g / cm^3
# Si number density = 21.685759 Si / 1000 Ang^3
#
#
#
# Elastic Constant Matrix: (Units=GPa)
#
#
# Indices 1 2 3 4 5 6 
#
# 1 59.7113 41.7867 13.6574 0.0000 -7.5477 0.0000
# 2 41.7867 101.8010 35.3519 0.0000 -2.4776 0.0000
# 3 13.6574 35.3519 104.0290 0.0000 7.3067 0.0000
# 4 0.0000 0.0000 0.0000 46.6883 0.0000 -2.0795
# 5 -7.5477 -2.4776 7.3067 0.0000 52.1115 0.0000
# 6 0.0000 0.0000 0.0000 -2.0795 0.0000 2.8504
#
#
#
# Elastic Compliance Matrix: (Units=1/GPa)
#
#
# Indices 1 2 3 4 5 6 
#
# 1 0.023958 -0.009745 -0.000045 0.000000 0.003013 0.000000
# 2 -0.009745 0.015161 -0.003862 0.000000 -0.000149 0.000000
# 3 -0.000045 -0.003862 0.011053 0.000000 -0.001740 0.000000
# 4 0.000000 0.000000 0.000000 0.022138 0.000000 0.016151
# 5 0.003013 -0.000149 -0.001740 0.000000 0.019863 0.000000
# 6 0.000000 0.000000 0.000000 0.016151 0.000000 0.362611
#
#
# Mechanical properties :
#
#
# Convention : Reuss Voigt Hill
#
# Bulk Modulus (GPa) = 43.73104 49.68149 46.70627
# Shear Modulus (GPa) = 10.21009 31.97972 21.09490
#
# Velocity S-wave (km/s) = 2.17219 3.84433 3.12228
# Velocity P-wave (km/s) = 5.14789 6.53182 5.88071
#
# Compressibility (1/GPa) = 0.02286705
#
# Stress axis : x y z
#
# Youngs Moduli (GPa) = 41.73925 65.95952 90.47038
#
# Poissons Ratio (x) = 0.64279 0.00410
# Poissons Ratio (y) = 0.40676 0.34941
# Poissons Ratio (z) = 0.00189 0.25475
#
# Static dielectric constant tensor:
#      x y z
#    x 1.826920 0.000000 -0.021020 
#    y 0.000000 1.869690 0.000000 
#    z -0.021020 0.000000 1.852970 
# 
# From -- ./inp_files/56410.got.cif
#   From: 2010.05.17/outbox.cif.g08.bks.cpg/sg13_29_cif.got.tgz:56410.got - 2010.06.03 16:44:36.
