data_PCOD9238414
_publ_section_title
;
Structure prediction by ZEFSAII (Michael W. Deem and Ramdas Pophale) SiO2 
 PCOD9238414
Probable space group: P 2/C
;
_chemical_formula_sum "Si O2"
_cell_formula_units_Z 32
_cell_length_a 13.820987
_cell_length_b 11.826074
_cell_length_c 17.646348
_cell_angle_alpha 90.000000
_cell_angle_beta 149.311518
_cell_angle_gamma 90.000000
_cell_volume 1472.040214
_symmetry_space_group_name_H-M "P 2/C"
_symmetry_group_IT_number 13
_symmetry_cell_setting 'monoclinic'
loop_
_space_group_symop_operation_xyz
x,y,z
-x,y,1/2-z
-x,-y,-z
x,-y,1/2+z
loop_
_atom_site_type_symbol
_atom_site_label
_atom_site_fract_x
_atom_site_fract_y
_atom_site_fract_z
Si Si1 0.351399 0.673475 0.954981
Si Si2 0.068606 0.414947 0.163343
Si Si3 0.589577 0.175877 0.726548
Si Si4 0.024326 0.252107 0.995399
Si Si5 0.623378 0.909107 0.756907
Si Si6 0.647609 0.494902 0.415403
Si Si7 0.414221 0.721763 0.529761
Si Si8 0.917207 0.642412 0.273521
O O1 0.136707 0.666520 0.777559
O O2 0.457199 0.664098 0.946754
O O3 0.442414 0.776603 0.064379
O O4 0.387548 0.569909 0.034689
O O5 0.176431 0.534702 0.247631
O O6 0.089105 0.348457 0.098704
O O7 0.853508 0.461494 0.026312
O O8 0.500000 0.197447 0.750000
O O9 0.800988 0.228821 0.860849
O O10 0.621202 0.041805 0.739241
O O11 0.038268 0.298265 0.919567
O O12 0.166537 0.145855 0.097661
O O13 0.500000 0.892121 0.750000
O O14 0.511269 0.836057 0.619881
O O15 0.500000 0.517405 0.250000
O O16 0.619435 0.366067 0.424640
O O17 0.219712 0.736731 0.353400
O O18 0.000000 0.593781 0.250000
#
# Coordination Sequence:
#
# PCOD9238414 Si02
#       8
#     4   4   4   4   4   4   4   4
#     4  12  23  44  67 103 142 184 236 291 359 424
#     4  12  25  43  66 106 147 184 228 289 356 443
#     4  11  26  49  75 103 142 189 248 308 358 426
#     4  12  25  46  75 106 142 191 243 297 369 425
#     4  11  26  49  73 103 141 191 247 302 361 426
#     4  12  26  41  69 103 145 188 232 286 365 435
#     4  12  24  43  67 100 142 184 234 291 356 429
#     4  12  24  43  66 102 148 186 229 289 355 439
#
# _framework density 21.738537000000001
#
# number of rings (size 3 to 8) (size 9 to 14) (size 15 to 20)
#    0.000    0.250    5.000    4.500    1.750    0.500 
#    0.000    0.000    0.000    4.500    0.000    0.000 
#    0.000    0.000    0.000    0.000    0.000    0.000 
#
# Total GULP energy -178657.704863 kJ/mol
# GULP energy per Si atom -5583.053277 kJ/mol
# Density = 2.168906 g / cm^3
# Si number density = 21.738537 Si / 1000 Ang^3
#
#
#
# Elastic Constant Matrix: (Units=GPa)
#
#
# Indices 1 2 3 4 5 6 
#
# 1 63.6014 16.9549 42.5934 0.0000 5.7426 0.0000
# 2 16.9549 98.8285 52.1842 0.0000 -9.0758 0.0000
# 3 42.5934 52.1842 169.1670 0.0000 -26.3620 0.0000
# 4 0.0000 0.0000 0.0000 32.4188 0.0000 6.4284
# 5 5.7426 -9.0758 -26.3620 0.0000 35.1189 0.0000
# 6 0.0000 0.0000 0.0000 6.4284 0.0000 25.6793
#
#
#
# Elastic Compliance Matrix: (Units=1/GPa)
#
#
# Indices 1 2 3 4 5 6 
#
# 1 0.020955 -0.001062 -0.006257 0.000000 -0.008398 0.000000
# 2 -0.001062 0.012145 -0.003355 0.000000 0.000794 0.000000
# 3 -0.006257 -0.003355 0.009678 0.000000 0.007421 0.000000
# 4 0.000000 0.000000 0.000000 0.032457 0.000000 -0.008125
# 5 -0.008398 0.000794 0.007421 0.000000 0.035624 0.000000
# 6 0.000000 0.000000 0.000000 -0.008125 0.000000 0.040976
#
#
# Mechanical properties :
#
#
# Convention : Reuss Voigt Hill
#
# Bulk Modulus (GPa) = 46.66604 61.67353 54.16978
# Shear Modulus (GPa) = 27.72732 33.30104 30.51418
#
# Velocity S-wave (km/s) = 3.57528 3.91818 3.75065
# Velocity P-wave (km/s) = 6.20943 6.99298 6.61282
#
# Compressibility (1/GPa) = 0.02142886
#
# Stress axis : x y z
#
# Youngs Moduli (GPa) = 47.72217 82.33538 103.32446
#
# Poissons Ratio (x) = 0.08746 0.64650
# Poissons Ratio (y) = 0.05069 0.34670
# Poissons Ratio (z) = 0.29860 0.27627
#
# Static dielectric constant tensor:
#      x y z
#    x 1.865190 0.000000 0.114150 
#    y 0.000000 1.773000 0.000000 
#    z 0.114150 0.000000 1.925090 
# 
# From -- ./inp_files/68679.got.cif
#   From: 2010.05.17/outbox.cif.g08.bks.cpg/sg13_35_cif.got.tgz:68679.got - 2010.06.03 16:44:36.
