data_PCOD9238925
_publ_section_title
;
Structure prediction by ZEFSAII (Michael W. Deem and Ramdas Pophale) SiO2 
 PCOD9238925
Probable space group: P 2/C
;
_chemical_formula_sum "Si O2"
_cell_formula_units_Z 28
_cell_length_a 27.000000
_cell_length_b 12.000000
_cell_length_c 27.000000
_cell_angle_alpha 90.000000
_cell_angle_beta 10.000000
_cell_angle_gamma 90.000000
_cell_volume 1519.074258
_symmetry_space_group_name_H-M "P 2/C"
_symmetry_group_IT_number 13
_symmetry_cell_setting 'monoclinic'
loop_
_space_group_symop_operation_xyz
x,y,z
-x,y,1/2-z
-x,-y,-z
x,-y,1/2+z
loop_
_atom_site_type_symbol
_atom_site_label
_atom_site_fract_x
_atom_site_fract_y
_atom_site_fract_z
Si Si1 0.608754 0.654699 0.750713
Si Si2 0.314592 0.454383 0.636470
Si Si3 0.102627 0.528755 0.206136
Si Si4 0.344586 0.836144 0.241534
Si Si5 0.410845 0.110246 0.176658
Si Si6 0.869803 0.668316 0.743113
Si Si7 0.113687 0.205103 0.858382
O O1 0.625149 0.789155 0.745783
O O2 0.892652 0.599058 0.449287
O O3 0.513077 0.592567 0.896065
O O4 0.378897 0.608506 0.937476
O O5 0.500000 0.500000 0.500000
O O6 0.148320 0.565178 0.779410
O O7 0.144577 0.339871 0.819298
O O8 0.148190 0.407199 0.188443
O O9 0.000000 0.517030 0.250000
O O10 0.231894 0.825332 0.296017
O O11 0.136636 0.753692 0.478340
O O12 0.372502 0.973908 0.224459
O O13 0.628177 0.760679 0.968368
O O14 0.200494 0.155985 0.340603
O O15 0.717407 0.137594 0.850993
#
# Coordination Sequence:
#
# PCOD9238925 Si02
#       7
#     4   4   4   4   4   4   4
#     4  10  22  39  61  92 113 151 199 236 300 343
#     4  10  20  36  56  85 126 154 189 243 280 346
#     4  11  23  43  68  88 114 143 192 259 306 356
#     4  12  23  36  56  81 124 163 197 233 275 350
#     4  11  22  39  55  81 120 160 203 240 270 333
#     4  11  23  37  56  91 114 155 197 231 306 350
#     4  11  22  35  55  81 116 170 206 232 274 328
#
# _framework density 18.432279000000001
#
# number of rings (size 3 to 8) (size 9 to 14) (size 15 to 20)
#    0.000    1.143    1.429    7.286    2.000    1.714 
#    0.000    0.000    0.000    5.143    0.000    0.000 
#    0.000    0.000    0.000    0.000    0.000    0.000 
#
# Total GULP energy -155918.993761 kJ/mol
# GULP energy per Si atom -5568.535491 kJ/mol
# Density = 1.839033 g / cm^3
# Si number density = 18.432279 Si / 1000 Ang^3
#
#
#
# Elastic Constant Matrix: (Units=GPa)
#
#
# Indices 1 2 3 4 5 6 
#
# 1 97.4733 33.1396 -13.4914 0.0000 -12.1667 0.0000
# 2 33.1396 205.6609 12.5445 0.0000 -7.3270 0.0000
# 3 -13.4914 12.5445 44.4337 0.0000 -8.1463 0.0000
# 4 0.0000 0.0000 0.0000 33.9680 0.0000 -2.0716
# 5 -12.1667 -7.3270 -8.1463 0.0000 25.2152 0.0000
# 6 0.0000 0.0000 0.0000 -2.0716 0.0000 29.4902
#
#
#
# Elastic Compliance Matrix: (Units=1/GPa)
#
#
# Indices 1 2 3 4 5 6 
#
# 1 0.012716 -0.002141 0.005821 0.000000 0.007394 0.000000
# 2 -0.002141 0.005334 -0.002191 0.000000 -0.000191 0.000000
# 3 0.005821 -0.002191 0.026882 0.000000 0.010857 0.000000
# 4 0.000000 0.000000 0.000000 0.029566 0.000000 0.002077
# 5 0.007394 -0.000191 0.010857 0.000000 0.046678 0.000000
# 6 0.000000 0.000000 0.000000 0.002077 0.000000 0.034055
#
#
# Mechanical properties :
#
#
# Convention : Reuss Voigt Hill
#
# Bulk Modulus (GPa) = 20.87243 45.77258 33.32251
# Shear Modulus (GPa) = 29.72250 38.75970 34.24110
#
# Velocity S-wave (km/s) = 4.01998 4.59062 4.31475
# Velocity P-wave (km/s) = 5.73545 7.27909 6.55288
#
# Compressibility (1/GPa) = 0.04791009
#
# Stress axis : x y z
#
# Youngs Moduli (GPa) = 78.64379 187.47179 37.19999
#
# Poissons Ratio (x) = 0.40130 -0.21653
# Poissons Ratio (y) = 0.16834 0.08150
# Poissons Ratio (z) = -0.45776 0.41072
#
# Static dielectric constant tensor:
#      x y z
#    x 1.639350 0.000000 -0.014790 
#    y 0.000000 1.620980 0.000000 
#    z -0.014790 0.000000 1.788420 
# 
# From -- ./inp_files/94149.got.cif
#   From: 2010.05.17/outbox.ucp.g08.bks.cvg/sg13_48_cif.got.tgz:94149.got - 2010.06.11 12:23:55.
