data_PCOD9238149
_publ_section_title
;
Structure prediction by ZEFSAII (Michael W. Deem and Ramdas Pophale) SiO2 
 PCOD9238149
Probable space group: P 2/C
;
_chemical_formula_sum "Si O2"
_cell_formula_units_Z 16
_cell_length_a 6.750656
_cell_length_b 9.711515
_cell_length_c 18.851467
_cell_angle_alpha 90.000000
_cell_angle_beta 135.739837
_cell_angle_gamma 90.000000
_cell_volume 862.545883
_symmetry_space_group_name_H-M "P 2/C"
_symmetry_group_IT_number 13
_symmetry_cell_setting 'monoclinic'
loop_
_space_group_symop_operation_xyz
x,y,z
-x,y,1/2-z
-x,-y,-z
x,-y,1/2+z
loop_
_atom_site_type_symbol
_atom_site_label
_atom_site_fract_x
_atom_site_fract_y
_atom_site_fract_z
Si Si1 0.134946 0.414492 0.970284
Si Si2 0.753817 0.914494 0.529721
Si Si3 0.210817 0.638480 0.869905
Si Si4 0.768812 0.138482 0.869904
O O1 0.134637 0.508922 0.900125
O O2 0.959313 0.275408 0.913703
O O3 0.462788 0.379106 0.070436
O O4 0.000000 0.500000 0.000000
O O5 0.804494 0.775407 0.586298
O O6 0.681071 0.879112 0.429570
O O7 0.500000 0.000000 0.500000
O O8 0.034137 0.008925 0.599884
O O9 0.000000 0.647431 0.750000
O O10 0.500000 0.147440 0.750000
#
# Coordination Sequence:
#
# PCOD9238149 Si02
#       4
#     4   4   4   4
#     4  11  24  46  63  98 136 165 223 268 315 395
#     4  11  24  46  63  98 136 165 223 268 315 395
#     4  11  26  42  70  96 131 177 212 269 329 381
#     4  11  26  42  70  96 131 177 212 269 329 381
#
# _framework density 18.549735999999999
#
# number of rings (size 3 to 8) (size 9 to 14) (size 15 to 20)
#    0.000    1.000    5.000    0.000    7.000    0.000 
#    0.000    0.000    0.000    0.000    0.000    0.000 
#    0.000    0.000    0.000    0.000    0.000    0.000 
#
# Total GULP energy -89490.009537 kJ/mol
# GULP energy per Si atom -5593.125596 kJ/mol
# Density = 1.850752 g / cm^3
# Si number density = 18.549736 Si / 1000 Ang^3
#
#
#
# Elastic Constant Matrix: (Units=GPa)
#
#
# Indices 1 2 3 4 5 6 
#
# 1 144.5153 69.0924 102.2030 0.0000 -0.3206 0.0000
# 2 69.0924 131.3224 78.4133 0.0000 0.1669 0.0000
# 3 102.2030 78.4133 202.7607 0.0000 1.3352 0.0000
# 4 0.0000 0.0000 0.0000 4.7869 0.0000 -0.7541
# 5 -0.3206 0.1669 1.3352 0.0000 11.2628 0.0000
# 6 0.0000 0.0000 0.0000 -0.7541 0.0000 49.7759
#
#
#
# Elastic Compliance Matrix: (Units=1/GPa)
#
#
# Indices 1 2 3 4 5 6 
#
# 1 0.011866 -0.003471 -0.004645 0.000000 0.000940 0.000000
# 2 -0.003471 0.010917 -0.002473 0.000000 0.000033 0.000000
# 3 -0.004645 -0.002473 0.008237 0.000000 -0.001072 0.000000
# 4 0.000000 0.000000 0.000000 0.209403 0.000000 0.003172
# 5 0.000940 0.000033 -0.001072 0.000000 0.088941 0.000000
# 6 0.000000 0.000000 0.000000 0.003172 0.000000 0.020138
#
#
# Mechanical properties :
#
#
# Convention : Reuss Voigt Hill
#
# Bulk Modulus (GPa) = 101.59648 108.66841 105.13245
# Shear Modulus (GPa) = 13.37038 28.42444 20.89741
#
# Velocity S-wave (km/s) = 2.68766 3.91875 3.36007
# Velocity P-wave (km/s) = 8.03243 8.89859 8.47658
#
# Compressibility (1/GPa) = 0.00984286
#
# Stress axis : x y z
#
# Youngs Moduli (GPa) = 84.27248 91.59713 121.40655
#
# Poissons Ratio (x) = 0.31790 0.56397
# Poissons Ratio (y) = 0.29248 0.30022
# Poissons Ratio (z) = 0.39147 0.22651
#
# Static dielectric constant tensor:
#      x y z
#    x 1.627820 0.000000 -0.000730 
#    y 0.000000 1.625500 0.000000 
#    z -0.000730 0.000000 1.584310 
# 
# From -- ./inp_files/25301.got.cif
#   From: 2010.05.17/outbox.cif.g08.bks.cpg/sg13_13_cif.got.tgz:25301.got - 2010.06.03 16:44:36.
