data_PCOD9238746
_publ_section_title
;
Structure prediction by ZEFSAII (Michael W. Deem and Ramdas Pophale) SiO2 
 PCOD9238746
Probable space group: P 2/C
;
_chemical_formula_sum "Si O2"
_cell_formula_units_Z 14
_cell_length_a 5.105630
_cell_length_b 11.138804
_cell_length_c 10.119878
_cell_angle_alpha 90.000000
_cell_angle_beta 92.285538
_cell_angle_gamma 90.000000
_cell_volume 575.065821
_symmetry_space_group_name_H-M "P 2/C"
_symmetry_group_IT_number 13
_symmetry_cell_setting 'monoclinic'
loop_
_space_group_symop_operation_xyz
x,y,z
-x,y,1/2-z
-x,-y,-z
x,-y,1/2+z
loop_
_atom_site_type_symbol
_atom_site_label
_atom_site_fract_x
_atom_site_fract_y
_atom_site_fract_z
Si Si1 0.574386 0.599837 0.395085
Si Si2 0.000000 0.183879 0.250000
Si Si3 0.671561 0.030241 0.632336
Si Si4 0.910615 0.746395 0.035703
O O1 0.500000 0.551587 0.250000
O O2 0.500000 0.500000 0.500000
O O3 0.372305 0.705537 0.421922
O O4 0.863340 0.657285 0.409172
O O5 0.916351 0.256712 0.377033
O O6 0.220882 0.094683 0.308875
O O7 0.500000 0.082066 0.750000
O O8 0.910456 0.117447 0.591529
O O9 0.500000 0.000000 0.500000
#
# Coordination Sequence:
#
# PCOD9238746 Si02
#       4
#     4   2   4   4
#     4  12  30  53  83 113 150 201 270 339 397 461
#     4  12  28  44  76 116 164 210 254 314 386 488
#     4  12  26  47  73 115 165 209 260 309 386 477
#     4  12  28  48  81 113 158 208 260 320 400 466
#
# _framework density 24.345043
#
# number of rings (size 3 to 8) (size 9 to 14) (size 15 to 20)
#    0.000    0.000    2.857    5.143   12.000    0.000 
#    0.000    0.000    0.000    0.000    0.000    0.000 
#    0.000    0.000    0.000    0.000    0.000    0.000 
#
# Total GULP energy -78477.660274 kJ/mol
# GULP energy per Si atom -5605.547162 kJ/mol
# Density = 2.428963 g / cm^3
# Si number density = 24.345043 Si / 1000 Ang^3
#
#
#
# Elastic Constant Matrix: (Units=GPa)
#
#
# Indices 1 2 3 4 5 6 
#
# 1 70.3737 1.9658 31.2764 0.0000 1.6200 0.0000
# 2 1.9658 52.6500 30.8187 0.0000 6.0286 0.0000
# 3 31.2764 30.8187 233.2789 0.0000 -2.4526 0.0000
# 4 0.0000 0.0000 0.0000 43.5938 0.0000 -16.4651
# 5 1.6200 6.0286 -2.4526 0.0000 47.8869 0.0000
# 6 0.0000 0.0000 0.0000 -16.4651 0.0000 27.8765
#
#
#
# Elastic Compliance Matrix: (Units=1/GPa)
#
#
# Indices 1 2 3 4 5 6 
#
# 1 0.015157 0.000770 -0.002141 0.000000 -0.000719 0.000000
# 2 0.000770 0.020988 -0.002906 0.000000 -0.002817 0.000000
# 3 -0.002141 -0.002906 0.004965 0.000000 0.000693 0.000000
# 4 0.000000 0.000000 0.000000 0.029526 0.000000 0.017439
# 5 -0.000719 -0.002817 0.000693 0.000000 0.021297 0.000000
# 6 0.000000 0.000000 0.000000 0.017439 0.000000 0.046173
#
#
# Mechanical properties :
#
#
# Convention : Reuss Voigt Hill
#
# Bulk Modulus (GPa) = 30.71684 53.82493 42.27089
# Shear Modulus (GPa) = 31.74378 43.35421 37.54900
#
# Velocity S-wave (km/s) = 3.61489 4.22456 3.93156
# Velocity P-wave (km/s) = 5.48342 6.77887 6.16526
#
# Compressibility (1/GPa) = 0.03255544
#
# Stress axis : x y z
#
# Youngs Moduli (GPa) = 65.97782 47.64638 201.41177
#
# Poissons Ratio (x) = -0.03668 0.43130
# Poissons Ratio (y) = -0.05080 0.58522
# Poissons Ratio (z) = 0.14128 0.13844
#
# Static dielectric constant tensor:
#      x y z
#    x 1.990090 0.000000 -0.024340 
#    y 0.000000 2.033660 0.000000 
#    z -0.024340 0.000000 1.959640 
# 
# From -- ./inp_files/8489.got.cif
#   From: 2010.05.17/outbox.cif.g08.bks.cpg/sg13_5_cif.got.tgz:8489.got - 2010.06.03 16:44:36.
