data_PCOD9238554
_publ_section_title
;
Structure prediction by ZEFSAII (Michael W. Deem and Ramdas Pophale) SiO2 
 PCOD9238554
Probable space group: P 2/C
;
_chemical_formula_sum "Si O2"
_cell_formula_units_Z 16
_cell_length_a 8.051326
_cell_length_b 9.081513
_cell_length_c 13.459340
_cell_angle_alpha 90.000000
_cell_angle_beta 144.390470
_cell_angle_gamma 90.000000
_cell_volume 573.013695
_symmetry_space_group_name_H-M "P 2/C"
_symmetry_group_IT_number 13
_symmetry_cell_setting 'monoclinic'
loop_
_space_group_symop_operation_xyz
x,y,z
-x,y,1/2-z
-x,-y,-z
x,-y,1/2+z
loop_
_atom_site_type_symbol
_atom_site_label
_atom_site_fract_x
_atom_site_fract_y
_atom_site_fract_z
Si Si1 0.675755 0.072531 0.708285
Si Si2 0.265312 0.464664 0.560856
Si Si3 0.802379 0.744349 0.075875
Si Si4 0.062468 0.833046 0.893568
O O1 0.662559 0.137282 0.584060
O O2 0.955530 0.173084 0.872058
O O3 0.350699 0.098621 0.579909
O O4 0.775407 0.910759 0.792980
O O5 0.500000 0.403883 0.750000
O O6 0.370120 0.617555 0.562697
O O7 0.000000 0.500000 0.500000
O O8 0.146747 0.337076 0.433572
O O9 0.000000 0.653035 0.250000
O O10 0.000000 0.878945 0.750000
#
# Coordination Sequence:
#
# PCOD9238554 Si02
#       4
#     4   4   4   4
#     4   9  22  40  74 102 124 166 241 280 323 378
#     4  12  28  44  64 102 144 180 216 271 350 407
#     4   8  20  42  70  94 134 168 236 271 324 389
#     4  12  23  42  74 101 131 176 231 278 330 393
#
# _framework density 27.922543000000001
#
# number of rings (size 3 to 8) (size 9 to 14) (size 15 to 20)
#    1.500    0.000    2.500    3.000    3.500    1.000 
#    0.000    6.250    0.000    0.000    0.000    0.000 
#    0.000    0.000    0.000    0.000    0.000    0.000 
#
# Total GULP energy -89093.334189 kJ/mol
# GULP energy per Si atom -5568.333387 kJ/mol
# Density = 2.785899 g / cm^3
# Si number density = 27.922543 Si / 1000 Ang^3
#
#
#
# Elastic Constant Matrix: (Units=GPa)
#
#
# Indices 1 2 3 4 5 6 
#
# 1 58.2053 19.8564 19.5136 0.0000 8.1155 0.0000
# 2 19.8564 182.5827 50.2574 0.0000 -1.3047 0.0000
# 3 19.5136 50.2574 140.7649 0.0000 4.9127 0.0000
# 4 0.0000 0.0000 0.0000 50.9542 0.0000 -5.6709
# 5 8.1155 -1.3047 4.9127 0.0000 44.9305 0.0000
# 6 0.0000 0.0000 0.0000 -5.6709 0.0000 29.6297
#
#
#
# Elastic Compliance Matrix: (Units=1/GPa)
#
#
# Indices 1 2 3 4 5 6 
#
# 1 0.018806 -0.001532 -0.001947 0.000000 -0.003228 0.000000
# 2 -0.001532 0.006206 -0.002027 0.000000 0.000679 0.000000
# 3 -0.001947 -0.002027 0.008119 0.000000 -0.000595 0.000000
# 4 0.000000 0.000000 0.000000 0.020053 0.000000 0.003838
# 5 -0.003228 0.000679 -0.000595 0.000000 0.022924 0.000000
# 6 0.000000 0.000000 0.000000 0.003838 0.000000 0.034484
#
#
# Mechanical properties :
#
#
# Convention : Reuss Voigt Hill
#
# Bulk Modulus (GPa) = 45.21254 62.31196 53.76225
# Shear Modulus (GPa) = 38.76604 44.56458 41.66531
#
# Velocity S-wave (km/s) = 3.73009 3.99934 3.86706
# Velocity P-wave (km/s) = 5.89735 6.60990 6.26376
#
# Compressibility (1/GPa) = 0.02211776
#
# Stress axis : x y z
#
# Youngs Moduli (GPa) = 53.17373 161.12250 123.17541
#
# Poissons Ratio (x) = 0.24689 0.23986
# Poissons Ratio (y) = 0.08148 0.24970
# Poissons Ratio (z) = 0.10354 0.32662
#
# Static dielectric constant tensor:
#      x y z
#    x 2.338110 0.000000 -0.034410 
#    y 0.000000 2.382270 0.000000 
#    z -0.034410 0.000000 2.029670 
# 
# From -- ./inp_files/63995.got.cif
#   From: 2010.05.17/outbox.cif.g08.bks.cpg/sg13_32_cif.got.tgz:63995.got - 2010.06.03 16:44:36.
