data_PCOD9238388
_publ_section_title
;
Structure prediction by ZEFSAII (Michael W. Deem and Ramdas Pophale) SiO2 
 PCOD9238388
Probable space group: P 2/C
;
_chemical_formula_sum "Si O2"
_cell_formula_units_Z 32
_cell_length_a 11.524612
_cell_length_b 13.184116
_cell_length_c 9.948781
_cell_angle_alpha 90.000000
_cell_angle_beta 109.333862
_cell_angle_gamma 90.000000
_cell_volume 1426.387882
_symmetry_space_group_name_H-M "P 2/C"
_symmetry_group_IT_number 13
_symmetry_cell_setting 'monoclinic'
loop_
_space_group_symop_operation_xyz
x,y,z
-x,y,1/2-z
-x,-y,-z
x,-y,1/2+z
loop_
_atom_site_type_symbol
_atom_site_label
_atom_site_fract_x
_atom_site_fract_y
_atom_site_fract_z
Si Si1 0.920484 0.060449 0.357360
Si Si2 0.475225 0.323732 0.396274
Si Si3 0.881587 0.708123 0.937797
Si Si4 0.275741 0.613009 0.409717
Si Si5 0.202160 0.391224 0.359169
Si Si6 0.859859 0.703230 0.386651
Si Si7 0.478960 0.113447 0.538682
Si Si8 0.282681 0.099521 0.690128
O O1 0.898240 0.177261 0.391343
O O2 0.000000 0.056641 0.250000
O O3 0.786443 0.005084 0.300571
O O4 0.000000 0.000000 0.500000
O O5 0.500000 0.340825 0.250000
O O6 0.577761 0.382041 0.523181
O O7 0.341647 0.364281 0.378348
O O8 0.474605 0.204094 0.431223
O O9 0.871991 0.634069 0.805261
O O10 0.766671 0.692458 0.992000
O O11 0.997176 0.682793 0.076866
O O12 0.209347 0.506429 0.412743
O O13 0.228883 0.641113 0.244106
O O14 0.161137 0.321044 0.465621
O O15 0.824992 0.818545 0.344467
O O16 0.351477 0.107464 0.573195
O O17 0.603397 0.131863 0.672303
O O18 0.500000 0.000000 0.500000
#
# Coordination Sequence:
#
# PCOD9238388 Si02
#       8
#     4   4   4   4   4   4   4   4
#     4  12  29  47  77 109 151 201 245 300 369 456
#     4  12  26  48  74 105 148 194 247 311 379 450
#     4  12  28  49  74 114 153 197 249 308 369 444
#     4  12  28  48  76 108 147 199 251 313 370 444
#     4  12  27  49  75 107 150 196 254 312 377 430
#     4  12  25  46  77 104 150 193 249 303 368 453
#     4  11  27  44  71 107 144 191 241 311 376 441
#     4  11  26  46  71 107 143 192 243 302 372 446
#
# _framework density 22.434291999999999
#
# number of rings (size 3 to 8) (size 9 to 14) (size 15 to 20)
#    0.000    0.250    5.000    2.625    8.750    3.500 
#    0.000    0.000    0.000    0.000    0.000    0.000 
#    0.000    0.000    0.000    0.000    0.000    0.000 
#
# Total GULP energy -178974.243994 kJ/mol
# GULP energy per Si atom -5592.945125 kJ/mol
# Density = 2.238323 g / cm^3
# Si number density = 22.434292 Si / 1000 Ang^3
#
#
#
# Elastic Constant Matrix: (Units=GPa)
#
#
# Indices 1 2 3 4 5 6 
#
# 1 73.4136 2.1166 8.1783 0.0000 17.7151 0.0000
# 2 2.1166 86.9212 11.4021 0.0000 8.7706 0.0000
# 3 8.1783 11.4021 84.9309 0.0000 14.5633 0.0000
# 4 0.0000 0.0000 0.0000 25.1628 0.0000 -5.5016
# 5 17.7151 8.7706 14.5633 0.0000 34.2264 0.0000
# 6 0.0000 0.0000 0.0000 -5.5016 0.0000 11.9536
#
#
#
# Elastic Compliance Matrix: (Units=1/GPa)
#
#
# Indices 1 2 3 4 5 6 
#
# 1 0.015585 0.000462 -0.000172 0.000000 -0.008112 0.000000
# 2 0.000462 0.011929 -0.001166 0.000000 -0.002800 0.000000
# 3 -0.000172 -0.001166 0.012816 0.000000 -0.005065 0.000000
# 4 0.000000 0.000000 0.000000 0.044188 0.000000 0.020337
# 5 -0.008112 -0.002800 -0.005065 0.000000 0.036288 0.000000
# 6 0.000000 0.000000 0.000000 0.020337 0.000000 0.093017
#
#
# Mechanical properties :
#
#
# Convention : Reuss Voigt Hill
#
# Bulk Modulus (GPa) = 25.92203 32.07329 28.99766
# Shear Modulus (GPa) = 21.88818 29.17314 25.53066
#
# Velocity S-wave (km/s) = 3.12694 3.60999 3.37711
# Velocity P-wave (km/s) = 4.96153 5.63060 5.30662
#
# Compressibility (1/GPa) = 0.03857723
#
# Stress axis : x y z
#
# Youngs Moduli (GPa) = 64.16578 83.83037 78.02794
#
# Poissons Ratio (x) = -0.03869 0.01340
# Poissons Ratio (y) = -0.02961 0.09097
# Poissons Ratio (z) = 0.01102 0.09773
#
# Static dielectric constant tensor:
#      x y z
#    x 1.858310 0.000000 0.057100 
#    y 0.000000 1.923230 0.000000 
#    z 0.057100 0.000000 1.819420 
# 
# From -- ./inp_files/34171.got.cif
#   From: 2010.05.17/outbox.cif.g08.bks.cpg/sg13_18_cif.got.tgz:34171.got - 2010.06.03 16:44:36.
