data_PCOD9238030
_publ_section_title
;
Structure prediction by ZEFSAII (Michael W. Deem and Ramdas Pophale) SiO2 
 PCOD9238030
Probable space group: P 2/C
;
_chemical_formula_sum "Si O2"
_cell_formula_units_Z 28
_cell_length_a 18.399021
_cell_length_b 5.230074
_cell_length_c 27.750022
_cell_angle_alpha 90.000000
_cell_angle_beta 154.891686
_cell_angle_gamma 90.000000
_cell_volume 1133.105792
_symmetry_space_group_name_H-M "P 2/C"
_symmetry_group_IT_number 13
_symmetry_cell_setting 'monoclinic'
loop_
_space_group_symop_operation_xyz
x,y,z
-x,y,1/2-z
-x,-y,-z
x,-y,1/2+z
loop_
_atom_site_type_symbol
_atom_site_label
_atom_site_fract_x
_atom_site_fract_y
_atom_site_fract_z
Si Si1 0.666164 0.644484 0.449532
Si Si2 0.388136 0.562034 0.481579
Si Si3 0.719516 0.759693 0.697911
Si Si4 0.109422 0.073593 0.775679
Si Si5 0.128598 0.953935 0.120572
Si Si6 0.987372 0.374818 0.867669
Si Si7 0.496812 0.131872 0.305564
O O1 0.641551 0.639255 0.492958
O O2 0.628284 0.919658 0.404075
O O3 0.857080 0.564633 0.547941
O O4 0.542624 0.415526 0.353916
O O5 0.500000 0.500000 0.500000
O O6 0.519042 0.762837 0.585798
O O7 0.210574 0.696716 0.362021
O O8 0.797117 0.478034 0.741158
O O9 0.755101 0.897646 0.669330
O O10 0.835190 0.874568 0.809985
O O11 0.988170 0.166284 0.659588
O O12 0.000000 0.932319 0.750000
O O13 0.040787 0.712162 0.094608
O O14 0.316388 0.994240 0.210583
O O15 0.000000 0.000000 0.000000
O O16 0.500000 0.156512 0.250000
#
# Coordination Sequence:
#
# PCOD9238030 Si02
#       7
#     4   4   4   4   4   4   4
#     4  12  28  48  77 109 156 192 254 315 373 456
#     4  12  24  44  69 105 146 199 244 304 373 444
#     4  11  25  44  70  99 140 189 246 303 367 450
#     4  11  24  42  66 102 141 187 245 295 368 438
#     4  11  26  47  76 103 144 190 249 312 381 446
#     4  11  25  46  70 105 143 190 251 305 369 448
#     4  12  28  51  76 112 150 200 250 315 387 447
#
# _framework density 24.710844999999999
#
# number of rings (size 3 to 8) (size 9 to 14) (size 15 to 20)
#    0.000    0.571    4.286    2.571    8.000    3.429 
#    0.000    0.000    0.000    0.000    0.000    0.000 
#    0.000    0.000    0.000    0.000    0.000    0.000 
#
# Total GULP energy -156282.144242 kJ/mol
# GULP energy per Si atom -5581.505151 kJ/mol
# Density = 2.465460 g / cm^3
# Si number density = 24.710845 Si / 1000 Ang^3
#
#
#
# Elastic Constant Matrix: (Units=GPa)
#
#
# Indices 1 2 3 4 5 6 
#
# 1 141.4326 8.4408 19.2357 0.0000 -18.8887 0.0000
# 2 8.4408 52.6429 7.9247 0.0000 -19.7062 0.0000
# 3 19.2357 7.9247 120.2135 0.0000 -4.8712 0.0000
# 4 0.0000 0.0000 0.0000 51.0732 0.0000 3.5464
# 5 -18.8887 -19.7062 -4.8712 0.0000 48.5508 0.0000
# 6 0.0000 0.0000 0.0000 3.5464 0.0000 28.9655
#
#
#
# Elastic Compliance Matrix: (Units=1/GPa)
#
#
# Indices 1 2 3 4 5 6 
#
# 1 0.007600 0.000015 -0.001102 0.000000 0.002852 0.000000
# 2 0.000015 0.022549 -0.001122 0.000000 0.009045 0.000000
# 3 -0.001102 -0.001122 0.008568 0.000000 -0.000024 0.000000
# 4 0.000000 0.000000 0.000000 0.019748 0.000000 -0.002418
# 5 0.002852 0.009045 -0.000024 0.000000 0.025376 0.000000
# 6 0.000000 0.000000 0.000000 -0.002418 0.000000 0.034820
#
#
# Mechanical properties :
#
#
# Convention : Reuss Voigt Hill
#
# Bulk Modulus (GPa) = 29.15548 42.83238 35.99393
# Shear Modulus (GPa) = 37.17178 44.29708 40.73443
#
# Velocity S-wave (km/s) = 3.88270 4.23852 4.06451
# Velocity P-wave (km/s) = 5.65020 6.42841 6.05183
#
# Compressibility (1/GPa) = 0.03429887
#
# Stress axis : x y z
#
# Youngs Moduli (GPa) = 131.57229 44.34884 116.71622
#
# Poissons Ratio (x) = -0.00066 0.12857
# Poissons Ratio (y) = -0.00197 0.13099
# Poissons Ratio (z) = 0.14493 0.04977
#
# Static dielectric constant tensor:
#      x y z
#    x 1.901180 0.000000 0.008390 
#    y 0.000000 2.028980 0.000000 
#    z 0.008390 0.000000 1.963770 
# 
# From -- ./inp_files/93183.got.cif
#   From: 2010.05.17/outbox.cif.g08.bks.cpg/sg13_47_cif.got.tgz:93183.got - 2010.06.03 16:44:36.
