data_PCOD9238556
_publ_section_title
;
Structure prediction by ZEFSAII (Michael W. Deem and Ramdas Pophale) SiO2 
 PCOD9238556
Probable space group: P 2/C
;
_chemical_formula_sum "Si O2"
_cell_formula_units_Z 16
_cell_length_a 10.500078
_cell_length_b 11.457204
_cell_length_c 14.907804
_cell_angle_alpha 90.000000
_cell_angle_beta 24.647339
_cell_angle_gamma 90.000000
_cell_volume 747.918200
_symmetry_space_group_name_H-M "P 2/C"
_symmetry_group_IT_number 13
_symmetry_cell_setting 'monoclinic'
loop_
_space_group_symop_operation_xyz
x,y,z
-x,y,1/2-z
-x,-y,-z
x,-y,1/2+z
loop_
_atom_site_type_symbol
_atom_site_label
_atom_site_fract_x
_atom_site_fract_y
_atom_site_fract_z
Si Si1 0.402271 0.785055 0.718137
Si Si2 0.294887 0.245369 0.802865
Si Si3 0.348830 0.024450 0.001795
Si Si4 0.305707 0.383572 0.612027
O O1 0.500000 0.728035 0.750000
O O2 0.504238 0.709035 0.568492
O O3 0.588200 0.906663 0.594186
O O4 0.036941 0.796910 0.951292
O O5 0.500000 0.302913 0.750000
O O6 0.489893 0.133368 0.647488
O O7 0.245680 0.327170 0.747911
O O8 0.000000 0.046290 0.250000
O O9 0.500000 0.000000 0.000000
O O10 0.500000 0.500000 0.500000
O O11 0.000000 0.405276 0.750000
#
# Coordination Sequence:
#
# PCOD9238556 Si02
#       4
#     4   4   4   4
#     4  12  24  47  74 104 147 191 238 289 363 427
#     4  12  27  45  73 112 146 189 237 294 362 430
#     4  12  23  42  74 106 150 191 231 289 359 427
#     4  12  29  51  76 103 142 190 244 302 355 421
#
# _framework density 21.392713000000001
#
# number of rings (size 3 to 8) (size 9 to 14) (size 15 to 20)
#    0.000    0.000    5.000    5.250    3.500    2.000 
#    0.000    0.000    0.000    0.000    0.000    0.000 
#    0.000    0.000    0.000    0.000    0.000    0.000 
#
# Total GULP energy -89583.856878 kJ/mol
# GULP energy per Si atom -5598.991055 kJ/mol
# Density = 2.134402 g / cm^3
# Si number density = 21.392713 Si / 1000 Ang^3
#
#
#
# Elastic Constant Matrix: (Units=GPa)
#
#
# Indices 1 2 3 4 5 6 
#
# 1 143.9619 15.7672 42.8935 0.0000 -6.0663 0.0000
# 2 15.7672 105.6761 40.2341 0.0000 -6.7984 0.0000
# 3 42.8935 40.2341 157.6744 0.0000 -36.3176 0.0000
# 4 0.0000 0.0000 0.0000 13.9065 0.0000 -15.6981
# 5 -6.0663 -6.7984 -36.3176 0.0000 51.3389 0.0000
# 6 0.0000 0.0000 0.0000 -15.6981 0.0000 9.2314
#
#
#
# Elastic Compliance Matrix: (Units=1/GPa)
#
#
# Indices 1 2 3 4 5 6 
#
# 1 0.007591 -0.000367 -0.002122 0.000000 -0.000653 0.000000
# 2 -0.000367 0.010514 -0.002715 0.000000 -0.000572 0.000000
# 3 -0.002122 -0.002715 0.008926 0.000000 0.005704 0.000000
# 4 0.000000 0.000000 0.000000 -0.078198 0.000000 -0.132976
# 5 -0.000653 -0.000572 0.005704 0.000000 0.023361 0.000000
# 6 0.000000 0.000000 0.000000 -0.132976 0.000000 -0.117799
#
#
# Mechanical properties :
#
#
# Convention : Reuss Voigt Hill
#
# Bulk Modulus (GPa) = 60.15130 67.23355 63.69242
# Shear Modulus (GPa) = -38.56344 35.45653 -1.55345
#
# Velocity S-wave (km/s) = -4.25036 4.07555 -0.85307
# Velocity P-wave (km/s) = 2.02269 7.32416 5.37283
#
# Compressibility (1/GPa) = 0.01662475
#
# Stress axis : x y z
#
# Youngs Moduli (GPa) = 131.73246 95.10701 112.03228
#
# Poissons Ratio (x) = 0.03488 0.23771
# Poissons Ratio (y) = 0.04832 0.30415
# Poissons Ratio (z) = 0.27951 0.25820
#
# Static dielectric constant tensor:
#      x y z
#    x 1.777160 0.000000 0.002160 
#    y 0.000000 1.794900 0.000000 
#    z 0.002160 0.000000 1.726320 
# 
# From -- ./inp_files/43384.got.cif
#   From: 2010.05.17/outbox.cif.g08.bks.cpg/sg13_22_cif.got.tgz:43384.got - 2010.06.03 16:44:36.
