data_PCOD9238850
_publ_section_title
;
Structure prediction by ZEFSAII (Michael W. Deem and Ramdas Pophale) SiO2 
 PCOD9238850
Probable space group: P 2/C
;
_chemical_formula_sum "Si O2"
_cell_formula_units_Z 24
_cell_length_a 7.927743
_cell_length_b 8.018340
_cell_length_c 15.596970
_cell_angle_alpha 90.000000
_cell_angle_beta 59.853327
_cell_angle_gamma 90.000000
_cell_volume 857.355866
_symmetry_space_group_name_H-M "P 2/C"
_symmetry_group_IT_number 13
_symmetry_cell_setting 'monoclinic'
loop_
_space_group_symop_operation_xyz
x,y,z
-x,y,1/2-z
-x,-y,-z
x,-y,1/2+z
loop_
_atom_site_type_symbol
_atom_site_label
_atom_site_fract_x
_atom_site_fract_y
_atom_site_fract_z
Si Si1 0.081285 0.207014 0.820029
Si Si2 0.091198 0.545393 0.570098
Si Si3 0.258439 0.936538 0.013718
Si Si4 0.591437 0.038547 0.833982
Si Si5 0.434984 0.588244 0.907710
Si Si6 0.247038 0.694169 0.775674
O O1 0.000000 0.142532 0.750000
O O2 0.991767 0.389716 0.854572
O O3 0.971461 0.100669 0.921531
O O4 0.310558 0.189749 0.743169
O O5 0.321468 0.553041 0.490100
O O6 0.000000 0.500000 0.500000
O O7 0.982356 0.697720 0.644262
O O8 0.323641 0.986881 0.092058
O O9 0.361549 0.045967 0.914052
O O10 0.362530 0.756661 0.972248
O O11 0.666256 0.876532 0.763324
O O12 0.336479 0.612466 0.838930
O O13 0.663717 0.588834 0.826888
#
# Coordination Sequence:
#
# PCOD9238850 Si02
#       6
#     4   4   4   4   4   4
#     4   9  17  31  50  68  92 126 155 182 228 281
#     4   9  17  31  49  69  93 125 156 186 227 276
#     4   8  15  29  48  67  90 122 153 183 226 277
#     4   9  16  28  49  71  90 118 156 193 225 267
#     4   8  15  29  49  68  92 127 154 178 228 284
#     4   9  16  28  49  72  93 119 155 191 223 267
#
# _framework density 27.993046
#
# number of rings (size 3 to 8) (size 9 to 14) (size 15 to 20)
#    0.000    3.333    0.000    0.000    0.000    0.000 
#    0.000   11.667    0.000   48.000    0.000    0.000 
#    0.000    0.000    0.000    0.000    0.000    0.000 
#
# Total GULP energy -133940.105046 kJ/mol
# GULP energy per Si atom -5580.837710 kJ/mol
# Density = 2.792933 g / cm^3
# Si number density = 27.993046 Si / 1000 Ang^3
#
#
#
# Elastic Constant Matrix: (Units=GPa)
#
#
# Indices 1 2 3 4 5 6 
#
# 1 77.0271 -0.0465 49.5555 0.0000 -12.0690 0.0000
# 2 -0.0465 62.3429 62.7891 0.0000 -7.4630 0.0000
# 3 49.5555 62.7891 219.2875 0.0000 -12.3358 0.0000
# 4 0.0000 0.0000 0.0000 52.1683 0.0000 4.1815
# 5 -12.0690 -7.4630 -12.3358 0.0000 46.3293 0.0000
# 6 0.0000 0.0000 0.0000 4.1815 0.0000 9.8142
#
#
#
# Elastic Compliance Matrix: (Units=1/GPa)
#
#
# Indices 1 2 3 4 5 6 
#
# 1 0.017005 0.005807 -0.005283 0.000000 0.003959 0.000000
# 2 0.005807 0.024697 -0.008198 0.000000 0.003308 0.000000
# 3 -0.005283 -0.008198 0.008071 0.000000 -0.000548 0.000000
# 4 0.000000 0.000000 0.000000 0.019847 0.000000 -0.008456
# 5 0.003959 0.003308 -0.000548 0.000000 0.023003 0.000000
# 6 0.000000 0.000000 0.000000 -0.008456 0.000000 0.105496
#
#
# Mechanical properties :
#
#
# Convention : Reuss Voigt Hill
#
# Bulk Modulus (GPa) = 29.04790 64.80597 46.92694
# Shear Modulus (GPa) = 22.22813 38.08632 30.15722
#
# Velocity S-wave (km/s) = 2.82096 3.69258 3.28580
# Velocity P-wave (km/s) = 4.58364 6.43282 5.58529
#
# Compressibility (1/GPa) = 0.03442589
#
# Stress axis : x y z
#
# Youngs Moduli (GPa) = 58.80602 40.49032 123.90646
#
# Poissons Ratio (x) = -0.23514 0.65460
# Poissons Ratio (y) = -0.34151 1.01577
# Poissons Ratio (z) = 0.31067 0.33194
#
# Static dielectric constant tensor:
#      x y z
#    x 2.403880 0.000000 -0.145660 
#    y 0.000000 2.294100 0.000000 
#    z -0.145660 0.000000 2.220020 
# 
# From -- ./inp_files/52644.got.cif
#   From: 2010.05.17/outbox.cif.g08.bks.cpg/sg13_27_cif.got.tgz:52644.got - 2010.06.03 16:44:36.
