data_PCOD9238040
_publ_section_title
;
Structure prediction by ZEFSAII (Michael W. Deem and Ramdas Pophale) SiO2 
 PCOD9238040
Probable space group: P 2/C
;
_chemical_formula_sum "Si O2"
_cell_formula_units_Z 18
_cell_length_a 10.986726
_cell_length_b 10.777729
_cell_length_c 10.863176
_cell_angle_alpha 90.000000
_cell_angle_beta 36.842767
_cell_angle_gamma 90.000000
_cell_volume 771.310579
_symmetry_space_group_name_H-M "P 2/C"
_symmetry_group_IT_number 13
_symmetry_cell_setting 'monoclinic'
loop_
_space_group_symop_operation_xyz
x,y,z
-x,y,1/2-z
-x,-y,-z
x,-y,1/2+z
loop_
_atom_site_type_symbol
_atom_site_label
_atom_site_fract_x
_atom_site_fract_y
_atom_site_fract_z
Si Si1 0.845702 0.567734 0.484136
Si Si2 0.500000 0.231642 0.250000
Si Si3 0.844340 0.075201 0.280440
Si Si4 0.108973 0.310749 0.973718
Si Si5 0.587295 0.145466 0.906734
O O1 0.681350 0.672220 0.598618
O O2 0.795164 0.420771 0.521334
O O3 0.000000 0.585186 0.250000
O O4 0.941312 0.613583 0.534465
O O5 0.481208 0.157493 0.394062
O O6 0.622557 0.128829 0.500161
O O7 0.000000 0.010672 0.250000
O O8 0.752499 0.967340 0.266622
O O9 0.984160 0.191750 0.125705
O O10 0.287865 0.261551 0.742321
#
# Coordination Sequence:
#
# PCOD9238040 Si02
#       5
#     4   2   4   4   4
#     4  11  24  42  70 102 137 184 228 286 345 412
#     4  12  24  44  72 104 140 186 238 282 350 422
#     4  11  26  45  71 103 143 181 232 289 352 410
#     4  11  24  44  69 101 141 178 234 284 345 414
#     4  11  26  45  71 104 137 186 236 285 348 419
#
# _framework density 23.336903
#
# number of rings (size 3 to 8) (size 9 to 14) (size 15 to 20)
#    0.000    0.889    4.444    1.333    3.111    8.889 
#    0.000    0.000    0.000    0.000    0.000    0.000 
#    0.000    0.000    0.000    0.000    0.000    0.000 
#
# Total GULP energy -100221.993499 kJ/mol
# GULP energy per Si atom -5567.888528 kJ/mol
# Density = 2.328379 g / cm^3
# Si number density = 23.336903 Si / 1000 Ang^3
#
#
#
# Elastic Constant Matrix: (Units=GPa)
#
#
# Indices 1 2 3 4 5 6 
#
# 1 70.6792 27.2930 32.0547 0.0000 -28.4270 0.0000
# 2 27.2930 110.2080 42.4939 0.0000 -12.7639 0.0000
# 3 32.0547 42.4939 75.7226 0.0000 -1.6440 0.0000
# 4 0.0000 0.0000 0.0000 94.4265 0.0000 -16.5299
# 5 -28.4270 -12.7639 -1.6440 0.0000 25.8515 0.0000
# 6 0.0000 0.0000 0.0000 -16.5299 0.0000 34.9693
#
#
#
# Elastic Compliance Matrix: (Units=1/GPa)
#
#
# Indices 1 2 3 4 5 6 
#
# 1 0.036795 0.001553 -0.015574 0.000000 0.040238 0.000000
# 2 0.001553 0.012422 -0.007468 0.000000 0.007366 0.000000
# 3 -0.015574 -0.007468 0.023571 0.000000 -0.019314 0.000000
# 4 0.000000 0.000000 0.000000 0.011546 0.000000 0.005458
# 5 0.040238 0.007366 -0.019314 0.000000 0.085337 0.000000
# 6 0.000000 0.000000 0.000000 0.005458 0.000000 0.031176
#
#
# Mechanical properties :
#
#
# Convention : Reuss Voigt Hill
#
# Bulk Modulus (GPa) = 33.54697 51.14364 42.34531
# Shear Modulus (GPa) = 19.70347 41.36733 30.53540
#
# Velocity S-wave (km/s) = 2.90885 4.21481 3.62119
# Velocity P-wave (km/s) = 5.06835 6.75641 5.97232
#
# Compressibility (1/GPa) = 0.02980895
#
# Stress axis : x y z
#
# Youngs Moduli (GPa) = 27.17728 80.50299 42.42586
#
# Poissons Ratio (x) = -0.12500 0.66074
# Poissons Ratio (y) = -0.04220 0.31685
# Poissons Ratio (z) = 0.42326 0.60122
#
# Static dielectric constant tensor:
#      x y z
#    x 1.465520 0.000000 0.246890 
#    y 0.000000 2.008740 0.000000 
#    z 0.246890 0.000000 1.765720 
# 
# From -- ./inp_files/33518.got.cif
#   From: 2010.05.17/outbox.cif.g08.bks.cpg/sg13_17_cif.got.tgz:33518.got - 2010.06.03 16:44:36.
