data_PCOD9238182
_publ_section_title
;
Structure prediction by ZEFSAII (Michael W. Deem and Ramdas Pophale) SiO2 
 PCOD9238182
Probable space group: P 2/C
;
_chemical_formula_sum "Si O2"
_cell_formula_units_Z 20
_cell_length_a 9.635024
_cell_length_b 11.855049
_cell_length_c 8.825088
_cell_angle_alpha 90.000000
_cell_angle_beta 116.543331
_cell_angle_gamma 90.000000
_cell_volume 901.783888
_symmetry_space_group_name_H-M "P 2/C"
_symmetry_group_IT_number 13
_symmetry_cell_setting 'monoclinic'
loop_
_space_group_symop_operation_xyz
x,y,z
-x,y,1/2-z
-x,-y,-z
x,-y,1/2+z
loop_
_atom_site_type_symbol
_atom_site_label
_atom_site_fract_x
_atom_site_fract_y
_atom_site_fract_z
Si Si1 0.627339 0.320479 0.085836
Si Si2 0.399000 0.918154 0.053874
Si Si3 0.108571 0.076693 0.948274
Si Si4 0.277421 0.317712 0.026840
Si Si5 0.116631 0.533650 0.921003
O O1 0.439436 0.316986 0.012533
O O2 0.683801 0.356315 0.281465
O O3 0.722215 0.394598 0.007883
O O4 0.661547 0.190871 0.063871
O O5 0.500000 0.884102 0.250000
O O6 0.500000 0.000000 0.000000
O O7 0.256645 0.996569 0.021605
O O8 0.000000 0.090238 0.750000
O O9 0.185431 0.200870 0.005077
O O10 0.000000 0.000000 0.000000
O O11 0.173213 0.410880 0.894687
O O12 0.000000 0.595857 0.750000
O O13 0.000000 0.500000 0.000000
#
# Coordination Sequence:
#
# PCOD9238182 Si02
#       5
#     4   4   4   4   4
#     4  11  25  45  74 104 142 197 242 299 364 441
#     4  12  25  47  73 106 146 191 242 296 365 443
#     4  12  26  43  73 110 147 188 238 300 362 423
#     4  11  24  47  71 104 149 192 245 294 365 446
#     4  12  26  47  72 104 146 186 243 306 369 427
#
# _framework density 22.178262
#
# number of rings (size 3 to 8) (size 9 to 14) (size 15 to 20)
#    0.000    0.400    4.000    4.800    2.800    2.400 
#    3.600    0.000    0.000    0.000    0.000    0.000 
#    0.000    0.000    0.000    0.000    0.000    0.000 
#
# Total GULP energy -111357.159305 kJ/mol
# GULP energy per Si atom -5567.857965 kJ/mol
# Density = 2.212778 g / cm^3
# Si number density = 22.178262 Si / 1000 Ang^3
#
#
#
# Elastic Constant Matrix: (Units=GPa)
#
#
# Indices 1 2 3 4 5 6 
#
# 1 172.2262 72.0432 9.9849 0.0000 -13.0153 0.0000
# 2 72.0432 131.7751 -12.1171 0.0000 -7.7718 0.0000
# 3 9.9849 -12.1171 52.4289 0.0000 4.6441 0.0000
# 4 0.0000 0.0000 0.0000 24.2729 0.0000 8.2602
# 5 -13.0153 -7.7718 4.6441 0.0000 35.3029 0.0000
# 6 0.0000 0.0000 0.0000 8.2602 0.0000 49.0266
#
#
#
# Elastic Compliance Matrix: (Units=1/GPa)
#
#
# Indices 1 2 3 4 5 6 
#
# 1 0.008029 -0.004507 -0.002778 0.000000 0.002333 0.000000
# 2 -0.004507 0.010362 0.003236 0.000000 0.000194 0.000000
# 3 -0.002778 0.003236 0.020618 0.000000 -0.003024 0.000000
# 4 0.000000 0.000000 0.000000 0.043704 0.000000 -0.007363
# 5 0.002333 0.000194 -0.003024 0.000000 0.029627 0.000000
# 6 0.000000 0.000000 0.000000 -0.007363 0.000000 0.021638
#
#
# Mechanical properties :
#
#
# Convention : Reuss Voigt Hill
#
# Bulk Modulus (GPa) = 32.35044 55.13912 43.74478
# Shear Modulus (GPa) = 32.81279 40.82177 36.81728
#
# Velocity S-wave (km/s) = 3.85060 4.29490 4.07881
# Velocity P-wave (km/s) = 5.86411 7.03638 6.47682
#
# Compressibility (1/GPa) = 0.03091148
#
# Stress axis : x y z
#
# Youngs Moduli (GPa) = 124.54598 96.50689 48.50090
#
# Poissons Ratio (x) = 0.43500 0.13471
# Poissons Ratio (y) = 0.56138 -0.15695
# Poissons Ratio (z) = 0.34593 -0.31230
#
# Static dielectric constant tensor:
#      x y z
#    x 1.797710 0.000000 -0.030690 
#    y 0.000000 1.831230 0.000000 
#    z -0.030690 0.000000 1.897040 
# 
# From -- ./inp_files/11852.got.cif
#   From: 2010.05.17/outbox.cif.g08.bks.cpg/sg13_6_cif.got.tgz:11852.got - 2010.06.03 16:44:36.
