data_PCOD9238632
_publ_section_title
;
Structure prediction by ZEFSAII (Michael W. Deem and Ramdas Pophale) SiO2 
 PCOD9238632
Probable space group: P 2/C
;
_chemical_formula_sum "Si O2"
_cell_formula_units_Z 12
_cell_length_a 4.917712
_cell_length_b 19.552086
_cell_length_c 5.450484
_cell_angle_alpha 90.000000
_cell_angle_beta 103.270957
_cell_angle_gamma 90.000000
_cell_volume 510.077200
_symmetry_space_group_name_H-M "P 2/C"
_symmetry_group_IT_number 13
_symmetry_cell_setting 'monoclinic'
loop_
_space_group_symop_operation_xyz
x,y,z
-x,y,1/2-z
-x,-y,-z
x,-y,1/2+z
loop_
_atom_site_type_symbol
_atom_site_label
_atom_site_fract_x
_atom_site_fract_y
_atom_site_fract_z
Si Si1 0.196399 0.434604 0.096870
Si Si2 0.500000 0.769399 0.250000
Si Si3 0.000000 0.320786 0.750000
Si Si4 0.500000 0.853828 0.750000
Si Si5 0.000000 0.044493 0.250000
O O1 0.500000 0.456931 0.250000
O O2 0.000000 0.396471 0.250000
O O3 0.222129 0.376639 0.901264
O O4 0.000000 0.500000 0.000000
O O5 0.787717 0.727232 0.355634
O O6 0.438004 0.809652 0.491730
O O7 0.258480 0.904695 0.784817
O O8 0.000000 0.000000 0.500000
#
# Coordination Sequence:
#
# PCOD9238632 Si02
#       5
#     4   2   2   2   2
#     4  12  26  44  71 101 140 180 248 327 397 452
#     4  12  28  47  72 103 152 206 246 302 362 456
#     4  12  28  45  70 101 138 200 256 302 386 462
#     4  12  26  49  72 111 156 194 244 298 362 428
#     4  12  24  45  80 115 148 192 242 298 360 428
#
# _framework density 23.525849999999998
#
# number of rings (size 3 to 8) (size 9 to 14) (size 15 to 20)
#    0.000    0.000    1.667    8.000    9.333    0.000 
#    0.000    0.000    0.000    0.000    0.000    0.000 
#    0.000    0.000    0.000    0.000    0.000    0.000 
#
# Total GULP energy -66930.956150 kJ/mol
# GULP energy per Si atom -5577.579679 kJ/mol
# Density = 2.347230 g / cm^3
# Si number density = 23.525850 Si / 1000 Ang^3
#
#
#
# Elastic Constant Matrix: (Units=GPa)
#
#
# Indices 1 2 3 4 5 6 
#
# 1 185.5069 56.3640 34.7002 0.0000 16.9410 0.0000
# 2 56.3640 124.7602 69.4230 0.0000 -1.5365 0.0000
# 3 34.7002 69.4230 136.7767 0.0000 -10.0532 0.0000
# 4 0.0000 0.0000 0.0000 31.9792 0.0000 -5.2997
# 5 16.9410 -1.5365 -10.0532 0.0000 44.9068 0.0000
# 6 0.0000 0.0000 0.0000 -5.2997 0.0000 44.0781
#
#
#
# Elastic Compliance Matrix: (Units=1/GPa)
#
#
# Indices 1 2 3 4 5 6 
#
# 1 0.006553 -0.002730 -0.000473 0.000000 -0.002671 0.000000
# 2 -0.002730 0.012344 -0.005557 0.000000 0.000208 0.000000
# 3 -0.000473 -0.005557 0.010423 0.000000 0.002322 0.000000
# 4 0.000000 0.000000 0.000000 0.031906 0.000000 0.003836
# 5 -0.002671 0.000208 0.002322 0.000000 0.023803 0.000000
# 6 0.000000 0.000000 0.000000 0.003836 0.000000 0.023148
#
#
# Mechanical properties :
#
#
# Convention : Reuss Voigt Hill
#
# Bulk Modulus (GPa) = 84.75992 85.33534 85.04763
# Shear Modulus (GPa) = 38.57153 43.29660 40.93407
#
# Velocity S-wave (km/s) = 4.05351 4.29462 4.17581
# Velocity P-wave (km/s) = 7.61673 7.80663 7.71227
#
# Compressibility (1/GPa) = 0.01179803
#
# Stress axis : x y z
#
# Youngs Moduli (GPa) = 152.61272 81.01340 95.94591
#
# Poissons Ratio (x) = 0.22116 0.04539
# Poissons Ratio (y) = 0.41662 0.53320
# Poissons Ratio (z) = 0.07220 0.45022
#
# Static dielectric constant tensor:
#      x y z
#    x 1.693890 0.000000 0.140040 
#    y 0.000000 1.869800 0.000000 
#    z 0.140040 0.000000 2.231700 
# 
# From -- ./inp_files/223.got.cif
#   From: 2010.05.17/outbox.cif.g08.bks.cpg/sg13_1_cif.got.tgz:223.got - 2010.06.03 16:44:36.
