data_PCOD9238146
_publ_section_title
;
Structure prediction by ZEFSAII (Michael W. Deem and Ramdas Pophale) SiO2 
 PCOD9238146
Probable space group: P 2/C
;
_chemical_formula_sum "Si O2"
_cell_formula_units_Z 18
_cell_length_a 10.529466
_cell_length_b 5.802653
_cell_length_c 17.952265
_cell_angle_alpha 90.000000
_cell_angle_beta 41.462519
_cell_angle_gamma 90.000000
_cell_volume 726.265542
_symmetry_space_group_name_H-M "P 2/C"
_symmetry_group_IT_number 13
_symmetry_cell_setting 'monoclinic'
loop_
_space_group_symop_operation_xyz
x,y,z
-x,y,1/2-z
-x,-y,-z
x,-y,1/2+z
loop_
_atom_site_type_symbol
_atom_site_label
_atom_site_fract_x
_atom_site_fract_y
_atom_site_fract_z
Si Si1 0.359008 0.716497 0.061257
Si Si2 0.000000 0.481618 0.750000
Si Si3 0.835060 0.801325 0.063111
Si Si4 0.839402 0.384338 0.175156
Si Si5 0.540909 0.994356 0.846076
O O1 0.139774 0.666586 0.138493
O O2 0.350949 0.821432 0.148362
O O3 0.500000 0.500000 0.000000
O O4 0.435219 0.863291 0.959749
O O5 0.864372 0.614613 0.753445
O O6 0.795165 0.619779 0.148356
O O7 0.631133 0.892837 0.124849
O O8 0.000000 0.000000 0.000000
O O9 0.946729 0.666081 0.949091
O O10 0.679237 0.180051 0.239006
#
# Coordination Sequence:
#
# PCOD9238146 Si02
#       5
#     4   2   4   4   4
#     4  11  24  45  75 119 154 201 260 335 396 488
#     4  12  24  48  80 106 158 200 262 324 404 474
#     4  11  27  53  74 113 161 212 265 330 410 484
#     4  11  27  50  78 116 157 210 267 337 395 497
#     4  11  26  47  79 114 154 207 269 329 410 476
#
# _framework density 24.784323000000001
#
# number of rings (size 3 to 8) (size 9 to 14) (size 15 to 20)
#    0.000    0.889    2.222    2.667    9.333    2.667 
#    4.000    0.000    0.000    0.000    0.000    0.000 
#    0.000    0.000    0.000    0.000    0.000    0.000 
#
# Total GULP energy -100437.555918 kJ/mol
# GULP energy per Si atom -5579.864218 kJ/mol
# Density = 2.472791 g / cm^3
# Si number density = 24.784323 Si / 1000 Ang^3
#
#
#
# Elastic Constant Matrix: (Units=GPa)
#
#
# Indices 1 2 3 4 5 6 
#
# 1 146.3748 76.8027 52.5928 0.0000 -9.4142 0.0000
# 2 76.8027 108.8970 40.4939 0.0000 1.6828 0.0000
# 3 52.5928 40.4939 171.3239 0.0000 1.9889 0.0000
# 4 0.0000 0.0000 0.0000 61.9945 0.0000 -1.9271
# 5 -9.4142 1.6828 1.9889 0.0000 48.8260 0.0000
# 6 0.0000 0.0000 0.0000 -1.9271 0.0000 51.4901
#
#
#
# Elastic Compliance Matrix: (Units=1/GPa)
#
#
# Indices 1 2 3 4 5 6 
#
# 1 0.011612 -0.007557 -0.001808 0.000000 0.002573 0.000000
# 2 -0.007557 0.014989 -0.001201 0.000000 -0.001925 0.000000
# 3 -0.001808 -0.001201 0.006683 0.000000 -0.000580 0.000000
# 4 0.000000 0.000000 0.000000 0.016149 0.000000 0.000604
# 5 0.002573 -0.001925 -0.000580 0.000000 0.021067 0.000000
# 6 0.000000 0.000000 0.000000 0.000604 0.000000 0.019444
#
#
# Mechanical properties :
#
#
# Convention : Reuss Voigt Hill
#
# Bulk Modulus (GPa) = 82.29357 85.15271 83.72314
# Shear Modulus (GPa) = 43.43043 49.57590 46.50317
#
# Velocity S-wave (km/s) = 4.19063 4.47732 4.33634
# Velocity P-wave (km/s) = 7.52935 7.82052 7.67632
#
# Compressibility (1/GPa) = 0.01215162
#
# Stress axis : x y z
#
# Youngs Moduli (GPa) = 86.11587 66.71526 149.64413
#
# Poissons Ratio (x) = 0.50418 0.27061
# Poissons Ratio (y) = 0.65079 0.17966
# Poissons Ratio (z) = 0.15573 0.08010
#
# Static dielectric constant tensor:
#      x y z
#    x 1.945030 0.000000 0.038570 
#    y 0.000000 2.342910 0.000000 
#    z 0.038570 0.000000 1.991680 
# 
# From -- ./inp_files/76986.got.cif
#   From: 2010.05.17/outbox.cif.g08.bks.cpg/sg13_39_cif.got.tgz:76986.got - 2010.06.03 16:44:36.
