data_PCOD9238324
_publ_section_title
;
Structure prediction by ZEFSAII (Michael W. Deem and Ramdas Pophale) SiO2 
 PCOD9238324
Probable space group: P 2/C
;
_chemical_formula_sum "Si O2"
_cell_formula_units_Z 12
_cell_length_a 11.346679
_cell_length_b 4.955695
_cell_length_c 6.799336
_cell_angle_alpha 90.000000
_cell_angle_beta 92.859306
_cell_angle_gamma 90.000000
_cell_volume 381.855302
_symmetry_space_group_name_H-M "P 2/C"
_symmetry_group_IT_number 13
_symmetry_cell_setting 'monoclinic'
loop_
_space_group_symop_operation_xyz
x,y,z
-x,y,1/2-z
-x,-y,-z
x,-y,1/2+z
loop_
_atom_site_type_symbol
_atom_site_label
_atom_site_fract_x
_atom_site_fract_y
_atom_site_fract_z
Si Si1 0.736548 0.128751 0.152530
Si Si2 0.409600 0.497782 0.622352
Si Si3 0.912364 0.747061 0.977526
O O1 0.690132 0.286074 0.954344
O O2 0.630840 0.208310 0.295743
O O3 0.843899 0.283443 0.266898
O O4 0.445283 0.408233 0.879545
O O5 0.197432 0.850429 0.395610
O O6 0.000000 0.500000 0.000000
O O7 0.000000 0.000000 0.000000
#
# Coordination Sequence:
#
# PCOD9238324 Si02
#       3
#     4   4   4
#     4  11  25  47  83 123 171 223 282 352 427 508
#     4   9  21  48  84 126 169 219 281 349 426 512
#     4  12  29  51  80 123 169 224 285 349 422 508
#
# _framework density 31.425516999999999
#
# number of rings (size 3 to 8) (size 9 to 14) (size 15 to 20)
#    0.000    1.333    0.000    3.000    0.000   18.667 
#    0.000   21.667    0.000    0.000    0.000    0.000 
#    0.000    0.000    0.000    0.000    0.000    0.000 
#
# Total GULP energy -66863.504098 kJ/mol
# GULP energy per Si atom -5571.958675 kJ/mol
# Density = 3.135399 g / cm^3
# Si number density = 31.425517 Si / 1000 Ang^3
#
#
#
# Elastic Constant Matrix: (Units=GPa)
#
#
# Indices 1 2 3 4 5 6 
#
# 1 302.0961 118.4039 97.5167 0.0000 -49.9190 0.0000
# 2 118.4039 284.8245 103.3238 0.0000 8.4759 0.0000
# 3 97.5167 103.3238 299.0447 0.0000 49.3467 0.0000
# 4 0.0000 0.0000 0.0000 61.9708 0.0000 9.1950
# 5 -49.9190 8.4759 49.3467 0.0000 103.8691 0.0000
# 6 0.0000 0.0000 0.0000 9.1950 0.0000 56.1845
#
#
#
# Elastic Compliance Matrix: (Units=1/GPa)
#
#
# Indices 1 2 3 4 5 6 
#
# 1 0.005006 -0.001588 -0.001630 0.000000 0.003310 0.000000
# 2 -0.001588 0.004530 -0.000934 0.000000 -0.000689 0.000000
# 3 -0.001630 -0.000934 0.004682 0.000000 -0.002931 0.000000
# 4 0.000000 0.000000 0.000000 0.016538 0.000000 -0.002707
# 5 0.003310 -0.000689 -0.002931 0.000000 0.012667 0.000000
# 6 0.000000 0.000000 0.000000 -0.002707 0.000000 0.018241
#
#
# Mechanical properties :
#
#
# Convention : Reuss Voigt Hill
#
# Bulk Modulus (GPa) = 169.07128 169.38378 169.22753
# Shear Modulus (GPa) = 69.50357 82.18628 75.84492
#
# Velocity S-wave (km/s) = 4.70797 5.11952 4.91805
# Velocity P-wave (km/s) = 9.13623 9.43202 9.28530
#
# Compressibility (1/GPa) = 0.00591467
#
# Stress axis : x y z
#
# Youngs Moduli (GPa) = 199.77612 220.73321 213.59795
#
# Poissons Ratio (x) = 0.35056 0.34810
# Poissons Ratio (y) = 0.31728 0.19942
# Poissons Ratio (z) = 0.32557 0.20609
#
# Static dielectric constant tensor:
#      x y z
#    x 2.560640 0.000000 -0.338010 
#    y 0.000000 2.519250 0.000000 
#    z -0.338010 0.000000 3.015680 
# 
# From -- ./inp_files/30887.got.cif
#   From: 2010.05.17/outbox.cif.g08.bks.cpg/sg13_16_cif.got.tgz:30887.got - 2010.06.03 16:44:36.
