data_PCOD9238821
_publ_section_title
;
Structure prediction by ZEFSAII (Michael W. Deem and Ramdas Pophale) SiO2 
 PCOD9238821
Probable space group: P 2/C
;
_chemical_formula_sum "Si O2"
_cell_formula_units_Z 10
_cell_length_a 9.871705
_cell_length_b 5.202845
_cell_length_c 9.242103
_cell_angle_alpha 90.000000
_cell_angle_beta 132.405057
_cell_angle_gamma 90.000000
_cell_volume 350.504092
_symmetry_space_group_name_H-M "P 2/C"
_symmetry_group_IT_number 13
_symmetry_cell_setting 'monoclinic'
loop_
_space_group_symop_operation_xyz
x,y,z
-x,y,1/2-z
-x,-y,-z
x,-y,1/2+z
loop_
_atom_site_type_symbol
_atom_site_label
_atom_site_fract_x
_atom_site_fract_y
_atom_site_fract_z
Si Si1 0.500000 0.296686 0.750000
Si Si2 0.817969 0.351802 0.420004
Si Si3 0.200290 0.990560 0.849748
O O1 0.357615 0.474348 0.733673
O O2 0.375692 0.138416 0.549326
O O3 0.796644 0.084276 0.316054
O O4 0.000000 0.500000 0.500000
O O5 0.808730 0.270589 0.582310
O O6 0.000000 0.878793 0.750000
#
# Coordination Sequence:
#
# PCOD9238821 Si02
#       3
#     2   4   4
#     4  12  28  50  88 122 168 216 272 342 418 486
#     4  12  29  55  85 122 168 219 273 344 415 485
#     4  12  28  53  83 120 166 216 281 333 406 498
#
# _framework density 28.530341
#
# number of rings (size 3 to 8) (size 9 to 14) (size 15 to 20)
#    0.000    0.000    4.000    3.600    5.600    6.400 
#    0.000    0.000    0.000    0.000    0.000    0.000 
#    0.000    0.000    0.000    0.000    0.000    0.000 
#
# Total GULP energy -56085.656822 kJ/mol
# GULP energy per Si atom -5608.565682 kJ/mol
# Density = 2.846540 g / cm^3
# Si number density = 28.530341 Si / 1000 Ang^3
#
#
#
# Elastic Constant Matrix: (Units=GPa)
#
#
# Indices 1 2 3 4 5 6 
#
# 1 170.5112 61.3759 67.5970 0.0000 28.7520 0.0000
# 2 61.3759 123.9426 58.1821 0.0000 14.1162 0.0000
# 3 67.5970 58.1821 178.7865 0.0000 41.1104 0.0000
# 4 0.0000 0.0000 0.0000 50.5719 0.0000 10.4649
# 5 28.7520 14.1162 41.1104 0.0000 76.6340 0.0000
# 6 0.0000 0.0000 0.0000 10.4649 0.0000 61.4933
#
#
#
# Elastic Compliance Matrix: (Units=1/GPa)
#
#
# Indices 1 2 3 4 5 6 
#
# 1 0.007831 -0.002926 -0.001662 0.000000 -0.001508 0.000000
# 2 -0.002926 0.010617 -0.002454 0.000000 0.000459 0.000000
# 3 -0.001662 -0.002454 0.007726 0.000000 -0.003069 0.000000
# 4 0.000000 0.000000 0.000000 0.020496 0.000000 -0.003488
# 5 -0.001508 0.000459 -0.003069 0.000000 0.015177 0.000000
# 6 0.000000 0.000000 0.000000 -0.003488 0.000000 0.016856
#
#
# Mechanical properties :
#
#
# Convention : Reuss Voigt Hill
#
# Bulk Modulus (GPa) = 82.71577 94.17224 88.44400
# Shear Modulus (GPa) = 51.64433 56.81221 54.22827
#
# Velocity S-wave (km/s) = 4.25921 4.46723 4.36446
# Velocity P-wave (km/s) = 7.29678 7.72577 7.51434
#
# Compressibility (1/GPa) = 0.01208959
#
# Stress axis : x y z
#
# Youngs Moduli (GPa) = 127.69747 94.18806 129.43295
#
# Poissons Ratio (x) = 0.27560 0.21511
# Poissons Ratio (y) = 0.37364 0.31766
# Poissons Ratio (z) = 0.21223 0.23116
#
# Static dielectric constant tensor:
#      x y z
#    x 2.186480 0.000000 -0.041140 
#    y 0.000000 2.244170 0.000000 
#    z -0.041140 0.000000 2.133590 
# 
# From -- ./inp_files/10394.got.cif
#   From: 2010.05.17/outbox.cif.g08.bks.cpg/sg13_6_cif.got.tgz:10394.got - 2010.06.03 16:44:36.
