data_PCOD9238497
_publ_section_title
;
Structure prediction by ZEFSAII (Michael W. Deem and Ramdas Pophale) SiO2 
 PCOD9238497
Probable space group: P 2/C
;
_chemical_formula_sum "Si O2"
_cell_formula_units_Z 22
_cell_length_a 7.492508
_cell_length_b 9.057400
_cell_length_c 17.602281
_cell_angle_alpha 90.000000
_cell_angle_beta 48.053970
_cell_angle_gamma 90.000000
_cell_volume 888.466720
_symmetry_space_group_name_H-M "P 2/C"
_symmetry_group_IT_number 13
_symmetry_cell_setting 'monoclinic'
loop_
_space_group_symop_operation_xyz
x,y,z
-x,y,1/2-z
-x,-y,-z
x,-y,1/2+z
loop_
_atom_site_type_symbol
_atom_site_label
_atom_site_fract_x
_atom_site_fract_y
_atom_site_fract_z
Si Si1 0.000000 0.491401 0.250000
Si Si2 0.100711 0.922858 0.336155
Si Si3 0.120162 0.263521 0.332005
Si Si4 0.330171 0.293132 0.585608
Si Si5 0.396319 0.084742 0.898261
Si Si6 0.611664 0.258381 0.094601
O O1 0.977085 0.389722 0.330499
O O2 0.234368 0.594096 0.176230
O O3 0.347354 0.912519 0.218359
O O4 0.188937 0.884031 0.396200
O O5 0.895839 0.818357 0.362643
O O6 0.028341 0.095351 0.353965
O O7 0.363613 0.265497 0.211400
O O8 0.191264 0.297199 0.398149
O O9 0.561158 0.204577 0.549231
O O10 0.376446 0.347923 0.486663
O O11 0.363237 0.915980 0.933668
#
# Coordination Sequence:
#
# PCOD9238497 Si02
#       6
#     2   4   4   4   4   4
#     4  12  26  38  62  94 128 174 208 248 324 370
#     4   9  19  38  66  87 126 162 206 260 311 363
#     4   9  22  44  60  87 126 173 209 246 311 390
#     4  12  22  39  65 101 123 156 211 272 311 368
#     4   9  18  37  61  97 120 156 202 263 317 363
#     4   9  21  42  67  87 123 165 213 257 314 369
#
# _framework density 24.761761
#
# number of rings (size 3 to 8) (size 9 to 14) (size 15 to 20)
#    0.000    2.182    1.818    2.727    5.091    4.364 
#    9.818    0.000    0.000    0.000    0.000    0.000 
#    0.000    0.000    0.000    0.000    0.000    0.000 
#
# Total GULP energy -123109.423029 kJ/mol
# GULP energy per Si atom -5595.882865 kJ/mol
# Density = 2.470540 g / cm^3
# Si number density = 24.761761 Si / 1000 Ang^3
#
#
#
# Elastic Constant Matrix: (Units=GPa)
#
#
# Indices 1 2 3 4 5 6 
#
# 1 85.3091 56.1611 24.4383 0.0000 6.7578 0.0000
# 2 56.1611 65.8558 20.3697 0.0000 11.3630 0.0000
# 3 24.4383 20.3697 118.2704 0.0000 11.1704 0.0000
# 4 0.0000 0.0000 0.0000 32.4619 0.0000 -20.0357
# 5 6.7578 11.3630 11.1704 0.0000 43.1845 0.0000
# 6 0.0000 0.0000 0.0000 -20.0357 0.0000 -17.1942
#
#
#
# Elastic Compliance Matrix: (Units=1/GPa)
#
#
# Indices 1 2 3 4 5 6 
#
# 1 0.027261 -0.023062 -0.001877 0.000000 0.002288 0.000000
# 2 -0.023062 0.036112 -0.000920 0.000000 -0.005655 0.000000
# 3 -0.001877 -0.000920 0.009175 0.000000 -0.001837 0.000000
# 4 0.000000 0.000000 0.000000 0.017918 0.000000 -0.020880
# 5 0.002288 -0.005655 -0.001837 0.000000 0.024762 0.000000
# 6 0.000000 0.000000 0.000000 -0.020880 0.000000 -0.033829
#
#
# Mechanical properties :
#
#
# Convention : Reuss Voigt Hill
#
# Bulk Modulus (GPa) = 48.00839 52.37486 50.19162
# Shear Modulus (GPa) = 35.69896 22.92153 29.31024
#
# Velocity S-wave (km/s) = 3.80109 3.04580 3.44421
# Velocity P-wave (km/s) = 6.22050 5.79367 6.01087
#
# Compressibility (1/GPa) = 0.02082969
#
# Stress axis : x y z
#
# Youngs Moduli (GPa) = 36.68278 27.69165 108.99089
#
# Poissons Ratio (x) = 0.63862 0.20458
# Poissons Ratio (y) = 0.84597 0.10029
# Poissons Ratio (z) = 0.06886 0.02548
#
# Static dielectric constant tensor:
#      x y z
#    x 1.948010 0.000000 -0.009700 
#    y 0.000000 1.945710 0.000000 
#    z -0.009700 0.000000 2.030910 
# 
# From -- ./inp_files/63242.got.cif
#   From: 2010.05.17/outbox.cif.g08.bks.cpg/sg13_32_cif.got.tgz:63242.got - 2010.06.03 16:44:36.
