data_PCOD9238590
_publ_section_title
;
Structure prediction by ZEFSAII (Michael W. Deem and Ramdas Pophale) SiO2 
 PCOD9238590
Probable space group: P 2/C
;
_chemical_formula_sum "Si O2"
_cell_formula_units_Z 26
_cell_length_a 23.143117
_cell_length_b 5.315187
_cell_length_c 13.723982
_cell_angle_alpha 90.000000
_cell_angle_beta 142.802567
_cell_angle_gamma 90.000000
_cell_volume 1020.616090
_symmetry_space_group_name_H-M "P 2/C"
_symmetry_group_IT_number 13
_symmetry_cell_setting 'monoclinic'
loop_
_space_group_symop_operation_xyz
x,y,z
-x,y,1/2-z
-x,-y,-z
x,-y,1/2+z
loop_
_atom_site_type_symbol
_atom_site_label
_atom_site_fract_x
_atom_site_fract_y
_atom_site_fract_z
Si Si1 0.330442 0.906474 0.115691
Si Si2 0.095460 0.685666 0.317306
Si Si3 0.500000 0.351831 0.750000
Si Si4 0.334167 0.293687 0.970462
Si Si5 0.855197 0.206277 0.231695
Si Si6 0.391236 0.050975 0.386366
Si Si7 0.222903 0.610189 0.680554
O O1 0.318477 0.189242 0.058108
O O2 0.435249 0.809430 0.233496
O O3 0.323671 0.894165 0.221454
O O4 0.251981 0.748310 0.954328
O O5 0.086549 0.442757 0.233606
O O6 0.168752 0.611603 0.504688
O O7 0.000000 0.733597 0.250000
O O8 0.115865 0.939929 0.280398
O O9 0.575805 0.523369 0.907207
O O10 0.373423 0.046956 0.969448
O O11 0.243965 0.383714 0.786011
O O12 0.838678 0.210152 0.326578
O O13 0.500000 0.000000 0.500000
O O14 0.333273 0.310859 0.304906
#
# Coordination Sequence:
#
# PCOD9238590 Si02
#       7
#     4   4   2   4   4   4   4
#     4  12  24  43  67 103 150 200 253 317 373 457
#     4  12  30  54  83 119 152 197 262 333 408 483
#     4  12  24  40  68 104 150 208 256 324 368 448
#     4  12  24  43  66 103 151 201 269 313 384 445
#     4  12  26  50  81 113 158 198 253 327 398 468
#     4  12  25  41  65 104 148 202 259 312 367 462
#     4  12  27  45  78 111 151 209 260 316 400 468
#
# _framework density 25.474807999999999
#
# number of rings (size 3 to 8) (size 9 to 14) (size 15 to 20)
#    0.000    0.000    4.615    5.538    0.000    6.154 
#    0.000    0.000    0.000    0.000    0.000    0.000 
#    0.000    0.000    0.000    0.000    0.000    0.000 
#
# Total GULP energy -145095.825860 kJ/mol
# GULP energy per Si atom -5580.608687 kJ/mol
# Density = 2.541683 g / cm^3
# Si number density = 25.474808 Si / 1000 Ang^3
#
#
#
# Elastic Constant Matrix: (Units=GPa)
#
#
# Indices 1 2 3 4 5 6 
#
# 1 119.5012 23.2395 7.6544 0.0000 -5.1197 0.0000
# 2 23.2395 109.5716 4.4772 0.0000 -2.2141 0.0000
# 3 7.6544 4.4772 54.4534 0.0000 -19.4138 0.0000
# 4 0.0000 0.0000 0.0000 24.0251 0.0000 2.7245
# 5 -5.1197 -2.2141 -19.4138 0.0000 54.1756 0.0000
# 6 0.0000 0.0000 0.0000 2.7245 0.0000 37.1361
#
#
#
# Elastic Compliance Matrix: (Units=1/GPa)
#
#
# Indices 1 2 3 4 5 6 
#
# 1 0.008800 -0.001820 -0.000937 0.000000 0.000421 0.000000
# 2 -0.001820 0.009534 -0.000517 0.000000 0.000033 0.000000
# 3 -0.000937 -0.000517 0.021209 0.000000 0.007491 0.000000
# 4 0.000000 0.000000 0.000000 0.041972 0.000000 -0.003079
# 5 0.000421 0.000033 0.007491 0.000000 0.021184 0.000000
# 6 0.000000 0.000000 0.000000 -0.003079 0.000000 0.027154
#
#
# Mechanical properties :
#
#
# Convention : Reuss Voigt Hill
#
# Bulk Modulus (GPa) = 30.30603 39.36315 34.83459
# Shear Modulus (GPa) = 33.92158 39.61105 36.76631
#
# Velocity S-wave (km/s) = 3.65303 3.94751 3.80312
# Velocity P-wave (km/s) = 5.45116 6.02183 5.74359
#
# Compressibility (1/GPa) = 0.03299673
#
# Stress axis : x y z
#
# Youngs Moduli (GPa) = 113.63553 104.88614 47.14964
#
# Poissons Ratio (x) = 0.19085 0.04419
# Poissons Ratio (y) = 0.20677 0.02435
# Poissons Ratio (z) = 0.10649 0.05417
#
# Static dielectric constant tensor:
#      x y z
#    x 1.997870 0.000000 0.028900 
#    y 0.000000 2.104360 0.000000 
#    z 0.028900 0.000000 1.997180 
# 
# From -- ./inp_files/56268.got.cif
#   From: 2010.05.17/outbox.cif.g08.bks.cpg/sg13_29_cif.got.tgz:56268.got - 2010.06.03 16:44:36.
