data_PCOD9238166
_publ_section_title
;
Structure prediction by ZEFSAII (Michael W. Deem and Ramdas Pophale) SiO2 
 PCOD9238166
Probable space group: P 2/C
;
_chemical_formula_sum "Si O2"
_cell_formula_units_Z 12
_cell_length_a 20.143995
_cell_length_b 4.596917
_cell_length_c 8.499090
_cell_angle_alpha 90.000000
_cell_angle_beta 146.448972
_cell_angle_gamma 90.000000
_cell_volume 434.968690
_symmetry_space_group_name_H-M "P 2/C"
_symmetry_group_IT_number 13
_symmetry_cell_setting 'monoclinic'
loop_
_space_group_symop_operation_xyz
x,y,z
-x,y,1/2-z
-x,-y,-z
x,-y,1/2+z
loop_
_atom_site_type_symbol
_atom_site_label
_atom_site_fract_x
_atom_site_fract_y
_atom_site_fract_z
Si Si1 0.907543 0.573328 0.452827
Si Si2 0.762527 0.835523 0.890909
Si Si3 0.589432 0.362921 0.547870
O O1 0.859291 0.296648 0.457330
O O2 0.000000 0.500000 0.500000
O O3 0.803961 0.737052 0.149065
O O4 0.000000 0.745620 0.750000
O O5 0.650002 0.654083 0.605121
O O6 0.707086 0.157386 0.804562
O O7 0.500000 0.500000 0.500000
O O8 0.500000 0.212898 0.250000
#
# Coordination Sequence:
#
# PCOD9238166 Si02
#       3
#     4   4   4
#     4   9  21  46  75 112 155 201 254 316 387 464
#     4  11  24  46  74 111 153 201 253 316 385 462
#     4  12  27  48  74 109 151 202 259 320 384 458
#
# _framework density 27.588194000000001
#
# number of rings (size 3 to 8) (size 9 to 14) (size 15 to 20)
#    0.000    1.333    0.000    4.000    0.000    8.000 
#    0.000   36.667    0.000    0.000    0.000    0.000 
#    0.000    0.000    0.000    0.000    0.000    0.000 
#
# Total GULP energy -66856.965883 kJ/mol
# GULP energy per Si atom -5571.413824 kJ/mol
# Density = 2.752540 g / cm^3
# Si number density = 27.588194 Si / 1000 Ang^3
#
#
#
# Elastic Constant Matrix: (Units=GPa)
#
#
# Indices 1 2 3 4 5 6 
#
# 1 196.1472 55.1840 46.0420 0.0000 18.4017 0.0000
# 2 55.1840 164.7154 57.8752 0.0000 -0.2569 0.0000
# 3 46.0420 57.8752 169.5222 0.0000 -24.6236 0.0000
# 4 0.0000 0.0000 0.0000 56.3872 0.0000 10.8603
# 5 18.4017 -0.2569 -24.6236 0.0000 61.3780 0.0000
# 6 0.0000 0.0000 0.0000 10.8603 0.0000 21.0934
#
#
#
# Elastic Compliance Matrix: (Units=1/GPa)
#
#
# Indices 1 2 3 4 5 6 
#
# 1 0.006106 -0.001525 -0.001491 0.000000 -0.002435 0.000000
# 2 -0.001525 0.007335 -0.002144 0.000000 -0.000372 0.000000
# 3 -0.001491 -0.002144 0.007539 0.000000 0.003463 0.000000
# 4 0.000000 0.000000 0.000000 0.019687 0.000000 -0.010136
# 5 -0.002435 -0.000372 0.003463 0.000000 0.018410 0.000000
# 6 0.000000 0.000000 0.000000 -0.010136 0.000000 0.052627
#
#
# Mechanical properties :
#
#
# Convention : Reuss Voigt Hill
#
# Bulk Modulus (GPa) = 93.82297 94.28748 94.05522
# Shear Modulus (GPa) = 39.81612 52.52397 46.17004
#
# Velocity S-wave (km/s) = 3.80311 4.36805 4.09533
# Velocity P-wave (km/s) = 7.30528 7.72598 7.51857
#
# Compressibility (1/GPa) = 0.01065837
#
# Stress axis : x y z
#
# Youngs Moduli (GPa) = 163.77597 136.33567 132.64661
#
# Poissons Ratio (x) = 0.20797 0.19781
# Poissons Ratio (y) = 0.24983 0.28438
# Poissons Ratio (z) = 0.24424 0.29228
#
# Static dielectric constant tensor:
#      x y z
#    x 2.168190 0.000000 -0.017610 
#    y 0.000000 2.345360 0.000000 
#    z -0.017610 0.000000 2.172470 
# 
# From -- ./inp_files/17656.got.cif
#   From: 2010.05.17/outbox.cif.g08.bks.cpg/sg13_9_cif.got.tgz:17656.got - 2010.06.03 16:44:36.
