data_PCOD9238661
_publ_section_title
;
Structure prediction by ZEFSAII (Michael W. Deem and Ramdas Pophale) SiO2 
 PCOD9238661
Probable space group: P 2/C
;
_chemical_formula_sum "Si O2"
_cell_formula_units_Z 16
_cell_length_a 6.379280
_cell_length_b 7.377685
_cell_length_c 16.609122
_cell_angle_alpha 90.000000
_cell_angle_beta 64.241473
_cell_angle_gamma 90.000000
_cell_volume 704.022567
_symmetry_space_group_name_H-M "P 2/C"
_symmetry_group_IT_number 13
_symmetry_cell_setting 'monoclinic'
loop_
_space_group_symop_operation_xyz
x,y,z
-x,y,1/2-z
-x,-y,-z
x,-y,1/2+z
loop_
_atom_site_type_symbol
_atom_site_label
_atom_site_fract_x
_atom_site_fract_y
_atom_site_fract_z
Si Si1 0.484664 0.242060 0.159956
Si Si2 0.035592 0.788740 0.012175
Si Si3 0.549493 0.405851 0.579704
Si Si4 0.789208 0.093677 0.847149
O O1 0.500000 0.179976 0.250000
O O2 0.424287 0.452584 0.161440
O O3 0.317436 0.110606 0.135919
O O4 0.741825 0.253973 0.079448
O O5 0.108567 0.804455 0.092320
O O6 0.821161 0.653578 0.034656
O O7 0.000000 0.000000 0.000000
O O8 0.500000 0.500000 0.500000
O O9 0.437320 0.215980 0.626594
O O10 0.000000 0.091832 0.750000
#
# Coordination Sequence:
#
# PCOD9238661 Si02
#       4
#     4   4   4   4
#     4  12  27  47  74 109 148 198 254 311 380 451
#     4  12  24  48  78 101 151 195 246 309 378 450
#     4  12  27  47  78 110 148 197 250 312 385 450
#     4  12  28  47  74 108 150 198 251 311 380 449
#
# _framework density 22.726544000000001
#
# number of rings (size 3 to 8) (size 9 to 14) (size 15 to 20)
#    0.000    0.000    5.000    4.500    3.500    1.000 
#    0.000    0.000    0.000    0.000    0.000    0.000 
#    0.000    0.000    0.000    0.000    0.000    0.000 
#
# Total GULP energy -89167.743725 kJ/mol
# GULP energy per Si atom -5572.983983 kJ/mol
# Density = 2.267482 g / cm^3
# Si number density = 22.726544 Si / 1000 Ang^3
#
#
#
# Elastic Constant Matrix: (Units=GPa)
#
#
# Indices 1 2 3 4 5 6 
#
# 1 113.3959 39.1888 57.0820 0.0000 -26.1138 0.0000
# 2 39.1888 99.6973 35.2722 0.0000 -7.0282 0.0000
# 3 57.0820 35.2722 87.2979 0.0000 -29.0625 0.0000
# 4 0.0000 0.0000 0.0000 36.2328 0.0000 -15.1807
# 5 -26.1138 -7.0282 -29.0625 0.0000 40.0275 0.0000
# 6 0.0000 0.0000 0.0000 -15.1807 0.0000 79.8092
#
#
#
# Elastic Compliance Matrix: (Units=1/GPa)
#
#
# Indices 1 2 3 4 5 6 
#
# 1 0.014104 -0.002869 -0.006815 0.000000 0.003750 0.000000
# 2 -0.002869 0.012388 -0.003994 0.000000 -0.002596 0.000000
# 3 -0.006815 -0.003994 0.020851 0.000000 0.009992 0.000000
# 4 0.000000 0.000000 0.000000 0.029989 0.000000 0.005704
# 5 0.003750 -0.002596 0.009992 0.000000 0.034228 0.000000
# 6 0.000000 0.000000 0.000000 0.005704 0.000000 0.013615
#
#
# Mechanical properties :
#
#
# Convention : Reuss Voigt Hill
#
# Bulk Modulus (GPa) = 50.02863 62.60859 56.31861
# Shear Modulus (GPa) = 31.40831 42.47043 36.93937
#
# Velocity S-wave (km/s) = 3.72157 4.32760 4.03598
# Velocity P-wave (km/s) = 6.36615 7.25116 6.82302
#
# Compressibility (1/GPa) = 0.01998855
#
# Stress axis : x y z
#
# Youngs Moduli (GPa) = 70.90135 80.72375 47.95849
#
# Poissons Ratio (x) = 0.23156 0.32684
# Poissons Ratio (y) = 0.20339 0.19154
# Poissons Ratio (z) = 0.48319 0.32240
#
# Static dielectric constant tensor:
#      x y z
#    x 2.224970 0.000000 0.170510 
#    y 0.000000 2.524070 0.000000 
#    z 0.170510 0.000000 1.886590 
# 
# From -- ./inp_files/43219.got.cif
#   From: 2010.05.17/outbox.cif.g08.bks.cpg/sg13_22_cif.got.tgz:43219.got - 2010.06.03 16:44:36.
