data_PCOD9238529
_publ_section_title
;
Structure prediction by ZEFSAII (Michael W. Deem and Ramdas Pophale) SiO2 
 PCOD9238529
Probable space group: P 2/C
;
_chemical_formula_sum "Si O2"
_cell_formula_units_Z 16
_cell_length_a 11.779764
_cell_length_b 13.478609
_cell_length_c 11.317684
_cell_angle_alpha 90.000000
_cell_angle_beta 24.586256
_cell_angle_gamma 90.000000
_cell_volume 747.649393
_symmetry_space_group_name_H-M "P 2/C"
_symmetry_group_IT_number 13
_symmetry_cell_setting 'monoclinic'
loop_
_space_group_symop_operation_xyz
x,y,z
-x,y,1/2-z
-x,-y,-z
x,-y,1/2+z
loop_
_atom_site_type_symbol
_atom_site_label
_atom_site_fract_x
_atom_site_fract_y
_atom_site_fract_z
Si Si1 0.500000 0.795712 0.250000
Si Si2 0.759849 0.572473 0.756785
Si Si3 0.938082 0.770903 0.446904
Si Si4 0.493192 0.881563 0.003062
Si Si5 0.000000 0.329068 0.250000
O O1 0.415966 0.850599 0.450011
O O2 0.229804 0.735340 0.468150
O O3 0.813464 0.669413 0.623525
O O4 0.814721 0.609581 0.836577
O O5 0.000000 0.500000 0.500000
O O6 0.500000 0.500000 0.000000
O O7 0.702589 0.848304 0.703326
O O8 0.000000 0.754615 0.250000
O O9 0.212701 0.822076 0.239981
O O10 0.500000 0.000000 0.000000
#
# Coordination Sequence:
#
# PCOD9238529 Si02
#       5
#     2   4   4   4   2
#     4  12  22  46  76 102 148 190 250 306 358 432
#     4  12  26  47  72 105 140 193 247 299 372 435
#     4  12  27  50  71 107 156 191 241 310 375 445
#     4  12  26  47  75 111 146 198 247 300 373 446
#     4  12  24  48  72 102 144 188 246 316 356 436
#
# _framework density 21.400404999999999
#
# number of rings (size 3 to 8) (size 9 to 14) (size 15 to 20)
#    0.000    0.000    5.000    4.500    5.250    0.000 
#    0.000    0.000    0.000    0.000    0.000    0.000 
#    0.000    0.000    0.000    0.000    0.000    0.000 
#
# Total GULP energy -89229.087072 kJ/mol
# GULP energy per Si atom -5576.817942 kJ/mol
# Density = 2.135170 g / cm^3
# Si number density = 21.400405 Si / 1000 Ang^3
#
#
#
# Elastic Constant Matrix: (Units=GPa)
#
#
# Indices 1 2 3 4 5 6 
#
# 1 133.9247 69.4541 49.1307 0.0000 9.3186 0.0000
# 2 69.4541 159.0538 67.2719 0.0000 4.6375 0.0000
# 3 49.1307 67.2719 171.8175 0.0000 -9.0617 0.0000
# 4 0.0000 0.0000 0.0000 25.5374 0.0000 -2.3515
# 5 9.3186 4.6375 -9.0617 0.0000 40.4975 0.0000
# 6 0.0000 0.0000 0.0000 -2.3515 0.0000 3.9735
#
#
#
# Elastic Compliance Matrix: (Units=1/GPa)
#
#
# Indices 1 2 3 4 5 6 
#
# 1 0.010110 -0.003687 -0.001567 0.000000 -0.002255 0.000000
# 2 -0.003687 0.008975 -0.002499 0.000000 -0.000739 0.000000
# 3 -0.001567 -0.002499 0.007368 0.000000 0.002295 0.000000
# 4 0.000000 0.000000 0.000000 0.041415 0.000000 0.024510
# 5 -0.002255 -0.000739 0.002295 0.000000 0.025810 0.000000
# 6 0.000000 0.000000 0.000000 0.024510 0.000000 0.266174
#
#
# Mechanical properties :
#
#
# Convention : Reuss Voigt Hill
#
# Bulk Modulus (GPa) = 91.33081 92.94548 92.13814
# Shear Modulus (GPa) = 13.19239 32.59764 22.89502
#
# Velocity S-wave (km/s) = 2.48555 3.90709 3.27439
# Velocity P-wave (km/s) = 7.14192 7.99248 7.57914
#
# Compressibility (1/GPa) = 0.01094921
#
# Stress axis : x y z
#
# Youngs Moduli (GPa) = 98.90865 111.41469 135.73033
#
# Poissons Ratio (x) = 0.41074 0.21263
# Poissons Ratio (y) = 0.36463 0.33919
# Poissons Ratio (z) = 0.15494 0.27842
#
# Static dielectric constant tensor:
#      x y z
#    x 1.833020 0.000000 0.100770 
#    y 0.000000 1.801780 0.000000 
#    z 0.100770 0.000000 2.245340 
# 
# From -- ./inp_files/34494.got.cif
#   From: 2010.05.17/outbox.cif.g08.bks.cpg/sg13_18_cif.got.tgz:34494.got - 2010.06.03 16:44:36.
