data_PCOD9238009
_publ_section_title
;
Structure prediction by ZEFSAII (Michael W. Deem and Ramdas Pophale) SiO2 
 PCOD9238009
Probable space group: P 2/C
;
_chemical_formula_sum "Si O2"
_cell_formula_units_Z 22
_cell_length_a 10.119304
_cell_length_b 15.817045
_cell_length_c 11.277932
_cell_angle_alpha 90.000000
_cell_angle_beta 31.528576
_cell_angle_gamma 90.000000
_cell_volume 943.938787
_symmetry_space_group_name_H-M "P 2/C"
_symmetry_group_IT_number 13
_symmetry_cell_setting 'monoclinic'
loop_
_space_group_symop_operation_xyz
x,y,z
-x,y,1/2-z
-x,-y,-z
x,-y,1/2+z
loop_
_atom_site_type_symbol
_atom_site_label
_atom_site_fract_x
_atom_site_fract_y
_atom_site_fract_z
Si Si1 0.810743 0.157519 0.215207
Si Si2 0.780488 0.433344 0.152666
Si Si3 0.500000 0.567795 0.250000
Si Si4 0.045593 0.717450 0.347503
Si Si5 0.000000 0.981653 0.750000
Si Si6 0.621264 0.315314 0.479533
Si Si7 0.500000 0.074523 0.250000
O O1 0.912733 0.076597 0.206201
O O2 0.714234 0.220736 0.391487
O O3 0.595807 0.129368 0.287703
O O4 0.988686 0.212294 0.991486
O O5 0.552596 0.498727 0.310032
O O6 0.749396 0.373488 0.285606
O O7 0.000000 0.500000 0.000000
O O8 0.855569 0.363876 0.996311
O O9 0.314124 0.636956 0.448132
O O10 0.324704 0.684861 0.169044
O O11 0.000000 0.753309 0.250000
O O12 0.250255 0.027772 0.499880
#
# Coordination Sequence:
#
# PCOD9238009 Si02
#       7
#     4   4   2   4   2   4   2
#     4  11  28  48  78 110 156 190 249 306 375 473
#     4  11  24  41  60  99 137 192 248 311 362 428
#     4  12  24  40  70  92 146 180 252 314 360 424
#     4  11  24  44  72  99 142 200 249 299 377 441
#     4  12  30  50  86 122 154 190 248 310 394 454
#     4  11  26  43  67 104 138 199 243 304 382 430
#     4  12  28  54  82 120 152 202 242 306 386 474
#
# _framework density 23.306595999999999
#
# number of rings (size 3 to 8) (size 9 to 14) (size 15 to 20)
#    0.000    0.727    1.818    3.818   11.455    2.909 
#    0.000    0.000    0.000    0.000    0.000    0.000 
#    0.000    0.000    0.000    0.000    0.000    0.000 
#
# Total GULP energy -122569.355697 kJ/mol
# GULP energy per Si atom -5571.334350 kJ/mol
# Density = 2.325355 g / cm^3
# Si number density = 23.306596 Si / 1000 Ang^3
#
#
#
# Elastic Constant Matrix: (Units=GPa)
#
#
# Indices 1 2 3 4 5 6 
#
# 1 45.8369 -6.2121 3.4330 0.0000 -6.0614 0.0000
# 2 -6.2121 73.5804 35.6564 0.0000 -17.1980 0.0000
# 3 3.4330 35.6564 89.3522 0.0000 -4.9834 0.0000
# 4 0.0000 0.0000 0.0000 -156.7847 0.0000 7.3397
# 5 -6.0614 -17.1980 -4.9834 0.0000 28.1944 0.0000
# 6 0.0000 0.0000 0.0000 7.3397 0.0000 36.2482
#
#
#
# Elastic Compliance Matrix: (Units=1/GPa)
#
#
# Indices 1 2 3 4 5 6 
#
# 1 0.023699 0.005003 -0.002477 0.000000 0.007709 0.000000
# 2 0.005003 0.020639 -0.007743 0.000000 0.012296 0.000000
# 3 -0.002477 -0.007743 0.014224 0.000000 -0.002741 0.000000
# 4 0.000000 0.000000 0.000000 -0.006318 0.000000 0.001279
# 5 0.007709 0.012296 -0.002741 0.000000 0.044141 0.000000
# 6 0.000000 0.000000 0.000000 0.001279 0.000000 0.027329
#
#
# Mechanical properties :
#
#
# Convention : Reuss Voigt Hill
#
# Bulk Modulus (GPa) = 20.77753 30.50268 25.64011
# Shear Modulus (GPa) = 33.29123 -6.74228 13.27447
#
# Velocity S-wave (km/s) = 3.78352 -1.70269 2.38913
# Velocity P-wave (km/s) = 5.29348 3.04146 4.31691
#
# Compressibility (1/GPa) = 0.04812891
#
# Stress axis : x y z
#
# Youngs Moduli (GPa) = 42.19510 48.45206 70.30549
#
# Poissons Ratio (x) = -0.24241 0.17415
# Poissons Ratio (y) = -0.21110 0.54434
# Poissons Ratio (z) = 0.10452 0.37514
#
# Static dielectric constant tensor:
#      x y z
#    x 2.114480 0.000000 0.048150 
#    y 0.000000 1.830210 0.000000 
#    z 0.048150 0.000000 2.021760 
# 
# From -- ./inp_files/34565.got.cif
#   From: 2010.05.17/outbox.cif.g08.bks.cpg/sg13_18_cif.got.tgz:34565.got - 2010.06.03 16:44:36.
