data_PCOD9238817
_publ_section_title
;
Structure prediction by ZEFSAII (Michael W. Deem and Ramdas Pophale) SiO2 
 PCOD9238817
Probable space group: P 2/C
;
_chemical_formula_sum "Si O2"
_cell_formula_units_Z 10
_cell_length_a 5.099092
_cell_length_b 7.179718
_cell_length_c 10.104487
_cell_angle_alpha 90.000000
_cell_angle_beta 90.641086
_cell_angle_gamma 90.000000
_cell_volume 369.902543
_symmetry_space_group_name_H-M "P 2/C"
_symmetry_group_IT_number 13
_symmetry_cell_setting 'monoclinic'
loop_
_space_group_symop_operation_xyz
x,y,z
-x,y,1/2-z
-x,-y,-z
x,-y,1/2+z
loop_
_atom_site_type_symbol
_atom_site_label
_atom_site_fract_x
_atom_site_fract_y
_atom_site_fract_z
Si Si1 0.183225 0.531070 0.375517
Si Si2 0.753287 0.038811 0.592185
Si Si3 0.500000 0.249236 0.250000
O O1 0.249779 0.747648 0.363952
O O2 0.438146 0.397314 0.367210
O O3 0.000000 0.478402 0.250000
O O4 0.000000 0.500000 0.500000
O O5 0.500000 0.000000 0.500000
O O6 0.725622 0.900356 0.716493
O O7 0.000000 0.000000 0.500000
#
# Coordination Sequence:
#
# PCOD9238817 Si02
#       3
#     4   4   2
#     4  12  28  51  84 123 171 224 284 348 425 507
#     4  12  29  50  80 118 169 223 282 344 421 501
#     4  12  28  46  84 112 170 214 286 338 426 486
#
# _framework density 27.034148999999999
#
# number of rings (size 3 to 8) (size 9 to 14) (size 15 to 20)
#    0.000    0.000    4.000    3.600   11.200    3.200 
#    0.000    0.000    0.000    0.000    0.000    0.000 
#    0.000    0.000    0.000    0.000    0.000    0.000 
#
# Total GULP energy -56011.894315 kJ/mol
# GULP energy per Si atom -5601.189431 kJ/mol
# Density = 2.697262 g / cm^3
# Si number density = 27.034149 Si / 1000 Ang^3
#
#
#
# Elastic Constant Matrix: (Units=GPa)
#
#
# Indices 1 2 3 4 5 6 
#
# 1 179.1350 41.7990 72.8510 0.0000 -34.7059 0.0000
# 2 41.7990 308.5077 69.3300 0.0000 -49.7441 0.0000
# 3 72.8510 69.3300 208.2670 0.0000 -54.3987 0.0000
# 4 0.0000 0.0000 0.0000 69.0552 0.0000 -19.3812
# 5 -34.7059 -49.7441 -54.3987 0.0000 77.4424 0.0000
# 6 0.0000 0.0000 0.0000 -19.3812 0.0000 39.0259
#
#
#
# Elastic Compliance Matrix: (Units=1/GPa)
#
#
# Indices 1 2 3 4 5 6 
#
# 1 0.006693 -0.000241 -0.001859 0.000000 0.001539 0.000000
# 2 -0.000241 0.003718 -0.000683 0.000000 0.001800 0.000000
# 3 -0.001859 -0.000683 0.006548 0.000000 0.003328 0.000000
# 4 0.000000 0.000000 0.000000 0.016827 0.000000 0.008356
# 5 0.001539 0.001800 0.003328 0.000000 0.017097 0.000000
# 6 0.000000 0.000000 0.000000 0.008356 0.000000 0.029774
#
#
# Mechanical properties :
#
#
# Convention : Reuss Voigt Hill
#
# Bulk Modulus (GPa) = 87.77303 118.20775 102.99039
# Shear Modulus (GPa) = 55.54333 71.23335 63.38834
#
# Velocity S-wave (km/s) = 4.53764 5.13873 4.84752
# Velocity P-wave (km/s) = 7.74542 8.88983 8.33728
#
# Compressibility (1/GPa) = 0.01139302
#
# Stress axis : x y z
#
# Youngs Moduli (GPa) = 149.41584 268.97275 152.70751
#
# Poissons Ratio (x) = 0.06480 0.28388
# Poissons Ratio (y) = 0.03600 0.10432
# Poissons Ratio (z) = 0.27776 0.18375
#
# Static dielectric constant tensor:
#      x y z
#    x 2.436640 0.000000 0.254850 
#    y 0.000000 2.046710 0.000000 
#    z 0.254850 0.000000 2.222400 
# 
# From -- ./inp_files/25002.got.cif
#   From: 2010.05.17/outbox.cif.g08.bks.cpg/sg13_13_cif.got.tgz:25002.got - 2010.06.03 16:44:36.
