data_PCOD9238191
_publ_section_title
;
Structure prediction by ZEFSAII (Michael W. Deem and Ramdas Pophale) SiO2 
 PCOD9238191
Probable space group: P 2/C
;
_chemical_formula_sum "Si O2"
_cell_formula_units_Z 26
_cell_length_a 18.682515
_cell_length_b 6.826007
_cell_length_c 10.828598
_cell_angle_alpha 90.000000
_cell_angle_beta 129.331845
_cell_angle_gamma 90.000000
_cell_volume 1068.139345
_symmetry_space_group_name_H-M "P 2/C"
_symmetry_group_IT_number 13
_symmetry_cell_setting 'monoclinic'
loop_
_space_group_symop_operation_xyz
x,y,z
-x,y,1/2-z
-x,-y,-z
x,-y,1/2+z
loop_
_atom_site_type_symbol
_atom_site_label
_atom_site_fract_x
_atom_site_fract_y
_atom_site_fract_z
Si Si1 0.558889 0.055108 0.691813
Si Si2 0.141250 0.699455 0.436557
Si Si3 0.253129 0.788781 0.348082
Si Si4 0.718796 0.170191 0.242651
Si Si5 0.000000 0.024792 0.250000
Si Si6 0.068797 0.644249 0.996607
Si Si7 0.397373 0.434757 0.863712
O O1 0.500000 0.001438 0.750000
O O2 0.588249 0.285095 0.735007
O O3 0.500000 0.000000 0.500000
O O4 0.657013 0.950064 0.774251
O O5 0.230959 0.685947 0.451633
O O6 0.176690 0.781937 0.604188
O O7 0.096320 0.492457 0.410586
O O8 0.081093 0.870108 0.310042
O O9 0.350480 0.709904 0.409087
O O10 0.267159 0.022924 0.356478
O O11 0.165537 0.713372 0.167416
O O12 0.666330 0.375616 0.187091
O O13 0.021234 0.162892 0.389354
O O14 0.000000 0.500000 0.000000
O O15 0.500000 0.500000 0.000000
#
# Coordination Sequence:
#
# PCOD9238191 Si02
#       7
#     4   4   4   4   2   4   4
#     4  11  26  46  72 110 148 197 257 314 384 455
#     4  12  27  45  73 108 139 200 242 302 380 448
#     4  11  26  46  72 106 149 190 248 306 369 453
#     4  11  25  46  72 104 149 194 245 311 378 444
#     4  12  26  46  70 102 146 186 244 300 378 442
#     4  12  26  48  73 109 144 190 250 305 377 455
#     4  11  24  47  74 108 147 199 249 309 376 445
#
# _framework density 24.341393
#
# number of rings (size 3 to 8) (size 9 to 14) (size 15 to 20)
#    0.000    0.615    4.615    2.308    6.462    4.308 
#    0.000    0.000    0.000    0.000    0.000    0.000 
#    0.000    0.000    0.000    0.000    0.000    0.000 
#
# Total GULP energy -144994.377740 kJ/mol
# GULP energy per Si atom -5576.706836 kJ/mol
# Density = 2.428599 g / cm^3
# Si number density = 24.341393 Si / 1000 Ang^3
#
#
#
# Elastic Constant Matrix: (Units=GPa)
#
#
# Indices 1 2 3 4 5 6 
#
# 1 96.1914 7.5110 8.8830 0.0000 -2.7633 0.0000
# 2 7.5110 145.9580 24.2536 0.0000 7.8596 0.0000
# 3 8.8830 24.2536 60.3282 0.0000 10.7891 0.0000
# 4 0.0000 0.0000 0.0000 31.3291 0.0000 25.9722
# 5 -2.7633 7.8596 10.7891 0.0000 37.6892 0.0000
# 6 0.0000 0.0000 0.0000 25.9722 0.0000 38.2121
#
#
#
# Elastic Compliance Matrix: (Units=1/GPa)
#
#
# Indices 1 2 3 4 5 6 
#
# 1 0.010614 -0.000341 -0.001663 0.000000 0.001325 0.000000
# 2 -0.000341 0.007371 -0.002776 0.000000 -0.000768 0.000000
# 3 -0.001663 -0.002776 0.018819 0.000000 -0.004930 0.000000
# 4 0.000000 0.000000 0.000000 0.073120 0.000000 -0.049698
# 5 0.001325 -0.000768 -0.004930 0.000000 0.028201 0.000000
# 6 0.000000 0.000000 0.000000 -0.049698 0.000000 0.059949
#
#
# Mechanical properties :
#
#
# Convention : Reuss Voigt Hill
#
# Bulk Modulus (GPa) = 36.70502 42.64141 39.67321
# Shear Modulus (GPa) = 23.07172 38.90142 30.98657
#
# Velocity S-wave (km/s) = 3.08204 4.00204 3.57178
# Velocity P-wave (km/s) = 5.27042 6.23788 5.77444
#
# Compressibility (1/GPa) = 0.02724423
#
# Stress axis : x y z
#
# Youngs Moduli (GPa) = 94.21338 135.65827 53.13907
#
# Poissons Ratio (x) = 0.04630 0.08835
# Poissons Ratio (y) = 0.03215 0.14751
# Poissons Ratio (z) = 0.15665 0.37659
#
# Static dielectric constant tensor:
#      x y z
#    x 1.952830 0.000000 -0.010130 
#    y 0.000000 1.990900 0.000000 
#    z -0.010130 0.000000 2.127270 
# 
# From -- ./inp_files/40196.got.cif
#   From: 2010.05.17/outbox.cif.g08.bks.cpg/sg13_21_cif.got.tgz:40196.got - 2010.06.03 16:44:36.
