data_PCOD9238456
_publ_section_title
;
Structure prediction by ZEFSAII (Michael W. Deem and Ramdas Pophale) SiO2 
 PCOD9238456
Probable space group: P 2/C
;
_chemical_formula_sum "Si O2"
_cell_formula_units_Z 18
_cell_length_a 15.549773
_cell_length_b 6.602418
_cell_length_c 20.258090
_cell_angle_alpha 90.000000
_cell_angle_beta 154.147054
_cell_angle_gamma 90.000000
_cell_volume 906.931918
_symmetry_space_group_name_H-M "P 2/C"
_symmetry_group_IT_number 13
_symmetry_cell_setting 'monoclinic'
loop_
_space_group_symop_operation_xyz
x,y,z
-x,y,1/2-z
-x,-y,-z
x,-y,1/2+z
loop_
_atom_site_type_symbol
_atom_site_label
_atom_site_fract_x
_atom_site_fract_y
_atom_site_fract_z
Si Si1 0.417997 0.353971 0.785479
Si Si2 0.891253 0.354716 0.106119
Si Si3 0.500000 0.716828 0.750000
Si Si4 0.950025 0.632226 0.400542
Si Si5 0.181969 0.017063 0.535094
O O1 0.402028 0.566743 0.734899
O O2 0.288510 0.360858 0.762149
O O3 0.309577 0.176530 0.667511
O O4 0.654090 0.336670 0.953310
O O5 0.000000 0.376939 0.250000
O O6 0.960496 0.528703 0.102893
O O7 0.939638 0.148365 0.100650
O O8 0.339967 0.868390 0.609475
O O9 0.000000 0.500000 0.500000
O O10 0.039710 0.855683 0.471435
#
# Coordination Sequence:
#
# PCOD9238456 Si02
#       5
#     4   4   2   4   4
#     4  12  22  42  69 100 127 172 229 278 324 388
#     4  12  27  44  62  99 144 179 215 269 341 402
#     4  12  18  38  72  96 124 172 222 282 324 374
#     4  12  24  40  74 103 126 171 232 280 321 389
#     4  12  21  41  69 101 128 169 226 277 326 391
#
# _framework density 19.847135000000002
#
# number of rings (size 3 to 8) (size 9 to 14) (size 15 to 20)
#    0.000    0.000   11.111    0.667    0.000    1.778 
#    0.000    1.111    0.000    0.000    0.000    0.000 
#    0.000    0.000    0.000    0.000    0.000    0.000 
#
# Total GULP energy -100319.459008 kJ/mol
# GULP energy per Si atom -5573.303278 kJ/mol
# Density = 1.980196 g / cm^3
# Si number density = 19.847135 Si / 1000 Ang^3
#
#
#
# Elastic Constant Matrix: (Units=GPa)
#
#
# Indices 1 2 3 4 5 6 
#
# 1 106.7051 59.6595 79.3179 0.0000 12.6688 0.0000
# 2 59.6595 142.8257 41.9566 0.0000 -1.9631 0.0000
# 3 79.3179 41.9566 97.9037 0.0000 2.1835 0.0000
# 4 0.0000 0.0000 0.0000 24.4106 0.0000 16.0582
# 5 12.6688 -1.9631 2.1835 0.0000 46.2352 0.0000
# 6 0.0000 0.0000 0.0000 16.0582 0.0000 35.8308
#
#
#
# Elastic Compliance Matrix: (Units=1/GPa)
#
#
# Indices 1 2 3 4 5 6 
#
# 1 0.029153 -0.006162 -0.020816 0.000000 -0.007267 0.000000
# 2 -0.006162 0.009324 0.000951 0.000000 0.002040 0.000000
# 3 -0.020816 0.000951 0.026570 0.000000 0.004489 0.000000
# 4 0.000000 0.000000 0.000000 0.058093 0.000000 -0.026035
# 5 -0.007267 0.002040 0.004489 0.000000 0.023494 0.000000
# 6 0.000000 0.000000 0.000000 -0.026035 0.000000 0.039577
#
#
# Mechanical properties :
#
#
# Convention : Reuss Voigt Hill
#
# Bulk Modulus (GPa) = 76.95972 78.81140 77.88556
# Shear Modulus (GPa) = 20.61035 32.39535 26.50285
#
# Velocity S-wave (km/s) = 3.22600 4.04449 3.65821
# Velocity P-wave (km/s) = 7.26199 7.84894 7.56116
#
# Compressibility (1/GPa) = 0.01299381
#
# Stress axis : x y z
#
# Youngs Moduli (GPa) = 34.30195 107.24699 37.63597
#
# Poissons Ratio (x) = 0.66091 0.78341
# Poissons Ratio (y) = 0.21139 -0.03580
# Poissons Ratio (z) = 0.71401 -0.10201
#
# Static dielectric constant tensor:
#      x y z
#    x 1.754850 0.000000 0.086530 
#    y 0.000000 1.726080 0.000000 
#    z 0.086530 0.000000 1.763240 
# 
# From -- ./inp_files/79425.got.cif
#   From: 2010.05.17/outbox.cif.g08.bks.cpg/sg13_40_cif.got.tgz:79425.got - 2010.06.03 16:44:36.
