data_PCOD9238860
_publ_section_title
;
Structure prediction by ZEFSAII (Michael W. Deem and Ramdas Pophale) SiO2 
 PCOD9238860
Probable space group: P 2/C
;
_chemical_formula_sum "Si O2"
_cell_formula_units_Z 24
_cell_length_a 19.280807
_cell_length_b 9.333791
_cell_length_c 25.252808
_cell_angle_alpha 90.000000
_cell_angle_beta 18.987789
_cell_angle_gamma 90.000000
_cell_volume 1478.651995
_symmetry_space_group_name_H-M "P 2/C"
_symmetry_group_IT_number 13
_symmetry_cell_setting 'monoclinic'
loop_
_space_group_symop_operation_xyz
x,y,z
-x,y,1/2-z
-x,-y,-z
x,-y,1/2+z
loop_
_atom_site_type_symbol
_atom_site_label
_atom_site_fract_x
_atom_site_fract_y
_atom_site_fract_z
Si Si1 0.499560 0.593193 0.418841
Si Si2 0.847134 0.652508 0.492152
Si Si3 0.821562 0.832805 0.674085
Si Si4 0.825942 0.406851 0.255651
Si Si5 0.161060 0.832829 0.334585
Si Si6 0.489972 0.652471 0.670745
O O1 0.662182 0.500005 0.337812
O O2 0.290609 0.619578 0.604699
O O3 0.627481 0.737350 0.313209
O O4 0.459287 0.492285 0.397690
O O5 0.697747 0.704491 0.552248
O O6 0.691236 0.622136 0.654376
O O7 0.968639 0.507745 0.388338
O O8 0.018936 0.766793 0.389519
O O9 0.864751 0.737305 0.694557
O O10 0.614919 0.766746 0.793545
O O11 0.017017 0.817349 0.491484
O O12 0.794357 0.999979 0.705648
#
# Coordination Sequence:
#
# PCOD9238860 Si02
#       6
#     4   4   4   4   4   4
#     4   9  17  29  46  67  90 118 152 188 227 274
#     4   9  17  30  48  68  90 119 156 196 235 275
#     4   9  17  30  48  69  94 124 157 192 231 277
#     4   9  17  29  46  67  90 118 152 188 227 274
#     4   9  17  30  48  69  94 124 157 192 231 277
#     4   9  17  30  48  68  90 119 156 196 235 275
#
# _framework density 16.231000999999999
#
# number of rings (size 3 to 8) (size 9 to 14) (size 15 to 20)
#    0.000    3.000    0.000    1.000    0.000    5.333 
#    0.000    1.667    0.000    6.000    0.000    0.000 
#    0.000    0.000    0.000    0.000    0.000    0.000 
#
# Total GULP energy -133657.581196 kJ/mol
# GULP energy per Si atom -5569.065883 kJ/mol
# Density = 1.619406 g / cm^3
# Si number density = 16.231001 Si / 1000 Ang^3
#
#
#
# Elastic Constant Matrix: (Units=GPa)
#
#
# Indices 1 2 3 4 5 6 
#
# 1 62.0483 45.1630 37.5174 0.0000 -5.4770 0.0000
# 2 45.1630 138.2451 55.5985 0.0000 9.1256 0.0000
# 3 37.5174 55.5985 53.0735 0.0000 -2.4265 0.0000
# 4 0.0000 0.0000 0.0000 12.7081 0.0000 -0.9282
# 5 -5.4770 9.1256 -2.4265 0.0000 11.8329 0.0000
# 6 0.0000 0.0000 0.0000 -0.9282 0.0000 13.7681
#
#
#
# Elastic Compliance Matrix: (Units=1/GPa)
#
#
# Indices 1 2 3 4 5 6 
#
# 1 0.030329 -0.004260 -0.016339 0.000000 0.013973 0.000000
# 2 -0.004260 0.015221 -0.013689 0.000000 -0.016517 0.000000
# 3 -0.016339 -0.013689 0.045293 0.000000 0.012282 0.000000
# 4 0.000000 0.000000 0.000000 0.079080 0.000000 0.005331
# 5 0.013973 -0.016517 0.012282 0.000000 0.106234 0.000000
# 6 0.000000 0.000000 0.000000 0.005331 0.000000 0.072991
#
#
# Mechanical properties :
#
#
# Convention : Reuss Voigt Hill
#
# Bulk Modulus (GPa) = 44.90532 58.88052 51.89292
# Shear Modulus (GPa) = 11.76068 15.33434 13.54751
#
# Velocity S-wave (km/s) = 2.69473 3.07702 2.89220
# Velocity P-wave (km/s) = 6.11625 6.99853 6.57221
#
# Compressibility (1/GPa) = 0.02226908
#
# Stress axis : x y z
#
# Youngs Moduli (GPa) = 32.97124 65.70003 22.07841
#
# Poissons Ratio (x) = 0.27986 0.36073
# Poissons Ratio (y) = 0.14045 0.30223
# Poissons Ratio (z) = 0.53870 0.89936
#
# Static dielectric constant tensor:
#      x y z
#    x 1.550440 0.000000 -0.002200 
#    y 0.000000 1.515990 0.000000 
#    z -0.002200 0.000000 1.547780 
# 
# From -- ./inp_files/63357.got.cif
#   From: 2010.05.17/outbox.cif.g08.bks.cpg/sg13_32_cif.got.tgz:63357.got - 2010.06.03 16:44:36.
