data_PCOD9238353
_publ_section_title
;
Structure prediction by ZEFSAII (Michael W. Deem and Ramdas Pophale) SiO2 
 PCOD9238353
Probable space group: P 2/C
;
_chemical_formula_sum "Si O2"
_cell_formula_units_Z 14
_cell_length_a 16.249634
_cell_length_b 5.464615
_cell_length_c 20.124015
_cell_angle_alpha 90.000000
_cell_angle_beta 160.928501
_cell_angle_gamma 90.000000
_cell_volume 583.889233
_symmetry_space_group_name_H-M "P 2/C"
_symmetry_group_IT_number 13
_symmetry_cell_setting 'monoclinic'
loop_
_space_group_symop_operation_xyz
x,y,z
-x,y,1/2-z
-x,-y,-z
x,-y,1/2+z
loop_
_atom_site_type_symbol
_atom_site_label
_atom_site_fract_x
_atom_site_fract_y
_atom_site_fract_z
Si Si1 0.500000 0.370042 0.250000
Si Si2 0.971809 0.241945 0.806835
Si Si3 0.695839 0.509242 0.259279
Si Si4 0.687776 0.250460 0.125178
O O1 0.559590 0.510540 0.226624
O O2 0.751292 0.216773 0.451487
O O3 0.861708 0.509515 0.742719
O O4 0.000000 0.246555 0.750000
O O5 0.824073 0.999698 0.714217
O O6 0.636033 0.280411 0.164616
O O7 0.000000 0.500000 0.500000
O O8 0.555624 0.715887 0.108088
#
# Coordination Sequence:
#
# PCOD9238353 Si02
#       4
#     2   4   4   4
#     4  12  26  48  78 120 152 206 260 322 382 462
#     4  12  26  48  77 111 154 199 257 315 383 452
#     4  11  25  49  80 111 156 199 260 315 384 456
#     4  11  27  50  75 108 154 202 250 317 382 453
#
# _framework density 23.977148
#
# number of rings (size 3 to 8) (size 9 to 14) (size 15 to 20)
#    0.000    0.571    5.714    0.857    0.000    9.143 
#    0.000    0.000    0.000    0.000    0.000    0.000 
#    0.000    0.000    0.000    0.000    0.000    0.000 
#
# Total GULP energy -78217.968987 kJ/mol
# GULP energy per Si atom -5586.997785 kJ/mol
# Density = 2.392258 g / cm^3
# Si number density = 23.977148 Si / 1000 Ang^3
#
#
#
# Elastic Constant Matrix: (Units=GPa)
#
#
# Indices 1 2 3 4 5 6 
#
# 1 201.3330 65.8268 33.7300 0.0000 -17.0906 0.0000
# 2 65.8268 181.1069 77.3267 0.0000 22.0804 0.0000
# 3 33.7300 77.3267 227.8256 0.0000 2.5005 0.0000
# 4 0.0000 0.0000 0.0000 28.1902 0.0000 21.6949
# 5 -17.0906 22.0804 2.5005 0.0000 47.0886 0.0000
# 6 0.0000 0.0000 0.0000 21.6949 0.0000 0.1397
#
#
#
# Elastic Compliance Matrix: (Units=1/GPa)
#
#
# Indices 1 2 3 4 5 6 
#
# 1 0.006128 -0.002626 -0.000054 0.000000 0.003458 0.000000
# 2 -0.002626 0.008008 -0.002279 0.000000 -0.004587 0.000000
# 3 -0.000054 -0.002279 0.005162 0.000000 0.000775 0.000000
# 4 0.000000 0.000000 0.000000 -0.000299 0.000000 0.046483
# 5 0.003458 -0.004587 0.000775 0.000000 0.024602 0.000000
# 6 0.000000 0.000000 0.000000 0.046483 0.000000 -0.060400
#
#
# Mechanical properties :
#
#
# Convention : Reuss Voigt Hill
#
# Bulk Modulus (GPa) = 106.59915 107.11471 106.85693
# Shear Modulus (GPa) = -1332.06150 43.97584 -644.04283
#
# Velocity S-wave (km/s) = -23.59578 4.28725 -16.40701
# Velocity P-wave (km/s) = 26.41576 8.32334 17.72730
#
# Compressibility (1/GPa) = 0.00938094
#
# Stress axis : x y z
#
# Youngs Moduli (GPa) = 163.18322 124.86875 193.71101
#
# Poissons Ratio (x) = 0.32790 0.01045
# Poissons Ratio (y) = 0.42852 0.44147
# Poissons Ratio (z) = 0.00880 0.28458
#
# Static dielectric constant tensor:
#      x y z
#    x 2.051640 0.000000 0.035480 
#    y 0.000000 1.886080 0.000000 
#    z 0.035480 0.000000 2.000390 
# 
# From -- ./inp_files/70125.got.cif
#   From: 2010.05.17/outbox.cif.g08.bks.cpg/sg13_36_cif.got.tgz:70125.got - 2010.06.03 16:44:36.
