data_PCOD9238226
_publ_section_title
;
Structure prediction by ZEFSAII (Michael W. Deem and Ramdas Pophale) SiO2 
 PCOD9238226
Probable space group: P 2/C
;
_chemical_formula_sum "Si O2"
_cell_formula_units_Z 14
_cell_length_a 4.983734
_cell_length_b 6.214004
_cell_length_c 16.864550
_cell_angle_alpha 90.000000
_cell_angle_beta 78.909699
_cell_angle_gamma 90.000000
_cell_volume 512.523885
_symmetry_space_group_name_H-M "P 2/C"
_symmetry_group_IT_number 13
_symmetry_cell_setting 'monoclinic'
loop_
_space_group_symop_operation_xyz
x,y,z
-x,y,1/2-z
-x,-y,-z
x,-y,1/2+z
loop_
_atom_site_type_symbol
_atom_site_label
_atom_site_fract_x
_atom_site_fract_y
_atom_site_fract_z
Si Si1 0.750303 0.988039 0.127432
Si Si2 0.000000 0.299638 0.750000
Si Si3 0.807619 0.685686 0.976701
Si Si4 0.395442 0.631103 0.666950
O O1 0.840431 0.851997 0.198071
O O2 0.477938 0.118656 0.164254
O O3 0.707307 0.832940 0.055083
O O4 0.987052 0.160234 0.088996
O O5 0.859122 0.470432 0.816655
O O6 0.565613 0.614243 0.930829
O O7 0.000000 0.500000 0.000000
O O8 0.500000 0.564631 0.750000
#
# Coordination Sequence:
#
# PCOD9238226 Si02
#       4
#     4   2   4   4
#     4  11  26  48  79 110 158 217 261 332 406 462
#     4  12  26  52  80 118 168 208 266 334 392 488
#     4  11  24  51  77 112 160 208 272 333 393 482
#     4  12  26  47  79 116 157 211 269 323 404 477
#
# _framework density 27.315798000000001
#
# number of rings (size 3 to 8) (size 9 to 14) (size 15 to 20)
#    0.000    0.571    2.857    4.286    0.000    4.571 
#    0.000    0.000    0.000    0.000    0.000    0.000 
#    0.000    0.000    0.000    0.000    0.000    0.000 
#
# Total GULP energy -77968.947149 kJ/mol
# GULP energy per Si atom -5569.210511 kJ/mol
# Density = 2.725363 g / cm^3
# Si number density = 27.315798 Si / 1000 Ang^3
#
#
#
# Elastic Constant Matrix: (Units=GPa)
#
#
# Indices 1 2 3 4 5 6 
#
# 1 89.7181 62.6340 51.2682 0.0000 16.1692 0.0000
# 2 62.6340 183.6733 82.6476 0.0000 -15.2593 0.0000
# 3 51.2682 82.6476 229.8842 0.0000 52.7075 0.0000
# 4 0.0000 0.0000 0.0000 91.0072 0.0000 -3.6261
# 5 16.1692 -15.2593 52.7075 0.0000 48.2367 0.0000
# 6 0.0000 0.0000 0.0000 -3.6261 0.0000 54.0234
#
#
#
# Elastic Compliance Matrix: (Units=1/GPa)
#
#
# Indices 1 2 3 4 5 6 
#
# 1 0.017095 -0.006802 0.000587 0.000000 -0.008524 0.000000
# 2 -0.006802 0.010931 -0.004975 0.000000 0.011174 0.000000
# 3 0.000587 -0.004975 0.008557 0.000000 -0.011121 0.000000
# 4 0.000000 0.000000 0.000000 0.011018 0.000000 0.000740
# 5 -0.008524 0.011174 -0.011121 0.000000 0.039275 0.000000
# 6 0.000000 0.000000 0.000000 0.000740 0.000000 0.018560
#
#
# Mechanical properties :
#
#
# Convention : Reuss Voigt Hill
#
# Bulk Modulus (GPa) = 70.40075 99.59726 84.99901
# Shear Modulus (GPa) = 37.72161 59.10185 48.41173
#
# Velocity S-wave (km/s) = 3.72014 4.65655 4.21443
# Velocity P-wave (km/s) = 6.65443 8.09023 7.40720
#
# Compressibility (1/GPa) = 0.01420439
#
# Stress axis : x y z
#
# Youngs Moduli (GPa) = 58.49576 91.48476 116.85797
#
# Poissons Ratio (x) = 0.62228 -0.06862
# Poissons Ratio (y) = 0.39789 0.58134
# Poissons Ratio (z) = -0.03435 0.45511
#
# Static dielectric constant tensor:
#      x y z
#    x 2.254910 0.000000 -0.036640 
#    y 0.000000 2.094260 0.000000 
#    z -0.036640 0.000000 2.014040 
# 
# From -- ./inp_files/60125.got.cif
#   From: 2010.05.17/outbox.cif.g08.bks.cpg/sg13_31_cif.got.tgz:60125.got - 2010.06.03 16:44:36.
