data_PCOD9238105
_publ_section_title
;
Structure prediction by ZEFSAII (Michael W. Deem and Ramdas Pophale) SiO2 
 PCOD9238105
Probable space group: P 2/C
;
_chemical_formula_sum "Si O2"
_cell_formula_units_Z 28
_cell_length_a 11.975467
_cell_length_b 8.579466
_cell_length_c 14.141590
_cell_angle_alpha 90.000000
_cell_angle_beta 121.359735
_cell_angle_gamma 90.000000
_cell_volume 1240.699136
_symmetry_space_group_name_H-M "P 2/C"
_symmetry_group_IT_number 13
_symmetry_cell_setting 'monoclinic'
loop_
_space_group_symop_operation_xyz
x,y,z
-x,y,1/2-z
-x,-y,-z
x,-y,1/2+z
loop_
_atom_site_type_symbol
_atom_site_label
_atom_site_fract_x
_atom_site_fract_y
_atom_site_fract_z
Si Si1 0.586035 0.383511 0.099526
Si Si2 0.839779 0.321256 0.436542
Si Si3 0.586231 0.881257 0.879354
Si Si4 0.941951 0.202596 0.829425
Si Si5 0.002752 0.150084 0.139192
Si Si6 0.288588 0.611054 0.190166
Si Si7 0.701295 0.799634 0.481006
O O1 0.499321 0.242409 0.100672
O O2 0.637366 0.488083 0.209831
O O3 0.500000 0.500000 0.000000
O O4 0.684549 0.304438 0.067583
O O5 0.716967 0.210774 0.405276
O O6 0.798874 0.498997 0.414346
O O7 0.953246 0.290999 0.560754
O O8 0.900517 0.273897 0.363190
O O9 0.500000 0.925466 0.750000
O O10 0.629098 0.034041 0.955876
O O11 0.801374 0.280309 0.783277
O O12 0.000000 0.208736 0.750000
O O13 0.942792 0.021867 0.859770
O O14 0.000000 0.165581 0.250000
O O15 0.855671 0.167531 0.035579
O O16 0.354820 0.716407 0.138412
#
# Coordination Sequence:
#
# PCOD9238105 Si02
#       7
#     4   4   4   4   4   4   4
#     4  12  30  49  75 110 153 197 255 306 371 448
#     4  12  23  48  73 105 152 185 241 307 376 436
#     4  12  27  50  78 105 150 203 253 304 366 452
#     4  11  25  42  71 109 146 188 241 301 374 441
#     4  11  24  44  73 112 145 188 247 309 369 444
#     4  12  27  46  74 110 145 195 243 310 377 442
#     4  12  27  50  79 107 148 200 251 311 377 447
#
# _framework density 22.567920999999998
#
# number of rings (size 3 to 8) (size 9 to 14) (size 15 to 20)
#    0.000    0.286    4.286    3.857    6.000    0.571 
#    0.000    0.000    0.000    0.000    0.000    0.000 
#    0.000    0.000    0.000    0.000    0.000    0.000 
#
# Total GULP energy -156773.246162 kJ/mol
# GULP energy per Si atom -5599.044506 kJ/mol
# Density = 2.251655 g / cm^3
# Si number density = 22.567921 Si / 1000 Ang^3
#
#
#
# Elastic Constant Matrix: (Units=GPa)
#
#
# Indices 1 2 3 4 5 6 
#
# 1 88.9400 34.7731 16.0773 0.0000 -8.0692 0.0000
# 2 34.7731 122.8828 26.5987 0.0000 -0.4134 0.0000
# 3 16.0773 26.5987 71.5845 0.0000 -12.1631 0.0000
# 4 0.0000 0.0000 0.0000 43.5436 0.0000 -12.1116
# 5 -8.0692 -0.4134 -12.1631 0.0000 27.8315 0.0000
# 6 0.0000 0.0000 0.0000 -12.1116 0.0000 50.8855
#
#
#
# Elastic Compliance Matrix: (Units=1/GPa)
#
#
# Indices 1 2 3 4 5 6 
#
# 1 0.013089 -0.003454 -0.001102 0.000000 0.003262 0.000000
# 2 -0.003454 0.009813 -0.003258 0.000000 -0.002279 0.000000
# 3 -0.001102 -0.003258 0.016597 0.000000 0.006886 0.000000
# 4 0.000000 0.000000 0.000000 0.024594 0.000000 0.005854
# 5 0.003262 -0.002279 0.006886 0.000000 0.039852 0.000000
# 6 0.000000 0.000000 0.000000 0.005854 0.000000 0.021045
#
#
# Mechanical properties :
#
#
# Convention : Reuss Voigt Hill
#
# Bulk Modulus (GPa) = 41.89096 48.70062 45.29579
# Shear Modulus (GPa) = 33.65298 38.18266 35.91782
#
# Velocity S-wave (km/s) = 3.86578 4.11773 3.99374
# Velocity P-wave (km/s) = 6.20710 6.65087 6.43281
#
# Compressibility (1/GPa) = 0.02387150
#
# Stress axis : x y z
#
# Youngs Moduli (GPa) = 76.39830 101.90724 60.25051
#
# Poissons Ratio (x) = 0.35204 0.06639
# Poissons Ratio (y) = 0.26392 0.19627
# Poissons Ratio (z) = 0.08418 0.33198
#
# Static dielectric constant tensor:
#      x y z
#    x 1.865990 0.000000 0.007250 
#    y 0.000000 1.820440 0.000000 
#    z 0.007250 0.000000 1.831850 
# 
# From -- ./inp_files/50461.got.cif
#   From: 2010.05.17/outbox.cif.g08.bks.cpg/sg13_26_cif.got.tgz:50461.got - 2010.06.03 16:44:36.
