data_PCOD9238986
_publ_section_title
;
Structure prediction by ZEFSAII (Michael W. Deem and Ramdas Pophale) SiO2 
 PCOD9238986
Probable space group: P 2/C
;
_chemical_formula_sum "Si O2"
_cell_formula_units_Z 22
_cell_length_a 9.000000
_cell_length_b 9.000000
_cell_length_c 15.000000
_cell_angle_alpha 90.000000
_cell_angle_beta 80.000000
_cell_angle_gamma 90.000000
_cell_volume 1196.541420
_symmetry_space_group_name_H-M "P 2/C"
_symmetry_group_IT_number 13
_symmetry_cell_setting 'monoclinic'
loop_
_space_group_symop_operation_xyz
x,y,z
-x,y,1/2-z
-x,-y,-z
x,-y,1/2+z
loop_
_atom_site_type_symbol
_atom_site_label
_atom_site_fract_x
_atom_site_fract_y
_atom_site_fract_z
Si Si1 0.104768 0.648449 0.583139
Si Si2 0.671103 0.119564 0.887932
Si Si3 0.214884 0.894190 0.314713
Si Si4 0.000000 0.860293 0.750000
Si Si5 0.040897 0.691696 0.090347
Si Si6 0.641081 0.834427 0.012494
O O1 0.077598 0.754368 0.669676
O O2 0.082519 0.476969 0.609670
O O3 0.266571 0.689958 0.525274
O O4 0.994603 0.689569 0.511847
O O5 0.673229 0.125031 0.780474
O O6 0.825703 0.194655 0.902558
O O7 0.529686 0.202322 0.945753
O O8 0.656702 0.954823 0.931596
O O9 0.291356 0.908520 0.403751
O O10 0.103425 0.753589 0.340665
O O11 0.112653 0.032804 0.293486
#
# Coordination Sequence:
#
# PCOD9238986 Si02
#       6
#     4   4   4   2   4   4
#     4  10  22  37  56  86 110 148 181 237 273 335
#     4  11  20  36  58  84 111 155 178 230 273 332
#     4  11  20  36  58  87 107 149 184 236 266 332
#     4  12  20  32  62  84 108 140 196 232 274 320
#     4  10  21  38  59  80 116 143 189 226 284 326
#     4  10  22  37  56  83 118 141 191 222 280 326
#
# _framework density 18.386324999999999
#
# number of rings (size 3 to 8) (size 9 to 14) (size 15 to 20)
#    0.000    1.455    3.636    1.636    2.545    3.636 
#    0.000    0.000    0.000    0.000    0.000    0.000 
#    0.000    0.000    0.000    0.000    0.000    0.000 
#
# Total GULP energy -122719.248996 kJ/mol
# GULP energy per Si atom -5578.147682 kJ/mol
# Density = 1.834448 g / cm^3
# Si number density = 18.386325 Si / 1000 Ang^3
#
#
#
# Elastic Constant Matrix: (Units=GPa)
#
#
# Indices 1 2 3 4 5 6 
#
# 1 50.2700 4.8486 17.3429 0.0000 -19.9998 0.0000
# 2 4.8486 54.9863 32.1082 0.0000 -19.7089 0.0000
# 3 17.3429 32.1082 107.7502 0.0000 -24.1261 0.0000
# 4 0.0000 0.0000 0.0000 20.6361 0.0000 1.6214
# 5 -19.9998 -19.7089 -24.1261 0.0000 24.2174 0.0000
# 6 0.0000 0.0000 0.0000 1.6214 0.0000 15.0422
#
#
#
# Elastic Compliance Matrix: (Units=1/GPa)
#
#
# Indices 1 2 3 4 5 6 
#
# 1 0.032910 0.009799 -0.000445 0.000000 0.034710 0.000000
# 2 0.009799 0.029881 -0.004150 0.000000 0.028276 0.000000
# 3 -0.000445 -0.004150 0.012550 0.000000 0.008757 0.000000
# 4 0.000000 0.000000 0.000000 0.048873 0.000000 -0.005268
# 5 0.034710 0.028276 0.008757 0.000000 0.101695 0.000000
# 6 0.000000 0.000000 0.000000 -0.005268 0.000000 0.067048
#
#
# Mechanical properties :
#
#
# Convention : Reuss Voigt Hill
#
# Bulk Modulus (GPa) = 11.66194 35.73401 23.69798
# Shear Modulus (GPa) = 16.07040 22.55957 19.31498
#
# Velocity S-wave (km/s) = 2.95963 3.50662 3.24467
# Velocity P-wave (km/s) = 4.24684 5.98936 5.19173
#
# Compressibility (1/GPa) = 0.08574900
#
# Stress axis : x y z
#
# Youngs Moduli (GPa) = 30.38556 33.46640 79.68170
#
# Poissons Ratio (x) = -0.32795 0.03548
# Poissons Ratio (y) = -0.29776 0.33068
# Poissons Ratio (z) = 0.01353 0.13889
#
# Static dielectric constant tensor:
#      x y z
#    x 1.674810 0.000000 0.003250 
#    y 0.000000 1.601020 0.000000 
#    z 0.003250 0.000000 1.632420 
# 
# From -- ./inp_files/45770.got.cif
#   From: 2010.05.17/outbox.ucp.g08.bks.cvg/sg13_23_cif.got.tgz:45770.got - 2010.06.11 12:23:55.
