data_PCOD9238042
_publ_section_title
;
Structure prediction by ZEFSAII (Michael W. Deem and Ramdas Pophale) SiO2 
 PCOD9238042
Probable space group: P 2/C
;
_chemical_formula_sum "Si O2"
_cell_formula_units_Z 16
_cell_length_a 4.620927
_cell_length_b 8.445502
_cell_length_c 20.329079
_cell_angle_alpha 90.000000
_cell_angle_beta 60.171633
_cell_angle_gamma 90.000000
_cell_volume 688.258247
_symmetry_space_group_name_H-M "P 2/C"
_symmetry_group_IT_number 13
_symmetry_cell_setting 'monoclinic'
loop_
_space_group_symop_operation_xyz
x,y,z
-x,y,1/2-z
-x,-y,-z
x,-y,1/2+z
loop_
_atom_site_type_symbol
_atom_site_label
_atom_site_fract_x
_atom_site_fract_y
_atom_site_fract_z
Si Si1 0.248767 0.354825 0.600649
Si Si2 0.930530 0.316668 0.439164
Si Si3 0.499196 0.095220 0.069941
Si Si4 0.587479 0.177676 0.665344
O O1 0.601193 0.335366 0.522556
O O2 0.064995 0.514610 0.597471
O O3 0.363695 0.323445 0.662497
O O4 0.974084 0.222912 0.617260
O O5 0.225873 0.235530 0.447677
O O6 0.845462 0.188862 0.393196
O O7 0.528716 0.968557 0.123714
O O8 0.500000 0.000000 0.000000
O O9 0.500000 0.144121 0.750000
#
# Coordination Sequence:
#
# PCOD9238042 Si02
#       4
#     4   4   4   4
#     4  11  24  44  69 101 132 179 231 290 341 415
#     4  11  24  42  70 104 133 168 236 295 344 390
#     4  12  24  42  68 105 137 177 225 293 341 409
#     4  12  26  45  66  97 140 187 226 278 356 429
#
# _framework density 23.247088999999999
#
# number of rings (size 3 to 8) (size 9 to 14) (size 15 to 20)
#    0.000    0.500    2.500    6.000    0.000    4.000 
#    0.000    7.500    0.000    0.000    0.000    0.000 
#    0.000    0.000    0.000    0.000    0.000    0.000 
#
# Total GULP energy -89374.630061 kJ/mol
# GULP energy per Si atom -5585.914379 kJ/mol
# Density = 2.319418 g / cm^3
# Si number density = 23.247089 Si / 1000 Ang^3
#
#
#
# Elastic Constant Matrix: (Units=GPa)
#
#
# Indices 1 2 3 4 5 6 
#
# 1 154.0298 41.6751 41.2673 0.0000 34.7944 0.0000
# 2 41.6751 121.1985 49.2085 0.0000 24.7682 0.0000
# 3 41.2673 49.2085 114.4633 0.0000 41.8883 0.0000
# 4 0.0000 0.0000 0.0000 18.2541 0.0000 9.6015
# 5 34.7944 24.7682 41.8883 0.0000 34.8984 0.0000
# 6 0.0000 0.0000 0.0000 9.6015 0.0000 65.6223
#
#
#
# Elastic Compliance Matrix: (Units=1/GPa)
#
#
# Indices 1 2 3 4 5 6 
#
# 1 0.008596 -0.001507 0.000524 0.000000 -0.008130 0.000000
# 2 -0.001507 0.010499 -0.003198 0.000000 -0.002110 0.000000
# 3 0.000524 -0.003198 0.016555 0.000000 -0.018123 0.000000
# 4 0.000000 0.000000 0.000000 0.059350 0.000000 -0.008684
# 5 -0.008130 -0.002110 -0.018123 0.000000 0.060010 0.000000
# 6 0.000000 0.000000 0.000000 -0.008684 0.000000 0.016509
#
#
# Mechanical properties :
#
#
# Convention : Reuss Voigt Hill
#
# Bulk Modulus (GPa) = 36.64749 72.66596 54.65672
# Shear Modulus (GPa) = 26.45823 40.92433 33.69128
#
# Velocity S-wave (km/s) = 3.37728 4.20027 3.81106
# Velocity P-wave (km/s) = 5.56836 7.40601 6.55193
#
# Compressibility (1/GPa) = 0.02728700
#
# Stress axis : x y z
#
# Youngs Moduli (GPa) = 116.33155 95.24889 60.40637
#
# Poissons Ratio (x) = 0.14356 -0.03164
# Poissons Ratio (y) = 0.17533 0.19318
# Poissons Ratio (z) = -0.06094 0.30460
#
# Static dielectric constant tensor:
#      x y z
#    x 1.919470 0.000000 0.017390 
#    y 0.000000 2.011900 0.000000 
#    z 0.017390 0.000000 1.889300 
# 
# From -- ./inp_files/72695.got.cif
#   From: 2010.05.17/outbox.cif.g08.bks.cpg/sg13_37_cif.got.tgz:72695.got - 2010.06.03 16:44:36.
