data_PCOD9238971
_publ_section_title
;
Structure prediction by ZEFSAII (Michael W. Deem and Ramdas Pophale) SiO2 
 PCOD9238971
Probable space group: P 2/C
;
_chemical_formula_sum "Si O2"
_cell_formula_units_Z 24
_cell_length_a 12.000000
_cell_length_b 12.000000
_cell_length_c 27.000000
_cell_angle_alpha 90.000000
_cell_angle_beta 160.000000
_cell_angle_gamma 90.000000
_cell_volume 1329.774317
_symmetry_space_group_name_H-M "P 2/C"
_symmetry_group_IT_number 13
_symmetry_cell_setting 'monoclinic'
loop_
_space_group_symop_operation_xyz
x,y,z
-x,y,1/2-z
-x,-y,-z
x,-y,1/2+z
loop_
_atom_site_type_symbol
_atom_site_label
_atom_site_fract_x
_atom_site_fract_y
_atom_site_fract_z
Si Si1 0.798062 0.142916 0.523417
Si Si2 0.792782 0.829985 0.403510
Si Si3 0.187451 0.258006 0.154164
Si Si4 0.545108 0.366987 0.470318
Si Si5 0.062251 0.594612 0.855785
Si Si6 0.621186 0.980550 0.717609
O O1 0.698525 0.252549 0.512242
O O2 0.500024 0.061120 0.386361
O O3 0.922095 0.166171 0.518431
O O4 0.088848 0.069434 0.666864
O O5 0.500000 0.778303 0.250000
O O6 0.898650 0.759112 0.494368
O O7 0.653117 0.949079 0.365788
O O8 0.500000 0.293630 0.250000
O O9 0.264477 0.131982 0.206294
O O10 0.059857 0.336988 0.145999
O O11 0.807696 0.468222 0.580729
O O12 0.362639 0.353960 0.447829
O O13 0.254292 0.403381 0.311786
#
# Coordination Sequence:
#
# PCOD9238971 Si02
#       6
#     4   4   4   4   4   4
#     4  11  20  36  59  90 122 160 200 244 290 366
#     4  10  21  31  55  91 121 160 197 238 294 361
#     4  12  20  36  60  88 120 158 195 241 309 358
#     4  10  22  44  64  87 115 157 214 245 302 357
#     4  10  23  42  68  83 115 163 199 258 301 352
#     4  11  20  32  59  88 124 162 192 236 301 359
#
# _framework density 18.048175000000001
#
# number of rings (size 3 to 8) (size 9 to 14) (size 15 to 20)
#    0.000    1.333    5.000    2.000    0.000    2.667 
#    0.000    6.667    3.667    0.000    0.000    0.000 
#    0.000    0.000    0.000    0.000    0.000    0.000 
#
# Total GULP energy -133678.040360 kJ/mol
# GULP energy per Si atom -5569.918348 kJ/mol
# Density = 1.800710 g / cm^3
# Si number density = 18.048175 Si / 1000 Ang^3
#
#
#
# Elastic Constant Matrix: (Units=GPa)
#
#
# Indices 1 2 3 4 5 6 
#
# 1 128.4722 79.2378 44.4588 0.0000 9.2876 0.0000
# 2 79.2378 122.6696 55.3845 0.0000 13.1412 0.0000
# 3 44.4588 55.3845 105.0889 0.0000 -1.7899 0.0000
# 4 0.0000 0.0000 0.0000 33.3445 0.0000 1.5082
# 5 9.2876 13.1412 -1.7899 0.0000 26.0281 0.0000
# 6 0.0000 0.0000 0.0000 1.5082 0.0000 42.9968
#
#
#
# Elastic Compliance Matrix: (Units=1/GPa)
#
#
# Indices 1 2 3 4 5 6 
#
# 1 0.013117 -0.007695 -0.001509 0.000000 -0.000899 0.000000
# 2 -0.007695 0.016163 -0.005361 0.000000 -0.005783 0.000000
# 3 -0.001509 -0.005361 0.013050 0.000000 0.004143 0.000000
# 4 0.000000 0.000000 0.000000 0.030038 0.000000 -0.001054
# 5 -0.000899 -0.005783 0.004143 0.000000 0.041946 0.000000
# 6 0.000000 0.000000 0.000000 -0.001054 0.000000 0.023295
#
#
# Mechanical properties :
#
#
# Convention : Reuss Voigt Hill
#
# Bulk Modulus (GPa) = 75.76221 79.37697 77.56959
# Shear Modulus (GPa) = 29.21606 32.28384 30.74995
#
# Velocity S-wave (km/s) = 4.02777 4.23396 4.13215
# Velocity P-wave (km/s) = 7.98120 8.24488 8.11411
#
# Compressibility (1/GPa) = 0.01319919
#
# Stress axis : x y z
#
# Youngs Moduli (GPa) = 76.23519 61.87038 76.62743
#
# Poissons Ratio (x) = 0.47612 0.11563
# Poissons Ratio (y) = 0.58666 0.41081
# Poissons Ratio (z) = 0.11504 0.33169
#
# Static dielectric constant tensor:
#      x y z
#    x 1.630760 0.000000 0.009360 
#    y 0.000000 1.605940 0.000000 
#    z 0.009360 0.000000 1.741260 
# 
# From -- ./inp_files/92413.got.cif
#   From: 2010.05.17/outbox.ucp.g08.bks.cvg/sg13_47_cif.got.tgz:92413.got - 2010.06.11 12:23:55.
