data_PCOD9238991
_publ_section_title
;
Structure prediction by ZEFSAII (Michael W. Deem and Ramdas Pophale) SiO2 
 PCOD9238991
Probable space group: P 2/C
;
_chemical_formula_sum "Si O2"
_cell_formula_units_Z 24
_cell_length_a 18.000000
_cell_length_b 15.000000
_cell_length_c 9.000000
_cell_angle_alpha 90.000000
_cell_angle_beta 150.000000
_cell_angle_gamma 90.000000
_cell_volume 1215.000000
_symmetry_space_group_name_H-M "P 2/C"
_symmetry_group_IT_number 13
_symmetry_cell_setting 'monoclinic'
loop_
_space_group_symop_operation_xyz
x,y,z
-x,y,1/2-z
-x,-y,-z
x,-y,1/2+z
loop_
_atom_site_type_symbol
_atom_site_label
_atom_site_fract_x
_atom_site_fract_y
_atom_site_fract_z
Si Si1 0.665598 0.390142 0.702999
Si Si2 0.676527 0.951288 0.014933
Si Si3 0.150937 0.708482 0.424977
Si Si4 0.681132 0.553060 0.912590
Si Si5 0.816675 0.898829 0.939516
Si Si6 0.162757 0.776875 0.102977
O O1 0.705266 0.450970 0.910957
O O2 0.488382 0.408935 0.386145
O O3 0.732377 0.433090 0.669049
O O4 0.729061 0.290642 0.800586
O O5 0.756655 0.871875 0.245212
O O6 0.746462 0.044585 0.186392
O O7 0.500000 0.948829 0.750000
O O8 0.733588 0.934431 0.944952
O O9 0.238346 0.617179 0.563520
O O10 0.220125 0.793801 0.628136
O O11 0.140034 0.741945 0.233788
O O12 0.000000 0.691949 0.250000
O O13 0.000000 0.906682 0.250000
O O14 0.000000 0.782558 0.750000
#
# Coordination Sequence:
#
# PCOD9238991 Si02
#       6
#     4   4   4   4   4   4
#     4   9  19  34  57  79 110 146 185 228 276 329
#     4  11  23  38  61  87 114 150 193 237 284 336
#     4   9  20  36  58  79 111 150 183 226 281 330
#     4   9  18  35  56  80 109 146 186 227 276 328
#     4  10  21  39  60  83 117 153 188 231 289 340
#     4  10  22  37  57  84 112 149 189 228 277 337
#
# _framework density 19.753086
#
# number of rings (size 3 to 8) (size 9 to 14) (size 15 to 20)
#    0.000    2.333    0.000    1.500    7.000    4.667 
#    0.000    3.333    3.667    0.000    0.000    0.000 
#    0.000    0.000    0.000    0.000    0.000    0.000 
#
# Total GULP energy -133638.502858 kJ/mol
# GULP energy per Si atom -5568.270952 kJ/mol
# Density = 1.970813 g / cm^3
# Si number density = 19.753086 Si / 1000 Ang^3
#
#
#
# Elastic Constant Matrix: (Units=GPa)
#
#
# Indices 1 2 3 4 5 6 
#
# 1 74.5103 12.1591 -8.7717 0.0000 27.5133 0.0000
# 2 12.1591 43.7966 -2.1054 0.0000 -0.1964 0.0000
# 3 -8.7717 -2.1054 19.3774 0.0000 7.5166 0.0000
# 4 0.0000 0.0000 0.0000 16.8096 0.0000 -0.7558
# 5 27.5133 -0.1964 7.5166 0.0000 21.5128 0.0000
# 6 0.0000 0.0000 0.0000 -0.7558 0.0000 45.3071
#
#
#
# Elastic Compliance Matrix: (Units=1/GPa)
#
#
# Indices 1 2 3 4 5 6 
#
# 1 0.059640 -0.013935 0.063762 0.000000 -0.098681 0.000000
# 2 -0.013935 0.026220 -0.012106 0.000000 0.022291 0.000000
# 3 0.063762 -0.012106 0.128207 0.000000 -0.126454 0.000000
# 4 0.000000 0.000000 0.000000 0.059535 0.000000 0.000993
# 5 -0.098681 0.022291 -0.126454 0.000000 0.217076 0.000000
# 6 0.000000 0.000000 0.000000 0.000993 0.000000 0.022088
#
#
# Mechanical properties :
#
#
# Convention : Reuss Voigt Hill
#
# Bulk Modulus (GPa) = 3.45413 15.58315 9.51864
# Shear Modulus (GPa) = 9.36636 25.81937 17.59287
#
# Velocity S-wave (km/s) = 2.17991 3.61931 2.98759
# Velocity P-wave (km/s) = 2.84402 5.03706 4.09026
#
# Compressibility (1/GPa) = 0.28950867
#
# Stress axis : x y z
#
# Youngs Moduli (GPa) = 16.76737 38.13944 7.79988
#
# Poissons Ratio (x) = 0.53147 -0.49734
# Poissons Ratio (y) = 0.23365 0.09443
# Poissons Ratio (z) = -1.06913 0.46172
#
# Static dielectric constant tensor:
#      x y z
#    x 1.693240 0.000000 -0.022080 
#    y 0.000000 1.703130 0.000000 
#    z -0.022080 0.000000 1.714090 
# 
# From -- ./inp_files/12406.got.cif
#   From: 2010.05.17/outbox.ucp.g08.bks.cvg/sg13_7_cif.got.tgz:12406.got - 2010.06.11 12:23:55.
