data_PCOD9238901
_publ_section_title
;
Structure prediction by ZEFSAII (Michael W. Deem and Ramdas Pophale) SiO2 
 PCOD9238901
Probable space group: P 2/C
;
_chemical_formula_sum "Si O2"
_cell_formula_units_Z 28
_cell_length_a 21.000000
_cell_length_b 12.000000
_cell_length_c 18.000000
_cell_angle_alpha 90.000000
_cell_angle_beta 160.000000
_cell_angle_gamma 90.000000
_cell_volume 1551.403370
_symmetry_space_group_name_H-M "P 2/C"
_symmetry_group_IT_number 13
_symmetry_cell_setting 'monoclinic'
loop_
_space_group_symop_operation_xyz
x,y,z
-x,y,1/2-z
-x,-y,-z
x,-y,1/2+z
loop_
_atom_site_type_symbol
_atom_site_label
_atom_site_fract_x
_atom_site_fract_y
_atom_site_fract_z
Si Si1 0.903959 0.405852 0.343715
Si Si2 0.674231 0.961676 0.138127
Si Si3 0.108010 0.510976 0.443965
Si Si4 0.490520 0.225431 0.147673
Si Si5 0.530877 0.467904 0.445107
Si Si6 0.919603 0.767998 0.079252
Si Si7 0.038345 0.841828 0.537307
O O1 0.908557 0.283131 0.381846
O O2 0.000000 0.500000 0.500000
O O3 0.032871 0.414122 0.413504
O O4 0.696510 0.451011 0.101824
O O5 0.839623 0.882009 0.352407
O O6 0.797482 0.073158 0.258805
O O7 0.603399 0.886216 0.990375
O O8 0.500000 0.000000 0.000000
O O9 0.331129 0.511076 0.687939
O O10 0.048538 0.636707 0.403677
O O11 0.000000 0.497043 0.250000
O O12 0.500000 0.233284 0.250000
O O13 0.417751 0.340451 0.026525
O O14 0.700742 0.218266 0.349535
O O15 0.500000 0.500000 0.500000
O O16 0.000000 0.791967 0.250000
O O17 0.980235 0.838372 0.073736
#
# Coordination Sequence:
#
# PCOD9238901 Si02
#       7
#     4   4   4   4   4   4   4
#     4  12  21  36  64  91 127 167 205 264 331 400
#     4  11  24  41  65  88 124 167 218 272 317 373
#     4  10  23  37  56  91 132 164 203 258 323 393
#     4  11  23  39  66  97 125 166 217 271 324 378
#     4  11  23  37  63 101 130 162 209 264 330 404
#     4  10  19  35  59  94 128 152 201 268 319 379
#     4  11  23  40  62  94 121 167 219 263 322 386
#
# _framework density 18.048175000000001
#
# number of rings (size 3 to 8) (size 9 to 14) (size 15 to 20)
#    0.000    1.143    4.286    2.571    6.000    0.000 
#    0.000    0.000    6.286    0.000    0.000    0.000 
#    0.000    0.000    0.000    0.000    0.000    0.000 
#
# Total GULP energy -155922.622642 kJ/mol
# GULP energy per Si atom -5568.665094 kJ/mol
# Density = 1.800710 g / cm^3
# Si number density = 18.048175 Si / 1000 Ang^3
#
#
#
# Elastic Constant Matrix: (Units=GPa)
#
#
# Indices 1 2 3 4 5 6 
#
# 1 76.4632 44.0618 32.2060 0.0000 -0.3368 0.0000
# 2 44.0618 131.3246 52.0279 0.0000 -13.4668 0.0000
# 3 32.2060 52.0279 117.0980 0.0000 4.0949 0.0000
# 4 0.0000 0.0000 0.0000 32.0820 0.0000 -0.7922
# 5 -0.3368 -13.4668 4.0949 0.0000 36.5112 0.0000
# 6 0.0000 0.0000 0.0000 -0.7922 0.0000 25.4090
#
#
#
# Elastic Compliance Matrix: (Units=1/GPa)
#
#
# Indices 1 2 3 4 5 6 
#
# 1 0.016890 -0.004835 -0.002450 0.000000 -0.001353 0.000000
# 2 -0.004835 0.011209 -0.003808 0.000000 0.004517 0.000000
# 3 -0.002450 -0.003808 0.010999 0.000000 -0.002661 0.000000
# 4 0.000000 0.000000 0.000000 0.031194 0.000000 0.000973
# 5 -0.001353 0.004517 -0.002661 0.000000 0.029341 0.000000
# 6 0.000000 0.000000 0.000000 0.000973 0.000000 0.039386
#
#
# Mechanical properties :
#
#
# Convention : Reuss Voigt Hill
#
# Bulk Modulus (GPa) = 59.13175 64.60859 61.87017
# Shear Modulus (GPa) = 29.96822 31.90644 30.93733
#
# Velocity S-wave (km/s) = 4.07929 4.20914 4.14472
# Velocity P-wave (km/s) = 7.41768 7.71350 7.56703
#
# Compressibility (1/GPa) = 0.01691139
#
# Stress axis : x y z
#
# Youngs Moduli (GPa) = 59.20543 89.21403 90.91916
#
# Poissons Ratio (x) = 0.43137 0.22273
# Poissons Ratio (y) = 0.28627 0.34626
# Poissons Ratio (z) = 0.14504 0.33976
#
# Static dielectric constant tensor:
#      x y z
#    x 1.631620 0.000000 0.017380 
#    y 0.000000 1.621940 0.000000 
#    z 0.017380 0.000000 1.642680 
# 
# From -- ./inp_files/70714.got.cif
#   From: 2010.05.17/outbox.ucp.g08.bks.cvg/sg13_36_cif.got.tgz:70714.got - 2010.06.11 12:23:55.
