data_PCOD9238915
_publ_section_title
;
Structure prediction by ZEFSAII (Michael W. Deem and Ramdas Pophale) SiO2 
 PCOD9238915
Probable space group: P 2/C
;
_chemical_formula_sum "Si O2"
_cell_formula_units_Z 24
_cell_length_a 15.000000
_cell_length_b 15.000000
_cell_length_c 9.000000
_cell_angle_alpha 90.000000
_cell_angle_beta 140.000000
_cell_angle_gamma 90.000000
_cell_volume 1301.644910
_symmetry_space_group_name_H-M "P 2/C"
_symmetry_group_IT_number 13
_symmetry_cell_setting 'monoclinic'
loop_
_space_group_symop_operation_xyz
x,y,z
-x,y,1/2-z
-x,-y,-z
x,-y,1/2+z
loop_
_atom_site_type_symbol
_atom_site_label
_atom_site_fract_x
_atom_site_fract_y
_atom_site_fract_z
Si Si1 0.220774 0.903374 0.567185
Si Si2 0.790870 0.087122 0.796184
Si Si3 0.500000 0.492024 0.750000
Si Si4 0.000000 0.748879 0.250000
Si Si5 0.492803 0.181752 0.059734
Si Si6 0.378849 0.627200 0.352742
Si Si7 0.919477 0.721304 0.487966
O O1 0.227241 0.927477 0.402102
O O2 0.125509 0.815855 0.449102
O O3 0.370237 0.870439 0.815119
O O4 0.169946 0.992489 0.583735
O O5 0.641515 0.124720 0.659225
O O6 0.892074 0.171450 0.950152
O O7 0.415740 0.558086 0.532394
O O8 0.593001 0.428035 0.762836
O O9 0.970835 0.702888 0.378245
O O10 0.500000 0.186703 0.250000
O O11 0.475946 0.283936 0.984189
O O12 0.225006 0.667299 0.178622
O O13 0.000000 0.703562 0.750000
#
# Coordination Sequence:
#
# PCOD9238915 Si02
#       7
#     4   4   2   2   4   4   4
#     4  10  20  33  52  82 117 164 210 247 300 348
#     4   9  20  33  54  81 116 160 208 255 300 337
#     4  10  22  40  72  94 118 142 200 254 328 386
#     4  10  24  36  58  88 118 182 206 246 302 350
#     4   9  17  35  57  80 117 154 194 255 307 360
#     4  10  21  42  65  97 118 156 194 259 317 377
#     4  10  23  42  62  89 129 167 212 247 299 370
#
# _framework density 18.438207999999999
#
# number of rings (size 3 to 8) (size 9 to 14) (size 15 to 20)
#    0.000    2.333    0.833    1.500    3.500    2.667 
#    6.000    0.833    0.000    0.000    0.000    0.000 
#    0.000    0.000    0.000    0.000    0.000    0.000 
#
# Total GULP energy -133638.966570 kJ/mol
# GULP energy per Si atom -5568.290274 kJ/mol
# Density = 1.839624 g / cm^3
# Si number density = 18.438208 Si / 1000 Ang^3
#
#
#
# Elastic Constant Matrix: (Units=GPa)
#
#
# Indices 1 2 3 4 5 6 
#
# 1 97.1360 31.4658 32.1669 0.0000 -18.2633 0.0000
# 2 31.4658 75.2011 13.5161 0.0000 -17.3091 0.0000
# 3 32.1669 13.5161 66.8072 0.0000 -15.5976 0.0000
# 4 0.0000 0.0000 0.0000 7.0717 0.0000 -1.0351
# 5 -18.2633 -17.3091 -15.5976 0.0000 22.9159 0.0000
# 6 0.0000 0.0000 0.0000 -1.0351 0.0000 27.0333
#
#
#
# Elastic Compliance Matrix: (Units=1/GPa)
#
#
# Indices 1 2 3 4 5 6 
#
# 1 0.014093 -0.003874 -0.004830 0.000000 0.005018 0.000000
# 2 -0.003874 0.017175 0.000830 0.000000 0.010451 0.000000
# 3 -0.004830 0.000830 0.019467 0.000000 0.010028 0.000000
# 4 0.000000 0.000000 0.000000 0.142205 0.000000 0.005445
# 5 0.005018 0.010451 0.010028 0.000000 0.062356 0.000000
# 6 0.000000 0.000000 0.000000 0.005445 0.000000 0.037200
#
#
# Mechanical properties :
#
#
# Convention : Reuss Voigt Hill
#
# Bulk Modulus (GPa) = 28.58146 43.71577 36.14862
# Shear Modulus (GPa) = 15.62966 22.20391 18.91678
#
# Velocity S-wave (km/s) = 2.91465 3.47397 3.20653
# Velocity P-wave (km/s) = 5.18283 6.31285 5.77555
#
# Compressibility (1/GPa) = 0.03498772
#
# Stress axis : x y z
#
# Youngs Moduli (GPa) = 70.95908 58.22548 51.36790
#
# Poissons Ratio (x) = 0.22554 0.24812
# Poissons Ratio (y) = 0.27486 -0.04265
# Poissons Ratio (z) = 0.34275 -0.04834
#
# Static dielectric constant tensor:
#      x y z
#    x 1.683580 0.000000 0.017300 
#    y 0.000000 1.605500 0.000000 
#    z 0.017300 0.000000 1.669050 
# 
# From -- ./inp_files/19534.got.cif
#   From: 2010.05.17/outbox.ucp.g08.bks.cvg/sg13_10_cif.got.tgz:19534.got - 2010.06.11 12:23:55.
