data_PCOD9238627
_publ_section_title
;
Structure prediction by ZEFSAII (Michael W. Deem and Ramdas Pophale) SiO2 
 PCOD9238627
Probable space group: P 2/C
;
_chemical_formula_sum "Si O2"
_cell_formula_units_Z 20
_cell_length_a 9.325542
_cell_length_b 11.871969
_cell_length_c 8.876483
_cell_angle_alpha 90.000000
_cell_angle_beta 125.422169
_cell_angle_gamma 90.000000
_cell_volume 800.836755
_symmetry_space_group_name_H-M "P 2/C"
_symmetry_group_IT_number 13
_symmetry_cell_setting 'monoclinic'
loop_
_space_group_symop_operation_xyz
x,y,z
-x,y,1/2-z
-x,-y,-z
x,-y,1/2+z
loop_
_atom_site_type_symbol
_atom_site_label
_atom_site_fract_x
_atom_site_fract_y
_atom_site_fract_z
Si Si1 0.127961 0.179105 0.211522
Si Si2 0.503719 0.123699 0.931234
Si Si3 0.688676 0.552886 0.094137
Si Si4 0.804924 0.224342 0.566933
Si Si5 0.110294 0.399594 0.494759
O O1 0.318026 0.188177 0.407178
O O2 0.193007 0.449724 0.393430
O O3 0.996886 0.287430 0.402393
O O4 0.000000 0.111837 0.250000
O O5 0.500000 0.121538 0.750000
O O6 0.326465 0.173601 0.892396
O O7 0.819999 0.853295 0.927604
O O8 0.742262 0.609531 0.285431
O O9 0.500000 0.500000 0.000000
O O10 0.719135 0.651457 0.988650
O O11 0.000000 0.242334 0.750000
O O12 0.500000 0.000000 0.500000
O O13 0.000000 0.500000 0.500000
#
# Coordination Sequence:
#
# PCOD9238627 Si02
#       5
#     4   4   4   4   4
#     4  12  26  47  81 115 162 215 271 340 413 495
#     4  12  30  56  87 122 155 205 276 353 432 506
#     4  12  27  43  72 110 164 217 275 328 399 484
#     4  12  25  50  78 115 163 214 270 336 410 495
#     4  12  24  45  69 111 161 217 270 329 397 485
#
# _framework density 24.973876000000001
#
# number of rings (size 3 to 8) (size 9 to 14) (size 15 to 20)
#    0.000    0.000    4.000    5.400    5.600    2.400 
#    0.000    4.000    0.000    0.000    0.000    0.000 
#    0.000    0.000    0.000    0.000    0.000    0.000 
#
# Total GULP energy -111849.785072 kJ/mol
# GULP energy per Si atom -5592.489254 kJ/mol
# Density = 2.491703 g / cm^3
# Si number density = 24.973876 Si / 1000 Ang^3
#
#
#
# Elastic Constant Matrix: (Units=GPa)
#
#
# Indices 1 2 3 4 5 6 
#
# 1 236.3625 38.0913 86.7255 0.0000 6.6886 0.0000
# 2 38.0913 86.2053 35.1180 0.0000 16.5599 0.0000
# 3 86.7255 35.1180 158.7192 0.0000 -3.6005 0.0000
# 4 0.0000 0.0000 0.0000 30.5182 0.0000 -3.6829
# 5 6.6886 16.5599 -3.6005 0.0000 65.7355 0.0000
# 6 0.0000 0.0000 0.0000 -3.6829 0.0000 22.2968
#
#
#
# Elastic Compliance Matrix: (Units=1/GPa)
#
#
# Indices 1 2 3 4 5 6 
#
# 1 0.005432 -0.001222 -0.002707 0.000000 -0.000393 0.000000
# 2 -0.001222 0.013817 -0.002468 0.000000 -0.003491 0.000000
# 3 -0.002707 -0.002468 0.008356 0.000000 0.001355 0.000000
# 4 0.000000 0.000000 0.000000 0.033434 0.000000 0.005522
# 5 -0.000393 -0.003491 0.001355 0.000000 0.016206 0.000000
# 6 0.000000 0.000000 0.000000 0.005522 0.000000 0.045762
#
#
# Mechanical properties :
#
#
# Convention : Reuss Voigt Hill
#
# Bulk Modulus (GPa) = 67.52002 89.01740 78.26871
# Shear Modulus (GPa) = 35.52715 45.13359 40.33037
#
# Velocity S-wave (km/s) = 3.77579 4.25577 4.02294
# Velocity P-wave (km/s) = 6.78998 7.73759 7.27922
#
# Compressibility (1/GPa) = 0.01481042
#
# Stress axis : x y z
#
# Youngs Moduli (GPa) = 184.09595 72.37716 119.67106
#
# Poissons Ratio (x) = 0.08845 0.32390
# Poissons Ratio (y) = 0.22498 0.29540
# Poissons Ratio (z) = 0.49827 0.17866
#
# Static dielectric constant tensor:
#      x y z
#    x 2.063880 0.000000 -0.017700 
#    y 0.000000 2.060230 0.000000 
#    z -0.017700 0.000000 2.130580 
# 
# From -- ./inp_files/29782.got.cif
#   From: 2010.05.17/outbox.cif.g08.bks.cpg/sg13_15_cif.got.tgz:29782.got - 2010.06.03 16:44:36.
