data_PCOD9238711
_publ_section_title
;
Structure prediction by ZEFSAII (Michael W. Deem and Ramdas Pophale) SiO2 
 PCOD9238711
Probable space group: P 2/C
;
_chemical_formula_sum "Si O2"
_cell_formula_units_Z 12
_cell_length_a 11.497918
_cell_length_b 4.730559
_cell_length_c 23.118071
_cell_angle_alpha 90.000000
_cell_angle_beta 22.154467
_cell_angle_gamma 90.000000
_cell_volume 474.182381
_symmetry_space_group_name_H-M "P 2/C"
_symmetry_group_IT_number 13
_symmetry_cell_setting 'monoclinic'
loop_
_space_group_symop_operation_xyz
x,y,z
-x,y,1/2-z
-x,-y,-z
x,-y,1/2+z
loop_
_atom_site_type_symbol
_atom_site_label
_atom_site_fract_x
_atom_site_fract_y
_atom_site_fract_z
Si Si1 0.822763 0.901304 0.775355
Si Si2 0.602056 0.575200 0.046884
Si Si3 0.789573 0.254455 0.076450
O O1 0.580398 0.658644 0.907428
O O2 0.000000 0.014812 0.750000
O O3 0.084858 0.734157 0.617611
O O4 0.641602 0.166230 0.829975
O O5 0.681865 0.364958 0.063358
O O6 0.500000 0.226181 0.250000
O O7 0.000000 0.500000 0.000000
O O8 0.000000 0.000000 0.000000
#
# Coordination Sequence:
#
# PCOD9238711 Si02
#       3
#     4   4   4
#     4  12  25  47  74 110 150 195 245 302 364 437
#     4  12  26  46  74 109 149 196 244 302 367 436
#     4  12  27  49  74 107 144 189 244 304 365 435
#
# _framework density 25.306716999999999
#
# number of rings (size 3 to 8) (size 9 to 14) (size 15 to 20)
#    0.000    0.000    0.000   10.000    0.000    5.333 
#    0.000    0.000    0.000    0.000    0.000    0.000 
#    0.000    0.000    0.000    0.000    0.000    0.000 
#
# Total GULP energy -67024.981115 kJ/mol
# GULP energy per Si atom -5585.415093 kJ/mol
# Density = 2.524912 g / cm^3
# Si number density = 25.306717 Si / 1000 Ang^3
#
#
#
# Elastic Constant Matrix: (Units=GPa)
#
#
# Indices 1 2 3 4 5 6 
#
# 1 124.0682 61.2117 47.8916 0.0000 -16.1043 0.0000
# 2 61.2117 240.7639 85.8070 0.0000 -26.5537 0.0000
# 3 47.8916 85.8070 190.1192 0.0000 -13.5731 0.0000
# 4 0.0000 0.0000 0.0000 -135.8707 0.0000 -107.4682
# 5 -16.1043 -26.5537 -13.5731 0.0000 33.3978 0.0000
# 6 0.0000 0.0000 0.0000 -107.4682 0.0000 33.8395
#
#
#
# Elastic Compliance Matrix: (Units=1/GPa)
#
#
# Indices 1 2 3 4 5 6 
#
# 1 0.009827 -0.001642 -0.001534 0.000000 0.002810 0.000000
# 2 -0.001642 0.005561 -0.001892 0.000000 0.002861 0.000000
# 3 -0.001534 -0.001892 0.006529 0.000000 0.000410 0.000000
# 4 0.000000 0.000000 0.000000 -0.002096 0.000000 -0.006656
# 5 0.002810 0.002861 0.000410 0.000000 0.033738 0.000000
# 6 0.000000 0.000000 0.000000 -0.006656 0.000000 0.008414
#
#
# Mechanical properties :
#
#
# Convention : Reuss Voigt Hill
#
# Bulk Modulus (GPa) = 84.87681 104.97465 94.92573
# Shear Modulus (GPa) = 65.75845 10.27605 38.01725
#
# Velocity S-wave (km/s) = 5.10304 2.01728 3.88010
# Velocity P-wave (km/s) = 8.26640 6.85543 7.59376
#
# Compressibility (1/GPa) = 0.01178178
#
# Stress axis : x y z
#
# Youngs Moduli (GPa) = 101.76142 179.83627 153.15462
#
# Poissons Ratio (x) = 0.29527 0.23491
# Poissons Ratio (y) = 0.16708 0.28975
# Poissons Ratio (z) = 0.15608 0.34023
#
# Static dielectric constant tensor:
#      x y z
#    x 3.814050 0.000000 -1.078600 
#    y 0.000000 1.935900 0.000000 
#    z -1.078600 0.000000 2.681390 
# 
# From -- ./inp_files/14054.got.cif
#   From: 2010.05.17/outbox.cif.g08.bks.cpg/sg13_8_cif.got.tgz:14054.got - 2010.06.03 16:44:36.
