data_PCOD9238565
_publ_section_title
;
Structure prediction by ZEFSAII (Michael W. Deem and Ramdas Pophale) SiO2 
 PCOD9238565
Probable space group: P 2/C
;
_chemical_formula_sum "Si O2"
_cell_formula_units_Z 20
_cell_length_a 4.911068
_cell_length_b 11.390392
_cell_length_c 15.243424
_cell_angle_alpha 90.000000
_cell_angle_beta 87.031698
_cell_angle_gamma 90.000000
_cell_volume 851.557698
_symmetry_space_group_name_H-M "P 2/C"
_symmetry_group_IT_number 13
_symmetry_cell_setting 'monoclinic'
loop_
_space_group_symop_operation_xyz
x,y,z
-x,y,1/2-z
-x,-y,-z
x,-y,1/2+z
loop_
_atom_site_type_symbol
_atom_site_label
_atom_site_fract_x
_atom_site_fract_y
_atom_site_fract_z
Si Si1 0.431068 0.456860 0.099131
Si Si2 0.511374 0.814906 0.924136
Si Si3 0.991177 0.822133 0.041595
Si Si4 0.253507 0.991539 0.307454
Si Si5 0.916607 0.408166 0.655502
O O1 0.498158 0.320225 0.104824
O O2 0.120811 0.486752 0.126184
O O3 0.618591 0.537675 0.156705
O O4 0.500000 0.500000 0.000000
O O5 0.408510 0.900371 0.850461
O O6 0.811777 0.837876 0.956863
O O7 0.304692 0.834499 0.009264
O O8 0.946381 0.693439 0.083057
O O9 0.879095 0.911471 0.115237
O O10 0.500000 0.928229 0.250000
O O11 0.000000 0.025686 0.250000
O O12 0.000000 0.362982 0.750000
#
# Coordination Sequence:
#
# PCOD9238565 Si02
#       5
#     4   4   4   4   4
#     4  12  23  44  67  99 138 181 223 282 340 417
#     4  12  25  43  74  96 135 183 236 274 343 422
#     4  12  23  45  71  99 132 180 233 286 338 414
#     4  12  27  46  67 101 143 180 231 293 352 404
#     4  12  25  41  68 104 136 175 227 287 351 399
#
# _framework density 23.486370999999998
#
# number of rings (size 3 to 8) (size 9 to 14) (size 15 to 20)
#    0.000    0.000    4.000    6.600    0.000    4.000 
#    0.000    0.000    0.000    0.000    0.000    0.000 
#    0.000    0.000    0.000    0.000    0.000    0.000 
#
# Total GULP energy -112160.031812 kJ/mol
# GULP energy per Si atom -5608.001591 kJ/mol
# Density = 2.343292 g / cm^3
# Si number density = 23.486371 Si / 1000 Ang^3
#
#
#
# Elastic Constant Matrix: (Units=GPa)
#
#
# Indices 1 2 3 4 5 6 
#
# 1 81.4946 6.5776 18.9369 0.0000 6.7931 0.0000
# 2 6.5776 76.1497 6.3320 0.0000 5.4190 0.0000
# 3 18.9369 6.3320 76.1251 0.0000 17.1287 0.0000
# 4 0.0000 0.0000 0.0000 -13.7089 0.0000 21.1841
# 5 6.7931 5.4190 17.1287 0.0000 48.6724 0.0000
# 6 0.0000 0.0000 0.0000 21.1841 0.0000 20.6245
#
#
#
# Elastic Compliance Matrix: (Units=1/GPa)
#
#
# Indices 1 2 3 4 5 6 
#
# 1 0.013100 -0.000831 -0.003040 0.000000 -0.000666 0.000000
# 2 -0.000831 0.013339 -0.000646 0.000000 -0.001142 0.000000
# 3 -0.003040 -0.000646 0.015024 0.000000 -0.004791 0.000000
# 4 0.000000 0.000000 0.000000 -0.028195 0.000000 0.028960
# 5 -0.000666 -0.001142 -0.004791 0.000000 0.022452 0.000000
# 6 0.000000 0.000000 0.000000 0.028960 0.000000 0.018741
#
#
# Mechanical properties :
#
#
# Convention : Reuss Voigt Hill
#
# Bulk Modulus (GPa) = 30.83659 33.05138 31.94398
# Shear Modulus (GPa) = 67.29131 24.57912 45.93521
#
# Velocity S-wave (km/s) = 5.35849 3.23852 4.42727
# Velocity P-wave (km/s) = 7.17235 5.29973 6.30594
#
# Compressibility (1/GPa) = 0.03242901
#
# Stress axis : x y z
#
# Youngs Moduli (GPa) = 76.33762 74.96937 66.55942
#
# Poissons Ratio (x) = 0.06233 0.20232
# Poissons Ratio (y) = 0.06346 0.04298
# Poissons Ratio (z) = 0.23204 0.04841
#
# Static dielectric constant tensor:
#      x y z
#    x 1.823890 0.000000 0.016940 
#    y 0.000000 1.837850 0.000000 
#    z 0.016940 0.000000 2.060930 
# 
# From -- ./inp_files/43676.got.cif
#   From: 2010.05.17/outbox.cif.g08.bks.cpg/sg13_22_cif.got.tgz:43676.got - 2010.06.03 16:44:36.
