data_PCOD9238659
_publ_section_title
;
Structure prediction by ZEFSAII (Michael W. Deem and Ramdas Pophale) SiO2 
 PCOD9238659
Probable space group: P 2/C
;
_chemical_formula_sum "Si O2"
_cell_formula_units_Z 18
_cell_length_a 11.500202
_cell_length_b 5.419663
_cell_length_c 18.602551
_cell_angle_alpha 90.000000
_cell_angle_beta 137.732305
_cell_angle_gamma 90.000000
_cell_volume 779.837537
_symmetry_space_group_name_H-M "P 2/C"
_symmetry_group_IT_number 13
_symmetry_cell_setting 'monoclinic'
loop_
_space_group_symop_operation_xyz
x,y,z
-x,y,1/2-z
-x,-y,-z
x,-y,1/2+z
loop_
_atom_site_type_symbol
_atom_site_label
_atom_site_fract_x
_atom_site_fract_y
_atom_site_fract_z
Si Si1 0.295102 0.928763 0.641836
Si Si2 0.000000 0.189274 0.250000
Si Si3 0.814096 0.425434 0.829878
Si Si4 0.128327 0.834908 0.415696
Si Si5 0.316398 0.441401 0.883059
O O1 0.500000 0.927533 0.750000
O O2 0.217377 0.682845 0.644186
O O3 0.245580 0.913403 0.535421
O O4 0.217245 0.185187 0.635414
O O5 0.173988 0.347500 0.330026
O O6 0.998417 0.034601 0.323183
O O7 0.684718 0.401169 0.702671
O O8 0.007408 0.390752 0.886598
O O9 0.241481 0.777160 0.397424
O O10 0.500000 0.500000 0.000000
#
# Coordination Sequence:
#
# PCOD9238659 Si02
#       5
#     4   2   4   4   4
#     4  12  29  47  75 111 154 201 261 316 389 460
#     4  12  24  48  76 108 156 194 264 308 396 444
#     4  12  25  50  72 113 149 205 253 318 391 455
#     4  12  26  47  74 109 149 206 253 319 384 466
#     4  12  27  46  79 111 156 201 262 321 382 464
#
# _framework density 23.08173
#
# number of rings (size 3 to 8) (size 9 to 14) (size 15 to 20)
#    0.000    0.000    4.444    4.667    6.222    0.889 
#    0.000    0.000    0.000    0.000    0.000    0.000 
#    0.000    0.000    0.000    0.000    0.000    0.000 
#
# Total GULP energy -100800.028286 kJ/mol
# GULP energy per Si atom -5600.001571 kJ/mol
# Density = 2.302919 g / cm^3
# Si number density = 23.081730 Si / 1000 Ang^3
#
#
#
# Elastic Constant Matrix: (Units=GPa)
#
#
# Indices 1 2 3 4 5 6 
#
# 1 41.6334 43.2450 30.1323 0.0000 -21.6370 0.0000
# 2 43.2450 117.4013 23.2290 0.0000 -16.3126 0.0000
# 3 30.1323 23.2290 187.4845 0.0000 -24.9884 0.0000
# 4 0.0000 0.0000 0.0000 -7.1707 0.0000 -20.5659
# 5 -21.6370 -16.3126 -24.9884 0.0000 61.0348 0.0000
# 6 0.0000 0.0000 0.0000 -20.5659 0.0000 26.2214
#
#
#
# Elastic Compliance Matrix: (Units=1/GPa)
#
#
# Indices 1 2 3 4 5 6 
#
# 1 0.049697 -0.015813 -0.004488 0.000000 0.011554 0.000000
# 2 -0.015813 0.014000 0.000591 0.000000 -0.001622 0.000000
# 3 -0.004488 0.000591 0.006125 0.000000 0.001074 0.000000
# 4 0.000000 0.000000 0.000000 -0.042917 0.000000 -0.033660
# 5 0.011554 -0.001622 0.001074 0.000000 0.020486 0.000000
# 6 0.000000 0.000000 0.000000 -0.033660 0.000000 0.011736
#
#
# Mechanical properties :
#
#
# Convention : Reuss Voigt Hill
#
# Bulk Modulus (GPa) = 32.89262 59.97022 46.43142
# Shear Modulus (GPa) = 46.00578 32.67796 39.34187
#
# Velocity S-wave (km/s) = 4.46934 3.76673 4.13299
# Velocity P-wave (km/s) = 6.39646 6.70490 6.55250
#
# Compressibility (1/GPa) = 0.03040195
#
# Stress axis : x y z
#
# Youngs Moduli (GPa) = 20.12203 71.42788 163.26148
#
# Poissons Ratio (x) = 1.12945 0.73274
# Poissons Ratio (y) = 0.31818 -0.09642
# Poissons Ratio (z) = 0.09031 -0.04218
#
# Static dielectric constant tensor:
#      x y z
#    x 1.895890 0.000000 -0.015680 
#    y 0.000000 1.971770 0.000000 
#    z -0.015680 0.000000 1.771490 
# 
# From -- ./inp_files/76976.got.cif
#   From: 2010.05.17/outbox.cif.g08.bks.cpg/sg13_39_cif.got.tgz:76976.got - 2010.06.03 16:44:36.
