data_PCOD9238667
_publ_section_title
;
Structure prediction by ZEFSAII (Michael W. Deem and Ramdas Pophale) SiO2 
 PCOD9238667
Probable space group: P 2/C
;
_chemical_formula_sum "Si O2"
_cell_formula_units_Z 16
_cell_length_a 5.088583
_cell_length_b 10.292842
_cell_length_c 14.543289
_cell_angle_alpha 90.000000
_cell_angle_beta 77.622930
_cell_angle_gamma 90.000000
_cell_volume 744.015257
_symmetry_space_group_name_H-M "P 2/C"
_symmetry_group_IT_number 13
_symmetry_cell_setting 'monoclinic'
loop_
_space_group_symop_operation_xyz
x,y,z
-x,y,1/2-z
-x,-y,-z
x,-y,1/2+z
loop_
_atom_site_type_symbol
_atom_site_label
_atom_site_fract_x
_atom_site_fract_y
_atom_site_fract_z
Si Si1 0.000000 0.709684 0.750000
Si Si2 0.541546 0.687436 0.146647
Si Si3 0.956647 0.518886 0.394422
Si Si4 0.287881 0.952263 0.442181
Si Si5 0.500000 0.106013 0.250000
O O1 0.941327 0.615692 0.841057
O O2 0.741981 0.800906 0.761968
O O3 0.500000 0.751220 0.250000
O O4 0.288086 0.615885 0.116765
O O5 0.676511 0.797434 0.073151
O O6 0.762328 0.581154 0.156336
O O7 0.000000 0.500000 0.500000
O O8 0.500000 0.000000 0.500000
O O9 0.374397 0.020225 0.340853
O O10 0.000000 0.000000 0.500000
#
# Coordination Sequence:
#
# PCOD9238667 Si02
#       5
#     2   4   4   4   2
#     4  12  26  46  72 104 152 186 236 296 372 430
#     4  12  24  50  73 101 144 190 244 299 351 430
#     4  12  27  45  74 105 143 190 239 295 360 432
#     4  12  28  48  75 107 143 192 246 299 365 432
#     4  12  28  48  72 106 150 190 234 306 366 432
#
# _framework density 21.504935
#
# number of rings (size 3 to 8) (size 9 to 14) (size 15 to 20)
#    0.000    0.000    3.750    5.250   10.500    0.000 
#    0.000    0.000    0.000    0.000    0.000    0.000 
#    0.000    0.000    0.000    0.000    0.000    0.000 
#
# Total GULP energy -89453.547777 kJ/mol
# GULP energy per Si atom -5590.846736 kJ/mol
# Density = 2.145599 g / cm^3
# Si number density = 21.504935 Si / 1000 Ang^3
#
#
#
# Elastic Constant Matrix: (Units=GPa)
#
#
# Indices 1 2 3 4 5 6 
#
# 1 196.2041 56.1518 53.8472 0.0000 -2.2779 0.0000
# 2 56.1518 94.7517 61.8702 0.0000 13.3046 0.0000
# 3 53.8472 61.8702 144.6855 0.0000 -5.1681 0.0000
# 4 0.0000 0.0000 0.0000 38.4144 0.0000 7.8459
# 5 -2.2779 13.3046 -5.1681 0.0000 31.1960 0.0000
# 6 0.0000 0.0000 0.0000 7.8459 0.0000 33.9921
#
#
#
# Elastic Compliance Matrix: (Units=1/GPa)
#
#
# Indices 1 2 3 4 5 6 
#
# 1 0.006336 -0.003486 -0.000803 0.000000 0.001816 0.000000
# 2 -0.003486 0.018438 -0.006918 0.000000 -0.009264 0.000000
# 3 -0.000803 -0.006918 0.010333 0.000000 0.004604 0.000000
# 4 0.000000 0.000000 0.000000 0.027320 0.000000 -0.006306
# 5 0.001816 -0.009264 0.004604 0.000000 0.036902 0.000000
# 6 0.000000 0.000000 0.000000 -0.006306 0.000000 0.030874
#
#
# Mechanical properties :
#
#
# Convention : Reuss Voigt Hill
#
# Bulk Modulus (GPa) = 78.77772 86.59776 82.68774
# Shear Modulus (GPa) = 31.87863 38.30531 35.09197
#
# Velocity S-wave (km/s) = 3.85435 4.22504 4.04395
# Velocity P-wave (km/s) = 7.51798 8.00984 7.76780
#
# Compressibility (1/GPa) = 0.01269394
#
# Stress axis : x y z
#
# Youngs Moduli (GPa) = 157.83770 54.23720 96.77852
#
# Poissons Ratio (x) = 0.18905 0.07767
# Poissons Ratio (y) = 0.55016 0.66950
# Poissons Ratio (z) = 0.12667 0.37521
#
# Static dielectric constant tensor:
#      x y z
#    x 1.686710 0.000000 0.019250 
#    y 0.000000 1.761280 0.000000 
#    z 0.019250 0.000000 1.995780 
# 
# From -- ./inp_files/43250.got.cif
#   From: 2010.05.17/outbox.cif.g08.bks.cpg/sg13_22_cif.got.tgz:43250.got - 2010.06.03 16:44:36.
