data_PCOD9238470
_publ_section_title
;
Structure prediction by ZEFSAII (Michael W. Deem and Ramdas Pophale) SiO2 
 PCOD9238470
Probable space group: P 2/C
;
_chemical_formula_sum "Si O2"
_cell_formula_units_Z 18
_cell_length_a 7.835635
_cell_length_b 6.033259
_cell_length_c 17.318624
_cell_angle_alpha 90.000000
_cell_angle_beta 53.743816
_cell_angle_gamma 90.000000
_cell_volume 660.206381
_symmetry_space_group_name_H-M "P 2/C"
_symmetry_group_IT_number 13
_symmetry_cell_setting 'monoclinic'
loop_
_space_group_symop_operation_xyz
x,y,z
-x,y,1/2-z
-x,-y,-z
x,-y,1/2+z
loop_
_atom_site_type_symbol
_atom_site_label
_atom_site_fract_x
_atom_site_fract_y
_atom_site_fract_z
Si Si1 0.685457 0.762394 0.797846
Si Si2 0.678998 0.169333 0.476622
Si Si3 0.951862 0.876144 0.132972
Si Si4 0.000000 0.584207 0.250000
Si Si5 0.360603 0.571904 0.361034
O O1 0.733058 0.747967 0.876654
O O2 0.837136 0.553368 0.740575
O O3 0.443009 0.684880 0.846582
O O4 0.777075 0.973681 0.727426
O O5 0.597425 0.331586 0.564803
O O6 0.500000 0.000000 0.500000
O O7 0.887659 0.043981 0.449699
O O8 0.860307 0.688638 0.101057
O O9 0.090712 0.751420 0.161473
O O10 0.500000 0.651062 0.250000
#
# Coordination Sequence:
#
# PCOD9238470 Si02
#       5
#     4   4   4   2   4
#     4  12  25  50  79 108 156 209 257 320 392 464
#     4  12  25  49  78 113 155 207 259 318 389 466
#     4  12  25  50  79 112 160 202 260 329 386 460
#     4  12  20  48  80 110 146 202 268 296 402 460
#     4  12  27  46  73 115 156 199 259 318 386 459
#
# _framework density 27.264202999999998
#
# number of rings (size 3 to 8) (size 9 to 14) (size 15 to 20)
#    0.000    0.000    6.667    4.000    0.000    2.667 
#    0.000    5.556    0.000    0.000    0.000    0.000 
#    0.000    0.000    0.000    0.000    0.000    0.000 
#
# Total GULP energy -100336.466784 kJ/mol
# GULP energy per Si atom -5574.248155 kJ/mol
# Density = 2.720215 g / cm^3
# Si number density = 27.264203 Si / 1000 Ang^3
#
#
#
# Elastic Constant Matrix: (Units=GPa)
#
#
# Indices 1 2 3 4 5 6 
#
# 1 124.0007 53.3711 14.6928 0.0000 5.3337 0.0000
# 2 53.3711 80.5481 -0.4312 0.0000 -0.5228 0.0000
# 3 14.6928 -0.4312 54.8365 0.0000 5.6584 0.0000
# 4 0.0000 0.0000 0.0000 24.1866 0.0000 -0.1731
# 5 5.3337 -0.5228 5.6584 0.0000 33.7274 0.0000
# 6 0.0000 0.0000 0.0000 -0.1731 0.0000 70.9118
#
#
#
# Elastic Compliance Matrix: (Units=1/GPa)
#
#
# Indices 1 2 3 4 5 6 
#
# 1 0.011901 -0.007912 -0.003098 0.000000 -0.001485 0.000000
# 2 -0.007912 0.017676 0.002138 0.000000 0.001166 0.000000
# 3 -0.003098 0.002138 0.019364 0.000000 -0.002726 0.000000
# 4 0.000000 0.000000 0.000000 0.041346 0.000000 0.000101
# 5 -0.001485 0.001166 -0.002726 0.000000 0.030360 0.000000
# 6 0.000000 0.000000 0.000000 0.000101 0.000000 0.014102
#
#
# Mechanical properties :
#
#
# Convention : Reuss Voigt Hill
#
# Bulk Modulus (GPa) = 32.05192 43.85008 37.95100
# Shear Modulus (GPa) = 30.69557 38.54865 34.62211
#
# Velocity S-wave (km/s) = 3.35902 3.76426 3.56740
# Velocity P-wave (km/s) = 5.17934 5.91702 5.56043
#
# Compressibility (1/GPa) = 0.03119938
#
# Stress axis : x y z
#
# Youngs Moduli (GPa) = 84.02952 56.57343 51.64201
#
# Poissons Ratio (x) = 0.44758 0.15997
# Poissons Ratio (y) = 0.66480 -0.11043
# Poissons Ratio (z) = 0.26029 -0.12098
#
# Static dielectric constant tensor:
#      x y z
#    x 2.176110 0.000000 0.095890 
#    y 0.000000 0.804060 0.000000 
#    z 0.095890 0.000000 1.379510 
# 
# From -- ./inp_files/62273.got.cif
#   From: 2010.05.17/outbox.cif.g08.bks.cpg/sg13_32_cif.got.tgz:62273.got - 2010.06.03 16:44:36.
