data_PCOD9238729
_publ_section_title
;
Structure prediction by ZEFSAII (Michael W. Deem and Ramdas Pophale) SiO2 
 PCOD9238729
Probable space group: P 2/C
;
_chemical_formula_sum "Si O2"
_cell_formula_units_Z 16
_cell_length_a 9.077945
_cell_length_b 8.592339
_cell_length_c 12.395455
_cell_angle_alpha 90.000000
_cell_angle_beta 144.578508
_cell_angle_gamma 90.000000
_cell_volume 560.376582
_symmetry_space_group_name_H-M "P 2/C"
_symmetry_group_IT_number 13
_symmetry_cell_setting 'monoclinic'
loop_
_space_group_symop_operation_xyz
x,y,z
-x,y,1/2-z
-x,-y,-z
x,-y,1/2+z
loop_
_atom_site_type_symbol
_atom_site_label
_atom_site_fract_x
_atom_site_fract_y
_atom_site_fract_z
Si Si1 0.412447 0.345439 0.075886
Si Si2 0.089930 0.508270 0.181369
Si Si3 0.682098 0.202533 0.775468
Si Si4 0.773213 0.009005 0.033568
O O1 0.500000 0.364094 0.250000
O O2 0.679282 0.382155 0.174098
O O3 0.183393 0.472191 0.919896
O O4 0.289556 0.173111 0.006360
O O5 0.206997 0.681932 0.244422
O O6 0.000000 0.500000 0.000000
O O7 0.500000 0.295170 0.750000
O O8 0.495805 0.088152 0.601527
O O9 0.830525 0.096972 0.952270
O O10 0.000000 0.041262 0.250000
#
# Coordination Sequence:
#
# PCOD9238729 Si02
#       4
#     4   4   4   4
#     4  12  25  51  80 119 163 219 279 347 413 496
#     4  12  27  50  79 120 167 218 277 340 423 499
#     4   8  21  48  78 121 160 209 277 340 416 489
#     4   9  20  48  85 119 160 212 279 344 416 487
#
# _framework density 28.552226999999998
#
# number of rings (size 3 to 8) (size 9 to 14) (size 15 to 20)
#    1.500    0.000    2.500    3.000    0.000    1.000 
#    4.500    6.250    0.000    0.000    0.000    0.000 
#    0.000    0.000    0.000    0.000    0.000    0.000 
#
# Total GULP energy -89298.124183 kJ/mol
# GULP energy per Si atom -5581.132761 kJ/mol
# Density = 2.848724 g / cm^3
# Si number density = 28.552227 Si / 1000 Ang^3
#
#
#
# Elastic Constant Matrix: (Units=GPa)
#
#
# Indices 1 2 3 4 5 6 
#
# 1 128.4516 25.9813 -24.7223 0.0000 25.7978 0.0000
# 2 25.9813 104.9340 35.0000 0.0000 -1.5308 0.0000
# 3 -24.7223 35.0000 190.1697 0.0000 -19.3803 0.0000
# 4 0.0000 0.0000 0.0000 49.1188 0.0000 -2.3596
# 5 25.7978 -1.5308 -19.3803 0.0000 35.2238 0.0000
# 6 0.0000 0.0000 0.0000 -2.3596 0.0000 58.1725
#
#
#
# Elastic Compliance Matrix: (Units=1/GPa)
#
#
# Indices 1 2 3 4 5 6 
#
# 1 0.009967 -0.002949 0.001146 0.000000 -0.006798 0.000000
# 2 -0.002949 0.011039 -0.002273 0.000000 0.001389 0.000000
# 3 0.001146 -0.002273 0.006071 0.000000 0.002402 0.000000
# 4 0.000000 0.000000 0.000000 0.020399 0.000000 0.000827
# 5 -0.006798 0.001389 0.002402 0.000000 0.034751 0.000000
# 6 0.000000 0.000000 0.000000 0.000827 0.000000 0.017224
#
#
# Mechanical properties :
#
#
# Convention : Reuss Voigt Hill
#
# Bulk Modulus (GPa) = 52.84642 55.11924 53.98283
# Shear Modulus (GPa) = 43.89399 54.32278 49.10839
#
# Velocity S-wave (km/s) = 3.92512 4.36658 4.15173
# Velocity P-wave (km/s) = 6.25228 6.69099 6.47535
#
# Compressibility (1/GPa) = 0.01892276
#
# Stress axis : x y z
#
# Youngs Moduli (GPa) = 100.32791 90.59143 164.72726
#
# Poissons Ratio (x) = 0.26717 -0.18874
# Poissons Ratio (y) = 0.29589 0.37450
# Poissons Ratio (z) = -0.11495 0.20596
#
# Static dielectric constant tensor:
#      x y z
#    x 2.511250 0.000000 -0.298610 
#    y 0.000000 2.229160 0.000000 
#    z -0.298610 0.000000 2.126360 
# 
# From -- ./inp_files/79611.got.cif
#   From: 2010.05.17/outbox.cif.g08.bks.cpg/sg13_40_cif.got.tgz:79611.got - 2010.06.03 16:44:36.
