data_PCOD9238553
_publ_section_title
;
Structure prediction by ZEFSAII (Michael W. Deem and Ramdas Pophale) SiO2 
 PCOD9238553
Probable space group: P 2/C
;
_chemical_formula_sum "Si O2"
_cell_formula_units_Z 14
_cell_length_a 7.079090
_cell_length_b 11.569572
_cell_length_c 7.810754
_cell_angle_alpha 90.000000
_cell_angle_beta 114.323719
_cell_angle_gamma 90.000000
_cell_volume 582.930865
_symmetry_space_group_name_H-M "P 2/C"
_symmetry_group_IT_number 13
_symmetry_cell_setting 'monoclinic'
loop_
_space_group_symop_operation_xyz
x,y,z
-x,y,1/2-z
-x,-y,-z
x,-y,1/2+z
loop_
_atom_site_type_symbol
_atom_site_label
_atom_site_fract_x
_atom_site_fract_y
_atom_site_fract_z
Si Si1 0.438982 0.872635 0.921378
Si Si2 0.050942 0.623367 0.097176
Si Si3 0.435684 0.623587 0.387104
Si Si4 0.000000 0.785746 0.750000
O O1 0.500000 0.860253 0.750000
O O2 0.195634 0.864740 0.849971
O O3 0.524201 0.755681 0.038247
O O4 0.500000 0.000000 0.000000
O O5 0.326609 0.621650 0.152052
O O6 0.834925 0.629657 0.158981
O O7 0.000000 0.500000 0.000000
O O8 0.981771 0.712231 0.919360
O O9 0.500000 0.500000 0.500000
#
# Coordination Sequence:
#
# PCOD9238553 Si02
#       4
#     4   4   4   2
#     4  12  28  52  77 110 154 204 263 321 390 468
#     4  12  23  42  73 112 154 196 255 317 387 466
#     4  12  23  44  72 106 149 190 246 318 381 448
#     4  12  26  50  78 110 154 208 260 318 396 464
#
# _framework density 24.016570000000002
#
# number of rings (size 3 to 8) (size 9 to 14) (size 15 to 20)
#    0.000    0.000    4.286    6.857    0.000    1.143 
#    2.571    0.000    0.000    0.000    0.000    0.000 
#    0.000    0.000    0.000    0.000    0.000    0.000 
#
# Total GULP energy -77993.078393 kJ/mol
# GULP energy per Si atom -5570.934171 kJ/mol
# Density = 2.396191 g / cm^3
# Si number density = 24.016570 Si / 1000 Ang^3
#
#
#
# Elastic Constant Matrix: (Units=GPa)
#
#
# Indices 1 2 3 4 5 6 
#
# 1 211.3843 122.6954 84.5895 0.0000 8.2409 0.0000
# 2 122.6954 285.3573 136.1542 0.0000 14.8531 0.0000
# 3 84.5895 136.1542 165.3070 0.0000 -25.8830 0.0000
# 4 0.0000 0.0000 0.0000 1.9218 0.0000 27.9118
# 5 8.2409 14.8531 -25.8830 0.0000 99.0741 0.0000
# 6 0.0000 0.0000 0.0000 27.9118 0.0000 40.0957
#
#
#
# Elastic Compliance Matrix: (Units=1/GPa)
#
#
# Indices 1 2 3 4 5 6 
#
# 1 0.006639 -0.001867 -0.001983 0.000000 -0.000790 0.000000
# 2 -0.001867 0.006797 -0.004982 0.000000 -0.002165 0.000000
# 3 -0.001983 -0.004982 0.011792 0.000000 0.003993 0.000000
# 4 0.000000 0.000000 0.000000 -0.057115 0.000000 0.039760
# 5 -0.000790 -0.002165 0.003993 0.000000 0.011527 0.000000
# 6 0.000000 0.000000 0.000000 0.039760 0.000000 -0.002738
#
#
# Mechanical properties :
#
#
# Convention : Reuss Voigt Hill
#
# Bulk Modulus (GPa) = 132.20152 149.88072 141.04112
# Shear Modulus (GPa) = -1716.70934 49.45896 -833.62519
#
# Velocity S-wave (km/s) = -26.76479 4.54295 -18.65094
# Velocity P-wave (km/s) = 29.99955 9.49002 20.12352
#
# Compressibility (1/GPa) = 0.00756421
#
# Stress axis : x y z
#
# Youngs Moduli (GPa) = 150.62786 147.12577 84.80028
#
# Poissons Ratio (x) = 0.27472 0.16816
# Poissons Ratio (y) = 0.28126 0.42245
# Poissons Ratio (z) = 0.29870 0.73295
#
# Static dielectric constant tensor:
#      x y z
#    x 2.819000 0.000000 0.011150 
#    y 0.000000 1.828340 0.000000 
#    z 0.011150 0.000000 1.862540 
# 
# From -- ./inp_files/8596.got.cif
#   From: 2010.05.17/outbox.cif.g08.bks.cpg/sg13_5_cif.got.tgz:8596.got - 2010.06.03 16:44:36.
