data_PCOD9238741
_publ_section_title
;
Structure prediction by ZEFSAII (Michael W. Deem and Ramdas Pophale) SiO2 
 PCOD9238741
Probable space group: P 2/C
;
_chemical_formula_sum "Si O2"
_cell_formula_units_Z 18
_cell_length_a 9.716403
_cell_length_b 7.605136
_cell_length_c 20.342317
_cell_angle_alpha 90.000000
_cell_angle_beta 30.788854
_cell_angle_gamma 90.000000
_cell_volume 769.444827
_symmetry_space_group_name_H-M "P 2/C"
_symmetry_group_IT_number 13
_symmetry_cell_setting 'monoclinic'
loop_
_space_group_symop_operation_xyz
x,y,z
-x,y,1/2-z
-x,-y,-z
x,-y,1/2+z
loop_
_atom_site_type_symbol
_atom_site_label
_atom_site_fract_x
_atom_site_fract_y
_atom_site_fract_z
Si Si1 0.130543 0.665750 0.478644
Si Si2 0.561121 0.574384 0.547576
Si Si3 0.202822 0.911666 0.108344
Si Si4 0.774782 0.172040 0.227151
Si Si5 0.500000 0.082951 0.750000
O O1 0.331218 0.585344 0.451675
O O2 0.262365 0.789758 0.370545
O O3 0.000000 0.500000 0.500000
O O4 0.881074 0.756857 0.615283
O O5 0.500000 0.500000 0.500000
O O6 0.757474 0.741216 0.453707
O O7 0.322937 0.673551 0.684931
O O8 0.000000 0.851177 0.250000
O O9 0.028313 0.069980 0.151636
O O10 0.500000 0.000000 0.000000
O O11 0.557570 0.029708 0.292360
#
# Coordination Sequence:
#
# PCOD9238741 Si02
#       5
#     4   4   4   4   2
#     4  12  26  46  74 109 152 199 253 317 383 452
#     4  12  28  45  74 114 154 193 248 323 387 447
#     4  12  26  48  75 107 151 200 248 305 380 463
#     4  12  26  48  77 108 149 201 260 308 379 463
#     4  12  26  50  78 108 148 206 264 312 376 462
#
# _framework density 23.393488000000001
#
# number of rings (size 3 to 8) (size 9 to 14) (size 15 to 20)
#    0.000    0.000    2.222    7.333    6.222    0.000 
#    0.000    0.000    0.000    0.000    0.000    0.000 
#    0.000    0.000    0.000    0.000    0.000    0.000 
#
# Total GULP energy -100605.387951 kJ/mol
# GULP energy per Si atom -5589.188220 kJ/mol
# Density = 2.334024 g / cm^3
# Si number density = 23.393488 Si / 1000 Ang^3
#
#
#
# Elastic Constant Matrix: (Units=GPa)
#
#
# Indices 1 2 3 4 5 6 
#
# 1 75.0278 -6.1251 -3.5545 0.0000 -12.7751 0.0000
# 2 -6.1251 58.7863 10.3679 0.0000 -1.5820 0.0000
# 3 -3.5545 10.3679 101.2340 0.0000 17.1495 0.0000
# 4 0.0000 0.0000 0.0000 62.5038 0.0000 8.7167
# 5 -12.7751 -1.5820 17.1495 0.0000 44.6519 0.0000
# 6 0.0000 0.0000 0.0000 8.7167 0.0000 63.3547
#
#
#
# Elastic Compliance Matrix: (Units=1/GPa)
#
#
# Indices 1 2 3 4 5 6 
#
# 1 0.014172 0.001661 -0.000395 0.000000 0.004265 0.000000
# 2 0.001661 0.017599 -0.002065 0.000000 0.001892 0.000000
# 3 -0.000395 -0.002065 0.010811 0.000000 -0.004338 0.000000
# 4 0.000000 0.000000 0.000000 0.016312 0.000000 -0.002244
# 5 0.004265 0.001892 -0.004338 0.000000 0.025349 0.000000
# 6 0.000000 0.000000 0.000000 -0.002244 0.000000 0.016093
#
#
# Mechanical properties :
#
#
# Convention : Reuss Voigt Hill
#
# Bulk Modulus (GPa) = 24.39989 26.26942 25.33466
# Shear Modulus (GPa) = 43.25512 49.72604 46.49058
#
# Velocity S-wave (km/s) = 4.30469 4.61546 4.46278
# Velocity P-wave (km/s) = 5.92959 6.29739 6.11625
#
# Compressibility (1/GPa) = 0.04098379
#
# Stress axis : x y z
#
# Youngs Moduli (GPa) = 70.56409 56.82193 92.50192
#
# Poissons Ratio (x) = -0.09438 0.03654
# Poissons Ratio (y) = -0.11721 0.19097
# Poissons Ratio (z) = 0.02788 0.11731
#
# Static dielectric constant tensor:
#      x y z
#    x 1.885400 0.000000 -0.036290 
#    y 0.000000 1.769790 0.000000 
#    z -0.036290 0.000000 1.848380 
# 
# From -- ./inp_files/75497.got.cif
#   From: 2010.05.17/outbox.cif.g08.bks.cpg/sg13_38_cif.got.tgz:75497.got - 2010.06.03 16:44:36.
