data_PCOD9238902
_publ_section_title
;
Structure prediction by ZEFSAII (Michael W. Deem and Ramdas Pophale) SiO2 
 PCOD9238902
Probable space group: P 2/C
;
_chemical_formula_sum "Si O2"
_cell_formula_units_Z 28
_cell_length_a 30.000000
_cell_length_b 9.000000
_cell_length_c 30.000000
_cell_angle_alpha 90.000000
_cell_angle_beta 10.000000
_cell_angle_gamma 90.000000
_cell_volume 1406.550239
_symmetry_space_group_name_H-M "P 2/C"
_symmetry_group_IT_number 13
_symmetry_cell_setting 'monoclinic'
loop_
_space_group_symop_operation_xyz
x,y,z
-x,y,1/2-z
-x,-y,-z
x,-y,1/2+z
loop_
_atom_site_type_symbol
_atom_site_label
_atom_site_fract_x
_atom_site_fract_y
_atom_site_fract_z
Si Si1 0.923555 0.269741 0.669071
Si Si2 0.568858 0.438759 0.319402
Si Si3 0.105914 0.952776 0.768294
Si Si4 0.012401 0.734057 0.789371
Si Si5 0.623052 0.214087 0.788300
Si Si6 0.511084 0.449588 0.790736
Si Si7 0.249109 0.898654 0.247471
O O1 0.805736 0.190911 0.742396
O O2 0.200884 0.341795 0.387248
O O3 0.925798 0.128960 0.699993
O O4 0.714897 0.391045 0.887873
O O5 0.598844 0.614517 0.298301
O O6 0.591659 0.418889 0.243702
O O7 0.363911 0.882645 0.536051
O O8 0.100426 0.884239 0.725085
O O9 0.858162 0.876296 0.034955
O O10 0.000000 0.757494 0.750000
O O11 0.234937 0.612456 0.578075
O O12 0.731863 0.675318 0.078590
O O13 0.699894 0.216894 0.763904
O O14 0.500000 0.488730 0.750000
O O15 0.000000 0.000000 0.500000
O O16 0.500000 0.000000 0.000000
#
# Coordination Sequence:
#
# PCOD9238902 Si02
#       7
#     4   4   4   4   4   4   4
#     4  12  26  39  64  91 134 162 202 264 320 368
#     4  12  24  41  60  98 127 163 203 258 321 370
#     4  12  21  41  63  94 117 170 205 250 313 368
#     4  10  19  35  63  94 117 152 214 263 291 358
#     4  12  23  40  70  86 125 166 213 253 301 378
#     4  10  20  37  63  90 122 163 207 252 301 373
#     4  12  23  43  65  93 120 164 220 256 307 373
#
# _framework density 19.906860999999999
#
# number of rings (size 3 to 8) (size 9 to 14) (size 15 to 20)
#    0.000    0.571    5.714    3.429    0.000    1.143 
#    0.000    1.429    0.000    0.000    0.000    0.000 
#    0.000    0.000    0.000    0.000    0.000    0.000 
#
# Total GULP energy -156074.840980 kJ/mol
# GULP energy per Si atom -5574.101464 kJ/mol
# Density = 1.986155 g / cm^3
# Si number density = 19.906861 Si / 1000 Ang^3
#
#
#
# Elastic Constant Matrix: (Units=GPa)
#
#
# Indices 1 2 3 4 5 6 
#
# 1 81.4147 22.1107 0.2291 0.0000 -13.2238 0.0000
# 2 22.1107 58.8618 35.2635 0.0000 -0.6766 0.0000
# 3 0.2291 35.2635 108.1615 0.0000 -22.0520 0.0000
# 4 0.0000 0.0000 0.0000 197.0621 0.0000 -29.8718
# 5 -13.2238 -0.6766 -22.0520 0.0000 24.6762 0.0000
# 6 0.0000 0.0000 0.0000 -29.8718 0.0000 27.3158
#
#
#
# Elastic Compliance Matrix: (Units=1/GPa)
#
#
# Indices 1 2 3 4 5 6 
#
# 1 0.017379 -0.010094 0.006232 0.000000 0.014605 0.000000
# 2 -0.010094 0.027956 -0.012276 0.000000 -0.015613 0.000000
# 3 0.006232 -0.012276 0.016932 0.000000 0.018134 0.000000
# 4 0.000000 0.000000 0.000000 0.006083 0.000000 0.006652
# 5 0.014605 -0.015613 0.018134 0.000000 0.064129 0.000000
# 6 0.000000 0.000000 0.000000 0.006652 0.000000 0.043883
#
#
# Mechanical properties :
#
#
# Convention : Reuss Voigt Hill
#
# Bulk Modulus (GPa) = 33.34427 40.40495 36.87461
# Shear Modulus (GPa) = 22.86923 62.53312 42.70117
#
# Velocity S-wave (km/s) = 3.39309 5.61080 4.63649
# Velocity P-wave (km/s) = 5.66897 7.89403 6.87215
#
# Compressibility (1/GPa) = 0.02999016
#
# Stress axis : x y z
#
# Youngs Moduli (GPa) = 57.54135 35.77112 59.06060
#
# Poissons Ratio (x) = 0.36106 -0.36805
# Poissons Ratio (y) = 0.58080 0.72503
# Poissons Ratio (z) = -0.35858 0.43913
#
# Static dielectric constant tensor:
#      x y z
#    x 1.809520 0.000000 -0.025440 
#    y 0.000000 1.475780 0.000000 
#    z -0.025440 0.000000 1.586240 
# 
# From -- ./inp_files/97973.got.cif
#   From: 2010.05.17/outbox.ucp.g08.bks.cvg/sg13_49_cif.got.tgz:97973.got - 2010.06.11 12:23:55.
