data_PCOD9238056
_publ_section_title
;
Structure prediction by ZEFSAII (Michael W. Deem and Ramdas Pophale) SiO2 
 PCOD9238056
Probable space group: P 2/C
;
_chemical_formula_sum "Si O2"
_cell_formula_units_Z 20
_cell_length_a 24.119083
_cell_length_b 5.192566
_cell_length_c 9.502606
_cell_angle_alpha 90.000000
_cell_angle_beta 136.536736
_cell_angle_gamma 90.000000
_cell_volume 818.661046
_symmetry_space_group_name_H-M "P 2/C"
_symmetry_group_IT_number 13
_symmetry_cell_setting 'monoclinic'
loop_
_space_group_symop_operation_xyz
x,y,z
-x,y,1/2-z
-x,-y,-z
x,-y,1/2+z
loop_
_atom_site_type_symbol
_atom_site_label
_atom_site_fract_x
_atom_site_fract_y
_atom_site_fract_z
Si Si1 0.217980 0.844149 0.240583
Si Si2 0.131867 0.462912 0.250960
Si Si3 0.077752 0.961822 0.297879
Si Si4 0.290285 0.803266 0.105760
Si Si5 0.529361 0.251629 0.641381
O O1 0.161406 0.592921 0.159557
O O2 0.295993 0.838928 0.283569
O O3 0.248558 0.965157 0.442146
O O4 0.155766 0.025629 0.042874
O O5 0.087692 0.193828 0.202978
O O6 0.221813 0.414691 0.476416
O O7 0.080744 0.686832 0.229095
O O8 0.000000 0.999364 0.250000
O O9 0.373641 0.741019 0.187188
O O10 0.500000 0.249702 0.750000
O O11 0.500000 0.500000 0.500000
O O12 0.500000 0.000000 0.500000
#
# Coordination Sequence:
#
# PCOD9238056 Si02
#       5
#     4   4   4   4   4
#     4  11  24  46  72 105 140 195 248 292 375 426
#     4  11  24  43  68 103 135 194 239 288 369 428
#     4  11  26  46  69 106 146 186 244 310 363 430
#     4  11  27  45  80 101 155 186 254 297 362 453
#     4  12  29  50  79 118 159 203 256 317 398 453
#
# _framework density 24.430136000000001
#
# number of rings (size 3 to 8) (size 9 to 14) (size 15 to 20)
#    0.000    0.800    4.000    2.400   11.200    1.600 
#    0.000    0.000    0.000    0.000    0.000    0.000 
#    0.000    0.000    0.000    0.000    0.000    0.000 
#
# Total GULP energy -111730.788885 kJ/mol
# GULP energy per Si atom -5586.539444 kJ/mol
# Density = 2.437453 g / cm^3
# Si number density = 24.430136 Si / 1000 Ang^3
#
#
#
# Elastic Constant Matrix: (Units=GPa)
#
#
# Indices 1 2 3 4 5 6 
#
# 1 256.9277 53.8234 45.8161 0.0000 -16.2094 0.0000
# 2 53.8234 177.0905 38.3581 0.0000 -19.6690 0.0000
# 3 45.8161 38.3581 59.8395 0.0000 -8.1731 0.0000
# 4 0.0000 0.0000 0.0000 30.6499 0.0000 -2.1238
# 5 -16.2094 -19.6690 -8.1731 0.0000 57.9623 0.0000
# 6 0.0000 0.0000 0.0000 -2.1238 0.0000 25.2817
#
#
#
# Elastic Compliance Matrix: (Units=1/GPa)
#
#
# Indices 1 2 3 4 5 6 
#
# 1 0.004611 -0.000679 -0.003008 0.000000 0.000635 0.000000
# 2 -0.000679 0.006819 -0.003631 0.000000 0.001612 0.000000
# 3 -0.003008 -0.003631 0.021472 0.000000 0.000954 0.000000
# 4 0.000000 0.000000 0.000000 0.032818 0.000000 0.002757
# 5 0.000635 0.001612 0.000954 0.000000 0.018112 0.000000
# 6 0.000000 0.000000 0.000000 0.002757 0.000000 0.039786
#
#
# Mechanical properties :
#
#
# Convention : Reuss Voigt Hill
#
# Bulk Modulus (GPa) = 54.74767 85.53921 70.14344
# Shear Modulus (GPa) = 34.63995 46.50278 40.57136
#
# Velocity S-wave (km/s) = 3.76961 4.36765 4.07960
# Velocity P-wave (km/s) = 6.43468 7.77978 7.13898
#
# Compressibility (1/GPa) = 0.01826562
#
# Stress axis : x y z
#
# Youngs Moduli (GPa) = 216.87576 146.65480 46.57169
#
# Poissons Ratio (x) = 0.09963 0.14010
# Poissons Ratio (y) = 0.14733 0.16908
# Poissons Ratio (z) = 0.65241 0.53245
#
# Static dielectric constant tensor:
#      x y z
#    x 2.060720 0.000000 -0.153620 
#    y 0.000000 2.047860 0.000000 
#    z -0.153620 0.000000 2.060070 
# 
# From -- ./inp_files/23786.got.cif
#   From: 2010.05.17/outbox.cif.g08.bks.cpg/sg13_12_cif.got.tgz:23786.got - 2010.06.03 16:44:36.
