data_PCOD9238147
_publ_section_title
;
Structure prediction by ZEFSAII (Michael W. Deem and Ramdas Pophale) SiO2 
 PCOD9238147
Probable space group: P 2/C
;
_chemical_formula_sum "Si O2"
_cell_formula_units_Z 28
_cell_length_a 21.123494
_cell_length_b 8.269419
_cell_length_c 14.530381
_cell_angle_alpha 90.000000
_cell_angle_beta 27.181914
_cell_angle_gamma 90.000000
_cell_volume 1159.471708
_symmetry_space_group_name_H-M "P 2/C"
_symmetry_group_IT_number 13
_symmetry_cell_setting 'monoclinic'
loop_
_space_group_symop_operation_xyz
x,y,z
-x,y,1/2-z
-x,-y,-z
x,-y,1/2+z
loop_
_atom_site_type_symbol
_atom_site_label
_atom_site_fract_x
_atom_site_fract_y
_atom_site_fract_z
Si Si1 0.334334 0.008807 0.727189
Si Si2 0.000000 0.455789 0.250000
Si Si3 0.308945 0.337654 0.227269
Si Si4 0.573556 0.444826 0.781088
Si Si5 0.772877 0.784516 0.962925
Si Si6 0.779214 0.909869 0.328132
Si Si7 0.500000 0.267639 0.250000
Si Si8 0.973766 0.650284 0.469058
O O1 0.294273 0.825406 0.804408
O O2 0.500000 0.000000 0.500000
O O3 0.284384 0.125052 0.871981
O O4 0.261247 0.058686 0.725920
O O5 0.897921 0.329921 0.330915
O O6 0.030259 0.581791 0.129041
O O7 0.317074 0.494987 0.282264
O O8 0.188845 0.316927 0.307936
O O9 0.454253 0.346406 0.985963
O O10 0.648746 0.342711 0.604689
O O11 0.514208 0.611141 0.817778
O O12 0.807675 0.923593 0.845559
O O13 0.639482 0.834245 0.554140
O O14 0.911210 0.789017 0.166226
O O15 0.000000 0.500000 0.500000
#
# Coordination Sequence:
#
# PCOD9238147 Si02
#       8
#     4   2   4   4   4   4   2   4
#     4  12  26  48  75 105 152 193 244 315 383 445
#     4  12  28  48  76 108 152 206 248 308 382 458
#     4  11  25  45  75 101 144 193 253 301 388 443
#     4  11  24  45  76 106 141 198 253 314 373 461
#     4  12  27  47  73 111 150 193 255 314 378 455
#     4  12  29  46  77 115 152 198 254 316 385 452
#     4  12  26  44  72 106 150 192 252 312 382 456
#     4  12  28  51  76 108 154 200 255 311 376 468
#
# _framework density 24.148928999999999
#
# number of rings (size 3 to 8) (size 9 to 14) (size 15 to 20)
#    0.000    0.286    2.857    5.143   10.000    0.571 
#    0.000    0.000    0.000    0.000    0.000    0.000 
#    0.000    0.000    0.000    0.000    0.000    0.000 
#
# Total GULP energy -156642.207463 kJ/mol
# GULP energy per Si atom -5594.364552 kJ/mol
# Density = 2.409396 g / cm^3
# Si number density = 24.148929 Si / 1000 Ang^3
#
#
#
# Elastic Constant Matrix: (Units=GPa)
#
#
# Indices 1 2 3 4 5 6 
#
# 1 121.8600 39.5522 48.5836 0.0000 -12.7519 0.0000
# 2 39.5522 134.4035 54.8655 0.0000 -19.5524 0.0000
# 3 48.5836 54.8655 73.5490 0.0000 -19.9007 0.0000
# 4 0.0000 0.0000 0.0000 47.4574 0.0000 9.1460
# 5 -12.7519 -19.5524 -19.9007 0.0000 52.0970 0.0000
# 6 0.0000 0.0000 0.0000 9.1460 0.0000 58.4043
#
#
#
# Elastic Compliance Matrix: (Units=1/GPa)
#
#
# Indices 1 2 3 4 5 6 
#
# 1 0.011155 -0.000402 -0.007105 0.000000 -0.000135 0.000000
# 2 -0.000402 0.010767 -0.007472 0.000000 0.001088 0.000000
# 3 -0.007105 -0.007472 0.025244 0.000000 0.005099 0.000000
# 4 0.000000 0.000000 0.000000 0.021727 0.000000 -0.003402
# 5 -0.000135 0.001088 0.005099 0.000000 0.021518 0.000000
# 6 0.000000 0.000000 0.000000 -0.003402 0.000000 0.017655
#
#
# Mechanical properties :
#
#
# Convention : Reuss Voigt Hill
#
# Bulk Modulus (GPa) = 58.11422 68.42392 63.26907
# Shear Modulus (GPa) = 34.78000 44.04581 39.41290
#
# Velocity S-wave (km/s) = 3.79915 4.27538 4.04428
# Velocity P-wave (km/s) = 6.58498 7.26412 6.93287
#
# Compressibility (1/GPa) = 0.01720749
#
# Stress axis : x y z
#
# Youngs Moduli (GPa) = 89.64357 92.87608 39.61396
#
# Poissons Ratio (x) = 0.03732 0.28147
# Poissons Ratio (y) = 0.03602 0.29600
# Poissons Ratio (z) = 0.63695 0.69397
#
# Static dielectric constant tensor:
#      x y z
#    x 2.192730 0.000000 -0.097990 
#    y 0.000000 1.933280 0.000000 
#    z -0.097990 0.000000 2.024160 
# 
# From -- ./inp_files/57496.got.cif
#   From: 2010.05.17/outbox.cif.g08.bks.cpg/sg13_29_cif.got.tgz:57496.got - 2010.06.03 16:44:36.
