data_PCOD9238243
_publ_section_title
;
Structure prediction by ZEFSAII (Michael W. Deem and Ramdas Pophale) SiO2 
 PCOD9238243
Probable space group: P 2/C
;
_chemical_formula_sum "Si O2"
_cell_formula_units_Z 20
_cell_length_a 13.593473
_cell_length_b 7.075967
_cell_length_c 9.970058
_cell_angle_alpha 90.000000
_cell_angle_beta 90.795197
_cell_angle_gamma 90.000000
_cell_volume 958.897274
_symmetry_space_group_name_H-M "P 2/C"
_symmetry_group_IT_number 13
_symmetry_cell_setting 'monoclinic'
loop_
_space_group_symop_operation_xyz
x,y,z
-x,y,1/2-z
-x,-y,-z
x,-y,1/2+z
loop_
_atom_site_type_symbol
_atom_site_label
_atom_site_fract_x
_atom_site_fract_y
_atom_site_fract_z
Si Si1 0.232557 0.204838 0.543800
Si Si2 0.453313 0.763485 0.111085
Si Si3 0.575241 0.219658 0.363698
Si Si4 0.788603 0.173115 0.277699
Si Si5 0.930829 0.501218 0.369638
O O1 0.342737 0.287309 0.566495
O O2 0.217154 0.154137 0.385089
O O3 0.156514 0.359709 0.592639
O O4 0.213273 0.023480 0.639651
O O5 0.500000 0.698114 0.250000
O O6 0.438659 0.991660 0.124935
O O7 0.534678 0.711603 0.003484
O O8 0.500000 0.282895 0.250000
O O9 0.685496 0.265189 0.323796
O O10 0.880055 0.303848 0.323276
O O11 0.000000 0.568883 0.250000
O O12 0.000000 0.500000 0.500000
#
# Coordination Sequence:
#
# PCOD9238243 Si02
#       5
#     4   4   4   4   4
#     4  11  25  44  70 102 135 175 224 272 331 400
#     4   9  18  32  59  97 136 174 213 257 322 391
#     4   9  16  32  59  93 136 172 209 260 317 393
#     4  11  25  43  71 103 133 176 225 270 331 401
#     4  12  28  50  69  94 134 174 223 290 344 389
#
# _framework density 20.857292000000001
#
# number of rings (size 3 to 8) (size 9 to 14) (size 15 to 20)
#    0.000    1.600    4.000    0.000   11.200    1.600 
#    0.000    2.000    0.000    0.000    0.000    0.000 
#    0.000    0.000    0.000    0.000    0.000    0.000 
#
# Total GULP energy -111643.946551 kJ/mol
# GULP energy per Si atom -5582.197328 kJ/mol
# Density = 2.080982 g / cm^3
# Si number density = 20.857292 Si / 1000 Ang^3
#
#
#
# Elastic Constant Matrix: (Units=GPa)
#
#
# Indices 1 2 3 4 5 6 
#
# 1 124.7132 23.9584 64.9436 0.0000 3.7489 0.0000
# 2 23.9584 73.2169 24.0740 0.0000 -1.0656 0.0000
# 3 64.9436 24.0740 203.1739 0.0000 -2.1222 0.0000
# 4 0.0000 0.0000 0.0000 7.6046 0.0000 -12.9216
# 5 3.7489 -1.0656 -2.1222 0.0000 43.0289 0.0000
# 6 0.0000 0.0000 0.0000 -12.9216 0.0000 39.8022
#
#
#
# Elastic Compliance Matrix: (Units=1/GPa)
#
#
# Indices 1 2 3 4 5 6 
#
# 1 0.010030 -0.002331 -0.002941 0.000000 -0.001077 0.000000
# 2 -0.002331 0.014756 -0.000998 0.000000 0.000519 0.000000
# 3 -0.002941 -0.000998 0.005986 0.000000 0.000527 0.000000
# 4 0.000000 0.000000 0.000000 0.293286 0.000000 0.095214
# 5 -0.001077 0.000519 0.000527 0.000000 0.023373 0.000000
# 6 0.000000 0.000000 0.000000 0.095214 0.000000 0.056035
#
#
# Mechanical properties :
#
#
# Convention : Reuss Voigt Hill
#
# Bulk Modulus (GPa) = 54.84719 69.67288 62.26004
# Shear Modulus (GPa) = 11.84600 37.29566 24.57083
#
# Velocity S-wave (km/s) = 2.38577 4.23322 3.43599
# Velocity P-wave (km/s) = 5.82603 7.57434 6.75697
#
# Compressibility (1/GPa) = 0.01823247
#
# Stress axis : x y z
#
# Youngs Moduli (GPa) = 99.69995 67.76705 167.06256
#
# Poissons Ratio (x) = 0.15794 0.49136
# Poissons Ratio (y) = 0.23237 0.16674
# Poissons Ratio (z) = 0.29323 0.06764
#
# Static dielectric constant tensor:
#      x y z
#    x 1.736010 0.000000 0.006000 
#    y 0.000000 1.803610 0.000000 
#    z 0.006000 0.000000 1.634770 
# 
# From -- ./inp_files/14812.got.cif
#   From: 2010.05.17/outbox.cif.g08.bks.cpg/sg13_8_cif.got.tgz:14812.got - 2010.06.03 16:44:36.
