data_PCOD9238582
_publ_section_title
;
Structure prediction by ZEFSAII (Michael W. Deem and Ramdas Pophale) SiO2 
 PCOD9238582
Probable space group: P 2/C
;
_chemical_formula_sum "Si O2"
_cell_formula_units_Z 18
_cell_length_a 12.586798
_cell_length_b 7.934043
_cell_length_c 10.396999
_cell_angle_alpha 90.000000
_cell_angle_beta 132.213772
_cell_angle_gamma 90.000000
_cell_volume 769.000824
_symmetry_space_group_name_H-M "P 2/C"
_symmetry_group_IT_number 13
_symmetry_cell_setting 'monoclinic'
loop_
_space_group_symop_operation_xyz
x,y,z
-x,y,1/2-z
-x,-y,-z
x,-y,1/2+z
loop_
_atom_site_type_symbol
_atom_site_label
_atom_site_fract_x
_atom_site_fract_y
_atom_site_fract_z
Si Si1 0.451140 0.425164 0.330581
Si Si2 0.806954 0.991437 0.420138
Si Si3 0.874083 0.361497 0.381007
Si Si4 0.000000 0.237314 0.250000
Si Si5 0.372874 0.912774 0.477120
O O1 0.500000 0.533790 0.250000
O O2 0.500000 0.500000 0.500000
O O3 0.280765 0.418845 0.197011
O O4 0.552128 0.258424 0.413494
O O5 0.875302 0.176779 0.450420
O O6 0.689525 0.008985 0.440882
O O7 0.748835 0.918581 0.235693
O O8 0.922788 0.871231 0.578924
O O9 0.879341 0.336643 0.230883
O O10 0.000000 0.500000 0.500000
O O11 0.500000 0.000000 0.500000
#
# Coordination Sequence:
#
# PCOD9238582 Si02
#       5
#     4   4   4   2   4
#     4  12  28  49  75 112 153 206 262 325 402 469
#     4  12  25  48  80 114 152 207 267 332 391 488
#     4  12  29  49  74 114 161 209 256 330 404 481
#     4  12  28  48  76 116 150 212 266 312 418 478
#     4  12  23  47  80 112 151 194 269 330 393 465
#
# _framework density 23.406995999999999
#
# number of rings (size 3 to 8) (size 9 to 14) (size 15 to 20)
#    0.000    0.000    6.667    1.333    6.222    2.667 
#    0.000    0.000    0.000    0.000    0.000    0.000 
#    0.000    0.000    0.000    0.000    0.000    0.000 
#
# Total GULP energy -100344.735444 kJ/mol
# GULP energy per Si atom -5574.707525 kJ/mol
# Density = 2.335372 g / cm^3
# Si number density = 23.406996 Si / 1000 Ang^3
#
#
#
# Elastic Constant Matrix: (Units=GPa)
#
#
# Indices 1 2 3 4 5 6 
#
# 1 205.8327 20.4283 44.5721 0.0000 -22.0835 0.0000
# 2 20.4283 34.5503 36.5250 0.0000 3.7322 0.0000
# 3 44.5721 36.5250 166.0260 0.0000 -11.2781 0.0000
# 4 0.0000 0.0000 0.0000 32.3110 0.0000 -3.0507
# 5 -22.0835 3.7322 -11.2781 0.0000 55.6183 0.0000
# 6 0.0000 0.0000 0.0000 -3.0507 0.0000 28.5191
#
#
#
# Elastic Compliance Matrix: (Units=1/GPa)
#
#
# Indices 1 2 3 4 5 6 
#
# 1 0.005527 -0.002737 -0.000730 0.000000 0.002230 0.000000
# 2 -0.002737 0.040098 -0.008460 0.000000 -0.005493 0.000000
# 3 -0.000730 -0.008460 0.008212 0.000000 0.001943 0.000000
# 4 0.000000 0.000000 0.000000 0.031265 0.000000 0.003344
# 5 0.002230 -0.005493 0.001943 0.000000 0.019628 0.000000
# 6 0.000000 0.000000 0.000000 0.003344 0.000000 0.035422
#
#
# Mechanical properties :
#
#
# Convention : Reuss Voigt Hill
#
# Bulk Modulus (GPa) = 33.35136 67.71775 50.53456
# Shear Modulus (GPa) = 28.73537 43.61526 36.17532
#
# Velocity S-wave (km/s) = 3.50757 4.32133 3.93554
# Velocity P-wave (km/s) = 5.53927 7.34111 6.50290
#
# Compressibility (1/GPa) = 0.02998379
#
# Stress axis : x y z
#
# Youngs Moduli (GPa) = 180.91778 24.93871 121.76844
#
# Poissons Ratio (x) = 0.06826 0.08892
# Poissons Ratio (y) = 0.49518 1.03014
# Poissons Ratio (z) = 0.13212 0.21098
#
# Static dielectric constant tensor:
#      x y z
#    x 1.932200 0.000000 -0.156850 
#    y 0.000000 1.949820 0.000000 
#    z -0.156850 0.000000 2.252700 
# 
# From -- ./inp_files/15075.got.cif
#   From: 2010.05.17/outbox.cif.g08.bks.cpg/sg13_8_cif.got.tgz:15075.got - 2010.06.03 16:44:36.
