data_PCOD9238116
_publ_section_title
;
Structure prediction by ZEFSAII (Michael W. Deem and Ramdas Pophale) SiO2 
 PCOD9238116
Probable space group: P 2/C
;
_chemical_formula_sum "Si O2"
_cell_formula_units_Z 16
_cell_length_a 4.924411
_cell_length_b 5.125262
_cell_length_c 23.651259
_cell_angle_alpha 90.000000
_cell_angle_beta 78.704865
_cell_angle_gamma 90.000000
_cell_volume 585.369885
_symmetry_space_group_name_H-M "P 2/C"
_symmetry_group_IT_number 13
_symmetry_cell_setting 'monoclinic'
loop_
_space_group_symop_operation_xyz
x,y,z
-x,y,1/2-z
-x,-y,-z
x,-y,1/2+z
loop_
_atom_site_type_symbol
_atom_site_label
_atom_site_fract_x
_atom_site_fract_y
_atom_site_fract_z
Si Si1 0.205977 0.325261 0.790040
Si Si2 0.578156 0.832418 0.052559
Si Si3 0.173829 0.503448 0.538963
Si Si4 0.853874 0.833787 0.635078
O O1 0.500000 0.268516 0.750000
O O2 0.241121 0.560160 0.833731
O O3 0.000000 0.421577 0.750000
O O4 0.096466 0.053161 0.820384
O O5 0.296307 0.691564 0.082331
O O6 0.646166 0.027127 0.100101
O O7 0.884187 0.663365 0.028893
O O8 0.500000 0.000000 0.000000
O O9 0.500000 0.500000 0.500000
O O10 0.083694 0.744065 0.580760
#
# Coordination Sequence:
#
# PCOD9238116 Si02
#       4
#     4   4   4   4
#     4  12  31  57  80 114 152 209 290 363 413 479
#     4  11  25  41  73 115 167 200 258 315 400 514
#     4  11  24  45  67 118 164 207 253 318 400 514
#     4  12  27  49  82 111 157 218 267 342 429 487
#
# _framework density 27.333144999999998
#
# number of rings (size 3 to 8) (size 9 to 14) (size 15 to 20)
#    0.000    0.500    2.500    3.750   10.500    0.000 
#    0.000    0.000    0.000    0.000    0.000    0.000 
#    0.000    0.000    0.000    0.000    0.000    0.000 
#
# Total GULP energy -89368.363642 kJ/mol
# GULP energy per Si atom -5585.522728 kJ/mol
# Density = 2.727093 g / cm^3
# Si number density = 27.333145 Si / 1000 Ang^3
#
#
#
# Elastic Constant Matrix: (Units=GPa)
#
#
# Indices 1 2 3 4 5 6 
#
# 1 190.6285 70.8999 58.6274 0.0000 9.1251 0.0000
# 2 70.8999 205.0063 60.2268 0.0000 -8.6020 0.0000
# 3 58.6274 60.2268 132.1139 0.0000 -11.5073 0.0000
# 4 0.0000 0.0000 0.0000 -98.0568 0.0000 26.0682
# 5 9.1251 -8.6020 -11.5073 0.0000 55.9830 0.0000
# 6 0.0000 0.0000 0.0000 26.0682 0.0000 64.8957
#
#
#
# Elastic Compliance Matrix: (Units=1/GPa)
#
#
# Indices 1 2 3 4 5 6 
#
# 1 0.006689 -0.001699 -0.002354 0.000000 -0.001835 0.000000
# 2 -0.001699 0.006070 -0.001943 0.000000 0.000810 0.000000
# 3 -0.002354 -0.001943 0.009680 0.000000 0.002075 0.000000
# 4 0.000000 0.000000 0.000000 -0.009214 0.000000 0.003701
# 5 -0.001835 0.000810 0.002075 0.000000 0.018713 0.000000
# 6 0.000000 0.000000 0.000000 0.003701 0.000000 0.013923
#
#
# Mechanical properties :
#
#
# Convention : Reuss Voigt Hill
#
# Bulk Modulus (GPa) = 95.70578 100.80630 98.25604
# Shear Modulus (GPa) = 81.51953 27.09734 54.30844
#
# Velocity S-wave (km/s) = 5.46710 3.15202 4.46231
# Velocity P-wave (km/s) = 8.65695 7.08574 7.91045
#
# Compressibility (1/GPa) = 0.01044869
#
# Stress axis : x y z
#
# Youngs Moduli (GPa) = 149.48812 164.73904 103.30424
#
# Poissons Ratio (x) = 0.27989 0.24317
# Poissons Ratio (y) = 0.25398 0.20069
# Poissons Ratio (z) = 0.35188 0.32004
#
# Static dielectric constant tensor:
#      x y z
#    x 2.002460 0.000000 -0.395300 
#    y 0.000000 -1.188400 0.000000 
#    z -0.395300 0.000000 1.385020 
# 
# From -- ./inp_files/89778.got.cif
#   From: 2010.05.17/outbox.cif.g08.bks.cpg/sg13_45_cif.got.tgz:89778.got - 2010.06.03 16:44:36.
