data_PCOD9238836
_publ_section_title
;
Structure prediction by ZEFSAII (Michael W. Deem and Ramdas Pophale) SiO2 
 PCOD9238836
Probable space group: P 2/C
;
_chemical_formula_sum "Si O2"
_cell_formula_units_Z 24
_cell_length_a 17.303479
_cell_length_b 7.066164
_cell_length_c 6.629905
_cell_angle_alpha 90.000000
_cell_angle_beta 77.850130
_cell_angle_gamma 90.000000
_cell_volume 792.475466
_symmetry_space_group_name_H-M "P 2/C"
_symmetry_group_IT_number 13
_symmetry_cell_setting 'monoclinic'
loop_
_space_group_symop_operation_xyz
x,y,z
-x,y,1/2-z
-x,-y,-z
x,-y,1/2+z
loop_
_atom_site_type_symbol
_atom_site_label
_atom_site_fract_x
_atom_site_fract_y
_atom_site_fract_z
Si Si1 0.732673 0.266418 0.520832
Si Si2 0.597600 0.789801 0.527489
Si Si3 0.566395 0.244555 0.511300
Si Si4 0.935196 0.243725 0.986393
Si Si5 0.906053 0.682724 0.965097
Si Si6 0.238578 0.170340 0.453943
O O1 0.642647 0.338193 0.575163
O O2 0.814128 0.339352 0.571508
O O3 0.751666 0.267208 0.268601
O O4 0.735544 0.046191 0.581153
O O5 0.527560 0.713601 0.422144
O O6 0.581160 0.728857 0.764425
O O7 0.690931 0.748187 0.443860
O O8 0.580563 0.017585 0.535122
O O9 0.917512 0.229468 0.237434
O O10 0.853743 0.161783 0.940341
O O11 0.030575 0.205540 0.927727
O O12 0.930930 0.465140 0.933527
#
# Coordination Sequence:
#
# PCOD9238836 Si02
#       6
#     4   4   4   4   4   4
#     4   9  17  28  43  65  89 110 136 172 210 246
#     4   8  13  22  37  57  81 108 135 163 198 240
#     4   8  13  22  37  57  81 108 135 163 198 240
#     4   9  18  32  47  62  82 110 143 175 207 247
#     4   9  18  32  47  62  82 110 143 175 207 247
#     4   9  17  28  43  65  89 110 136 172 210 246
#
# _framework density 30.284849999999999
#
# number of rings (size 3 to 8) (size 9 to 14) (size 15 to 20)
#    0.000    3.333    0.000    0.000    0.000    2.000 
#    0.000    0.000    0.000    1.000    0.000    0.000 
#    0.000    0.000    0.000    0.000    0.000    0.000 
#
# Total GULP energy -134200.209977 kJ/mol
# GULP energy per Si atom -5591.675416 kJ/mol
# Density = 3.021592 g / cm^3
# Si number density = 30.284850 Si / 1000 Ang^3
#
#
#
# Elastic Constant Matrix: (Units=GPa)
#
#
# Indices 1 2 3 4 5 6 
#
# 1 440.7745 27.1984 89.7567 0.0000 -6.9751 0.0000
# 2 27.1984 90.8960 14.0143 0.0000 -3.4581 0.0000
# 3 89.7567 14.0143 68.6905 0.0000 10.7293 0.0000
# 4 0.0000 0.0000 0.0000 13.2848 0.0000 -25.9900
# 5 -6.9751 -3.4581 10.7293 0.0000 79.0872 0.0000
# 6 0.0000 0.0000 0.0000 -25.9900 0.0000 -80.6355
#
#
#
# Elastic Compliance Matrix: (Units=1/GPa)
#
#
# Indices 1 2 3 4 5 6 
#
# 1 0.003153 -0.000265 -0.004196 0.000000 0.000836 0.000000
# 2 -0.000265 0.011435 -0.002106 0.000000 0.000762 0.000000
# 3 -0.004196 -0.002106 0.020988 0.000000 -0.003309 0.000000
# 4 0.000000 0.000000 0.000000 0.046164 0.000000 -0.014879
# 5 0.000836 0.000762 -0.003309 0.000000 0.013200 0.000000
# 6 0.000000 0.000000 0.000000 -0.014879 0.000000 -0.007606
#
#
# Mechanical properties :
#
#
# Convention : Reuss Voigt Hill
#
# Bulk Modulus (GPa) = 44.56118 95.81106 70.18612
# Shear Modulus (GPa) = 46.31835 33.64006 39.97921
#
# Velocity S-wave (km/s) = 3.91503 3.33647 3.63727
# Velocity P-wave (km/s) = 5.93149 6.82261 6.39259
#
# Compressibility (1/GPa) = 0.02244106
#
# Stress axis : x y z
#
# Youngs Moduli (GPa) = 317.17965 87.45462 47.64659
#
# Poissons Ratio (x) = 0.02314 0.19994
# Poissons Ratio (y) = 0.08393 0.10035
# Poissons Ratio (z) = 1.33097 0.18419
#
# Static dielectric constant tensor:
#      x y z
#    x 2.444520 0.000000 -0.058090 
#    y 0.000000 2.412810 0.000000 
#    z -0.058090 0.000000 2.509650 
# 
# From -- ./inp_files/20907.got.cif
#   From: 2010.05.17/outbox.cif.g08.bks.cpg/sg13_11_cif.got.tgz:20907.got - 2010.06.03 16:44:36.
