data_PCOD9238109
_publ_section_title
;
Structure prediction by ZEFSAII (Michael W. Deem and Ramdas Pophale) SiO2 
 PCOD9238109
Probable space group: P 2/C
;
_chemical_formula_sum "Si O2"
_cell_formula_units_Z 14
_cell_length_a 9.749358
_cell_length_b 5.356584
_cell_length_c 13.139329
_cell_angle_alpha 90.000000
_cell_angle_beta 59.041542
_cell_angle_gamma 90.000000
_cell_volume 588.425880
_symmetry_space_group_name_H-M "P 2/C"
_symmetry_group_IT_number 13
_symmetry_cell_setting 'monoclinic'
loop_
_space_group_symop_operation_xyz
x,y,z
-x,y,1/2-z
-x,-y,-z
x,-y,1/2+z
loop_
_atom_site_type_symbol
_atom_site_label
_atom_site_fract_x
_atom_site_fract_y
_atom_site_fract_z
Si Si1 0.500000 0.615510 0.750000
Si Si2 0.101584 0.750969 0.443799
Si Si3 0.346582 0.940342 0.949495
Si Si4 0.332590 0.766811 0.169290
O O1 0.348475 0.769617 0.848896
O O2 0.564348 0.455545 0.820486
O O3 0.181424 0.770625 0.301499
O O4 0.000000 0.500000 0.500000
O O5 0.247173 0.808236 0.467325
O O6 0.000000 0.000000 0.500000
O O7 0.535530 0.009932 0.879911
O O8 0.288135 0.782004 0.067964
#
# Coordination Sequence:
#
# PCOD9238109 Si02
#       4
#     2   4   4   4
#     4  12  18  44  74 112 144 188 258 332 382 432
#     4  12  26  48  72 106 158 203 245 314 389 461
#     4  11  24  44  74 109 144 198 265 316 377 455
#     4  11  24  44  74 107 144 201 260 322 371 455
#
# _framework density 23.792293999999998
#
# number of rings (size 3 to 8) (size 9 to 14) (size 15 to 20)
#    0.000    0.571    5.714    2.571    0.000    1.143 
#    0.000    5.714    0.000    0.000    0.000    0.000 
#    0.000    0.000    0.000    0.000    0.000    0.000 
#
# Total GULP energy -78099.220981 kJ/mol
# GULP energy per Si atom -5578.515784 kJ/mol
# Density = 2.373814 g / cm^3
# Si number density = 23.792294 Si / 1000 Ang^3
#
#
#
# Elastic Constant Matrix: (Units=GPa)
#
#
# Indices 1 2 3 4 5 6 
#
# 1 58.2489 41.6649 72.0577 0.0000 -1.5444 0.0000
# 2 41.6649 154.8916 103.1450 0.0000 -5.7759 0.0000
# 3 72.0577 103.1450 235.7253 0.0000 -5.9110 0.0000
# 4 0.0000 0.0000 0.0000 32.4184 0.0000 45.9735
# 5 -1.5444 -5.7759 -5.9110 0.0000 47.8784 0.0000
# 6 0.0000 0.0000 0.0000 45.9735 0.0000 -272.9679
#
#
#
# Elastic Compliance Matrix: (Units=1/GPa)
#
#
# Indices 1 2 3 4 5 6 
#
# 1 0.028345 -0.002627 -0.007523 0.000000 -0.000331 0.000000
# 2 -0.002627 0.009372 -0.003282 0.000000 0.000641 0.000000
# 3 -0.007523 -0.003282 0.007987 0.000000 0.000347 0.000000
# 4 0.000000 0.000000 0.000000 0.024900 0.000000 0.004194
# 5 -0.000331 0.000641 0.000347 0.000000 0.020996 0.000000
# 6 0.000000 0.000000 0.000000 0.004194 0.000000 -0.002957
#
#
# Mechanical properties :
#
#
# Convention : Reuss Voigt Hill
#
# Bulk Modulus (GPa) = 53.08047 98.06677 75.57362
# Shear Modulus (GPa) = 41.05553 -23.06767 8.99393
#
# Velocity S-wave (km/s) = 4.15852 -3.11713 1.94638
# Velocity P-wave (km/s) = 6.73914 5.32466 6.07322
#
# Compressibility (1/GPa) = 0.01883932
#
# Stress axis : x y z
#
# Youngs Moduli (GPa) = 35.27958 106.70015 125.20744
#
# Poissons Ratio (x) = 0.28030 0.94200
# Poissons Ratio (y) = 0.09268 0.41090
# Poissons Ratio (z) = 0.26543 0.35017
#
# Static dielectric constant tensor:
#      x y z
#    x 2.152460 0.000000 -0.008460 
#    y 0.000000 2.006500 0.000000 
#    z -0.008460 0.000000 1.892350 
# 
# From -- ./inp_files/48380.got.cif
#   From: 2010.05.17/outbox.cif.g08.bks.cpg/sg13_25_cif.got.tgz:48380.got - 2010.06.03 16:44:36.
