data_PCOD9238879
_publ_section_title
;
Structure prediction by ZEFSAII (Michael W. Deem and Ramdas Pophale) SiO2 
 PCOD9238879
Probable space group: P 2/C
;
_chemical_formula_sum "Si O2"
_cell_formula_units_Z 32
_cell_length_a 15.000000
_cell_length_b 15.000000
_cell_length_c 21.000000
_cell_angle_alpha 90.000000
_cell_angle_beta 160.000000
_cell_angle_gamma 90.000000
_cell_volume 1616.045177
_symmetry_space_group_name_H-M "P 2/C"
_symmetry_group_IT_number 13
_symmetry_cell_setting 'monoclinic'
loop_
_space_group_symop_operation_xyz
x,y,z
-x,y,1/2-z
-x,-y,-z
x,-y,1/2+z
loop_
_atom_site_type_symbol
_atom_site_label
_atom_site_fract_x
_atom_site_fract_y
_atom_site_fract_z
Si Si1 0.467294 0.815193 0.410420
Si Si2 0.990100 0.942430 0.057872
Si Si3 0.385320 0.366549 0.057127
Si Si4 0.272702 0.068744 0.323019
Si Si5 0.274129 0.539681 0.206124
Si Si6 0.250372 0.807433 0.684606
Si Si7 0.657291 0.732377 0.295942
Si Si8 0.801120 0.644824 0.212094
O O1 0.709187 0.857314 0.609711
O O2 0.520484 0.762101 0.382497
O O3 0.305798 0.743610 0.343617
O O4 0.260847 0.890147 0.249840
O O5 0.774062 0.867724 0.896276
O O6 0.010515 0.012366 0.130473
O O7 0.000000 0.000000 0.000000
O O8 0.523872 0.459267 0.167475
O O9 0.563931 0.279152 0.190526
O O10 0.325132 0.376166 0.941107
O O11 0.111936 0.354939 0.910176
O O12 0.327000 0.125777 0.294488
O O13 0.500000 0.000000 0.500000
O O14 0.324918 0.626142 0.197158
O O15 0.263920 0.578935 0.272216
O O16 0.000000 0.500000 0.000000
O O17 0.951855 0.771312 0.492682
O O18 0.500000 0.765397 0.250000
#
# Coordination Sequence:
#
# PCOD9238879 Si02
#       8
#     4   4   4   4   4   4   4   4
#     4   9  17  35  58  83 116 153 195 242 292 350
#     4   8  16  29  53  87 111 150 194 229 292 354
#     4  11  22  38  62  86 124 163 195 246 299 355
#     4   9  16  31  62  86 114 157 195 236 297 360
#     4  11  23  39  59  86 119 154 201 248 295 354
#     4  10  18  35  58  84 120 156 196 241 295 349
#     4  10  22  38  56  82 115 155 200 247 291 351
#     4  10  23  39  58  90 122 156 200 247 295 362
#
# _framework density 19.801427
#
# number of rings (size 3 to 8) (size 9 to 14) (size 15 to 20)
#    0.000    2.250    2.500    0.375    1.750    0.000 
#    0.000    0.625    0.000   42.000    0.000    0.000 
#    0.000    0.000    0.000    0.000    0.000    0.000 
#
# Total GULP energy -178155.531838 kJ/mol
# GULP energy per Si atom -5567.360370 kJ/mol
# Density = 1.975636 g / cm^3
# Si number density = 19.801427 Si / 1000 Ang^3
#
#
#
# Elastic Constant Matrix: (Units=GPa)
#
#
# Indices 1 2 3 4 5 6 
#
# 1 41.8324 11.5209 27.9963 0.0000 -2.0207 0.0000
# 2 11.5209 114.3062 45.3735 0.0000 -7.8962 0.0000
# 3 27.9963 45.3735 93.2379 0.0000 -16.8301 0.0000
# 4 0.0000 0.0000 0.0000 37.1379 0.0000 -23.2555
# 5 -2.0207 -7.8962 -16.8301 0.0000 28.8079 0.0000
# 6 0.0000 0.0000 0.0000 -23.2555 0.0000 11.0329
#
#
#
# Elastic Compliance Matrix: (Units=1/GPa)
#
#
# Indices 1 2 3 4 5 6 
#
# 1 0.030285 0.000702 -0.010080 0.000000 -0.003572 0.000000
# 2 0.000702 0.010860 -0.005533 0.000000 -0.000207 0.000000
# 3 -0.010080 -0.005533 0.017934 0.000000 0.008254 0.000000
# 4 0.000000 0.000000 0.000000 -0.084168 0.000000 -0.177413
# 5 -0.003572 -0.000207 0.008254 0.000000 0.039228 0.000000
# 6 0.000000 0.000000 0.000000 -0.177413 0.000000 -0.283318
#
#
# Mechanical properties :
#
#
# Convention : Reuss Voigt Hill
#
# Bulk Modulus (GPa) = 34.17939 46.57309 40.37624
# Shear Modulus (GPa) = -21.77648 26.36144 2.29248
#
# Velocity S-wave (km/s) = -3.31983 3.65264 1.07715
# Velocity P-wave (km/s) = 1.61353 6.43119 4.68848
#
# Compressibility (1/GPa) = 0.02925740
#
# Stress axis : x y z
#
# Youngs Moduli (GPa) = 33.01955 92.08395 55.75877
#
# Poissons Ratio (x) = -0.06465 0.56205
# Poissons Ratio (y) = -0.02318 0.30850
# Poissons Ratio (z) = 0.33284 0.50949
#
# Static dielectric constant tensor:
#      x y z
#    x 1.766860 0.000000 -0.017940 
#    y 0.000000 1.710710 0.000000 
#    z -0.017940 0.000000 1.694180 
# 
# From -- ./inp_files/80401.got.cif
#   From: 2010.05.17/outbox.ucp.g08.bks.cvg/sg13_41_cif.got.tgz:80401.got - 2010.06.11 12:23:55.
