data_PCOD9238887
_publ_section_title
;
Structure prediction by ZEFSAII (Michael W. Deem and Ramdas Pophale) SiO2 
 PCOD9238887
Probable space group: P 2/C
;
_chemical_formula_sum "Si O2"
_cell_formula_units_Z 28
_cell_length_a 27.000000
_cell_length_b 12.000000
_cell_length_c 27.000000
_cell_angle_alpha 90.000000
_cell_angle_beta 10.000000
_cell_angle_gamma 90.000000
_cell_volume 1519.074258
_symmetry_space_group_name_H-M "P 2/C"
_symmetry_group_IT_number 13
_symmetry_cell_setting 'monoclinic'
loop_
_space_group_symop_operation_xyz
x,y,z
-x,y,1/2-z
-x,-y,-z
x,-y,1/2+z
loop_
_atom_site_type_symbol
_atom_site_label
_atom_site_fract_x
_atom_site_fract_y
_atom_site_fract_z
Si Si1 0.436033 0.674317 0.584386
Si Si2 0.428238 0.548511 0.692015
Si Si3 0.926158 0.377455 0.527662
Si Si4 0.360029 0.900271 0.606444
Si Si5 0.215071 0.241063 0.996878
Si Si6 0.000688 0.505206 0.690478
Si Si7 0.143590 0.842976 0.457404
O O1 0.472091 0.643572 0.606717
O O2 0.732864 0.663393 0.263554
O O3 0.322723 0.798313 0.682604
O O4 0.220769 0.592161 0.765336
O O5 0.254662 0.459800 0.828873
O O6 0.710689 0.503517 0.442691
O O7 0.218466 0.570954 0.944666
O O8 0.989266 0.275571 0.428386
O O9 0.570380 0.858535 0.355734
O O10 0.500000 0.000000 0.500000
O O11 0.075978 0.927444 0.854017
O O12 0.500000 0.252212 0.750000
O O13 0.208454 0.168550 0.952389
O O14 0.000000 0.194362 0.250000
O O15 0.113695 0.366288 0.081181
O O16 0.000000 0.473713 0.750000
#
# Coordination Sequence:
#
# PCOD9238887 Si02
#       7
#     4   4   4   4   4   4   4
#     4  10  21  33  50  77 102 136 176 213 258 322
#     4  12  20  33  51  71 107 143 178 213 257 302
#     4  10  19  31  48  74 108 136 171 206 257 308
#     4  10  21  37  56  79 107 134 177 222 275 331
#     4  11  21  34  52  77 111 144 181 212 252 312
#     4  11  23  33  49  73 106 146 186 211 251 305
#     4  10  20  33  55  78 107 142 171 212 270 319
#
# _framework density 18.432279000000001
#
# number of rings (size 3 to 8) (size 9 to 14) (size 15 to 20)
#    0.000    1.429    1.429    6.000    4.000    0.000 
#    0.000    0.000    0.000    0.000    0.000   10.000 
#    0.000    0.000    0.000    0.000    0.000    0.000 
#
# Total GULP energy -155893.528056 kJ/mol
# GULP energy per Si atom -5567.626002 kJ/mol
# Density = 1.839033 g / cm^3
# Si number density = 18.432279 Si / 1000 Ang^3
#
#
#
# Elastic Constant Matrix: (Units=GPa)
#
#
# Indices 1 2 3 4 5 6 
#
# 1 200.2262 35.3844 52.9126 0.0000 -1.3998 0.0000
# 2 35.3844 45.6286 3.6542 0.0000 -3.8163 0.0000
# 3 52.9126 3.6542 100.0864 0.0000 -13.5359 0.0000
# 4 0.0000 0.0000 0.0000 15.7320 0.0000 -4.6952
# 5 -1.3998 -3.8163 -13.5359 0.0000 49.7671 0.0000
# 6 0.0000 0.0000 0.0000 -4.6952 0.0000 25.4969
#
#
#
# Elastic Compliance Matrix: (Units=1/GPa)
#
#
# Indices 1 2 3 4 5 6 
#
# 1 0.006838 -0.005114 -0.003587 0.000000 -0.001175 0.000000
# 2 -0.005114 0.025916 0.002083 0.000000 0.002410 0.000000
# 3 -0.003587 0.002083 0.012271 0.000000 0.003396 0.000000
# 4 0.000000 0.000000 0.000000 0.067261 0.000000 0.012386
# 5 -0.001175 0.002410 0.003396 0.000000 0.021169 0.000000
# 6 0.000000 0.000000 0.000000 0.012386 0.000000 0.041501
#
#
# Mechanical properties :
#
#
# Convention : Reuss Voigt Hill
#
# Bulk Modulus (GPa) = 31.45654 58.87149 45.16402
# Shear Modulus (GPa) = 25.15232 35.13189 30.14210
#
# Velocity S-wave (km/s) = 3.69803 4.37051 4.04826
# Velocity P-wave (km/s) = 5.94449 7.58137 6.81227
#
# Compressibility (1/GPa) = 0.03178989
#
# Stress axis : x y z
#
# Youngs Moduli (GPa) = 146.24592 38.58562 81.49241
#
# Poissons Ratio (x) = 0.19731 0.29233
# Poissons Ratio (y) = 0.74785 -0.16976
# Poissons Ratio (z) = 0.52461 -0.08038
#
# Static dielectric constant tensor:
#      x y z
#    x 1.627270 0.000000 -0.011450 
#    y 0.000000 1.679850 0.000000 
#    z -0.011450 0.000000 1.775700 
# 
# From -- ./inp_files/93880.got.cif
#   From: 2010.05.17/outbox.ucp.g08.bks.cvg/sg13_47_cif.got.tgz:93880.got - 2010.06.11 12:23:55.
