data_PCOD9238207
_publ_section_title
;
Structure prediction by ZEFSAII (Michael W. Deem and Ramdas Pophale) SiO2 
 PCOD9238207
Probable space group: P 2/C
;
_chemical_formula_sum "Si O2"
_cell_formula_units_Z 16
_cell_length_a 23.167788
_cell_length_b 6.219159
_cell_length_c 14.238513
_cell_angle_alpha 90.000000
_cell_angle_beta 161.638016
_cell_angle_gamma 90.000000
_cell_volume 646.276173
_symmetry_space_group_name_H-M "P 2/C"
_symmetry_group_IT_number 13
_symmetry_cell_setting 'monoclinic'
loop_
_space_group_symop_operation_xyz
x,y,z
-x,y,1/2-z
-x,-y,-z
x,-y,1/2+z
loop_
_atom_site_type_symbol
_atom_site_label
_atom_site_fract_x
_atom_site_fract_y
_atom_site_fract_z
Si Si1 0.547714 0.188759 0.500751
Si Si2 0.777728 0.519519 0.972223
Si Si3 0.883836 0.849839 0.748732
Si Si4 0.500000 0.947587 0.250000
Si Si5 0.000000 0.126333 0.750000
O O1 0.692315 0.333728 0.777425
O O2 0.377797 0.345321 0.215003
O O3 0.603725 0.084746 0.489790
O O4 0.500000 0.000000 0.500000
O O5 0.909497 0.398127 0.250756
O O6 0.842020 0.695985 0.994727
O O7 0.671456 0.842266 0.458168
O O8 0.930373 0.984905 0.727051
O O9 0.000000 0.000000 0.000000
#
# Coordination Sequence:
#
# PCOD9238207 Si02
#       5
#     4   4   4   2   2
#     4  11  24  48  74 111 152 203 258 330 393 487
#     4  11  25  46  77 106 155 210 254 318 419 468
#     4  12  30  48  78 114 160 204 267 337 396 484
#     4  12  26  48  76 112 156 196 260 334 398 462
#     4  12  26  50  68 112 156 198 262 324 394 478
#
# _framework density 24.757218999999999
#
# number of rings (size 3 to 8) (size 9 to 14) (size 15 to 20)
#    0.000    0.500    5.000    0.750   10.500    4.000 
#    0.000    0.000    0.000    0.000    0.000    0.000 
#    0.000    0.000    0.000    0.000    0.000    0.000 
#
# Total GULP energy -89124.643511 kJ/mol
# GULP energy per Si atom -5570.290219 kJ/mol
# Density = 2.470087 g / cm^3
# Si number density = 24.757219 Si / 1000 Ang^3
#
#
#
# Elastic Constant Matrix: (Units=GPa)
#
#
# Indices 1 2 3 4 5 6 
#
# 1 156.6702 60.2862 19.3090 0.0000 15.0290 0.0000
# 2 60.2862 123.7936 40.1966 0.0000 -9.0818 0.0000
# 3 19.3090 40.1966 57.8343 0.0000 16.3763 0.0000
# 4 0.0000 0.0000 0.0000 43.0524 0.0000 14.1043
# 5 15.0290 -9.0818 16.3763 0.0000 35.3590 0.0000
# 6 0.0000 0.0000 0.0000 14.1043 0.0000 21.2883
#
#
#
# Elastic Compliance Matrix: (Units=1/GPa)
#
#
# Indices 1 2 3 4 5 6 
#
# 1 0.008867 -0.005741 0.002894 0.000000 -0.006583 0.000000
# 2 -0.005741 0.015878 -0.012620 0.000000 0.012363 0.000000
# 3 0.002894 -0.012620 0.030341 0.000000 -0.018524 0.000000
# 4 0.000000 0.000000 0.000000 0.029667 0.000000 -0.019655
# 5 -0.006583 0.012363 -0.018524 0.000000 0.042834 0.000000
# 6 0.000000 0.000000 0.000000 -0.019655 0.000000 0.059997
#
#
# Mechanical properties :
#
#
# Convention : Reuss Voigt Hill
#
# Bulk Modulus (GPa) = 41.40394 64.20909 52.80652
# Shear Modulus (GPa) = 22.06836 34.50701 28.28768
#
# Velocity S-wave (km/s) = 2.98886 3.73743 3.38391
# Velocity P-wave (km/s) = 5.35456 6.67955 6.05342
#
# Compressibility (1/GPa) = 0.02415229
#
# Stress axis : x y z
#
# Youngs Moduli (GPa) = 112.78192 62.97859 32.95841
#
# Poissons Ratio (x) = 0.36153 -0.09537
# Poissons Ratio (y) = 0.64743 0.41594
# Poissons Ratio (z) = -0.32636 0.79480
#
# Static dielectric constant tensor:
#      x y z
#    x 2.107380 0.000000 0.140070 
#    y 0.000000 1.974680 0.000000 
#    z 0.140070 0.000000 2.252570 
# 
# From -- ./inp_files/48532.got.cif
#   From: 2010.05.17/outbox.cif.g08.bks.cpg/sg13_25_cif.got.tgz:48532.got - 2010.06.03 16:44:36.
