data_PCOD9238998
_publ_section_title
;
Structure prediction by ZEFSAII (Michael W. Deem and Ramdas Pophale) SiO2 
 PCOD9238998
Probable space group: P 2/C
;
_chemical_formula_sum "Si O2"
_cell_formula_units_Z 28
_cell_length_a 9.000000
_cell_length_b 12.000000
_cell_length_c 15.000000
_cell_angle_alpha 90.000000
_cell_angle_beta 120.000000
_cell_angle_gamma 90.000000
_cell_volume 1402.961154
_symmetry_space_group_name_H-M "P 2/C"
_symmetry_group_IT_number 13
_symmetry_cell_setting 'monoclinic'
loop_
_space_group_symop_operation_xyz
x,y,z
-x,y,1/2-z
-x,-y,-z
x,-y,1/2+z
loop_
_atom_site_type_symbol
_atom_site_label
_atom_site_fract_x
_atom_site_fract_y
_atom_site_fract_z
Si Si1 0.812196 0.969505 0.164095
Si Si2 0.913327 0.569807 0.127264
Si Si3 0.350545 0.261029 0.135024
Si Si4 0.753613 0.154563 0.992981
Si Si5 0.011471 0.356465 0.471329
Si Si6 0.699433 0.017304 0.324021
Si Si7 0.605080 0.253650 0.553117
O O1 0.759634 0.024425 0.241379
O O2 0.710403 0.858966 0.105794
O O3 0.000000 0.930804 0.250000
O O4 0.782274 0.062726 0.079297
O O5 0.738924 0.640271 0.100374
O O6 0.000000 0.549803 0.250000
O O7 0.905433 0.455567 0.064305
O O8 0.024221 0.637452 0.084451
O O9 0.500000 0.277627 0.250000
O O10 0.194770 0.347151 0.101758
O O11 0.274964 0.136319 0.122202
O O12 0.434854 0.263216 0.063342
O O13 0.903023 0.244314 0.036938
O O14 0.763509 0.082857 0.904863
O O15 0.575403 0.225812 0.950848
O O16 0.500000 0.996825 0.250000
#
# Coordination Sequence:
#
# PCOD9238998 Si02
#       7
#     4   4   4   4   4   4   4
#     4  12  25  38  61  95 134 176 214 259 331 390
#     4  10  24  47  68  91 129 170 219 280 329 382
#     4  10  21  40  65  93 134 176 210 262 333 388
#     4  12  24  41  64 100 135 167 223 270 316 404
#     4  10  25  44  68  97 126 171 228 273 326 389
#     4  11  22  37  61  95 137 171 209 263 325 396
#     4  11  23  41  64  92 132 170 216 267 330 385
#
# _framework density 19.957787
#
# number of rings (size 3 to 8) (size 9 to 14) (size 15 to 20)
#    0.000    1.143    2.857    3.429    6.000    4.571 
#    0.000    2.857    0.000    0.857    0.000    0.000 
#    0.000    0.000    0.000    0.000    0.000    0.000 
#
# Total GULP energy -155889.712291 kJ/mol
# GULP energy per Si atom -5567.489725 kJ/mol
# Density = 1.991236 g / cm^3
# Si number density = 19.957787 Si / 1000 Ang^3
#
#
#
# Elastic Constant Matrix: (Units=GPa)
#
#
# Indices 1 2 3 4 5 6 
#
# 1 22.4985 7.0219 15.5192 0.0000 8.0039 0.0000
# 2 7.0219 71.6821 15.5066 0.0000 -1.8197 0.0000
# 3 15.5192 15.5066 80.9837 0.0000 -15.5969 0.0000
# 4 0.0000 0.0000 0.0000 23.3557 0.0000 -7.3538
# 5 8.0039 -1.8197 -15.5969 0.0000 30.2580 0.0000
# 6 0.0000 0.0000 0.0000 -7.3538 0.0000 47.4003
#
#
#
# Elastic Compliance Matrix: (Units=1/GPa)
#
#
# Indices 1 2 3 4 5 6 
#
# 1 0.067096 -0.003498 -0.017371 0.000000 -0.026913 0.000000
# 2 -0.003498 0.014746 -0.002003 0.000000 0.000780 0.000000
# 3 -0.017371 -0.002003 0.018788 0.000000 0.014159 0.000000
# 4 0.000000 0.000000 0.000000 0.045015 0.000000 0.006984
# 5 -0.026913 0.000780 0.014159 0.000000 0.047513 0.000000
# 6 0.000000 0.000000 0.000000 0.006984 0.000000 0.022180
#
#
# Mechanical properties :
#
#
# Convention : Reuss Voigt Hill
#
# Bulk Modulus (GPa) = 18.21989 27.91773 23.06881
# Shear Modulus (GPa) = 17.89686 29.34393 23.62040
#
# Velocity S-wave (km/s) = 2.99780 3.83861 3.44396
# Velocity P-wave (km/s) = 4.59690 5.80218 5.23435
#
# Compressibility (1/GPa) = 0.05488508
#
# Stress axis : x y z
#
# Youngs Moduli (GPa) = 14.90399 67.81380 53.22675
#
# Poissons Ratio (x) = 0.23721 0.92462
# Poissons Ratio (y) = 0.05213 0.10662
# Poissons Ratio (z) = 0.25890 0.13584
#
# Static dielectric constant tensor:
#      x y z
#    x 1.737250 0.000000 0.012270 
#    y 0.000000 1.728670 0.000000 
#    z 0.012270 0.000000 1.691290 
# 
# From -- ./inp_files/47333.got.cif
#   From: 2010.05.17/outbox.ucp.g08.bks.cvg/sg13_24_cif.got.tgz:47333.got - 2010.06.11 12:23:55.
