data_PCOD9238524
_publ_section_title
;
Structure prediction by ZEFSAII (Michael W. Deem and Ramdas Pophale) SiO2 
 PCOD9238524
Probable space group: P 2/C
;
_chemical_formula_sum "Si O2"
_cell_formula_units_Z 26
_cell_length_a 9.485279
_cell_length_b 12.226591
_cell_length_c 10.378755
_cell_angle_alpha 90.000000
_cell_angle_beta 103.178805
_cell_angle_gamma 90.000000
_cell_volume 1171.951283
_symmetry_space_group_name_H-M "P 2/C"
_symmetry_group_IT_number 13
_symmetry_cell_setting 'monoclinic'
loop_
_space_group_symop_operation_xyz
x,y,z
-x,y,1/2-z
-x,-y,-z
x,-y,1/2+z
loop_
_atom_site_type_symbol
_atom_site_label
_atom_site_fract_x
_atom_site_fract_y
_atom_site_fract_z
Si Si1 0.905136 0.994002 0.853533
Si Si2 0.213474 0.214736 0.295641
Si Si3 0.500000 0.718055 0.750000
Si Si4 0.500000 0.301974 0.750000
Si Si5 0.000000 0.413301 0.250000
Si Si6 0.202836 0.787105 0.088407
Si Si7 0.025143 0.583838 0.420898
Si Si8 0.376778 0.594332 0.479472
O O1 0.845045 0.872455 0.818790
O O2 0.000000 0.015749 0.750000
O O3 0.801854 0.098805 0.836654
O O4 0.000000 0.000000 0.000000
O O5 0.382575 0.216638 0.305831
O O6 0.179408 0.182351 0.434166
O O7 0.141956 0.334666 0.273545
O O8 0.416026 0.651691 0.622691
O O9 0.632948 0.252580 0.859917
O O10 0.593449 0.355631 0.654775
O O11 0.995405 0.442577 0.416988
O O12 0.081912 0.693609 0.099625
O O13 0.202317 0.585532 0.451868
O O14 0.000000 0.553453 0.250000
O O15 0.500000 0.500000 0.500000
#
# Coordination Sequence:
#
# PCOD9238524 Si02
#       8
#     4   4   2   2   2   4   4   4
#     4  12  27  48  83 114 152 203 256 330 387 463
#     4  12  25  52  75 111 158 200 260 321 394 472
#     4  12  27  45  78 108 150 210 255 311 404 474
#     4  12  27  49  74 106 164 200 247 341 390 466
#     4  12  22  44  74 110 152 198 258 314 378 462
#     4  12  27  52  73 118 156 201 268 323 398 468
#     4  12  25  43  78 111 154 205 260 318 382 472
#     4  12  26  47  70 112 161 210 256 318 390 468
#
# _framework density 22.185223000000001
#
# number of rings (size 3 to 8) (size 9 to 14) (size 15 to 20)
#    0.000    0.000    5.385    4.154    5.385    0.615 
#    0.000    1.538    0.000    0.000    0.000    0.000 
#    0.000    0.000    0.000    0.000    0.000    0.000 
#
# Total GULP energy -144769.880516 kJ/mol
# GULP energy per Si atom -5568.072328 kJ/mol
# Density = 2.213473 g / cm^3
# Si number density = 22.185223 Si / 1000 Ang^3
#
#
#
# Elastic Constant Matrix: (Units=GPa)
#
#
# Indices 1 2 3 4 5 6 
#
# 1 202.9818 60.8734 45.0298 0.0000 -2.8684 0.0000
# 2 60.8734 92.8892 44.7212 0.0000 -7.8843 0.0000
# 3 45.0298 44.7212 145.6950 0.0000 3.8145 0.0000
# 4 0.0000 0.0000 0.0000 51.4580 0.0000 -2.9443
# 5 -2.8684 -7.8843 3.8145 0.0000 49.3661 0.0000
# 6 0.0000 0.0000 0.0000 -2.9443 0.0000 -21.4888
#
#
#
# Elastic Compliance Matrix: (Units=1/GPa)
#
#
# Indices 1 2 3 4 5 6 
#
# 1 0.006209 -0.003710 -0.000776 0.000000 -0.000172 0.000000
# 2 -0.003710 0.015120 -0.003559 0.000000 0.002474 0.000000
# 3 -0.000776 -0.003559 0.008229 0.000000 -0.001249 0.000000
# 4 0.000000 0.000000 0.000000 0.019282 0.000000 -0.002642
# 5 -0.000172 0.002474 -0.001249 0.000000 0.020739 0.000000
# 6 0.000000 0.000000 0.000000 -0.002642 0.000000 -0.046174
#
#
# Mechanical properties :
#
#
# Convention : Reuss Voigt Hill
#
# Bulk Modulus (GPa) = 74.25086 82.53499 78.39292
# Shear Modulus (GPa) = 113.67773 35.26317 74.47045
#
# Velocity S-wave (km/s) = 7.16600 3.99117 5.80004
# Velocity P-wave (km/s) = 10.10000 7.65001 8.95915
#
# Compressibility (1/GPa) = 0.01346786
#
# Stress axis : x y z
#
# Youngs Moduli (GPa) = 161.06170 66.13562 121.52653
#
# Poissons Ratio (x) = 0.24536 0.09426
# Poissons Ratio (y) = 0.59753 0.43256
# Poissons Ratio (z) = 0.12493 0.23540
#
# Static dielectric constant tensor:
#      x y z
#    x 1.661740 0.000000 -0.085340 
#    y 0.000000 2.023740 0.000000 
#    z -0.085340 0.000000 1.872870 
# 
# From -- ./inp_files/13171.got.cif
#   From: 2010.05.17/outbox.cif.g08.bks.cpg/sg13_7_cif.got.tgz:13171.got - 2010.06.03 16:44:36.
