data_PCOD9238310
_publ_section_title
;
Structure prediction by ZEFSAII (Michael W. Deem and Ramdas Pophale) SiO2 
 PCOD9238310
Probable space group: P 2/C
;
_chemical_formula_sum "Si O2"
_cell_formula_units_Z 12
_cell_length_a 9.997705
_cell_length_b 6.161381
_cell_length_c 10.436594
_cell_angle_alpha 90.000000
_cell_angle_beta 47.389420
_cell_angle_gamma 90.000000
_cell_volume 473.149640
_symmetry_space_group_name_H-M "P 2/C"
_symmetry_group_IT_number 13
_symmetry_cell_setting 'monoclinic'
loop_
_space_group_symop_operation_xyz
x,y,z
-x,y,1/2-z
-x,-y,-z
x,-y,1/2+z
loop_
_atom_site_type_symbol
_atom_site_label
_atom_site_fract_x
_atom_site_fract_y
_atom_site_fract_z
Si Si1 0.107932 0.893467 0.047329
Si Si2 0.336839 0.429163 0.266656
Si Si3 0.585344 0.816118 0.030735
O O1 0.274488 0.058029 0.969833
O O2 0.000000 0.875878 0.250000
O O3 0.169008 0.653768 0.959356
O O4 0.000000 0.000000 0.000000
O O5 0.500000 0.332432 0.250000
O O6 0.313309 0.334787 0.139577
O O7 0.417915 0.668094 0.189323
O O8 0.500000 0.000000 0.000000
#
# Coordination Sequence:
#
# PCOD9238310 Si02
#       3
#     4   4   4
#     4  12  26  50  84 125 174 213 272 367 428 477
#     4  11  25  46  83 115 153 228 287 322 418 520
#     4  11  25  49  81 114 161 223 283 339 407 520
#
# _framework density 25.361954000000001
#
# number of rings (size 3 to 8) (size 9 to 14) (size 15 to 20)
#    0.000    0.667    6.667    0.000    4.667    0.000 
#    0.000    8.333    0.000    0.000    0.000    0.000 
#    0.000    0.000    0.000    0.000    0.000    0.000 
#
# Total GULP energy -66992.421456 kJ/mol
# GULP energy per Si atom -5582.701788 kJ/mol
# Density = 2.530423 g / cm^3
# Si number density = 25.361954 Si / 1000 Ang^3
#
#
#
# Elastic Constant Matrix: (Units=GPa)
#
#
# Indices 1 2 3 4 5 6 
#
# 1 186.4088 78.9120 31.4739 0.0000 20.2873 0.0000
# 2 78.9120 164.5751 130.0879 0.0000 2.4948 0.0000
# 3 31.4739 130.0879 215.2840 0.0000 9.9690 0.0000
# 4 0.0000 0.0000 0.0000 82.8210 0.0000 8.0688
# 5 20.2873 2.4948 9.9690 0.0000 27.3495 0.0000
# 6 0.0000 0.0000 0.0000 8.0688 0.0000 40.5579
#
#
#
# Elastic Compliance Matrix: (Units=1/GPa)
#
#
# Indices 1 2 3 4 5 6 
#
# 1 0.008121 -0.005923 0.002691 0.000000 -0.006465 0.000000
# 2 -0.005923 0.016016 -0.009101 0.000000 0.006250 0.000000
# 3 0.002691 -0.009101 0.009973 0.000000 -0.004802 0.000000
# 4 0.000000 0.000000 0.000000 0.012313 0.000000 -0.002450
# 5 -0.006465 0.006250 -0.004802 0.000000 0.042539 0.000000
# 6 0.000000 0.000000 0.000000 -0.002450 0.000000 0.025143
#
#
# Mechanical properties :
#
#
# Convention : Reuss Voigt Hill
#
# Bulk Modulus (GPa) = 105.88802 116.35729 111.12265
# Shear Modulus (GPa) = 35.23107 51.86529 43.54818
#
# Velocity S-wave (km/s) = 3.73115 4.52708 4.14825
# Velocity P-wave (km/s) = 7.77196 8.56179 8.17641
#
# Compressibility (1/GPa) = 0.00944394
#
# Stress axis : x y z
#
# Youngs Moduli (GPa) = 123.13334 62.43893 100.26743
#
# Poissons Ratio (x) = 0.36985 -0.26986
# Poissons Ratio (y) = 0.72937 0.91254
# Poissons Ratio (z) = -0.33140 0.56826
#
# Static dielectric constant tensor:
#      x y z
#    x 2.025120 0.000000 0.122950 
#    y 0.000000 2.103210 0.000000 
#    z 0.122950 0.000000 2.379490 
# 
# From -- ./inp_files/30910.got.cif
#   From: 2010.05.17/outbox.cif.g08.bks.cpg/sg13_16_cif.got.tgz:30910.got - 2010.06.03 16:44:36.
