data_PCOD9238454
_publ_section_title
;
Structure prediction by ZEFSAII (Michael W. Deem and Ramdas Pophale) SiO2 
 PCOD9238454
Probable space group: P 2/C
;
_chemical_formula_sum "Si O2"
_cell_formula_units_Z 14
_cell_length_a 8.941073
_cell_length_b 5.026570
_cell_length_c 13.283866
_cell_angle_alpha 90.000000
_cell_angle_beta 72.095970
_cell_angle_gamma 90.000000
_cell_volume 568.104034
_symmetry_space_group_name_H-M "P 2/C"
_symmetry_group_IT_number 13
_symmetry_cell_setting 'monoclinic'
loop_
_space_group_symop_operation_xyz
x,y,z
-x,y,1/2-z
-x,-y,-z
x,-y,1/2+z
loop_
_atom_site_type_symbol
_atom_site_label
_atom_site_fract_x
_atom_site_fract_y
_atom_site_fract_z
Si Si1 0.487598 0.252550 0.428268
Si Si2 0.000000 0.006624 0.750000
Si Si3 0.967870 0.250918 0.576419
Si Si4 0.741793 0.647774 0.699160
O O1 0.500000 0.500000 0.500000
O O2 0.332304 0.247127 0.390134
O O3 0.619599 0.307071 0.315154
O O4 0.500000 0.000000 0.500000
O O5 0.888687 0.817959 0.708546
O O6 0.077397 0.198054 0.650713
O O7 0.801772 0.346969 0.661932
O O8 0.000000 0.500000 0.500000
O O9 0.000000 0.000000 0.500000
#
# Coordination Sequence:
#
# PCOD9238454 Si02
#       4
#     4   2   4   4
#     4  11  30  52  83 111 164 219 273 340 416 497
#     4  12  28  50  80 118 168 198 284 348 406 500
#     4  12  28  47  77 117 159 210 262 338 421 485
#     4  11  29  52  79 124 158 213 284 335 416 505
#
# _framework density 24.643374000000001
#
# number of rings (size 3 to 8) (size 9 to 14) (size 15 to 20)
#    0.000    0.571    2.857    0.857   16.000    2.286 
#    0.000    0.000    0.000    0.000    0.000    0.000 
#    0.000    0.000    0.000    0.000    0.000    0.000 
#
# Total GULP energy -78166.873530 kJ/mol
# GULP energy per Si atom -5583.348109 kJ/mol
# Density = 2.458728 g / cm^3
# Si number density = 24.643374 Si / 1000 Ang^3
#
#
#
# Elastic Constant Matrix: (Units=GPa)
#
#
# Indices 1 2 3 4 5 6 
#
# 1 129.3820 61.2139 82.7228 0.0000 30.5519 0.0000
# 2 61.2139 238.1202 118.9918 0.0000 24.5451 0.0000
# 3 82.7228 118.9918 256.0540 0.0000 41.2009 0.0000
# 4 0.0000 0.0000 0.0000 69.3718 0.0000 3.8386
# 5 30.5519 24.5451 41.2009 0.0000 58.6954 0.0000
# 6 0.0000 0.0000 0.0000 3.8386 0.0000 30.3070
#
#
#
# Elastic Compliance Matrix: (Units=1/GPa)
#
#
# Indices 1 2 3 4 5 6 
#
# 1 0.010578 -0.001218 -0.002308 0.000000 -0.003377 0.000000
# 2 -0.001218 0.005627 -0.002192 0.000000 -0.000180 0.000000
# 3 -0.002308 -0.002192 0.006008 0.000000 -0.002099 0.000000
# 4 0.000000 0.000000 0.000000 0.014517 0.000000 -0.001839
# 5 -0.003377 -0.000180 -0.002099 0.000000 0.020343 0.000000
# 6 0.000000 0.000000 0.000000 -0.001839 0.000000 0.033229
#
#
# Mechanical properties :
#
#
# Convention : Reuss Voigt Hill
#
# Bulk Modulus (GPa) = 92.80011 127.71257 110.25634
# Shear Modulus (GPa) = 47.46957 55.71667 51.59312
#
# Velocity S-wave (km/s) = 4.39368 4.76007 4.58054
# Velocity P-wave (km/s) = 7.96732 9.06354 8.53306
#
# Compressibility (1/GPa) = 0.01077585
#
# Stress axis : x y z
#
# Youngs Moduli (GPa) = 94.53178 177.72153 166.45324
#
# Poissons Ratio (x) = 0.21644 0.38422
# Poissons Ratio (y) = 0.11513 0.36493
# Poissons Ratio (z) = 0.21820 0.38964
#
# Static dielectric constant tensor:
#      x y z
#    x 2.074770 0.000000 -0.097390 
#    y 0.000000 2.121370 0.000000 
#    z -0.097390 0.000000 2.145950 
# 
# From -- ./inp_files/27125.got.cif
#   From: 2010.05.17/outbox.cif.g08.bks.cpg/sg13_14_cif.got.tgz:27125.got - 2010.06.03 16:44:36.
