data_PCOD9238690
_publ_section_title
;
Structure prediction by ZEFSAII (Michael W. Deem and Ramdas Pophale) SiO2 
 PCOD9238690
Probable space group: P 2/C
;
_chemical_formula_sum "Si O2"
_cell_formula_units_Z 20
_cell_length_a 8.160592
_cell_length_b 7.682981
_cell_length_c 20.117273
_cell_angle_alpha 90.000000
_cell_angle_beta 35.293278
_cell_angle_gamma 90.000000
_cell_volume 728.734635
_symmetry_space_group_name_H-M "P 2/C"
_symmetry_group_IT_number 13
_symmetry_cell_setting 'monoclinic'
loop_
_space_group_symop_operation_xyz
x,y,z
-x,y,1/2-z
-x,-y,-z
x,-y,1/2+z
loop_
_atom_site_type_symbol
_atom_site_label
_atom_site_fract_x
_atom_site_fract_y
_atom_site_fract_z
Si Si1 0.338889 0.492474 0.150234
Si Si2 0.938019 0.393305 0.430356
Si Si3 0.252766 0.738764 0.283650
Si Si4 0.370731 0.196236 0.366331
Si Si5 0.763512 0.984465 0.961752
O O1 0.368244 0.684440 0.173975
O O2 0.409506 0.320586 0.169073
O O3 0.000000 0.483179 0.250000
O O4 0.643171 0.505565 0.012251
O O5 0.154503 0.547360 0.340753
O O6 0.084686 0.312987 0.449147
O O7 0.884452 0.208680 0.412862
O O8 0.500000 0.796721 0.250000
O O9 0.003345 0.875805 0.363057
O O10 0.500000 0.162881 0.250000
O O11 0.308583 0.038822 0.437575
O O12 0.500000 0.000000 0.000000
#
# Coordination Sequence:
#
# PCOD9238690 Si02
#       5
#     4   4   4   4   4
#     4  12  25  44  77 116 159 214 274 345 407 476
#     4  12  25  51  80 115 165 219 275 335 415 494
#     4  12  25  51  84 116 162 220 277 333 411 500
#     4  12  25  50  79 116 157 219 280 332 409 504
#     4  12  30  49  82 123 167 213 273 350 417 486
#
# _framework density 27.444835000000001
#
# number of rings (size 3 to 8) (size 9 to 14) (size 15 to 20)
#    0.000    0.000    6.000    3.600    2.800    4.800 
#    0.000    4.000    0.000    0.000    0.000    0.000 
#    0.000    0.000    0.000    0.000    0.000    0.000 
#
# Total GULP energy -111729.160739 kJ/mol
# GULP energy per Si atom -5586.458037 kJ/mol
# Density = 2.738237 g / cm^3
# Si number density = 27.444835 Si / 1000 Ang^3
#
#
#
# Elastic Constant Matrix: (Units=GPa)
#
#
# Indices 1 2 3 4 5 6 
#
# 1 132.3460 8.9585 10.1225 0.0000 -68.3220 0.0000
# 2 8.9585 164.9176 21.5385 0.0000 -18.5574 0.0000
# 3 10.1225 21.5385 65.8869 0.0000 -36.1894 0.0000
# 4 0.0000 0.0000 0.0000 41.5373 0.0000 -26.9633
# 5 -68.3220 -18.5574 -36.1894 0.0000 68.4574 0.0000
# 6 0.0000 0.0000 0.0000 -26.9633 0.0000 24.6112
#
#
#
# Elastic Compliance Matrix: (Units=1/GPa)
#
#
# Indices 1 2 3 4 5 6 
#
# 1 0.020142 0.000390 0.011101 0.000000 0.026076 0.000000
# 2 0.000390 0.006379 -0.001383 0.000000 0.001388 0.000000
# 3 0.011101 -0.001383 0.027907 0.000000 0.025456 0.000000
# 4 0.000000 0.000000 0.000000 0.083353 0.000000 0.091320
# 5 0.026076 0.001388 0.025456 0.000000 0.054466 0.000000
# 6 0.000000 0.000000 0.000000 0.091320 0.000000 0.140679
#
#
# Mechanical properties :
#
#
# Convention : Reuss Voigt Hill
#
# Bulk Modulus (GPa) = 13.39698 49.37662 31.38680
# Shear Modulus (GPa) = 14.81080 48.42325 31.61703
#
# Velocity S-wave (km/s) = 2.32557 4.20502 3.39783
# Velocity P-wave (km/s) = 3.47895 6.45031 5.18216
#
# Compressibility (1/GPa) = 0.07464367
#
# Stress axis : x y z
#
# Youngs Moduli (GPa) = 49.64724 156.75908 35.83391
#
# Poissons Ratio (x) = -0.06119 -0.39778
# Poissons Ratio (y) = -0.01938 0.04956
# Poissons Ratio (z) = -0.55112 0.21682
#
# Static dielectric constant tensor:
#      x y z
#    x 2.389730 0.000000 0.284500 
#    y 0.000000 2.029140 0.000000 
#    z 0.284500 0.000000 2.565970 
# 
# From -- ./inp_files/84939.got.cif
#   From: 2010.05.17/outbox.cif.g08.bks.cpg/sg13_43_cif.got.tgz:84939.got - 2010.06.03 16:44:36.
