data_PCOD9238318
_publ_section_title
;
Structure prediction by ZEFSAII (Michael W. Deem and Ramdas Pophale) SiO2 
 PCOD9238318
Probable space group: P 2/C
;
_chemical_formula_sum "Si O2"
_cell_formula_units_Z 20
_cell_length_a 13.623307
_cell_length_b 9.990074
_cell_length_c 8.902479
_cell_angle_alpha 90.000000
_cell_angle_beta 146.427734
_cell_angle_gamma 90.000000
_cell_volume 670.005174
_symmetry_space_group_name_H-M "P 2/C"
_symmetry_group_IT_number 13
_symmetry_cell_setting 'monoclinic'
loop_
_space_group_symop_operation_xyz
x,y,z
-x,y,1/2-z
-x,-y,-z
x,-y,1/2+z
loop_
_atom_site_type_symbol
_atom_site_label
_atom_site_fract_x
_atom_site_fract_y
_atom_site_fract_z
Si Si1 0.709324 0.697436 0.676017
Si Si2 0.345556 0.834851 0.319125
Si Si3 0.857896 0.975985 0.186300
Si Si4 0.961972 0.360035 0.030323
Si Si5 0.376438 0.475164 0.195880
O O1 0.543576 0.793120 0.509768
O O2 0.668000 0.595824 0.477589
O O3 0.760480 0.618968 0.895602
O O4 0.898126 0.745324 0.857150
O O5 0.305749 0.912812 0.424392
O O6 0.233131 0.699802 0.209921
O O7 0.243854 0.916129 0.054549
O O8 0.000000 0.909078 0.250000
O O9 0.000000 0.000000 0.500000
O O10 0.000000 0.381673 0.250000
O O11 0.000000 0.500000 0.000000
O O12 0.500000 0.383954 0.250000
O O13 0.500000 0.500000 0.500000
#
# Coordination Sequence:
#
# PCOD9238318 Si02
#       5
#     4   4   4   4   4
#     4  11  25  47  74 116 162 206 262 311 401 488
#     4  11  26  48  84 109 156 216 264 354 400 478
#     4   9  20  50  77 108 151 204 283 337 416 481
#     4  12  29  45  75 124 166 208 257 315 419 514
#     4   9  21  40  68 105 164 199 233 310 381 491
#
# _framework density 29.850517
#
# number of rings (size 3 to 8) (size 9 to 14) (size 15 to 20)
#    0.000    1.600    0.000    3.000   16.800    0.800 
#    3.600    8.000    0.000   16.800    0.000    0.000 
#    0.000    0.000    0.000    0.000    0.000    0.000 
#
# Total GULP energy -111352.848165 kJ/mol
# GULP energy per Si atom -5567.642408 kJ/mol
# Density = 2.978258 g / cm^3
# Si number density = 29.850517 Si / 1000 Ang^3
#
#
#
# Elastic Constant Matrix: (Units=GPa)
#
#
# Indices 1 2 3 4 5 6 
#
# 1 340.7068 96.3232 98.0121 0.0000 -11.9660 0.0000
# 2 96.3232 158.2761 79.8586 0.0000 -1.3053 0.0000
# 3 98.0121 79.8586 141.0953 0.0000 -11.8739 0.0000
# 4 0.0000 0.0000 0.0000 41.7178 0.0000 -8.9854
# 5 -11.9660 -1.3053 -11.8739 0.0000 78.4135 0.0000
# 6 0.0000 0.0000 0.0000 -8.9854 0.0000 72.2464
#
#
#
# Elastic Compliance Matrix: (Units=1/GPa)
#
#
# Indices 1 2 3 4 5 6 
#
# 1 0.003884 -0.001417 -0.001872 0.000000 0.000286 0.000000
# 2 -0.001417 0.009390 -0.004391 0.000000 -0.000725 0.000000
# 3 -0.001872 -0.004391 0.010983 0.000000 0.001304 0.000000
# 4 0.000000 0.000000 0.000000 0.024630 0.000000 0.003063
# 5 0.000286 -0.000725 0.001304 0.000000 0.012982 0.000000
# 6 0.000000 0.000000 0.000000 0.003063 0.000000 0.014223
#
#
# Mechanical properties :
#
#
# Convention : Reuss Voigt Hill
#
# Bulk Modulus (GPa) = 112.40435 132.05178 122.22806
# Shear Modulus (GPa) = 52.95535 62.86783 57.91159
#
# Velocity S-wave (km/s) = 4.21648 4.59419 4.40938
# Velocity P-wave (km/s) = 7.83852 8.51328 8.18286
#
# Compressibility (1/GPa) = 0.00889645
#
# Stress axis : x y z
#
# Youngs Moduli (GPa) = 257.44842 106.49501 91.04761
#
# Poissons Ratio (x) = 0.15089 0.17046
# Poissons Ratio (y) = 0.36477 0.39983
# Poissons Ratio (z) = 0.48200 0.46767
#
# Static dielectric constant tensor:
#      x y z
#    x 2.705440 0.000000 0.497900 
#    y 0.000000 3.099530 0.000000 
#    z 0.497900 0.000000 2.817240 
# 
# From -- ./inp_files/18647.got.cif
#   From: 2010.05.17/outbox.cif.g08.bks.cpg/sg13_10_cif.got.tgz:18647.got - 2010.06.03 16:44:36.
