data_PCOD9238575
_publ_section_title
;
Structure prediction by ZEFSAII (Michael W. Deem and Ramdas Pophale) SiO2 
 PCOD9238575
Probable space group: P 2/C
;
_chemical_formula_sum "Si O2"
_cell_formula_units_Z 22
_cell_length_a 12.320985
_cell_length_b 8.976690
_cell_length_c 8.355763
_cell_angle_alpha 90.000000
_cell_angle_beta 100.098191
_cell_angle_gamma 90.000000
_cell_volume 909.844838
_symmetry_space_group_name_H-M "P 2/C"
_symmetry_group_IT_number 13
_symmetry_cell_setting 'monoclinic'
loop_
_space_group_symop_operation_xyz
x,y,z
-x,y,1/2-z
-x,-y,-z
x,-y,1/2+z
loop_
_atom_site_type_symbol
_atom_site_label
_atom_site_fract_x
_atom_site_fract_y
_atom_site_fract_z
Si Si1 0.000000 0.672415 0.750000
Si Si2 0.682038 0.316562 0.400855
Si Si3 0.774239 0.962516 0.730492
Si Si4 0.209103 0.458361 0.768973
Si Si5 0.442601 0.141483 0.901117
Si Si6 0.120190 0.815353 0.043930
O O1 0.107755 0.571382 0.764173
O O2 0.013165 0.767778 0.915641
O O3 0.729697 0.165254 0.336515
O O4 0.762573 0.380760 0.557710
O O5 0.687553 0.445422 0.269234
O O6 0.572611 0.268733 0.468954
O O7 0.800554 0.881750 0.572059
O O8 0.677883 0.082264 0.680049
O O9 0.878277 0.055601 0.823431
O O10 0.170158 0.331922 0.636311
O O11 0.500000 0.185968 0.750000
O O12 0.500000 0.000000 0.000000
#
# Coordination Sequence:
#
# PCOD9238575 Si02
#       6
#     2   4   4   4   4   4
#     4  12  26  42  74 102 142 196 252 280 342 420
#     4  12  24  46  75 102 144 193 229 293 369 415
#     4  12  23  45  73 105 140 190 231 303 365 405
#     4  12  25  46  72 100 148 197 236 285 354 430
#     4  12  24  44  77 106 138 176 238 293 362 431
#     4  12  24  44  70 103 146 188 240 290 354 413
#
# _framework density 24.179946999999999
#
# number of rings (size 3 to 8) (size 9 to 14) (size 15 to 20)
#    0.000    0.000    9.091    0.545    0.000    0.727 
#    0.000    2.727    0.000    0.000    0.000    0.000 
#    0.000    0.000    0.000    0.000    0.000    0.000 
#
# Total GULP energy -123191.054756 kJ/mol
# GULP energy per Si atom -5599.593398 kJ/mol
# Density = 2.412491 g / cm^3
# Si number density = 24.179947 Si / 1000 Ang^3
#
#
#
# Elastic Constant Matrix: (Units=GPa)
#
#
# Indices 1 2 3 4 5 6 
#
# 1 48.5987 3.4404 1.7230 0.0000 -15.7911 0.0000
# 2 3.4404 79.0234 15.2882 0.0000 0.7572 0.0000
# 3 1.7230 15.2882 78.6242 0.0000 -3.3422 0.0000
# 4 0.0000 0.0000 0.0000 40.0616 0.0000 1.2878
# 5 -15.7911 0.7572 -3.3422 0.0000 40.4362 0.0000
# 6 0.0000 0.0000 0.0000 1.2878 0.0000 46.4281
#
#
#
# Elastic Compliance Matrix: (Units=1/GPa)
#
#
# Indices 1 2 3 4 5 6 
#
# 1 0.023666 -0.001138 0.000097 0.000000 0.009271 0.000000
# 2 -0.001138 0.013212 -0.002583 0.000000 -0.000905 0.000000
# 3 0.000097 -0.002583 0.013269 0.000000 0.001183 0.000000
# 4 0.000000 0.000000 0.000000 0.024984 0.000000 -0.000693
# 5 0.009271 -0.000905 0.001183 0.000000 0.028466 0.000000
# 6 0.000000 0.000000 0.000000 -0.000693 0.000000 0.021558
#
#
# Mechanical properties :
#
#
# Convention : Reuss Voigt Hill
#
# Bulk Modulus (GPa) = 23.30991 27.46105 25.38548
# Shear Modulus (GPa) = 34.08250 37.77150 35.92700
#
# Velocity S-wave (km/s) = 3.75845 3.95663 3.85881
# Velocity P-wave (km/s) = 5.33814 5.67933 5.51138
#
# Compressibility (1/GPa) = 0.04290020
#
# Stress axis : x y z
#
# Youngs Moduli (GPa) = 42.25404 75.68679 75.36322
#
# Poissons Ratio (x) = 0.08612 -0.00729
# Poissons Ratio (y) = 0.04808 0.19464
# Poissons Ratio (z) = -0.00409 0.19547
#
# Static dielectric constant tensor:
#      x y z
#    x 1.955580 0.000000 0.007860 
#    y 0.000000 1.918450 0.000000 
#    z 0.007860 0.000000 1.935700 
# 
# From -- ./inp_files/18160.got.cif
#   From: 2010.05.17/outbox.cif.g08.bks.cpg/sg13_10_cif.got.tgz:18160.got - 2010.06.03 16:44:36.
