data_PCOD9238788
_publ_section_title
;
Structure prediction by ZEFSAII (Michael W. Deem and Ramdas Pophale) SiO2 
 PCOD9238788
Probable space group: P 2/C
;
_chemical_formula_sum "Si O2"
_cell_formula_units_Z 16
_cell_length_a 8.732877
_cell_length_b 8.422608
_cell_length_c 16.967420
_cell_angle_alpha 90.000000
_cell_angle_beta 148.533778
_cell_angle_gamma 90.000000
_cell_volume 651.458507
_symmetry_space_group_name_H-M "P 2/C"
_symmetry_group_IT_number 13
_symmetry_cell_setting 'monoclinic'
loop_
_space_group_symop_operation_xyz
x,y,z
-x,y,1/2-z
-x,-y,-z
x,-y,1/2+z
loop_
_atom_site_type_symbol
_atom_site_label
_atom_site_fract_x
_atom_site_fract_y
_atom_site_fract_z
Si Si1 0.609042 0.856342 0.216841
Si Si2 0.738126 0.171862 0.197704
Si Si3 0.864460 0.683468 0.106259
Si Si4 0.923593 0.380074 0.039538
O O1 0.500000 0.930449 0.250000
O O2 0.937374 0.787685 0.366385
O O3 0.614279 0.994619 0.155518
O O4 0.386466 0.709783 0.106141
O O5 0.000000 0.167392 0.250000
O O6 0.849750 0.246283 0.330099
O O7 0.472173 0.275456 0.049109
O O8 0.907342 0.500870 0.105011
O O9 0.000000 0.719563 0.250000
O O10 0.000000 0.500000 0.000000
#
# Coordination Sequence:
#
# PCOD9238788 Si02
#       4
#     4   4   4   4
#     4  12  27  49  79 117 156 204 260 321 389 464
#     4  12  29  51  80 115 161 208 260 322 388 463
#     4  12  27  49  80 113 156 207 262 322 387 462
#     4  12  27  50  79 118 156 204 261 325 391 463
#
# _framework density 24.560272000000001
#
# number of rings (size 3 to 8) (size 9 to 14) (size 15 to 20)
#    0.000    0.000    2.500    6.000    3.500    8.000 
#    0.000    2.500    0.000    0.000    0.000    0.000 
#    0.000    0.000    0.000    0.000    0.000    0.000 
#
# Total GULP energy -89654.083208 kJ/mol
# GULP energy per Si atom -5603.380201 kJ/mol
# Density = 2.450437 g / cm^3
# Si number density = 24.560272 Si / 1000 Ang^3
#
#
#
# Elastic Constant Matrix: (Units=GPa)
#
#
# Indices 1 2 3 4 5 6 
#
# 1 129.2625 39.5196 48.5345 0.0000 14.4617 0.0000
# 2 39.5196 103.2106 4.5285 0.0000 6.6889 0.0000
# 3 48.5345 4.5285 112.3242 0.0000 15.0130 0.0000
# 4 0.0000 0.0000 0.0000 20.5212 0.0000 33.5122
# 5 14.4617 6.6889 15.0130 0.0000 35.4495 0.0000
# 6 0.0000 0.0000 0.0000 33.5122 0.0000 14.9020
#
#
#
# Elastic Compliance Matrix: (Units=1/GPa)
#
#
# Indices 1 2 3 4 5 6 
#
# 1 0.010684 -0.003786 -0.004216 0.000000 -0.001859 0.000000
# 2 -0.003786 0.011153 0.001337 0.000000 -0.001126 0.000000
# 3 -0.004216 0.001337 0.011103 0.000000 -0.003235 0.000000
# 4 0.000000 0.000000 0.000000 -0.018234 0.000000 0.041006
# 5 -0.001859 -0.001126 -0.003235 0.000000 0.030550 0.000000
# 6 0.000000 0.000000 0.000000 0.041006 0.000000 -0.025110
#
#
# Mechanical properties :
#
#
# Convention : Reuss Voigt Hill
#
# Bulk Modulus (GPa) = 50.99228 58.88471 54.93850
# Shear Modulus (GPa) = 124.96295 30.98886 77.97591
#
# Velocity S-wave (km/s) = 7.14077 3.55596 5.64072
# Velocity P-wave (km/s) = 9.42309 6.39433 8.05239
#
# Compressibility (1/GPa) = 0.01961081
#
# Stress axis : x y z
#
# Youngs Moduli (GPa) = 93.59441 89.66360 90.06786
#
# Poissons Ratio (x) = 0.33943 0.37969
# Poissons Ratio (y) = 0.35431 -0.12039
# Poissons Ratio (z) = 0.39455 -0.11985
#
# Static dielectric constant tensor:
#      x y z
#    x 2.030160 0.000000 -0.050330 
#    y 0.000000 1.909740 0.000000 
#    z -0.050330 0.000000 1.904490 
# 
# From -- ./inp_files/63613.got.cif
#   From: 2010.05.17/outbox.cif.g08.bks.cpg/sg13_32_cif.got.tgz:63613.got - 2010.06.03 16:44:36.
