data_PCOD9238367
_publ_section_title
;
Structure prediction by ZEFSAII (Michael W. Deem and Ramdas Pophale) SiO2 
 PCOD9238367
Probable space group: P 2/C
;
_chemical_formula_sum "Si O2"
_cell_formula_units_Z 14
_cell_length_a 9.678939
_cell_length_b 6.174770
_cell_length_c 15.611738
_cell_angle_alpha 90.000000
_cell_angle_beta 36.164839
_cell_angle_gamma 90.000000
_cell_volume 550.595960
_symmetry_space_group_name_H-M "P 2/C"
_symmetry_group_IT_number 13
_symmetry_cell_setting 'monoclinic'
loop_
_space_group_symop_operation_xyz
x,y,z
-x,y,1/2-z
-x,-y,-z
x,-y,1/2+z
loop_
_atom_site_type_symbol
_atom_site_label
_atom_site_fract_x
_atom_site_fract_y
_atom_site_fract_z
Si Si1 0.165510 0.695840 0.883371
Si Si2 0.399469 0.587739 0.140528
Si Si3 0.241369 0.956110 0.493604
Si Si4 0.000000 0.793485 0.250000
O O1 0.377313 0.594694 0.723421
O O2 0.997763 0.824622 0.902294
O O3 0.000000 0.500000 0.000000
O O4 0.240039 0.868575 0.918202
O O5 0.132959 0.655973 0.254380
O O6 0.500000 0.500000 0.000000
O O7 0.546593 0.787678 0.104968
O O8 0.203648 0.071814 0.602991
#
# Coordination Sequence:
#
# PCOD9238367 Si02
#       4
#     4   4   4   2
#     4  11  25  54  74 112 161 200 268 327 393 477
#     4  12  26  49  83 117 156 210 265 326 400 475
#     4  11  26  49  80 113 155 213 260 327 403 472
#     4  12  24  52  72 114 162 198 264 328 386 480
#
# _framework density 25.426991000000001
#
# number of rings (size 3 to 8) (size 9 to 14) (size 15 to 20)
#    0.000    0.571    2.857    4.286    0.000    1.143 
#   10.286    0.000    0.000    0.000    0.000    0.000 
#    0.000    0.000    0.000    0.000    0.000    0.000 
#
# Total GULP energy -78527.151089 kJ/mol
# GULP energy per Si atom -5609.082221 kJ/mol
# Density = 2.536912 g / cm^3
# Si number density = 25.426991 Si / 1000 Ang^3
#
#
#
# Elastic Constant Matrix: (Units=GPa)
#
#
# Indices 1 2 3 4 5 6 
#
# 1 131.4543 66.2475 27.8508 0.0000 -3.5739 0.0000
# 2 66.2475 144.7135 63.4755 0.0000 6.7036 0.0000
# 3 27.8508 63.4755 126.8158 0.0000 20.4516 0.0000
# 4 0.0000 0.0000 0.0000 71.5169 0.0000 -10.3120
# 5 -3.5739 6.7036 20.4516 0.0000 46.8780 0.0000
# 6 0.0000 0.0000 0.0000 -10.3120 0.0000 71.0810
#
#
#
# Elastic Compliance Matrix: (Units=1/GPa)
#
#
# Indices 1 2 3 4 5 6 
#
# 1 0.009984 -0.004578 -0.000139 0.000000 0.001477 0.000000
# 2 -0.004578 0.010976 -0.004495 0.000000 0.000043 0.000000
# 3 -0.000139 -0.004495 0.010826 0.000000 -0.004091 0.000000
# 4 0.000000 0.000000 0.000000 0.014281 0.000000 0.002072
# 5 0.001477 0.000043 -0.004091 0.000000 0.023223 0.000000
# 6 0.000000 0.000000 0.000000 0.002072 0.000000 0.014369
#
#
# Mechanical properties :
#
#
# Convention : Reuss Voigt Hill
#
# Bulk Modulus (GPa) = 74.84715 79.79235 77.31975
# Shear Modulus (GPa) = 46.93208 54.25582 50.59395
#
# Velocity S-wave (km/s) = 4.30089 4.62431 4.46553
# Velocity P-wave (km/s) = 7.35959 7.74347 7.55397
#
# Compressibility (1/GPa) = 0.01336056
#
# Stress axis : x y z
#
# Youngs Moduli (GPa) = 100.16167 91.11187 92.37214
#
# Poissons Ratio (x) = 0.41708 0.01288
# Poissons Ratio (y) = 0.45851 0.41523
# Poissons Ratio (z) = 0.01397 0.40956
#
# Static dielectric constant tensor:
#      x y z
#    x 2.058750 0.000000 -0.020660 
#    y 0.000000 2.171780 0.000000 
#    z -0.020660 0.000000 2.025520 
# 
# From -- ./inp_files/45090.got.cif
#   From: 2010.05.17/outbox.cif.g08.bks.cpg/sg13_23_cif.got.tgz:45090.got - 2010.06.03 16:44:36.
