data_PCOD9238537
_publ_section_title
;
Structure prediction by ZEFSAII (Michael W. Deem and Ramdas Pophale) SiO2 
 PCOD9238537
Probable space group: P 2/C
;
_chemical_formula_sum "Si O2"
_cell_formula_units_Z 28
_cell_length_a 13.706091
_cell_length_b 18.779329
_cell_length_c 9.904595
_cell_angle_alpha 90.000000
_cell_angle_beta 31.124670
_cell_angle_gamma 90.000000
_cell_volume 1317.766878
_symmetry_space_group_name_H-M "P 2/C"
_symmetry_group_IT_number 13
_symmetry_cell_setting 'monoclinic'
loop_
_space_group_symop_operation_xyz
x,y,z
-x,y,1/2-z
-x,-y,-z
x,-y,1/2+z
loop_
_atom_site_type_symbol
_atom_site_label
_atom_site_fract_x
_atom_site_fract_y
_atom_site_fract_z
Si Si1 0.273479 0.357519 0.877154
Si Si2 0.730422 0.800604 0.135844
Si Si3 0.269732 0.931163 0.178792
Si Si4 0.134726 0.491922 0.464927
Si Si5 0.731416 0.064495 0.133194
Si Si6 0.721199 0.352489 0.325189
Si Si7 0.730496 0.804933 0.820756
O O1 0.206138 0.280230 0.905071
O O2 0.242359 0.433280 0.845517
O O3 0.497907 0.347606 0.611080
O O4 0.198802 0.366309 0.118978
O O5 0.790781 0.858677 0.174066
O O6 0.500283 0.805127 0.407201
O O7 0.785288 0.815216 0.913957
O O8 0.212824 0.996202 0.343602
O O9 0.207913 0.937413 0.095624
O O10 0.500483 0.933486 0.902783
O O11 0.246377 0.418907 0.309927
O O12 0.000000 0.500000 0.500000
O O13 0.000000 0.483245 0.750000
O O14 0.792418 0.133918 0.145222
O O15 0.789421 0.274128 0.203457
#
# Coordination Sequence:
#
# PCOD9238537 Si02
#       7
#     4   4   4   4   4   4   4
#     4   9  18  35  56  76 101 137 178 215 259 315
#     4   8  14  26  44  63  87 123 165 206 247 296
#     4   9  15  22  34  57  91 127 161 198 244 294
#     4  12  23  38  55  78 108 136 170 216 265 317
#     4   9  15  22  34  57  91 127 161 198 244 295
#     4   9  18  35  56  76 101 137 178 215 259 314
#     4   8  14  26  44  63  87 123 165 206 247 295
#
# _framework density 21.248069000000001
#
# number of rings (size 3 to 8) (size 9 to 14) (size 15 to 20)
#    0.000    2.857    1.429    3.000    0.000    3.429 
#    2.571    0.000    0.000    0.000    0.000    0.000 
#    0.000    2.286    0.000    0.143    0.000    0.571 
#
# Total GULP energy -156186.969555 kJ/mol
# GULP energy per Si atom -5578.106056 kJ/mol
# Density = 2.119971 g / cm^3
# Si number density = 21.248069 Si / 1000 Ang^3
#
#
#
# Elastic Constant Matrix: (Units=GPa)
#
#
# Indices 1 2 3 4 5 6 
#
# 1 68.9600 68.2167 38.7553 0.0000 35.5342 0.0000
# 2 68.2167 234.7760 70.8759 0.0000 49.7162 0.0000
# 3 38.7553 70.8759 80.0431 0.0000 23.2722 0.0000
# 4 0.0000 0.0000 0.0000 15.9632 0.0000 18.3652
# 5 35.5342 49.7162 23.2722 0.0000 38.4588 0.0000
# 6 0.0000 0.0000 0.0000 18.3652 0.0000 22.8217
#
#
#
# Elastic Compliance Matrix: (Units=1/GPa)
#
#
# Indices 1 2 3 4 5 6 
#
# 1 0.032587 -0.002605 -0.006913 0.000000 -0.022559 0.000000
# 2 -0.002605 0.007091 -0.003704 0.000000 -0.004519 0.000000
# 3 -0.006913 -0.003704 0.019259 0.000000 -0.000479 0.000000
# 4 0.000000 0.000000 0.000000 0.844360 0.000000 -0.679476
# 5 -0.022559 -0.004519 -0.000479 0.000000 0.052977 0.000000
# 6 0.000000 0.000000 0.000000 -0.679476 0.000000 0.590608
#
#
# Mechanical properties :
#
#
# Convention : Reuss Voigt Hill
#
# Bulk Modulus (GPa) = 30.77435 82.16387 56.46911
# Shear Modulus (GPa) = 3.15625 29.17748 16.16687
#
# Velocity S-wave (km/s) = 1.22010 3.70967 2.76137
# Velocity P-wave (km/s) = 4.06198 7.55656 6.06636
#
# Compressibility (1/GPa) = 0.03249460
#
# Stress axis : x y z
#
# Youngs Moduli (GPa) = 30.68727 141.01593 51.92245
#
# Poissons Ratio (x) = 0.36728 0.35893
# Poissons Ratio (y) = 0.07993 0.19233
# Poissons Ratio (z) = 0.21213 0.52236
#
# Static dielectric constant tensor:
#      x y z
#    x 1.810690 0.000000 -0.033070 
#    y 0.000000 1.847650 0.000000 
#    z -0.033070 0.000000 1.762070 
# 
# From -- ./inp_files/20067.got.cif
#   From: 2010.05.17/outbox.cif.g08.bks.cpg/sg13_11_cif.got.tgz:20067.got - 2010.06.03 16:44:36.
