data_PCOD9238350
_publ_section_title
;
Structure prediction by ZEFSAII (Michael W. Deem and Ramdas Pophale) SiO2 
 PCOD9238350
Probable space group: P 2/C
;
_chemical_formula_sum "Si O2"
_cell_formula_units_Z 20
_cell_length_a 21.221894
_cell_length_b 4.731388
_cell_length_c 13.015287
_cell_angle_alpha 90.000000
_cell_angle_beta 142.070058
_cell_angle_gamma 90.000000
_cell_volume 803.318720
_symmetry_space_group_name_H-M "P 2/C"
_symmetry_group_IT_number 13
_symmetry_cell_setting 'monoclinic'
loop_
_space_group_symop_operation_xyz
x,y,z
-x,y,1/2-z
-x,-y,-z
x,-y,1/2+z
loop_
_atom_site_type_symbol
_atom_site_label
_atom_site_fract_x
_atom_site_fract_y
_atom_site_fract_z
Si Si1 0.775795 0.469398 0.064609
Si Si2 0.881104 0.020083 0.595971
Si Si3 0.381651 0.287988 0.371877
Si Si4 0.244372 0.793263 0.249725
Si Si5 0.431842 0.857254 0.257691
O O1 0.812686 0.704905 0.029968
O O2 0.783772 0.635534 0.182113
O O3 0.853383 0.209221 0.147748
O O4 0.663653 0.330133 0.903860
O O5 0.000000 0.092509 0.750000
O O6 0.846479 0.880006 0.443788
O O7 0.310308 0.076463 0.348051
O O8 0.398120 0.115934 0.287382
O O9 0.321558 0.579521 0.291901
O O10 0.512539 0.682533 0.430361
O O11 0.500000 0.964286 0.250000
#
# Coordination Sequence:
#
# PCOD9238350 Si02
#       5
#     4   4   4   4   4
#     4  12  27  51  79 115 157 206 259 321 391 471
#     4  12  29  52  81 112 153 206 267 338 391 448
#     4  11  26  46  76 113 160 209 250 315 378 468
#     4  12  26  50  78 115 158 205 262 321 388 467
#     4  11  25  49  76 114 160 206 253 300 389 467
#
# _framework density 24.896720999999999
#
# number of rings (size 3 to 8) (size 9 to 14) (size 15 to 20)
#    0.000    0.400    4.000    3.000    0.000    6.400 
#    0.000    0.000    0.000    0.000    0.000    0.000 
#    0.000    0.000    0.000    0.000    0.000    0.000 
#
# Total GULP energy -112189.451634 kJ/mol
# GULP energy per Si atom -5609.472582 kJ/mol
# Density = 2.484005 g / cm^3
# Si number density = 24.896721 Si / 1000 Ang^3
#
#
#
# Elastic Constant Matrix: (Units=GPa)
#
#
# Indices 1 2 3 4 5 6 
#
# 1 107.5385 21.9209 64.7809 0.0000 -6.9132 0.0000
# 2 21.9209 133.1690 37.4827 0.0000 1.3292 0.0000
# 3 64.7809 37.4827 172.3521 0.0000 13.7727 0.0000
# 4 0.0000 0.0000 0.0000 30.1105 0.0000 -5.5516
# 5 -6.9132 1.3292 13.7727 0.0000 39.4590 0.0000
# 6 0.0000 0.0000 0.0000 -5.5516 0.0000 44.9694
#
#
#
# Elastic Compliance Matrix: (Units=1/GPa)
#
#
# Indices 1 2 3 4 5 6 
#
# 1 0.012666 -0.000741 -0.004916 0.000000 0.003960 0.000000
# 2 -0.000741 0.008047 -0.001481 0.000000 0.000116 0.000000
# 3 -0.004916 -0.001481 0.008267 0.000000 -0.003697 0.000000
# 4 0.000000 0.000000 0.000000 0.033985 0.000000 0.004195
# 5 0.003960 0.000116 -0.003697 0.000000 0.027323 0.000000
# 6 0.000000 0.000000 0.000000 0.004195 0.000000 0.022755
#
#
# Mechanical properties :
#
#
# Convention : Reuss Voigt Hill
#
# Bulk Modulus (GPa) = 68.00476 73.49204 70.74840
# Shear Modulus (GPa) = 37.81582 42.16612 39.99097
#
# Velocity S-wave (km/s) = 3.90154 4.11985 4.01218
# Velocity P-wave (km/s) = 6.90435 7.22591 7.06696
#
# Compressibility (1/GPa) = 0.01470485
#
# Stress axis : x y z
#
# Youngs Moduli (GPa) = 78.95183 124.27227 120.95842
#
# Poissons Ratio (x) = 0.09206 0.59463
# Poissons Ratio (y) = 0.05848 0.17912
# Poissons Ratio (z) = 0.38813 0.18403
#
# Static dielectric constant tensor:
#      x y z
#    x 2.054660 0.000000 -0.071560 
#    y 0.000000 1.945840 0.000000 
#    z -0.071560 0.000000 1.951000 
# 
# From -- ./inp_files/48652.got.cif
#   From: 2010.05.17/outbox.cif.g08.bks.cpg/sg13_25_cif.got.tgz:48652.got - 2010.06.03 16:44:36.
