data_PCOD9238518
_publ_section_title
;
Structure prediction by ZEFSAII (Michael W. Deem and Ramdas Pophale) SiO2 
 PCOD9238518
Probable space group: P 2/C
;
_chemical_formula_sum "Si O2"
_cell_formula_units_Z 18
_cell_length_a 19.211001
_cell_length_b 5.656601
_cell_length_c 9.914475
_cell_angle_alpha 90.000000
_cell_angle_beta 133.294036
_cell_angle_gamma 90.000000
_cell_volume 784.176193
_symmetry_space_group_name_H-M "P 2/C"
_symmetry_group_IT_number 13
_symmetry_cell_setting 'monoclinic'
loop_
_space_group_symop_operation_xyz
x,y,z
-x,y,1/2-z
-x,-y,-z
x,-y,1/2+z
loop_
_atom_site_type_symbol
_atom_site_label
_atom_site_fract_x
_atom_site_fract_y
_atom_site_fract_z
Si Si1 0.819798 0.123274 0.141170
Si Si2 0.898752 0.440445 0.432337
Si Si3 0.471763 0.253890 0.047018
Si Si4 0.000000 0.071223 0.750000
Si Si5 0.251578 0.801257 0.215456
O O1 0.823525 0.379142 0.214623
O O2 0.930673 0.072771 0.254162
O O3 0.788997 0.955569 0.219867
O O4 0.746412 0.070622 0.925411
O O5 0.837904 0.627326 0.434821
O O6 0.000000 0.500000 0.500000
O O7 0.927524 0.230509 0.569289
O O8 0.500000 0.247985 0.250000
O O9 0.500000 0.500000 0.000000
O O10 0.356840 0.275409 0.891356
O O11 0.500000 0.000000 0.000000
#
# Coordination Sequence:
#
# PCOD9238518 Si02
#       5
#     4   4   4   2   4
#     4  12  25  44  69 103 149 196 250 306 375 464
#     4  12  24  41  66 102 148 192 247 297 373 458
#     4  12  30  55  88 122 165 211 279 353 425 494
#     4  12  22  44  62 106 154 204 244 312 370 462
#     4  12  28  45  78 105 150 199 257 317 399 466
#
# _framework density 22.954022999999999
#
# number of rings (size 3 to 8) (size 9 to 14) (size 15 to 20)
#    0.000    0.000    4.444    5.333    6.222    0.000 
#    0.000    0.000    0.000    0.000    0.000    0.000 
#    0.000    0.000    0.000    0.000    0.000    0.000 
#
# Total GULP energy -100210.688127 kJ/mol
# GULP energy per Si atom -5567.260452 kJ/mol
# Density = 2.290178 g / cm^3
# Si number density = 22.954023 Si / 1000 Ang^3
#
#
#
# Elastic Constant Matrix: (Units=GPa)
#
#
# Indices 1 2 3 4 5 6 
#
# 1 93.5115 32.1086 51.3451 0.0000 17.5873 0.0000
# 2 32.1086 74.4497 40.9311 0.0000 -4.6876 0.0000
# 3 51.3451 40.9311 174.7912 0.0000 -7.1262 0.0000
# 4 0.0000 0.0000 0.0000 -3.7557 0.0000 -27.3448
# 5 17.5873 -4.6876 -7.1262 0.0000 49.7579 0.0000
# 6 0.0000 0.0000 0.0000 -27.3448 0.0000 6.4861
#
#
#
# Elastic Compliance Matrix: (Units=1/GPa)
#
#
# Indices 1 2 3 4 5 6 
#
# 1 0.015725 -0.005175 -0.003675 0.000000 -0.006572 0.000000
# 2 -0.005175 0.017164 -0.002372 0.000000 0.003106 0.000000
# 3 -0.003675 -0.002372 0.007444 0.000000 0.002142 0.000000
# 4 0.000000 0.000000 0.000000 -0.008401 0.000000 -0.035416
# 5 -0.006572 0.003106 0.002142 0.000000 0.023020 0.000000
# 6 0.000000 0.000000 0.000000 -0.035416 0.000000 0.004864
#
#
# Mechanical properties :
#
#
# Convention : Reuss Voigt Hill
#
# Bulk Modulus (GPa) = 55.90754 65.72468 60.81611
# Shear Modulus (GPa) = 56.67457 25.05550 40.86503
#
# Velocity S-wave (km/s) = 4.97434 3.30745 4.22394
# Velocity P-wave (km/s) = 7.57636 6.57883 7.09515
#
# Compressibility (1/GPa) = 0.01788668
#
# Stress axis : x y z
#
# Youngs Moduli (GPa) = 63.59372 58.26265 134.34352
#
# Poissons Ratio (x) = 0.30151 0.49375
# Poissons Ratio (y) = 0.32910 0.31872
# Poissons Ratio (z) = 0.23373 0.13822
#
# Static dielectric constant tensor:
#      x y z
#    x 1.967500 0.000000 -0.213290 
#    y 0.000000 1.983960 0.000000 
#    z -0.213290 0.000000 2.687270 
# 
# From -- ./inp_files/22333.got.cif
#   From: 2010.05.17/outbox.cif.g08.bks.cpg/sg13_12_cif.got.tgz:22333.got - 2010.06.03 16:44:36.
