data_PCOD9238121
_publ_section_title
;
Structure prediction by ZEFSAII (Michael W. Deem and Ramdas Pophale) SiO2 
 PCOD9238121
Probable space group: P 2/C
;
_chemical_formula_sum "Si O2"
_cell_formula_units_Z 26
_cell_length_a 11.007428
_cell_length_b 6.658739
_cell_length_c 18.772781
_cell_angle_alpha 90.000000
_cell_angle_beta 67.146356
_cell_angle_gamma 90.000000
_cell_volume 1267.948944
_symmetry_space_group_name_H-M "P 2/C"
_symmetry_group_IT_number 13
_symmetry_cell_setting 'monoclinic'
loop_
_space_group_symop_operation_xyz
x,y,z
-x,y,1/2-z
-x,-y,-z
x,-y,1/2+z
loop_
_atom_site_type_symbol
_atom_site_label
_atom_site_fract_x
_atom_site_fract_y
_atom_site_fract_z
Si Si1 0.203412 0.872645 0.092273
Si Si2 0.390289 0.778784 0.177274
Si Si3 0.877912 0.487195 0.473902
Si Si4 0.006561 0.202845 0.329340
Si Si5 0.323480 0.149149 0.949488
Si Si6 0.500000 0.430513 0.250000
Si Si7 0.293532 0.097922 0.317716
O O1 0.274453 0.781047 0.145419
O O2 0.167445 0.701354 0.044204
O O3 0.072988 0.994104 0.144435
O O4 0.295925 0.032007 0.029243
O O5 0.523578 0.827652 0.103845
O O6 0.422938 0.573978 0.212198
O O7 0.356906 0.947114 0.244532
O O8 0.754881 0.359193 0.531461
O O9 0.000000 0.500000 0.500000
O O10 0.933428 0.361475 0.395109
O O11 0.156255 0.176599 0.318937
O O12 0.000000 0.269545 0.250000
O O13 0.267441 0.021551 0.896132
O O14 0.392880 0.281636 0.308866
#
# Coordination Sequence:
#
# PCOD9238121 Si02
#       7
#     4   4   4   4   4   2   4
#     4  11  26  45  70 100 139 178 229 290 343 409
#     4  12  25  44  67 105 135 181 238 277 344 412
#     4  11  26  45  68 105 137 179 237 278 346 417
#     4  11  25  44  71  99 136 185 222 288 349 403
#     4  11  24  45  68  98 137 186 222 284 352 406
#     4  12  26  40  72 102 134 186 232 286 340 404
#     4  12  24  46  71  97 143 177 232 279 344 416
#
# _framework density 20.505555999999999
#
# number of rings (size 3 to 8) (size 9 to 14) (size 15 to 20)
#    0.000    0.615    4.615    2.308    6.462    4.923 
#    0.000    0.000    0.000    0.000    0.000    0.000 
#    0.000    0.000    0.000    0.000    0.000    0.000 
#
# Total GULP energy -145456.470136 kJ/mol
# GULP energy per Si atom -5594.479621 kJ/mol
# Density = 2.045888 g / cm^3
# Si number density = 20.505556 Si / 1000 Ang^3
#
#
#
# Elastic Constant Matrix: (Units=GPa)
#
#
# Indices 1 2 3 4 5 6 
#
# 1 45.8353 9.8125 3.2424 0.0000 2.7196 0.0000
# 2 9.8125 71.3062 26.4592 0.0000 6.8611 0.0000
# 3 3.2424 26.4592 77.1270 0.0000 -3.8795 0.0000
# 4 0.0000 0.0000 0.0000 74.2662 0.0000 12.4369
# 5 2.7196 6.8611 -3.8795 0.0000 38.6979 0.0000
# 6 0.0000 0.0000 0.0000 12.4369 0.0000 26.9806
#
#
#
# Elastic Compliance Matrix: (Units=1/GPa)
#
#
# Indices 1 2 3 4 5 6 
#
# 1 0.022522 -0.003011 0.000034 0.000000 -0.001046 0.000000
# 2 -0.003011 0.016935 -0.005853 0.000000 -0.003378 0.000000
# 3 0.000034 -0.005853 0.015100 0.000000 0.002549 0.000000
# 4 0.000000 0.000000 0.000000 0.014591 0.000000 -0.006726
# 5 -0.001046 -0.003378 0.002549 0.000000 0.026769 0.000000
# 6 0.000000 0.000000 0.000000 -0.006726 0.000000 0.040164
#
#
# Mechanical properties :
#
#
# Convention : Reuss Voigt Hill
#
# Bulk Modulus (GPa) = 27.10323 30.36632 28.73477
# Shear Modulus (GPa) = 30.11289 38.30589 34.20939
#
# Velocity S-wave (km/s) = 3.83629 4.32681 4.08891
# Velocity P-wave (km/s) = 5.73315 6.30894 6.02792
#
# Compressibility (1/GPa) = 0.03689598
#
# Stress axis : x y z
#
# Youngs Moduli (GPa) = 44.40197 59.04827 66.22333
#
# Poissons Ratio (x) = 0.17780 -0.00222
# Poissons Ratio (y) = 0.13370 0.38762
# Poissons Ratio (z) = -0.00149 0.34562
#
# Static dielectric constant tensor:
#      x y z
#    x 1.699800 0.000000 0.002530 
#    y 0.000000 1.720350 0.000000 
#    z 0.002530 0.000000 1.713960 
# 
# From -- ./inp_files/77328.got.cif
#   From: 2010.05.17/outbox.cif.g08.bks.cpg/sg13_39_cif.got.tgz:77328.got - 2010.06.03 16:44:36.
