data_PCOD9238235
_publ_section_title
;
Structure prediction by ZEFSAII (Michael W. Deem and Ramdas Pophale) SiO2 
 PCOD9238235
Probable space group: P 2/C
;
_chemical_formula_sum "Si O2"
_cell_formula_units_Z 22
_cell_length_a 13.123599
_cell_length_b 5.510993
_cell_length_c 13.368552
_cell_angle_alpha 90.000000
_cell_angle_beta 72.672409
_cell_angle_gamma 90.000000
_cell_volume 922.989088
_symmetry_space_group_name_H-M "P 2/C"
_symmetry_group_IT_number 13
_symmetry_cell_setting 'monoclinic'
loop_
_space_group_symop_operation_xyz
x,y,z
-x,y,1/2-z
-x,-y,-z
x,-y,1/2+z
loop_
_atom_site_type_symbol
_atom_site_label
_atom_site_fract_x
_atom_site_fract_y
_atom_site_fract_z
Si Si1 0.896448 0.147616 0.210574
Si Si2 0.845869 0.645928 0.113159
Si Si3 0.500000 0.776799 0.750000
Si Si4 0.241231 0.347225 0.073026
Si Si5 0.643704 0.605755 0.304176
Si Si6 0.556658 0.905018 0.080256
O O1 0.895244 0.398082 0.145949
O O2 0.802052 0.184912 0.321507
O O3 0.000000 0.134073 0.250000
O O4 0.889065 0.902814 0.145365
O O5 0.724632 0.642757 0.190587
O O6 0.842897 0.630262 0.993194
O O7 0.424189 0.636349 0.694751
O O8 0.412090 0.894296 0.849277
O O9 0.284234 0.587943 0.117271
O O10 0.345337 0.245634 0.988082
O O11 0.545883 0.788004 0.335766
O O12 0.500000 0.000000 0.000000
#
# Coordination Sequence:
#
# PCOD9238235 Si02
#       6
#     4   4   2   4   4   4
#     4  11  27  51  74 105 138 175 235 299 357 428
#     4  11  26  45  76 103 141 183 229 290 359 415
#     4  12  24  40  62  94 144 186 230 278 336 396
#     4  11  25  43  70 103 138 189 234 289 348 418
#     4  11  25  43  61 103 142 185 233 285 331 420
#     4  12  24  39  66  95 141 190 231 280 336 411
#
# _framework density 23.835601
#
# number of rings (size 3 to 8) (size 9 to 14) (size 15 to 20)
#    0.000    0.727    1.818    4.909   10.182    4.364 
#    0.000    0.000    0.000    0.000    0.000    0.000 
#    0.000    0.000    0.000    0.000    0.000    0.000 
#
# Total GULP energy -122757.953279 kJ/mol
# GULP energy per Si atom -5579.906967 kJ/mol
# Density = 2.378135 g / cm^3
# Si number density = 23.835601 Si / 1000 Ang^3
#
#
#
# Elastic Constant Matrix: (Units=GPa)
#
#
# Indices 1 2 3 4 5 6 
#
# 1 83.8369 17.9462 18.8617 0.0000 17.4943 0.0000
# 2 17.9462 85.1501 34.1581 0.0000 33.3871 0.0000
# 3 18.8617 34.1581 123.7747 0.0000 55.3175 0.0000
# 4 0.0000 0.0000 0.0000 63.8573 0.0000 54.3517
# 5 17.4943 33.3871 55.3175 0.0000 46.4046 0.0000
# 6 0.0000 0.0000 0.0000 54.3517 0.0000 82.3379
#
#
#
# Elastic Compliance Matrix: (Units=1/GPa)
#
#
# Indices 1 2 3 4 5 6 
#
# 1 0.013032 -0.001111 0.000341 0.000000 -0.004520 0.000000
# 2 -0.001111 0.016602 0.001581 0.000000 -0.013411 0.000000
# 3 0.000341 0.001581 0.017457 0.000000 -0.022077 0.000000
# 4 0.000000 0.000000 0.000000 0.035741 0.000000 -0.023593
# 5 -0.004520 -0.013411 -0.022077 0.000000 0.059219 0.000000
# 6 0.000000 0.000000 0.000000 -0.023593 0.000000 0.027719
#
#
# Mechanical properties :
#
#
# Convention : Reuss Voigt Hill
#
# Bulk Modulus (GPa) = 20.52819 48.29929 34.41374
# Shear Modulus (GPa) = 27.11696 53.30635 40.21166
#
# Velocity S-wave (km/s) = 3.37659 4.73421 4.11182
# Velocity P-wave (km/s) = 4.88190 7.08457 6.08375
#
# Compressibility (1/GPa) = 0.04871350
#
# Stress axis : x y z
#
# Youngs Moduli (GPa) = 76.73260 60.23274 57.28248
#
# Poissons Ratio (x) = 0.06693 -0.01951
# Poissons Ratio (y) = 0.08526 -0.09058
# Poissons Ratio (z) = -0.02614 -0.09525
#
# Static dielectric constant tensor:
#      x y z
#    x 2.010170 0.000000 -0.082760 
#    y 0.000000 2.083690 0.000000 
#    z -0.082760 0.000000 1.992260 
# 
# From -- ./inp_files/35344.got.cif
#   From: 2010.05.17/outbox.cif.g08.bks.cpg/sg13_18_cif.got.tgz:35344.got - 2010.06.03 16:44:36.
