data_PCOD9238654
_publ_section_title
;
Structure prediction by ZEFSAII (Michael W. Deem and Ramdas Pophale) SiO2 
 PCOD9238654
Probable space group: P 2/C
;
_chemical_formula_sum "Si O2"
_cell_formula_units_Z 22
_cell_length_a 8.596844
_cell_length_b 8.679307
_cell_length_c 16.645125
_cell_angle_alpha 90.000000
_cell_angle_beta 125.956217
_cell_angle_gamma 90.000000
_cell_volume 1005.332507
_symmetry_space_group_name_H-M "P 2/C"
_symmetry_group_IT_number 13
_symmetry_cell_setting 'monoclinic'
loop_
_space_group_symop_operation_xyz
x,y,z
-x,y,1/2-z
-x,-y,-z
x,-y,1/2+z
loop_
_atom_site_type_symbol
_atom_site_label
_atom_site_fract_x
_atom_site_fract_y
_atom_site_fract_z
Si Si1 0.000000 0.130686 0.250000
Si Si2 0.695707 0.908127 0.070523
Si Si3 0.976301 0.627544 0.881812
Si Si4 0.686471 0.564081 0.101766
Si Si5 0.285492 0.620301 0.209516
Si Si6 0.002192 0.832540 0.040265
O O1 0.929258 0.243765 0.299899
O O2 0.159161 0.020656 0.338551
O O3 0.661820 0.747749 0.103787
O O4 0.795186 0.840188 0.020204
O O5 0.500000 0.000000 0.000000
O O6 0.131815 0.509071 0.890293
O O7 0.806971 0.522318 0.866951
O O8 0.049245 0.723063 0.979883
O O9 0.715247 0.533750 0.204480
O O10 0.500000 0.500000 0.000000
O O11 0.500000 0.659067 0.250000
O O12 0.150387 0.770159 0.153643
O O13 0.000000 0.000000 0.000000
#
# Coordination Sequence:
#
# PCOD9238654 Si02
#       6
#     2   4   4   4   4   4
#     4  12  24  48  74 110 154 198 260 320 402 474
#     4  12  28  47  76 109 152 204 256 324 405 476
#     4  12  25  47  76 106 152 203 258 328 394 476
#     4  12  26  47  76 109 148 201 261 320 396 483
#     4  12  27  45  75 110 148 199 260 327 395 475
#     4  12  27  49  73 110 156 201 258 330 399 472
#
# _framework density 21.883306999999999
#
# number of rings (size 3 to 8) (size 9 to 14) (size 15 to 20)
#    0.000    0.000    5.455    3.818    5.091    0.000 
#    0.000    0.909    0.000    0.000    0.000    0.000 
#    0.000    0.000    0.000    0.000    0.000    0.000 
#
# Total GULP energy -122641.490234 kJ/mol
# GULP energy per Si atom -5574.613192 kJ/mol
# Density = 2.183350 g / cm^3
# Si number density = 21.883307 Si / 1000 Ang^3
#
#
#
# Elastic Constant Matrix: (Units=GPa)
#
#
# Indices 1 2 3 4 5 6 
#
# 1 87.7847 22.1141 34.6584 0.0000 12.0920 0.0000
# 2 22.1141 161.7817 59.2702 0.0000 18.4400 0.0000
# 3 34.6584 59.2702 89.4841 0.0000 -4.5379 0.0000
# 4 0.0000 0.0000 0.0000 51.4959 0.0000 10.7560
# 5 12.0920 18.4400 -4.5379 0.0000 38.7264 0.0000
# 6 0.0000 0.0000 0.0000 10.7560 0.0000 36.0059
#
#
#
# Elastic Compliance Matrix: (Units=1/GPa)
#
#
# Indices 1 2 3 4 5 6 
#
# 1 0.014553 0.001126 -0.006680 0.000000 -0.005863 0.000000
# 2 0.001126 0.009131 -0.006762 0.000000 -0.005492 0.000000
# 3 -0.006680 -0.006762 0.018621 0.000000 0.007488 0.000000
# 4 0.000000 0.000000 0.000000 0.020711 0.000000 -0.006187
# 5 -0.005863 -0.005492 0.007488 0.000000 0.031145 0.000000
# 6 0.000000 0.000000 0.000000 -0.006187 0.000000 0.029622
#
#
# Mechanical properties :
#
#
# Convention : Reuss Voigt Hill
#
# Bulk Modulus (GPa) = 56.58475 63.45952 60.02214
# Shear Modulus (GPa) = 32.40333 40.11281 36.25807
#
# Velocity S-wave (km/s) = 3.85220 4.28604 4.07490
# Velocity P-wave (km/s) = 6.76015 7.31816 7.04468
#
# Compressibility (1/GPa) = 0.01767261
#
# Stress axis : x y z
#
# Youngs Moduli (GPa) = 68.71620 109.52116 53.70240
#
# Poissons Ratio (x) = -0.12334 0.35872
# Poissons Ratio (y) = -0.07739 0.36316
# Poissons Ratio (z) = 0.45900 0.74063
#
# Static dielectric constant tensor:
#      x y z
#    x 1.987710 0.000000 -0.153580 
#    y 0.000000 1.511390 0.000000 
#    z -0.153580 0.000000 2.055270 
# 
# From -- ./inp_files/63957.got.cif
#   From: 2010.05.17/outbox.cif.g08.bks.cpg/sg13_32_cif.got.tgz:63957.got - 2010.06.03 16:44:36.
