data_PCOD9238024
_publ_section_title
;
Structure prediction by ZEFSAII (Michael W. Deem and Ramdas Pophale) SiO2 
 PCOD9238024
Probable space group: P 2/C
;
_chemical_formula_sum "Si O2"
_cell_formula_units_Z 18
_cell_length_a 11.875566
_cell_length_b 6.465264
_cell_length_c 16.794625
_cell_angle_alpha 90.000000
_cell_angle_beta 135.000127
_cell_angle_gamma 90.000000
_cell_volume 911.790224
_symmetry_space_group_name_H-M "P 2/C"
_symmetry_group_IT_number 13
_symmetry_cell_setting 'monoclinic'
loop_
_space_group_symop_operation_xyz
x,y,z
-x,y,1/2-z
-x,-y,-z
x,-y,1/2+z
loop_
_atom_site_type_symbol
_atom_site_label
_atom_site_fract_x
_atom_site_fract_y
_atom_site_fract_z
Si Si1 0.564652 0.806605 0.583195
Si Si2 0.101737 0.693396 0.018543
Si Si3 0.281722 0.497511 0.468734
Si Si4 0.155748 0.997513 0.687012
Si Si5 0.000000 0.249997 0.750000
O O1 0.419343 0.669268 0.542938
O O2 0.664126 0.663423 0.571895
O O3 0.500000 0.000000 0.500000
O O4 0.679966 0.884882 0.710464
O O5 0.240958 0.615120 0.030494
O O6 0.166538 0.830726 0.123598
O O7 0.979661 0.836581 0.907771
O O8 0.000000 0.500000 0.000000
O O9 0.120905 0.609526 0.360089
O O10 0.099273 0.109520 0.739184
#
# Coordination Sequence:
#
# PCOD9238024 Si02
#       5
#     4   4   4   4   2
#     4  11  24  44  68 100 136 175 221 277 333 399
#     4  11  24  44  68 100 136 175 221 277 333 399
#     4  11  24  41  71  99 134 176 225 276 333 396
#     4  11  24  41  71  99 134 176 225 276 333 396
#     4  12  20  42  76  96 126 176 232 282 316 400
#
# _framework density 19.741384
#
# number of rings (size 3 to 8) (size 9 to 14) (size 15 to 20)
#    0.000    0.889    4.444    2.667    0.000    0.000 
#    0.000    6.667    0.000    0.000    0.000    0.000 
#    0.000    0.000    0.000    0.000    0.000    0.000 
#
# Total GULP energy -100729.832559 kJ/mol
# GULP energy per Si atom -5596.101809 kJ/mol
# Density = 1.969645 g / cm^3
# Si number density = 19.741384 Si / 1000 Ang^3
#
#
#
# Elastic Constant Matrix: (Units=GPa)
#
#
# Indices 1 2 3 4 5 6 
#
# 1 105.8531 45.7107 37.9079 0.0000 -1.8266 0.0000
# 2 45.7107 112.5945 45.7107 0.0000 -0.0020 0.0000
# 3 37.9079 45.7107 105.8530 0.0000 1.8216 0.0000
# 4 0.0000 0.0000 0.0000 28.5274 0.0000 -0.0012
# 5 -1.8266 -0.0020 1.8216 0.0000 27.6019 0.0000
# 6 0.0000 0.0000 0.0000 -0.0012 0.0000 28.5240
#
#
#
# Elastic Compliance Matrix: (Units=1/GPa)
#
#
# Indices 1 2 3 4 5 6 
#
# 1 0.012074 -0.003807 -0.002697 0.000000 0.000977 0.000000
# 2 -0.003807 0.011972 -0.003807 0.000000 0.000000 0.000000
# 3 -0.002697 -0.003807 0.012073 0.000000 -0.000976 0.000000
# 4 0.000000 0.000000 0.000000 0.035054 0.000000 0.000001
# 5 0.000977 0.000000 -0.000976 0.000000 0.036358 0.000000
# 6 0.000000 0.000000 0.000000 0.000001 0.000000 0.035058
#
#
# Mechanical properties :
#
#
# Convention : Reuss Voigt Hill
#
# Bulk Modulus (GPa) = 64.52066 64.77324 64.64695
# Shear Modulus (GPa) = 29.69533 29.92875 29.81204
#
# Velocity S-wave (km/s) = 3.88263 3.89786 3.89025
# Velocity P-wave (km/s) = 7.27005 7.28971 7.27989
#
# Compressibility (1/GPa) = 0.01549891
#
# Stress axis : x y z
#
# Youngs Moduli (GPa) = 82.82591 83.52591 82.82622
#
# Poissons Ratio (x) = 0.31796 0.22336
# Poissons Ratio (y) = 0.31530 0.31530
# Poissons Ratio (z) = 0.22336 0.31796
#
# Static dielectric constant tensor:
#      x y z
#    x 1.701770 0.000000 0.000000 
#    y 0.000000 1.691340 0.000000 
#    z 0.000000 0.000000 1.701770 
# 
# From -- ./inp_files/65016.got.cif
#   From: 2010.05.17/outbox.cif.g08.bks.cpg/sg13_33_cif.got.tgz:65016.got - 2010.06.03 16:44:36.
