data_PCOD9238155
_publ_section_title
;
Structure prediction by ZEFSAII (Michael W. Deem and Ramdas Pophale) SiO2 
 PCOD9238155
Probable space group: P 2/C
;
_chemical_formula_sum "Si O2"
_cell_formula_units_Z 26
_cell_length_a 13.112027
_cell_length_b 6.248461
_cell_length_c 13.626067
_cell_angle_alpha 90.000000
_cell_angle_beta 86.671817
_cell_angle_gamma 90.000000
_cell_volume 1114.500610
_symmetry_space_group_name_H-M "P 2/C"
_symmetry_group_IT_number 13
_symmetry_cell_setting 'monoclinic'
loop_
_space_group_symop_operation_xyz
x,y,z
-x,y,1/2-z
-x,-y,-z
x,-y,1/2+z
loop_
_atom_site_type_symbol
_atom_site_label
_atom_site_fract_x
_atom_site_fract_y
_atom_site_fract_z
Si Si1 0.603460 0.370368 0.284809
Si Si2 0.964992 0.258277 0.903718
Si Si3 0.886719 0.359547 0.115643
Si Si4 0.286687 0.944420 0.852289
Si Si5 0.385716 0.938438 0.539008
Si Si6 0.000000 0.893113 0.750000
Si Si7 0.751715 0.747596 0.317355
O O1 0.500000 0.473728 0.250000
O O2 0.622014 0.168041 0.212080
O O3 0.604387 0.270184 0.393477
O O4 0.692070 0.544652 0.278759
O O5 0.855213 0.330342 0.865042
O O6 0.065354 0.404319 0.881972
O O7 0.949164 0.257735 0.020773
O O8 0.978376 0.041065 0.843648
O O9 0.775441 0.262090 0.104286
O O10 0.911522 0.263002 0.220521
O O11 0.229427 0.091922 0.775472
O O12 0.322035 0.084710 0.942089
O O13 0.500000 0.000000 0.500000
O O14 0.323440 0.119133 0.605048
#
# Coordination Sequence:
#
# PCOD9238155 Si02
#       7
#     4   4   4   4   4   2   4
#     4  11  26  43  68 104 140 180 230 284 347 417
#     4  11  25  46  67 102 135 182 236 284 352 418
#     4  11  25  44  70  98 138 179 234 290 342 420
#     4  11  24  47  71  97 139 187 232 282 353 413
#     4  11  24  46  70 101 140 187 233 288 346 421
#     4  12  24  44  68  96 136 182 226 280 352 404
#     4  11  26  44  71 102 141 181 235 288 348 418
#
# _framework density 23.328831999999998
#
# number of rings (size 3 to 8) (size 9 to 14) (size 15 to 20)
#    0.000    0.923    4.615    0.923    6.462    1.846 
#    5.538    0.000    0.000    0.000    0.000    0.000 
#    0.000    0.000    0.000    0.000    0.000    0.000 
#
# Total GULP energy -145101.314940 kJ/mol
# GULP energy per Si atom -5580.819805 kJ/mol
# Density = 2.327573 g / cm^3
# Si number density = 23.328832 Si / 1000 Ang^3
#
#
#
# Elastic Constant Matrix: (Units=GPa)
#
#
# Indices 1 2 3 4 5 6 
#
# 1 97.2808 24.2276 25.5036 0.0000 11.6006 0.0000
# 2 24.2276 45.8087 50.9824 0.0000 2.1051 0.0000
# 3 25.5036 50.9824 116.3860 0.0000 9.8337 0.0000
# 4 0.0000 0.0000 0.0000 38.1400 0.0000 -3.7911
# 5 11.6006 2.1051 9.8337 0.0000 42.9744 0.0000
# 6 0.0000 0.0000 0.0000 -3.7911 0.0000 -25.4075
#
#
#
# Elastic Compliance Matrix: (Units=1/GPa)
#
#
# Indices 1 2 3 4 5 6 
#
# 1 0.012237 -0.007098 0.000691 0.000000 -0.003114 0.000000
# 2 -0.007098 0.046923 -0.019341 0.000000 0.004043 0.000000
# 3 0.000691 -0.019341 0.017181 0.000000 -0.003170 0.000000
# 4 0.000000 0.000000 0.000000 0.025836 0.000000 -0.003855
# 5 -0.003114 0.004043 -0.003170 0.000000 0.024638 0.000000
# 6 0.000000 0.000000 0.000000 -0.003855 0.000000 -0.038783
#
#
# Mechanical properties :
#
#
# Convention : Reuss Voigt Hill
#
# Bulk Modulus (GPa) = 40.24860 51.21142 45.73001
# Shear Modulus (GPa) = 33.82732 21.72552 27.77642
#
# Velocity S-wave (km/s) = 3.81205 3.05499 3.45432
# Velocity P-wave (km/s) = 6.05523 5.86886 5.96277
#
# Compressibility (1/GPa) = 0.02484559
#
# Stress axis : x y z
#
# Youngs Moduli (GPa) = 81.71632 21.31141 58.20455
#
# Poissons Ratio (x) = 0.15126 -0.04020
# Poissons Ratio (y) = 0.58001 1.12572
# Poissons Ratio (z) = -0.05644 0.41218
#
# Static dielectric constant tensor:
#      x y z
#    x 1.918710 0.000000 -0.023720 
#    y 0.000000 1.884680 0.000000 
#    z -0.023720 0.000000 1.860760 
# 
# From -- ./inp_files/52203.got.cif
#   From: 2010.05.17/outbox.cif.g08.bks.cpg/sg13_27_cif.got.tgz:52203.got - 2010.06.03 16:44:36.
