data_PCOD9238969
_publ_section_title
;
Structure prediction by ZEFSAII (Michael W. Deem and Ramdas Pophale) SiO2 
 PCOD9238969
Probable space group: P 2/C
;
_chemical_formula_sum "Si O2"
_cell_formula_units_Z 26
_cell_length_a 15.000000
_cell_length_b 15.000000
_cell_length_c 9.000000
_cell_angle_alpha 90.000000
_cell_angle_beta 140.000000
_cell_angle_gamma 90.000000
_cell_volume 1301.644910
_symmetry_space_group_name_H-M "P 2/C"
_symmetry_group_IT_number 13
_symmetry_cell_setting 'monoclinic'
loop_
_space_group_symop_operation_xyz
x,y,z
-x,y,1/2-z
-x,-y,-z
x,-y,1/2+z
loop_
_atom_site_type_symbol
_atom_site_label
_atom_site_fract_x
_atom_site_fract_y
_atom_site_fract_z
Si Si1 0.500000 0.700761 0.750000
Si Si2 0.665043 0.385446 0.953355
Si Si3 0.887522 0.005373 0.224844
Si Si4 0.727333 0.163928 0.433947
Si Si5 0.722133 0.566616 0.191221
Si Si6 0.187822 0.799764 0.790076
Si Si7 0.060081 0.693675 0.167380
O O1 0.409829 0.773239 0.728271
O O2 0.399422 0.631756 0.532587
O O3 0.500000 0.384840 0.750000
O O4 0.712646 0.422693 0.855127
O O5 0.711118 0.462664 0.129572
O O6 0.714566 0.282425 0.033299
O O7 0.838290 0.109476 0.148207
O O8 0.000000 0.974447 0.250000
O O9 0.000000 0.000000 0.500000
O O10 0.758880 0.934548 0.046085
O O11 0.759863 0.160997 0.300765
O O12 0.835723 0.227438 0.655607
O O13 0.862211 0.612292 0.310665
O O14 0.049567 0.743187 0.577426
O O15 0.000000 0.663488 0.250000
#
# Coordination Sequence:
#
# PCOD9238969 Si02
#       7
#     2   4   4   4   4   4   4
#     4  10  22  42  74  90 132 170 230 264 324 392
#     4  12  27  44  67  96 132 174 225 269 331 395
#     4  12  22  40  67  96 130 172 216 262 332 392
#     4  10  20  41  66  98 125 178 215 269 326 382
#     4  11  25  43  69  97 126 178 219 271 331 398
#     4  11  24  41  66  95 137 168 218 276 326 387
#     4   9  20  39  65  95 128 167 218 271 327 384
#
# _framework density 19.974726
#
# number of rings (size 3 to 8) (size 9 to 14) (size 15 to 20)
#    0.000    1.231    3.846    1.846    8.615    0.615 
#    1.385    0.769    0.000    0.000    0.000    0.000 
#    0.000    0.000    0.000    0.000    0.000    0.000 
#
# Total GULP energy -144766.900860 kJ/mol
# GULP energy per Si atom -5567.957725 kJ/mol
# Density = 1.992926 g / cm^3
# Si number density = 19.974726 Si / 1000 Ang^3
#
#
#
# Elastic Constant Matrix: (Units=GPa)
#
#
# Indices 1 2 3 4 5 6 
#
# 1 24.9529 9.8017 -2.5344 0.0000 9.1031 0.0000
# 2 9.8017 120.7027 5.7540 0.0000 1.1992 0.0000
# 3 -2.5344 5.7540 13.7943 0.0000 -5.3128 0.0000
# 4 0.0000 0.0000 0.0000 62.5221 0.0000 3.7357
# 5 9.1031 1.1992 -5.3128 0.0000 26.3594 0.0000
# 6 0.0000 0.0000 0.0000 3.7357 0.0000 -3.9632
#
#
#
# Elastic Compliance Matrix: (Units=1/GPa)
#
#
# Indices 1 2 3 4 5 6 
#
# 1 0.047689 -0.003933 0.004476 0.000000 -0.015388 0.000000
# 2 -0.003933 0.008812 -0.004369 0.000000 0.000077 0.000000
# 3 0.004476 -0.004369 0.080899 0.000000 0.014958 0.000000
# 4 0.000000 0.000000 0.000000 0.015142 0.000000 0.014272
# 5 -0.015388 0.000077 0.014958 0.000000 0.046263 0.000000
# 6 0.000000 0.000000 0.000000 0.014272 0.000000 -0.238868
#
#
# Mechanical properties :
#
#
# Convention : Reuss Voigt Hill
#
# Bulk Modulus (GPa) = 7.70725 20.61029 14.15877
# Shear Modulus (GPa) = 461.39249 26.74557 244.06903
#
# Velocity S-wave (km/s) = 15.21478 3.66316 11.06590
# Velocity P-wave (km/s) = 17.67823 5.31341 13.05282
#
# Compressibility (1/GPa) = 0.12974793
#
# Stress axis : x y z
#
# Youngs Moduli (GPa) = 20.96934 113.48554 12.36106
#
# Poissons Ratio (x) = 0.44634 -0.05533
# Poissons Ratio (y) = 0.08247 0.05400
# Poissons Ratio (z) = -0.09386 0.49578
#
# Static dielectric constant tensor:
#      x y z
#    x 1.735380 0.000000 0.048170 
#    y 0.000000 1.674520 0.000000 
#    z 0.048170 0.000000 1.705100 
# 
# From -- ./inp_files/19779.got.cif
#   From: 2010.05.17/outbox.ucp.g08.bks.cvg/sg13_10_cif.got.tgz:19779.got - 2010.06.11 12:23:55.
