data_PCOD9238069
_publ_section_title
;
Structure prediction by ZEFSAII (Michael W. Deem and Ramdas Pophale) SiO2 
 PCOD9238069
Probable space group: P 2/C
;
_chemical_formula_sum "Si O2"
_cell_formula_units_Z 14
_cell_length_a 13.265427
_cell_length_b 4.628455
_cell_length_c 8.341126
_cell_angle_alpha 90.000000
_cell_angle_beta 101.729596
_cell_angle_gamma 90.000000
_cell_volume 501.437680
_symmetry_space_group_name_H-M "P 2/C"
_symmetry_group_IT_number 13
_symmetry_cell_setting 'monoclinic'
loop_
_space_group_symop_operation_xyz
x,y,z
-x,y,1/2-z
-x,-y,-z
x,-y,1/2+z
loop_
_atom_site_type_symbol
_atom_site_label
_atom_site_fract_x
_atom_site_fract_y
_atom_site_fract_z
Si Si1 0.227371 0.160827 0.700636
Si Si2 0.650877 0.393938 0.052661
Si Si3 0.922036 0.635325 0.845566
Si Si4 0.500000 0.345179 0.250000
O O1 0.262622 0.246660 0.530353
O O2 0.310042 0.314685 0.847690
O O3 0.130640 0.344562 0.732324
O O4 0.178031 0.841888 0.663400
O O5 0.591753 0.207946 0.172412
O O6 0.564046 0.468606 0.895659
O O7 0.000000 0.786502 0.750000
O O8 0.000000 0.500000 0.000000
#
# Coordination Sequence:
#
# PCOD9238069 Si02
#       4
#     4   4   4   2
#     4  11  24  43  71 107 148 195 248 304 368 442
#     4   9  19  38  72 108 152 198 249 305 369 444
#     4  12  27  48  72 104 146 192 247 310 377 442
#     4   8  16  38  72 108 150 198 246 304 372 442
#
# _framework density 27.919718
#
# number of rings (size 3 to 8) (size 9 to 14) (size 15 to 20)
#    0.000    1.714    0.000    3.429    0.000    6.857 
#    0.000    2.857    0.000  120.000    0.000    0.000 
#    0.000    0.000    0.000    0.000    0.000    0.000 
#
# Total GULP energy -78020.013846 kJ/mol
# GULP energy per Si atom -5572.858132 kJ/mol
# Density = 2.785617 g / cm^3
# Si number density = 27.919718 Si / 1000 Ang^3
#
#
#
# Elastic Constant Matrix: (Units=GPa)
#
#
# Indices 1 2 3 4 5 6 
#
# 1 154.4053 49.8107 68.0302 0.0000 -23.6782 0.0000
# 2 49.8107 157.8413 46.8828 0.0000 -4.5650 0.0000
# 3 68.0302 46.8828 160.9443 0.0000 1.4266 0.0000
# 4 0.0000 0.0000 0.0000 10.4304 0.0000 -18.1716
# 5 -23.6782 -4.5650 1.4266 0.0000 87.9258 0.0000
# 6 0.0000 0.0000 0.0000 -18.1716 0.0000 20.1373
#
#
#
# Elastic Compliance Matrix: (Units=1/GPa)
#
#
# Indices 1 2 3 4 5 6 
#
# 1 0.008830 -0.001756 -0.003242 0.000000 0.002339 0.000000
# 2 -0.001756 0.007298 -0.001383 0.000000 -0.000072 0.000000
# 3 -0.003242 -0.001383 0.007996 0.000000 -0.001074 0.000000
# 4 0.000000 0.000000 0.000000 -0.167577 0.000000 -0.151219
# 5 0.002339 -0.000072 -0.001074 0.000000 0.012017 0.000000
# 6 0.000000 0.000000 0.000000 -0.151219 0.000000 -0.086799
#
#
# Mechanical properties :
#
#
# Convention : Reuss Voigt Hill
#
# Bulk Modulus (GPa) = 88.00612 89.18204 88.59408
# Shear Modulus (GPa) = -24.79100 44.26318 9.73609
#
# Velocity S-wave (km/s) = -2.98306 3.98599 1.86942
# Velocity P-wave (km/s) = 4.44125 7.29355 6.03823
#
# Compressibility (1/GPa) = 0.01136285
#
# Stress axis : x y z
#
# Youngs Moduli (GPa) = 113.25171 137.01672 125.06342
#
# Poissons Ratio (x) = 0.24060 0.40540
# Poissons Ratio (y) = 0.19887 0.17298
# Poissons Ratio (z) = 0.36711 0.18951
#
# Static dielectric constant tensor:
#      x y z
#    x 2.192070 0.000000 -0.010760 
#    y 0.000000 2.333740 0.000000 
#    z -0.010760 0.000000 2.261790 
# 
# From -- ./inp_files/14187.got.cif
#   From: 2010.05.17/outbox.cif.g08.bks.cpg/sg13_8_cif.got.tgz:14187.got - 2010.06.03 16:44:36.
