data_PCOD9238639
_publ_section_title
;
Structure prediction by ZEFSAII (Michael W. Deem and Ramdas Pophale) SiO2 
 PCOD9238639
Probable space group: P 2/C
;
_chemical_formula_sum "Si O2"
_cell_formula_units_Z 20
_cell_length_a 15.718539
_cell_length_b 8.857578
_cell_length_c 20.269246
_cell_angle_alpha 90.000000
_cell_angle_beta 17.970424
_cell_angle_gamma 90.000000
_cell_volume 870.675956
_symmetry_space_group_name_H-M "P 2/C"
_symmetry_group_IT_number 13
_symmetry_cell_setting 'monoclinic'
loop_
_space_group_symop_operation_xyz
x,y,z
-x,y,1/2-z
-x,-y,-z
x,-y,1/2+z
loop_
_atom_site_type_symbol
_atom_site_label
_atom_site_fract_x
_atom_site_fract_y
_atom_site_fract_z
Si Si1 0.486574 0.665287 0.981382
Si Si2 0.500000 0.616181 0.250000
Si Si3 0.221999 0.618065 0.863310
Si Si4 0.802415 0.888857 0.515774
Si Si5 0.000000 0.740206 0.250000
Si Si6 0.963256 0.812893 0.697546
O O1 0.674482 0.694007 0.779315
O O2 0.647815 0.760480 0.917518
O O3 0.500000 0.500000 0.000000
O O4 0.182984 0.670246 0.173084
O O5 0.559491 0.496845 0.265006
O O6 0.219798 0.709789 0.477734
O O7 0.147650 0.750764 0.970097
O O8 0.000000 0.500000 0.000000
O O9 0.500000 0.953791 0.750000
O O10 0.790620 0.831823 0.449347
O O11 0.013601 0.025674 0.356310
O O12 0.000000 0.822106 0.750000
#
# Coordination Sequence:
#
# PCOD9238639 Si02
#       6
#     4   2   4   4   2   4
#     4  12  27  46  78 113 156 204 260 326 384 466
#     4  12  24  46  78 108 156 190 260 322 378 470
#     4  12  24  46  74 115 146 203 260 318 391 455
#     4  12  25  49  76 107 156 199 254 321 393 471
#     4  12  26  50  72 108 156 202 256 310 394 460
#     4  12  28  49  75 116 154 204 260 319 394 469
#
# _framework density 22.970659999999999
#
# number of rings (size 3 to 8) (size 9 to 14) (size 15 to 20)
#    0.000    0.000    7.000    2.400    4.200    1.600 
#    3.600    0.000    0.000    0.000    0.000    0.000 
#    0.000    0.000    0.000    0.000    0.000    0.000 
#
# Total GULP energy -111346.796819 kJ/mol
# GULP energy per Si atom -5567.339841 kJ/mol
# Density = 2.291838 g / cm^3
# Si number density = 22.970660 Si / 1000 Ang^3
#
#
#
# Elastic Constant Matrix: (Units=GPa)
#
#
# Indices 1 2 3 4 5 6 
#
# 1 119.4780 37.6947 34.5066 0.0000 -5.9046 0.0000
# 2 37.6947 119.6055 22.7199 0.0000 -18.8776 0.0000
# 3 34.5066 22.7199 69.6373 0.0000 -23.3337 0.0000
# 4 0.0000 0.0000 0.0000 38.4531 0.0000 -7.5517
# 5 -5.9046 -18.8776 -23.3337 0.0000 58.5397 0.0000
# 6 0.0000 0.0000 0.0000 -7.5517 0.0000 123.8215
#
#
#
# Elastic Compliance Matrix: (Units=1/GPa)
#
#
# Indices 1 2 3 4 5 6 
#
# 1 0.010553 -0.002664 -0.004953 0.000000 -0.001769 0.000000
# 2 -0.002664 0.009789 -0.001046 0.000000 0.002471 0.000000
# 3 -0.004953 -0.001046 0.019476 0.000000 0.006926 0.000000
# 4 0.000000 0.000000 0.000000 0.026321 0.000000 0.001605
# 5 -0.001769 0.002471 0.006926 0.000000 0.020462 0.000000
# 6 0.000000 0.000000 0.000000 0.001605 0.000000 0.008174
#
#
# Mechanical properties :
#
#
# Convention : Reuss Voigt Hill
#
# Bulk Modulus (GPa) = 44.45736 55.39591 49.92663
# Shear Modulus (GPa) = 41.80644 58.41617 50.11131
#
# Velocity S-wave (km/s) = 4.27077 5.04836 4.67576
# Velocity P-wave (km/s) = 6.61175 7.62559 7.13670
#
# Compressibility (1/GPa) = 0.02249346
#
# Stress axis : x y z
#
# Youngs Moduli (GPa) = 94.75678 102.15377 51.34437
#
# Poissons Ratio (x) = 0.27217 0.25430
# Poissons Ratio (y) = 0.25246 0.05368
# Poissons Ratio (z) = 0.46931 0.10680
#
# Static dielectric constant tensor:
#      x y z
#    x 1.782600 0.000000 0.129240 
#    y 0.000000 1.889970 0.000000 
#    z 0.129240 0.000000 1.624480 
# 
# From -- ./inp_files/79744.got.cif
#   From: 2010.05.17/outbox.cif.g08.bks.cpg/sg13_40_cif.got.tgz:79744.got - 2010.06.03 16:44:36.
