data_PCOD9238949
_publ_section_title
;
Structure prediction by ZEFSAII (Michael W. Deem and Ramdas Pophale) SiO2 
 PCOD9238949
Probable space group: P 2/C
;
_chemical_formula_sum "Si O2"
_cell_formula_units_Z 26
_cell_length_a 15.000000
_cell_length_b 12.000000
_cell_length_c 9.000000
_cell_angle_alpha 90.000000
_cell_angle_beta 120.000000
_cell_angle_gamma 90.000000
_cell_volume 1402.961154
_symmetry_space_group_name_H-M "P 2/C"
_symmetry_group_IT_number 13
_symmetry_cell_setting 'monoclinic'
loop_
_space_group_symop_operation_xyz
x,y,z
-x,y,1/2-z
-x,-y,-z
x,-y,1/2+z
loop_
_atom_site_type_symbol
_atom_site_label
_atom_site_fract_x
_atom_site_fract_y
_atom_site_fract_z
Si Si1 0.207423 0.376058 0.069145
Si Si2 0.328816 0.529892 0.391093
Si Si3 0.237150 0.974617 0.001144
Si Si4 0.911128 0.085838 0.865192
Si Si5 0.000000 0.286327 0.750000
Si Si6 0.482442 0.678032 0.067529
Si Si7 0.675894 0.161270 0.205932
O O1 0.277143 0.407507 0.985556
O O2 0.092047 0.356500 0.906973
O O3 0.239768 0.475782 0.211143
O O4 0.245808 0.260213 0.177546
O O5 0.410380 0.618702 0.390790
O O6 0.398923 0.423483 0.498296
O O7 0.173020 0.906637 0.072635
O O8 0.307653 0.064611 0.152871
O O9 0.294555 0.896741 0.927616
O O10 0.150936 0.036465 0.828110
O O11 0.956101 0.202332 0.841609
O O12 0.000000 0.000000 0.000000
O O13 0.500000 0.720781 0.250000
O O14 0.432410 0.772963 0.917641
#
# Coordination Sequence:
#
# PCOD9238949 Si02
#       7
#     4   4   4   4   2   4   4
#     4  11  23  42  65  94 126 167 214 265 317 376
#     4  10  22  41  69  90 124 161 211 279 322 365
#     4  10  20  38  60  92 134 172 202 261 314 363
#     4  11  18  34  60  89 126 178 222 250 294 375
#     4  12  22  36  62  96 128 170 216 252 312 380
#     4  10  20  40  70  97 114 164 226 259 322 385
#     4  10  22  39  66  95 132 165 211 261 314 386
#
# _framework density 18.532230999999999
#
# number of rings (size 3 to 8) (size 9 to 14) (size 15 to 20)
#    0.000    1.538    4.615    0.923    0.000    1.846 
#    0.000    0.769    0.000    0.000    0.000    0.000 
#    0.000    0.000    0.000    0.000    0.000    0.000 
#
# Total GULP energy -144945.341220 kJ/mol
# GULP energy per Si atom -5574.820816 kJ/mol
# Density = 1.849005 g / cm^3
# Si number density = 18.532231 Si / 1000 Ang^3
#
#
#
# Elastic Constant Matrix: (Units=GPa)
#
#
# Indices 1 2 3 4 5 6 
#
# 1 60.7793 42.6322 36.7499 0.0000 -9.5007 0.0000
# 2 42.6322 87.0153 44.0976 0.0000 -1.5875 0.0000
# 3 36.7499 44.0976 144.6520 0.0000 1.4108 0.0000
# 4 0.0000 0.0000 0.0000 55.7139 0.0000 2.4195
# 5 -9.5007 -1.5875 1.4108 0.0000 38.8502 0.0000
# 6 0.0000 0.0000 0.0000 2.4195 0.0000 31.5874
#
#
#
# Elastic Compliance Matrix: (Units=1/GPa)
#
#
# Indices 1 2 3 4 5 6 
#
# 1 0.027832 -0.011713 -0.003563 0.000000 0.006457 0.000000
# 2 -0.011713 0.018540 -0.002657 0.000000 -0.002010 0.000000
# 3 -0.003563 -0.002657 0.008641 0.000000 -0.001294 0.000000
# 4 0.000000 0.000000 0.000000 0.018009 0.000000 -0.001379
# 5 0.006457 -0.002010 -0.001294 0.000000 0.027284 0.000000
# 6 0.000000 0.000000 0.000000 -0.001379 0.000000 0.031764
#
#
# Mechanical properties :
#
#
# Convention : Reuss Voigt Hill
#
# Bulk Modulus (GPa) = 52.22397 59.93398 56.07898
# Shear Modulus (GPa) = 28.68313 36.49475 32.58894
#
# Velocity S-wave (km/s) = 3.93840 4.44245 4.19800
# Velocity P-wave (km/s) = 6.99447 7.66318 7.33645
#
# Compressibility (1/GPa) = 0.01914829
#
# Stress axis : x y z
#
# Youngs Moduli (GPa) = 35.92939 53.93624 115.72710
#
# Poissons Ratio (x) = 0.63173 0.41238
# Poissons Ratio (y) = 0.42082 0.30747
# Poissons Ratio (z) = 0.12803 0.14330
#
# Static dielectric constant tensor:
#      x y z
#    x 1.661040 0.000000 0.001740 
#    y 0.000000 1.643500 0.000000 
#    z 0.001740 0.000000 1.652930 
# 
# From -- ./inp_files/18679.got.cif
#   From: 2010.05.17/outbox.ucp.g08.bks.cvg/sg13_10_cif.got.tgz:18679.got - 2010.06.11 12:23:55.
