data_PCOD9238970
_publ_section_title
;
Structure prediction by ZEFSAII (Michael W. Deem and Ramdas Pophale) SiO2 
 PCOD9238970
Probable space group: P 2/C
;
_chemical_formula_sum "Si O2"
_cell_formula_units_Z 22
_cell_length_a 18.000000
_cell_length_b 9.000000
_cell_length_c 15.000000
_cell_angle_alpha 90.000000
_cell_angle_beta 150.000000
_cell_angle_gamma 90.000000
_cell_volume 1215.000000
_symmetry_space_group_name_H-M "P 2/C"
_symmetry_group_IT_number 13
_symmetry_cell_setting 'monoclinic'
loop_
_space_group_symop_operation_xyz
x,y,z
-x,y,1/2-z
-x,-y,-z
x,-y,1/2+z
loop_
_atom_site_type_symbol
_atom_site_label
_atom_site_fract_x
_atom_site_fract_y
_atom_site_fract_z
Si Si1 0.958562 0.573505 0.054882
Si Si2 0.233270 0.495639 0.971900
Si Si3 0.500000 0.261752 0.250000
Si Si4 0.625136 0.989495 0.279878
Si Si5 0.322640 0.177136 0.490613
Si Si6 0.859042 0.895886 0.878000
O O1 0.831378 0.506597 0.992158
O O2 0.102951 0.552916 0.267888
O O3 0.912214 0.743976 0.983438
O O4 0.000000 0.500000 0.000000
O O5 0.294735 0.657224 0.002205
O O6 0.360522 0.371200 0.094429
O O7 0.542870 0.146478 0.215260
O O8 0.706022 0.935588 0.455681
O O9 0.740312 0.017244 0.318954
O O10 0.491433 0.866817 0.133812
O O11 0.219631 0.149797 0.297349
O O12 0.000000 0.000000 0.000000
#
# Coordination Sequence:
#
# PCOD9238970 Si02
#       6
#     4   4   2   4   4   4
#     4  11  25  44  63 102 132 172 223 271 332 403
#     4  11  23  43  72  91 139 173 221 275 335 394
#     4  10  20  42  66  94 124 176 216 274 328 388
#     4  10  24  44  65  95 137 166 228 271 331 391
#     4  10  23  44  67  98 128 177 216 274 332 391
#     4  12  26  42  69  97 134 174 224 273 332 398
#
# _framework density 18.106995999999999
#
# number of rings (size 3 to 8) (size 9 to 14) (size 15 to 20)
#    0.000    1.455    3.636    1.636    7.636    0.727 
#    0.000    1.818    0.000    0.000    0.000    0.000 
#    0.000    0.000    0.000    0.000    0.000    0.000 
#
# Total GULP energy -122618.332478 kJ/mol
# GULP energy per Si atom -5573.560567 kJ/mol
# Density = 1.806578 g / cm^3
# Si number density = 18.106996 Si / 1000 Ang^3
#
#
#
# Elastic Constant Matrix: (Units=GPa)
#
#
# Indices 1 2 3 4 5 6 
#
# 1 177.3057 73.5520 59.5725 0.0000 10.4504 0.0000
# 2 73.5520 145.1975 56.6247 0.0000 11.8837 0.0000
# 3 59.5725 56.6247 101.0691 0.0000 2.8782 0.0000
# 4 0.0000 0.0000 0.0000 39.4378 0.0000 1.8977
# 5 10.4504 11.8837 2.8782 0.0000 42.6547 0.0000
# 6 0.0000 0.0000 0.0000 1.8977 0.0000 44.4035
#
#
#
# Elastic Compliance Matrix: (Units=1/GPa)
#
#
# Indices 1 2 3 4 5 6 
#
# 1 0.007853 -0.002693 -0.003092 0.000000 -0.000965 0.000000
# 2 -0.002693 0.009933 -0.003925 0.000000 -0.001843 0.000000
# 3 -0.003092 -0.003925 0.013890 0.000000 0.000914 0.000000
# 4 0.000000 0.000000 0.000000 0.025409 0.000000 -0.001086
# 5 -0.000965 -0.001843 0.000914 0.000000 0.024132 0.000000
# 6 0.000000 0.000000 0.000000 -0.001086 0.000000 0.022567
#
#
# Mechanical properties :
#
#
# Convention : Reuss Voigt Hill
#
# Bulk Modulus (GPa) = 81.60176 89.23008 85.41592
# Shear Modulus (GPa) = 39.28025 40.88742 40.08384
#
# Velocity S-wave (km/s) = 4.66267 4.75710 4.71012
# Velocity P-wave (km/s) = 8.61113 8.91962 8.76674
#
# Compressibility (1/GPa) = 0.01225464
#
# Stress axis : x y z
#
# Youngs Moduli (GPa) = 127.33872 100.67489 71.99382
#
# Poissons Ratio (x) = 0.27113 0.22264
# Poissons Ratio (y) = 0.34294 0.28259
# Poissons Ratio (z) = 0.39379 0.39517
#
# Static dielectric constant tensor:
#      x y z
#    x 1.632220 0.000000 0.008330 
#    y 0.000000 1.624030 0.000000 
#    z 0.008330 0.000000 1.643460 
# 
# From -- ./inp_files/55122.got.cif
#   From: 2010.05.17/outbox.ucp.g08.bks.cvg/sg13_28_cif.got.tgz:55122.got - 2010.06.11 12:23:55.
