data_PCOD9238963
_publ_section_title
;
Structure prediction by ZEFSAII (Michael W. Deem and Ramdas Pophale) SiO2 
 PCOD9238963
Probable space group: P 2/C
;
_chemical_formula_sum "Si O2"
_cell_formula_units_Z 28
_cell_length_a 9.000000
_cell_length_b 15.000000
_cell_length_c 12.000000
_cell_angle_alpha 90.000000
_cell_angle_beta 120.000000
_cell_angle_gamma 90.000000
_cell_volume 1402.961154
_symmetry_space_group_name_H-M "P 2/C"
_symmetry_group_IT_number 13
_symmetry_cell_setting 'monoclinic'
loop_
_space_group_symop_operation_xyz
x,y,z
-x,y,1/2-z
-x,-y,-z
x,-y,1/2+z
loop_
_atom_site_type_symbol
_atom_site_label
_atom_site_fract_x
_atom_site_fract_y
_atom_site_fract_z
Si Si1 0.911074 0.660368 0.386397
Si Si2 0.576108 0.130736 0.513720
Si Si3 0.828149 0.615142 0.614485
Si Si4 0.469212 0.692955 0.867447
Si Si5 0.869101 0.138986 0.797874
Si Si6 0.250241 0.413265 0.895927
Si Si7 0.654980 0.036846 0.897988
O O1 0.861209 0.640742 0.496659
O O2 0.927355 0.766620 0.371237
O O3 0.783070 0.619094 0.244027
O O4 0.090200 0.617242 0.413838
O O5 0.528537 0.206818 0.410346
O O6 0.703862 0.160586 0.659476
O O7 0.411110 0.100100 0.525326
O O8 0.666781 0.054669 0.472226
O O9 0.717228 0.682768 0.647579
O O10 0.738784 0.518882 0.588417
O O11 0.000000 0.603198 0.750000
O O12 0.500000 0.668348 0.750000
O O13 0.587226 0.633331 0.990767
O O14 0.809418 0.074454 0.877766
O O15 0.000000 0.105374 0.750000
O O16 0.500000 0.027168 0.750000
#
# Coordination Sequence:
#
# PCOD9238963 Si02
#       7
#     4   4   4   4   4   4   4
#     4  11  21  41  69  87 131 170 214 262 319 387
#     4  10  20  40  60  87 120 164 211 258 318 380
#     4  12  26  41  64  94 127 170 220 272 320 378
#     4  12  25  40  62  92 130 165 220 267 321 381
#     4  11  20  37  62  95 124 160 212 258 320 385
#     4  11  23  43  63  92 124 178 210 264 324 377
#     4   9  20  36  62  86 120 161 208 259 318 381
#
# _framework density 19.957787
#
# number of rings (size 3 to 8) (size 9 to 14) (size 15 to 20)
#    0.000    1.143    4.286    3.000    2.000    1.143 
#    0.000    0.000    0.000   11.143    0.000    0.000 
#    0.000    0.000    0.000    0.000    0.000    0.000 
#
# Total GULP energy -156124.265583 kJ/mol
# GULP energy per Si atom -5575.866628 kJ/mol
# Density = 1.991236 g / cm^3
# Si number density = 19.957787 Si / 1000 Ang^3
#
#
#
# Elastic Constant Matrix: (Units=GPa)
#
#
# Indices 1 2 3 4 5 6 
#
# 1 -2.1808 43.0786 -60.3642 0.0000 -68.3689 0.0000
# 2 43.0786 74.5788 23.2412 0.0000 -2.1666 0.0000
# 3 -60.3642 23.2412 5.9893 0.0000 -59.8708 0.0000
# 4 0.0000 0.0000 0.0000 42.2448 0.0000 13.3597
# 5 -68.3689 -2.1666 -59.8708 0.0000 36.2083 0.0000
# 6 0.0000 0.0000 0.0000 13.3597 0.0000 45.3529
#
#
#
# Elastic Compliance Matrix: (Units=1/GPa)
#
#
# Indices 1 2 3 4 5 6 
#
# 1 0.005209 -0.000155 -0.009744 0.000000 -0.006287 0.000000
# 2 -0.000155 0.012727 0.002978 0.000000 0.005394 0.000000
# 3 -0.009744 0.002978 0.008046 0.000000 -0.004917 0.000000
# 4 0.000000 0.000000 0.000000 0.026103 0.000000 -0.007689
# 5 -0.006287 0.005394 -0.004917 0.000000 0.007940 0.000000
# 6 0.000000 0.000000 0.000000 -0.007689 0.000000 0.024314
#
#
# Mechanical properties :
#
#
# Convention : Reuss Voigt Hill
#
# Bulk Modulus (GPa) = 82.37237 10.03316 46.20277
# Shear Modulus (GPa) = 48.91033 29.58999 39.25016
#
# Velocity S-wave (km/s) = 4.95581 3.85467 4.43951
# Velocity P-wave (km/s) = 8.60870 4.98492 7.03417
#
# Compressibility (1/GPa) = 0.01213999
#
# Stress axis : x y z
#
# Youngs Moduli (GPa) = 191.98369 78.57607 124.28106
#
# Poissons Ratio (x) = 0.01215 1.21105
# Poissons Ratio (y) = 0.02969 -0.37015
# Poissons Ratio (z) = 1.87078 -0.23402
#
# Static dielectric constant tensor:
#      x y z
#    x 1.740150 0.000000 0.050870 
#    y 0.000000 1.738430 0.000000 
#    z 0.050870 0.000000 1.674100 
# 
# From -- ./inp_files/30515.got.cif
#   From: 2010.05.17/outbox.ucp.g08.bks.cvg/sg13_16_cif.got.tgz:30515.got - 2010.06.11 12:23:55.
