data_PCOD9238716
_publ_section_title
;
Structure prediction by ZEFSAII (Michael W. Deem and Ramdas Pophale) SiO2 
 PCOD9238716
Probable space group: P 2/C
;
_chemical_formula_sum "Si O2"
_cell_formula_units_Z 16
_cell_length_a 9.528526
_cell_length_b 4.845784
_cell_length_c 13.942757
_cell_angle_alpha 90.000000
_cell_angle_beta 82.088963
_cell_angle_gamma 90.000000
_cell_volume 637.654525
_symmetry_space_group_name_H-M "P 2/C"
_symmetry_group_IT_number 13
_symmetry_cell_setting 'monoclinic'
loop_
_space_group_symop_operation_xyz
x,y,z
-x,y,1/2-z
-x,-y,-z
x,-y,1/2+z
loop_
_atom_site_type_symbol
_atom_site_label
_atom_site_fract_x
_atom_site_fract_y
_atom_site_fract_z
Si Si1 0.423005 0.257534 0.955615
Si Si2 0.839731 0.077374 0.992757
Si Si3 0.839993 0.961871 0.275240
Si Si4 0.272953 0.454665 0.322878
O O1 0.411003 0.375283 0.847551
O O2 0.500000 0.500000 0.000000
O O3 0.259974 0.189112 0.990795
O O4 0.500000 0.000000 0.000000
O O5 0.215128 0.714348 0.920758
O O6 0.821901 0.157616 0.883647
O O7 0.000000 0.000000 0.000000
O O8 0.824696 0.700236 0.207188
O O9 0.000000 0.076951 0.250000
O O10 0.730646 0.206824 0.255952
#
# Coordination Sequence:
#
# PCOD9238716 Si02
#       4
#     4   4   4   4
#     4  12  25  50  78 105 153 207 252 321 390 463
#     4  12  27  49  81 115 152 210 257 324 400 461
#     4  12  26  43  74 114 155 197 260 324 388 461
#     4  12  25  48  72 111 155 196 260 321 382 461
#
# _framework density 25.091954999999999
#
# number of rings (size 3 to 8) (size 9 to 14) (size 15 to 20)
#    0.000    0.000    7.500    0.750    3.500    2.000 
#    0.000    7.500    0.000    0.000    0.000    0.000 
#    0.000    0.000    0.000    0.000    0.000    0.000 
#
# Total GULP energy -89288.331886 kJ/mol
# GULP energy per Si atom -5580.520743 kJ/mol
# Density = 2.503485 g / cm^3
# Si number density = 25.091955 Si / 1000 Ang^3
#
#
#
# Elastic Constant Matrix: (Units=GPa)
#
#
# Indices 1 2 3 4 5 6 
#
# 1 105.3038 52.9775 49.4689 0.0000 34.1758 0.0000
# 2 52.9775 178.6353 39.0769 0.0000 32.1975 0.0000
# 3 49.4689 39.0769 179.0115 0.0000 33.5209 0.0000
# 4 0.0000 0.0000 0.0000 42.9887 0.0000 22.2152
# 5 34.1758 32.1975 33.5209 0.0000 41.8689 0.0000
# 6 0.0000 0.0000 0.0000 22.2152 0.0000 41.7017
#
#
#
# Elastic Compliance Matrix: (Units=1/GPa)
#
#
# Indices 1 2 3 4 5 6 
#
# 1 0.014249 -0.002311 -0.001868 0.000000 -0.008358 0.000000
# 2 -0.002311 0.006923 -0.000269 0.000000 -0.003222 0.000000
# 3 -0.001868 -0.000269 0.006866 0.000000 -0.003765 0.000000
# 4 0.000000 0.000000 0.000000 0.032098 0.000000 -0.017099
# 5 -0.008358 -0.003222 -0.003765 0.000000 0.036199 0.000000
# 6 0.000000 0.000000 0.000000 -0.017099 0.000000 0.033089
#
#
# Mechanical properties :
#
#
# Convention : Reuss Voigt Hill
#
# Bulk Modulus (GPa) = 52.24073 82.88859 67.56466
# Shear Modulus (GPa) = 34.55388 46.74033 40.64711
#
# Velocity S-wave (km/s) = 3.71494 4.32065 4.02920
# Velocity P-wave (km/s) = 6.26626 7.61554 6.97361
#
# Compressibility (1/GPa) = 0.01914215
#
# Stress axis : x y z
#
# Youngs Moduli (GPa) = 70.18019 144.44752 145.63777
#
# Poissons Ratio (x) = 0.33377 0.27207
# Poissons Ratio (y) = 0.16216 0.03923
# Poissons Ratio (z) = 0.13110 0.03891
#
# Static dielectric constant tensor:
#      x y z
#    x 2.229820 0.000000 0.023980 
#    y 0.000000 1.968920 0.000000 
#    z 0.023980 0.000000 2.143760 
# 
# From -- ./inp_files/62103.got.cif
#   From: 2010.05.17/outbox.cif.g08.bks.cpg/sg13_32_cif.got.tgz:62103.got - 2010.06.03 16:44:36.
