data_PCOD9238043
_publ_section_title
;
Structure prediction by ZEFSAII (Michael W. Deem and Ramdas Pophale) SiO2 
 PCOD9238043
Probable space group: P 2/C
;
_chemical_formula_sum "Si O2"
_cell_formula_units_Z 22
_cell_length_a 6.139492
_cell_length_b 13.658255
_cell_length_c 11.681336
_cell_angle_alpha 90.000000
_cell_angle_beta 73.871496
_cell_angle_gamma 90.000000
_cell_volume 940.982014
_symmetry_space_group_name_H-M "P 2/C"
_symmetry_group_IT_number 13
_symmetry_cell_setting 'monoclinic'
loop_
_space_group_symop_operation_xyz
x,y,z
-x,y,1/2-z
-x,-y,-z
x,-y,1/2+z
loop_
_atom_site_type_symbol
_atom_site_label
_atom_site_fract_x
_atom_site_fract_y
_atom_site_fract_z
Si Si1 0.500000 0.775723 0.250000
Si Si2 0.853868 0.137621 0.089656
Si Si3 0.000000 0.270512 0.250000
Si Si4 0.000000 0.568044 0.250000
Si Si5 0.328500 0.056814 0.940813
Si Si6 0.738298 0.688922 0.432323
Si Si7 0.374288 0.595209 0.649891
O O1 0.611918 0.851713 0.145601
O O2 0.645112 0.712709 0.318711
O O3 0.835095 0.205439 0.200781
O O4 0.731832 0.035774 0.128260
O O5 0.776917 0.208596 0.995519
O O6 0.111253 0.099545 0.038648
O O7 0.836966 0.334860 0.352251
O O8 0.973099 0.633144 0.369293
O O9 0.772313 0.501616 0.295033
O O10 0.500000 0.000000 0.000000
O O11 0.566317 0.617161 0.526494
O O12 0.500000 0.620931 0.750000
#
# Coordination Sequence:
#
# PCOD9238043 Si02
#       7
#     2   4   2   2   4   4   4
#     4  12  26  44  76 102 146 198 240 300 374 426
#     4  11  25  43  71 102 145 191 242 301 361 439
#     4  11  24  42  73 104 138 196 247 296 370 445
#     4  11  28  46  77 110 144 192 243 318 380 457
#     4  11  25  44  65 106 148 188 243 301 358 428
#     4  12  25  50  74 108 150 196 252 305 377 454
#     4  11  25  49  73 109 145 191 245 314 376 444
#
# _framework density 23.379832
#
# number of rings (size 3 to 8) (size 9 to 14) (size 15 to 20)
#    0.000    0.727    3.636    2.727    3.818    0.727 
#    0.000    0.000    0.000    0.000    0.000    0.000 
#    0.000    0.000    0.000    0.000    0.000    0.000 
#
# Total GULP energy -122525.390449 kJ/mol
# GULP energy per Si atom -5569.335929 kJ/mol
# Density = 2.332662 g / cm^3
# Si number density = 23.379832 Si / 1000 Ang^3
#
#
#
# Elastic Constant Matrix: (Units=GPa)
#
#
# Indices 1 2 3 4 5 6 
#
# 1 61.9938 30.7737 45.6659 0.0000 -13.1165 0.0000
# 2 30.7737 134.0383 37.7337 0.0000 -13.8828 0.0000
# 3 45.6659 37.7337 107.4665 0.0000 -14.3805 0.0000
# 4 0.0000 0.0000 0.0000 36.7091 0.0000 -6.6379
# 5 -13.1165 -13.8828 -14.3805 0.0000 53.1653 0.0000
# 6 0.0000 0.0000 0.0000 -6.6379 0.0000 77.5126
#
#
#
# Elastic Compliance Matrix: (Units=1/GPa)
#
#
# Indices 1 2 3 4 5 6 
#
# 1 0.024940 -0.002830 -0.009213 0.000000 0.002922 0.000000
# 2 -0.002830 0.008706 -0.001705 0.000000 0.001114 0.000000
# 3 -0.009213 -0.001705 0.013961 0.000000 0.001058 0.000000
# 4 0.000000 0.000000 0.000000 0.027670 0.000000 0.002370
# 5 0.002922 0.001114 0.001058 0.000000 0.020107 0.000000
# 6 0.000000 0.000000 0.000000 0.002370 0.000000 0.013104
#
#
# Mechanical properties :
#
#
# Convention : Reuss Voigt Hill
#
# Bulk Modulus (GPa) = 49.72665 59.09390 54.41027
# Shear Modulus (GPa) = 35.04170 46.09910 40.57040
#
# Velocity S-wave (km/s) = 3.87563 4.44525 4.17018
# Velocity P-wave (km/s) = 6.42982 7.18871 6.81983
#
# Compressibility (1/GPa) = 0.02010994
#
# Stress axis : x y z
#
# Youngs Moduli (GPa) = 40.09583 114.86808 71.63036
#
# Poissons Ratio (x) = 0.32504 0.65995
# Poissons Ratio (y) = 0.11346 0.12215
# Poissons Ratio (z) = 0.36942 0.19588
#
# Static dielectric constant tensor:
#      x y z
#    x 1.431840 0.000000 0.575270 
#    y 0.000000 1.988820 0.000000 
#    z 0.575270 0.000000 1.244540 
# 
# From -- ./inp_files/26232.got.cif
#   From: 2010.05.17/outbox.cif.g08.bks.cpg/sg13_14_cif.got.tgz:26232.got - 2010.06.03 16:44:36.
