data_PCOD9238769
_publ_section_title
;
Structure prediction by ZEFSAII (Michael W. Deem and Ramdas Pophale) SiO2 
 PCOD9238769
Probable space group: P 2/C
;
_chemical_formula_sum "Si O2"
_cell_formula_units_Z 24
_cell_length_a 13.111780
_cell_length_b 5.472965
_cell_length_c 14.462492
_cell_angle_alpha 90.000000
_cell_angle_beta 65.139383
_cell_angle_gamma 90.000000
_cell_volume 941.660299
_symmetry_space_group_name_H-M "P 2/C"
_symmetry_group_IT_number 13
_symmetry_cell_setting 'monoclinic'
loop_
_space_group_symop_operation_xyz
x,y,z
-x,y,1/2-z
-x,-y,-z
x,-y,1/2+z
loop_
_atom_site_type_symbol
_atom_site_label
_atom_site_fract_x
_atom_site_fract_y
_atom_site_fract_z
Si Si1 0.786117 0.410023 0.395203
Si Si2 0.000000 0.900098 0.750000
Si Si3 0.562954 0.848012 0.056062
Si Si4 0.900248 0.924273 0.105253
Si Si5 0.627854 0.487159 0.295890
Si Si6 0.789515 0.419542 0.088656
Si Si7 0.500000 0.906088 0.750000
O O1 0.681040 0.243731 0.469962
O O2 0.736256 0.513437 0.318869
O O3 0.797473 0.600228 0.475002
O O4 0.901293 0.266526 0.332544
O O5 0.057319 0.064226 0.806252
O O6 0.469553 0.648263 0.122728
O O7 0.586100 0.971532 0.146387
O O8 0.500000 0.000000 0.000000
O O9 0.865626 0.651927 0.088547
O O10 0.817843 0.159487 0.124097
O O11 0.000000 0.000000 0.000000
O O12 0.670240 0.513955 0.174277
O O13 0.572812 0.225453 0.301300
#
# Coordination Sequence:
#
# PCOD9238769 Si02
#       7
#     4   2   4   4   4   4   2
#     4  12  27  50  79 118 159 211 272 336 401 493
#     4  12  28  50  82 116 162 214 270 336 396 492
#     4  12  28  48  80 116 156 214 271 339 409 492
#     4  12  28  52  78 117 163 217 273 324 404 478
#     4  12  28  49  78 121 157 210 274 336 416 485
#     4  12  29  49  85 116 166 213 266 339 406 481
#     4  12  26  50  78 110 168 202 270 338 416 482
#
# _framework density 25.486898
#
# number of rings (size 3 to 8) (size 9 to 14) (size 15 to 20)
#    0.000    0.000    5.000    3.500    9.333    2.000 
#    0.000    0.000    0.000    0.000    0.000    0.000 
#    0.000    0.000    0.000    0.000    0.000    0.000 
#
# Total GULP energy -134140.628507 kJ/mol
# GULP energy per Si atom -5589.192854 kJ/mol
# Density = 2.542889 g / cm^3
# Si number density = 25.486898 Si / 1000 Ang^3
#
#
#
# Elastic Constant Matrix: (Units=GPa)
#
#
# Indices 1 2 3 4 5 6 
#
# 1 109.0278 43.3001 20.0870 0.0000 7.1202 0.0000
# 2 43.3001 62.0032 12.3286 0.0000 13.1503 0.0000
# 3 20.0870 12.3286 134.1823 0.0000 -8.1698 0.0000
# 4 0.0000 0.0000 0.0000 44.8389 0.0000 -6.0738
# 5 7.1202 13.1503 -8.1698 0.0000 75.2216 0.0000
# 6 0.0000 0.0000 0.0000 -6.0738 0.0000 37.7464
#
#
#
# Elastic Compliance Matrix: (Units=1/GPa)
#
#
# Indices 1 2 3 4 5 6 
#
# 1 0.012858 -0.008803 -0.001104 0.000000 0.000202 0.000000
# 2 -0.008803 0.023184 -0.001015 0.000000 -0.003330 0.000000
# 3 -0.001104 -0.001015 0.007780 0.000000 0.001127 0.000000
# 4 0.000000 0.000000 0.000000 0.022799 0.000000 0.003669
# 5 0.000202 -0.003330 0.001127 0.000000 0.013979 0.000000
# 6 0.000000 0.000000 0.000000 0.003669 0.000000 0.027083
#
#
# Mechanical properties :
#
#
# Convention : Reuss Voigt Hill
#
# Bulk Modulus (GPa) = 45.49966 50.73829 48.11898
# Shear Modulus (GPa) = 36.53563 46.86120 41.69842
#
# Velocity S-wave (km/s) = 3.79027 4.29259 4.04923
# Velocity P-wave (km/s) = 6.08653 6.67227 6.38612
#
# Compressibility (1/GPa) = 0.02197818
#
# Stress axis : x y z
#
# Youngs Moduli (GPa) = 77.77141 43.13346 128.54039
#
# Poissons Ratio (x) = 0.37970 0.14188
# Poissons Ratio (y) = 0.68462 0.13048
# Poissons Ratio (z) = 0.08584 0.04378
#
# Static dielectric constant tensor:
#      x y z
#    x 2.104450 0.000000 -0.063240 
#    y 0.000000 2.231310 0.000000 
#    z -0.063240 0.000000 2.052040 
# 
# From -- ./inp_files/52155.got.cif
#   From: 2010.05.17/outbox.cif.g08.bks.cpg/sg13_27_cif.got.tgz:52155.got - 2010.06.03 16:44:36.
