data_PCOD9238644
_publ_section_title
;
Structure prediction by ZEFSAII (Michael W. Deem and Ramdas Pophale) SiO2 
 PCOD9238644
Probable space group: P 2/C
;
_chemical_formula_sum "Si O2"
_cell_formula_units_Z 20
_cell_length_a 17.748211
_cell_length_b 6.146377
_cell_length_c 16.857626
_cell_angle_alpha 90.000000
_cell_angle_beta 26.819252
_cell_angle_gamma 90.000000
_cell_volume 829.693260
_symmetry_space_group_name_H-M "P 2/C"
_symmetry_group_IT_number 13
_symmetry_cell_setting 'monoclinic'
loop_
_space_group_symop_operation_xyz
x,y,z
-x,y,1/2-z
-x,-y,-z
x,-y,1/2+z
loop_
_atom_site_type_symbol
_atom_site_label
_atom_site_fract_x
_atom_site_fract_y
_atom_site_fract_z
Si Si1 0.000000 0.379389 0.750000
Si Si2 0.335747 0.662923 0.999917
Si Si3 0.337462 0.955661 0.789069
Si Si4 0.643137 0.327156 0.844484
Si Si5 0.904655 0.572575 0.508839
Si Si6 0.500000 0.721786 0.250000
O O1 0.820846 0.262491 0.906514
O O2 0.020615 0.498946 0.646062
O O3 0.268104 0.683247 0.153540
O O4 0.505519 0.798849 0.841289
O O5 0.396820 0.430003 0.908714
O O6 0.165731 0.821222 0.934487
O O7 0.380835 0.088453 0.668048
O O8 0.362538 0.127278 0.836382
O O9 0.737825 0.440908 0.683641
O O10 0.500000 0.500000 0.000000
O O11 0.000000 0.500000 0.500000
#
# Coordination Sequence:
#
# PCOD9238644 Si02
#       6
#     2   4   4   4   4   2
#     4  12  26  50  72 104 162 206 254 326 408 470
#     4  12  25  46  75 110 155 200 266 334 396 483
#     4  12  25  46  83 111 150 215 267 325 414 484
#     4  12  24  49  79 111 151 200 269 337 397 487
#     4  12  27  50  75 114 161 204 264 337 401 486
#     4  12  24  46  76 116 154 206 276 330 392 494
#
# _framework density 24.105291999999999
#
# number of rings (size 3 to 8) (size 9 to 14) (size 15 to 20)
#    0.000    0.000    6.000    4.800    0.000    0.800 
#    0.000    7.000    0.000    0.000    0.000    0.000 
#    0.000    0.000    0.000    0.000    0.000    0.000 
#
# Total GULP energy -111408.888725 kJ/mol
# GULP energy per Si atom -5570.444436 kJ/mol
# Density = 2.405043 g / cm^3
# Si number density = 24.105292 Si / 1000 Ang^3
#
#
#
# Elastic Constant Matrix: (Units=GPa)
#
#
# Indices 1 2 3 4 5 6 
#
# 1 216.2455 74.7695 50.7724 0.0000 5.9062 0.0000
# 2 74.7695 113.5710 35.0496 0.0000 5.4033 0.0000
# 3 50.7724 35.0496 97.2780 0.0000 21.1033 0.0000
# 4 0.0000 0.0000 0.0000 18.4230 0.0000 10.9103
# 5 5.9062 5.4033 21.1033 0.0000 65.6976 0.0000
# 6 0.0000 0.0000 0.0000 10.9103 0.0000 54.7524
#
#
#
# Elastic Compliance Matrix: (Units=1/GPa)
#
#
# Indices 1 2 3 4 5 6 
#
# 1 0.006333 -0.003534 -0.002119 0.000000 0.000402 0.000000
# 2 -0.003534 0.011887 -0.002467 0.000000 0.000133 0.000000
# 3 -0.002119 -0.002467 0.013102 0.000000 -0.003815 0.000000
# 4 0.000000 0.000000 0.000000 0.061543 0.000000 -0.012263
# 5 0.000402 0.000133 -0.003815 0.000000 0.016400 0.000000
# 6 0.000000 0.000000 0.000000 -0.012263 0.000000 0.020708
#
#
# Mechanical properties :
#
#
# Convention : Reuss Voigt Hill
#
# Bulk Modulus (GPa) = 66.30711 83.14195 74.72453
# Shear Modulus (GPa) = 33.05989 45.54146 39.30068
#
# Velocity S-wave (km/s) = 3.70737 4.35129 4.04217
# Velocity P-wave (km/s) = 6.77444 7.73376 7.26994
#
# Compressibility (1/GPa) = 0.01508134
#
# Stress axis : x y z
#
# Youngs Moduli (GPa) = 157.90207 84.12545 76.32191
#
# Poissons Ratio (x) = 0.29734 0.16174
# Poissons Ratio (y) = 0.55810 0.18828
# Poissons Ratio (z) = 0.33462 0.20753
#
# Static dielectric constant tensor:
#      x y z
#    x 2.063420 0.000000 -0.039780 
#    y 0.000000 2.072880 0.000000 
#    z -0.039780 0.000000 2.079020 
# 
# From -- ./inp_files/69154.got.cif
#   From: 2010.05.17/outbox.cif.g08.bks.cpg/sg13_35_cif.got.tgz:69154.got - 2010.06.03 16:44:36.
