data_PCOD9238038
_publ_section_title
;
Structure prediction by ZEFSAII (Michael W. Deem and Ramdas Pophale) SiO2 
 PCOD9238038
Probable space group: P 2/C
;
_chemical_formula_sum "Si O2"
_cell_formula_units_Z 18
_cell_length_a 8.327886
_cell_length_b 8.900282
_cell_length_c 11.316142
_cell_angle_alpha 90.000000
_cell_angle_beta 77.851261
_cell_angle_gamma 90.000000
_cell_volume 819.974129
_symmetry_space_group_name_H-M "P 2/C"
_symmetry_group_IT_number 13
_symmetry_cell_setting 'monoclinic'
loop_
_space_group_symop_operation_xyz
x,y,z
-x,y,1/2-z
-x,-y,-z
x,-y,1/2+z
loop_
_atom_site_type_symbol
_atom_site_label
_atom_site_fract_x
_atom_site_fract_y
_atom_site_fract_z
Si Si1 0.000000 0.450365 0.250000
Si Si2 0.392720 0.625853 0.365578
Si Si3 0.867336 0.130344 0.663559
Si Si4 0.723916 0.615828 0.443912
Si Si5 0.905127 0.809543 0.585849
O O1 0.147130 0.551337 0.172942
O O2 0.063256 0.335503 0.339442
O O3 0.500000 0.539366 0.250000
O O4 0.293136 0.761711 0.318398
O O5 0.541583 0.659508 0.431421
O O6 0.279048 0.517516 0.458592
O O7 0.000000 0.160034 0.750000
O O8 0.936359 0.153251 0.518942
O O9 0.842600 0.950632 0.671016
O O10 0.783570 0.762843 0.501147
#
# Coordination Sequence:
#
# PCOD9238038 Si02
#       5
#     2   4   4   4   4
#     4  12  22  44  74 108 142 186 238 298 346 432
#     4  11  24  44  65 105 143 184 232 292 357 423
#     4  11  24  44  68  99 142 186 238 286 351 427
#     4  11  25  42  71 103 142 185 238 296 354 416
#     4  11  24  42  69 104 133 187 237 290 348 422
#
# _framework density 21.951910999999999
#
# number of rings (size 3 to 8) (size 9 to 14) (size 15 to 20)
#    0.000    0.889    3.333    3.333    4.667    0.889 
#    0.000    5.556    0.000    0.000    0.000    0.000 
#    0.000    0.000    0.000    0.000    0.000    0.000 
#
# Total GULP energy -100267.036583 kJ/mol
# GULP energy per Si atom -5570.390921 kJ/mol
# Density = 2.190195 g / cm^3
# Si number density = 21.951911 Si / 1000 Ang^3
#
#
#
# Elastic Constant Matrix: (Units=GPa)
#
#
# Indices 1 2 3 4 5 6 
#
# 1 98.4654 74.0516 28.6116 0.0000 13.0948 0.0000
# 2 74.0516 132.2645 38.9085 0.0000 8.4695 0.0000
# 3 28.6116 38.9085 88.2949 0.0000 -8.6740 0.0000
# 4 0.0000 0.0000 0.0000 44.3386 0.0000 20.4136
# 5 13.0948 8.4695 -8.6740 0.0000 40.3609 0.0000
# 6 0.0000 0.0000 0.0000 20.4136 0.0000 13.4291
#
#
#
# Elastic Compliance Matrix: (Units=1/GPa)
#
#
# Indices 1 2 3 4 5 6 
#
# 1 0.018480 -0.009381 -0.002299 0.000000 -0.004521 0.000000
# 2 -0.009381 0.013747 -0.003067 0.000000 -0.000500 0.000000
# 3 -0.002299 -0.003067 0.013851 0.000000 0.004366 0.000000
# 4 0.000000 0.000000 0.000000 0.075145 0.000000 -0.114228
# 5 -0.004521 -0.000500 0.004366 0.000000 0.027287 0.000000
# 6 0.000000 0.000000 0.000000 -0.114228 0.000000 0.248104
#
#
# Mechanical properties :
#
#
# Convention : Reuss Voigt Hill
#
# Bulk Modulus (GPa) = 60.29654 66.90759 63.60207
# Shear Modulus (GPa) = 11.58387 31.45593 21.51990
#
# Velocity S-wave (km/s) = 2.29965 3.78954 3.13440
# Velocity P-wave (km/s) = 5.88034 7.04931 6.49119
#
# Compressibility (1/GPa) = 0.01658470
#
# Stress axis : x y z
#
# Youngs Moduli (GPa) = 54.11291 72.74343 72.19636
#
# Poissons Ratio (x) = 0.68238 0.16596
# Poissons Ratio (y) = 0.50762 0.22144
# Poissons Ratio (z) = 0.12439 0.22312
#
# Static dielectric constant tensor:
#      x y z
#    x 1.869150 0.000000 0.020030 
#    y 0.000000 1.844390 0.000000 
#    z 0.020030 0.000000 1.886960 
# 
# From -- ./inp_files/27791.got.cif
#   From: 2010.05.17/outbox.cif.g08.bks.cpg/sg13_14_cif.got.tgz:27791.got - 2010.06.03 16:44:36.
