data_PCOD9238960
_publ_section_title
;
Structure prediction by ZEFSAII (Michael W. Deem and Ramdas Pophale) SiO2 
 PCOD9238960
Probable space group: P 2/C
;
_chemical_formula_sum "Si O2"
_cell_formula_units_Z 32
_cell_length_a 24.000000
_cell_length_b 12.000000
_cell_length_c 12.000000
_cell_angle_alpha 90.000000
_cell_angle_beta 30.000000
_cell_angle_gamma 90.000000
_cell_volume 1728.000000
_symmetry_space_group_name_H-M "P 2/C"
_symmetry_group_IT_number 13
_symmetry_cell_setting 'monoclinic'
loop_
_space_group_symop_operation_xyz
x,y,z
-x,y,1/2-z
-x,-y,-z
x,-y,1/2+z
loop_
_atom_site_type_symbol
_atom_site_label
_atom_site_fract_x
_atom_site_fract_y
_atom_site_fract_z
Si Si1 0.513577 0.608951 0.051691
Si Si2 0.216796 0.909875 0.189392
Si Si3 0.939070 0.487224 0.480463
Si Si4 0.360377 0.932627 0.160930
Si Si5 0.989784 0.771931 0.893633
Si Si6 0.778892 0.837063 0.895500
Si Si7 0.299529 0.622430 0.583647
Si Si8 0.409784 0.159759 0.195490
O O1 0.392100 0.613009 0.323248
O O2 0.500000 0.500000 0.000000
O O3 0.618731 0.597192 0.954155
O O4 0.549024 0.722440 0.925218
O O5 0.274398 0.913329 0.210714
O O6 0.099865 0.847588 0.389493
O O7 0.198845 0.038461 0.186766
O O8 0.302612 0.843758 0.960731
O O9 0.939714 0.352874 0.471701
O O10 0.815856 0.547598 0.706611
O O11 0.000000 0.520375 0.250000
O O12 0.000000 0.500000 0.500000
O O13 0.313523 0.864078 0.349122
O O14 0.378724 0.063495 0.158564
O O15 0.483571 0.887782 0.922967
O O16 0.000000 0.815105 0.750000
O O17 0.110775 0.781784 0.741137
O O18 0.739353 0.750778 0.868580
#
# Coordination Sequence:
#
# PCOD9238960 Si02
#       8
#     4   4   4   4   4   4   4   4
#     4  11  26  44  68  98 136 175 221 284 342 414
#     4  11  23  36  63  98 128 169 218 276 338 402
#     4  11  26  45  73 101 134 185 239 289 342 415
#     4  10  20  39  63  93 132 167 217 272 333 412
#     4  11  23  41  65  92 131 177 225 281 344 404
#     4  11  21  42  66  91 133 174 220 275 339 411
#     4  11  25  46  69  96 133 180 224 278 351 410
#     4  10  22  39  63  95 128 170 218 271 334 412
#
# _framework density 18.518519000000001
#
# number of rings (size 3 to 8) (size 9 to 14) (size 15 to 20)
#    0.000    1.250    3.750    1.500    3.500    1.000 
#    2.250    0.625    0.000    0.000    0.000    0.000 
#    0.000    0.000    0.000    0.000    0.000    0.000 
#
# Total GULP energy -178149.250042 kJ/mol
# GULP energy per Si atom -5567.164064 kJ/mol
# Density = 1.847637 g / cm^3
# Si number density = 18.518519 Si / 1000 Ang^3
#
#
#
# Elastic Constant Matrix: (Units=GPa)
#
#
# Indices 1 2 3 4 5 6 
#
# 1 71.3374 28.1027 19.9264 0.0000 -0.5463 0.0000
# 2 28.1027 125.6960 62.7813 0.0000 4.3738 0.0000
# 3 19.9264 62.7813 130.3294 0.0000 -8.0546 0.0000
# 4 0.0000 0.0000 0.0000 37.0841 0.0000 -3.3811
# 5 -0.5463 4.3738 -8.0546 0.0000 30.1471 0.0000
# 6 0.0000 0.0000 0.0000 -3.3811 0.0000 27.5403
#
#
#
# Elastic Compliance Matrix: (Units=1/GPa)
#
#
# Indices 1 2 3 4 5 6 
#
# 1 0.015462 -0.003040 -0.000870 0.000000 0.000489 0.000000
# 2 -0.003040 0.011332 -0.005185 0.000000 -0.003084 0.000000
# 3 -0.000870 -0.005185 0.010523 0.000000 0.003548 0.000000
# 4 0.000000 0.000000 0.000000 0.027271 0.000000 0.003348
# 5 0.000489 -0.003084 0.003548 0.000000 0.034575 0.000000
# 6 0.000000 0.000000 0.000000 0.003348 0.000000 0.036722
#
#
# Mechanical properties :
#
#
# Convention : Reuss Voigt Hill
#
# Bulk Modulus (GPa) = 52.27687 60.99817 56.63752
# Shear Modulus (GPa) = 31.16264 33.39113 32.27689
#
# Velocity S-wave (km/s) = 4.10662 4.25092 4.17940
# Velocity P-wave (km/s) = 7.12577 7.55674 7.34442
#
# Compressibility (1/GPa) = 0.01912892
#
# Stress axis : x y z
#
# Youngs Moduli (GPa) = 64.67485 88.24367 95.03303
#
# Poissons Ratio (x) = 0.26823 0.08264
# Poissons Ratio (y) = 0.19659 0.49273
# Poissons Ratio (z) = 0.05624 0.45752
#
# Static dielectric constant tensor:
#      x y z
#    x 1.660010 0.000000 0.034130 
#    y 0.000000 1.632940 0.000000 
#    z 0.034130 0.000000 1.656620 
# 
# From -- ./inp_files/41844.got.cif
#   From: 2010.05.17/outbox.ucp.g08.bks.cvg/sg13_21_cif.got.tgz:41844.got - 2010.06.11 12:23:55.
