data_PCOD9238546
_publ_section_title
;
Structure prediction by ZEFSAII (Michael W. Deem and Ramdas Pophale) SiO2 
 PCOD9238546
Probable space group: P 2/C
;
_chemical_formula_sum "Si O2"
_cell_formula_units_Z 20
_cell_length_a 8.924159
_cell_length_b 4.945222
_cell_length_c 26.056299
_cell_angle_alpha 90.000000
_cell_angle_beta 52.582477
_cell_angle_gamma 90.000000
_cell_volume 913.295814
_symmetry_space_group_name_H-M "P 2/C"
_symmetry_group_IT_number 13
_symmetry_cell_setting 'monoclinic'
loop_
_space_group_symop_operation_xyz
x,y,z
-x,y,1/2-z
-x,-y,-z
x,-y,1/2+z
loop_
_atom_site_type_symbol
_atom_site_label
_atom_site_fract_x
_atom_site_fract_y
_atom_site_fract_z
Si Si1 0.914630 0.250007 0.549059
Si Si2 0.979054 0.461094 0.649455
Si Si3 0.854947 0.065040 0.235245
Si Si4 0.400078 0.445968 0.074470
Si Si5 0.492543 0.053282 0.622431
O O1 0.966119 0.320939 0.596803
O O2 0.692040 0.182376 0.595711
O O3 0.000000 0.500000 0.500000
O O4 0.000000 0.000000 0.500000
O O5 0.841428 0.705943 0.694170
O O6 0.180925 0.611506 0.610768
O O7 0.939670 0.215675 0.696697
O O8 0.000000 0.162482 0.250000
O O9 0.649967 0.015009 0.302165
O O10 0.397512 0.719411 0.107257
O O11 0.505456 0.214098 0.084509
O O12 0.500000 0.500000 0.000000
#
# Coordination Sequence:
#
# PCOD9238546 Si02
#       5
#     4   4   4   4   4
#     4  12  27  49  68 100 147 190 237 295 359 434
#     4  12  24  43  72 101 138 189 233 297 364 428
#     4  12  23  44  71 105 141 177 242 302 358 428
#     4  12  23  40  68 102 132 180 242 289 350 424
#     4  12  25  43  69  99 140 183 229 299 358 418
#
# _framework density 21.898710999999999
#
# number of rings (size 3 to 8) (size 9 to 14) (size 15 to 20)
#    0.000    0.000    4.000    7.200    0.000    0.800 
#    0.000    2.000    0.000    0.000    0.000    0.000 
#    0.000    0.000    0.000    0.000    0.000    0.000 
#
# Total GULP energy -111842.963865 kJ/mol
# GULP energy per Si atom -5592.148193 kJ/mol
# Density = 2.184887 g / cm^3
# Si number density = 21.898711 Si / 1000 Ang^3
#
#
#
# Elastic Constant Matrix: (Units=GPa)
#
#
# Indices 1 2 3 4 5 6 
#
# 1 231.9042 31.8171 -10.9508 0.0000 -9.1609 0.0000
# 2 31.8171 139.2701 18.1893 0.0000 6.3523 0.0000
# 3 -10.9508 18.1893 124.7880 0.0000 -6.4085 0.0000
# 4 0.0000 0.0000 0.0000 60.0634 0.0000 16.9170
# 5 -9.1609 6.3523 -6.4085 0.0000 32.2770 0.0000
# 6 0.0000 0.0000 0.0000 16.9170 0.0000 58.1567
#
#
#
# Elastic Compliance Matrix: (Units=1/GPa)
#
#
# Indices 1 2 3 4 5 6 
#
# 1 0.004575 -0.001208 0.000663 0.000000 0.001668 0.000000
# 2 -0.001208 0.007729 -0.001342 0.000000 -0.002130 0.000000
# 3 0.000663 -0.001342 0.008376 0.000000 0.002115 0.000000
# 4 0.000000 0.000000 0.000000 0.018135 0.000000 -0.005275
# 5 0.001668 -0.002130 0.002115 0.000000 0.032294 0.000000
# 6 0.000000 0.000000 0.000000 -0.005275 0.000000 0.018729
#
#
# Mechanical properties :
#
#
# Convention : Reuss Voigt Hill
#
# Bulk Modulus (GPa) = 59.14889 63.78594 61.46741
# Shear Modulus (GPa) = 50.37922 60.55986 55.46954
#
# Velocity S-wave (km/s) = 4.80162 5.26446 5.03836
# Velocity P-wave (km/s) = 7.60326 8.13288 7.87252
#
# Compressibility (1/GPa) = 0.01690649
#
# Stress axis : x y z
#
# Youngs Moduli (GPa) = 218.57677 129.38828 119.38832
#
# Poissons Ratio (x) = 0.15629 -0.07918
# Poissons Ratio (y) = 0.26402 0.16021
# Poissons Ratio (z) = -0.14496 0.17363
#
# Static dielectric constant tensor:
#      x y z
#    x 1.839430 0.000000 -0.015420 
#    y 0.000000 1.751750 0.000000 
#    z -0.015420 0.000000 1.813240 
# 
# From -- ./inp_files/84268.got.cif
#   From: 2010.05.17/outbox.cif.g08.bks.cpg/sg13_43_cif.got.tgz:84268.got - 2010.06.03 16:44:36.
