data_PCOD9238982
_publ_section_title
;
Structure prediction by ZEFSAII (Michael W. Deem and Ramdas Pophale) SiO2 
 PCOD9238982
Probable space group: P 2/C
;
_chemical_formula_sum "Si O2"
_cell_formula_units_Z 28
_cell_length_a 30.000000
_cell_length_b 9.000000
_cell_length_c 30.000000
_cell_angle_alpha 90.000000
_cell_angle_beta 170.000000
_cell_angle_gamma 90.000000
_cell_volume 1406.550239
_symmetry_space_group_name_H-M "P 2/C"
_symmetry_group_IT_number 13
_symmetry_cell_setting 'monoclinic'
loop_
_space_group_symop_operation_xyz
x,y,z
-x,y,1/2-z
-x,-y,-z
x,-y,1/2+z
loop_
_atom_site_type_symbol
_atom_site_label
_atom_site_fract_x
_atom_site_fract_y
_atom_site_fract_z
Si Si1 0.968991 0.541577 0.772617
Si Si2 0.999900 0.205340 0.548017
Si Si3 0.017368 0.773092 0.367086
Si Si4 0.351646 0.051978 0.399153
Si Si5 0.521559 0.677264 0.522146
Si Si6 0.476073 0.964999 0.621849
Si Si7 0.468007 0.274629 0.772080
O O1 0.000000 0.530366 0.750000
O O2 0.007409 0.379134 0.830583
O O3 0.691167 0.613012 0.507548
O O4 0.191783 0.652066 0.008595
O O5 0.032426 0.261823 0.630102
O O6 0.729930 0.264277 0.263678
O O7 0.071458 0.028064 0.620405
O O8 0.232766 0.270900 0.748425
O O9 0.288414 0.858180 0.633428
O O10 0.790586 0.883879 0.128977
O O11 0.373736 0.230568 0.417670
O O12 0.500000 0.000000 0.500000
O O13 0.468564 0.996288 0.561002
O O14 0.500000 0.500000 0.500000
O O15 0.502925 0.119170 0.674215
O O16 0.500000 0.253537 0.750000
#
# Coordination Sequence:
#
# PCOD9238982 Si02
#       7
#     4   4   4   4   4   4   4
#     4  10  22  40  62  86 118 158 191 233 301 358
#     4  10  21  38  55  78 113 152 186 235 295 340
#     4  11  22  38  60  87 116 149 198 242 281 349
#     4   9  20  38  58  78 114 155 191 236 291 349
#     4  11  22  36  56  83 110 147 196 242 286 341
#     4  11  23  37  60  91 116 154 201 243 293 344
#     4  10  22  41  61  87 122 155 190 239 297 355
#
# _framework density 19.906860999999999
#
# number of rings (size 3 to 8) (size 9 to 14) (size 15 to 20)
#    0.000    1.714    0.000    5.143    0.000    6.857 
#    0.000    0.000    0.000    0.000    0.000    0.000 
#    0.000    0.000    0.000    0.000    0.000    0.000 
#
# Total GULP energy -156300.732417 kJ/mol
# GULP energy per Si atom -5582.169015 kJ/mol
# Density = 1.986155 g / cm^3
# Si number density = 19.906861 Si / 1000 Ang^3
#
#
#
# Elastic Constant Matrix: (Units=GPa)
#
#
# Indices 1 2 3 4 5 6 
#
# 1 28.8311 31.8826 27.1397 0.0000 -15.1679 0.0000
# 2 31.8826 143.6108 49.9465 0.0000 -27.8334 0.0000
# 3 27.1397 49.9465 119.3058 0.0000 -27.4883 0.0000
# 4 0.0000 0.0000 0.0000 39.3912 0.0000 -4.9473
# 5 -15.1679 -27.8334 -27.4883 0.0000 18.2667 0.0000
# 6 0.0000 0.0000 0.0000 -4.9473 0.0000 14.2100
#
#
#
# Elastic Compliance Matrix: (Units=1/GPa)
#
#
# Indices 1 2 3 4 5 6 
#
# 1 0.065330 -0.005419 -0.003056 0.000000 0.041392 0.000000
# 2 -0.005419 0.010413 -0.000777 0.000000 0.010198 0.000000
# 3 -0.003056 -0.000777 0.013080 0.000000 0.015961 0.000000
# 4 0.000000 0.000000 0.000000 0.026547 0.000000 0.009243
# 5 0.041392 0.010198 0.015961 0.000000 0.128672 0.000000
# 6 0.000000 0.000000 0.000000 0.009243 0.000000 0.073591
#
#
# Mechanical properties :
#
#
# Convention : Reuss Voigt Hill
#
# Bulk Modulus (GPa) = 14.22091 56.63167 35.42629
# Shear Modulus (GPa) = 13.90529 26.55883 20.23206
#
# Velocity S-wave (km/s) = 2.64582 3.65657 3.19146
# Velocity P-wave (km/s) = 4.06116 6.80716 5.60493
#
# Compressibility (1/GPa) = 0.07031897
#
# Stress axis : x y z
#
# Youngs Moduli (GPa) = 15.30701 96.03452 76.45359
#
# Poissons Ratio (x) = 0.52037 0.23364
# Poissons Ratio (y) = 0.08294 0.05941
# Poissons Ratio (z) = 0.04678 0.07463
#
# Static dielectric constant tensor:
#      x y z
#    x 1.710300 0.000000 0.007830 
#    y 0.000000 1.733520 0.000000 
#    z 0.007830 0.000000 1.728850 
# 
# From -- ./inp_files/98013.got.cif
#   From: 2010.05.17/outbox.ucp.g08.bks.cvg/sg13_50_cif.got.tgz:98013.got - 2010.06.11 12:23:55.
