data_PCOD9238331
_publ_section_title
;
Structure prediction by ZEFSAII (Michael W. Deem and Ramdas Pophale) SiO2 
 PCOD9238331
Probable space group: P 2/C
;
_chemical_formula_sum "Si O2"
_cell_formula_units_Z 26
_cell_length_a 8.185177
_cell_length_b 8.818579
_cell_length_c 19.419367
_cell_angle_alpha 90.000000
_cell_angle_beta 119.943449
_cell_angle_gamma 90.000000
_cell_volume 1214.617642
_symmetry_space_group_name_H-M "P 2/C"
_symmetry_group_IT_number 13
_symmetry_cell_setting 'monoclinic'
loop_
_space_group_symop_operation_xyz
x,y,z
-x,y,1/2-z
-x,-y,-z
x,-y,1/2+z
loop_
_atom_site_type_symbol
_atom_site_label
_atom_site_fract_x
_atom_site_fract_y
_atom_site_fract_z
Si Si1 0.583058 0.107403 0.340836
Si Si2 0.431594 0.427857 0.316595
Si Si3 0.506265 0.119710 0.561417
Si Si4 0.949638 0.822772 0.980253
Si Si5 0.713829 0.405750 0.982799
Si Si6 0.173708 0.689136 0.404390
Si Si7 0.000000 0.459958 0.750000
O O1 0.500000 0.064882 0.250000
O O2 0.462059 0.250739 0.341091
O O3 0.795216 0.173772 0.386998
O O4 0.574216 0.963211 0.388837
O O5 0.500000 0.444212 0.250000
O O6 0.580694 0.525620 0.394109
O O7 0.210448 0.463572 0.287296
O O8 0.392783 0.262369 0.509171
O O9 0.703922 0.199477 0.617487
O O10 0.500000 0.000000 0.500000
O O11 0.859905 0.784484 0.034554
O O12 0.095326 0.682348 0.000927
O O13 0.000000 0.000000 0.000000
O O14 0.743399 0.534058 0.045853
O O15 0.005078 0.636824 0.321095
#
# Coordination Sequence:
#
# PCOD9238331 Si02
#       7
#     4   4   4   4   4   4   2
#     4  11  26  45  71 108 149 191 242 303 380 441
#     4  11  25  48  72 107 145 190 245 309 371 441
#     4  12  23  45  69 103 144 187 238 299 363 439
#     4  12  24  46  72 106 140 194 245 298 371 450
#     4  12  24  44  76  99 141 192 240 302 356 445
#     4  12  26  44  70 106 140 187 251 296 368 440
#     4  12  28  44  72 112 144 188 250 310 374 438
#
# _framework density 21.405913000000002
#
# number of rings (size 3 to 8) (size 9 to 14) (size 15 to 20)
#    0.000    0.308    6.154    1.846    6.462    1.846 
#    0.000    0.769    0.000    0.000    0.000    0.000 
#    0.000    0.000    0.000    0.000    0.000    0.000 
#
# Total GULP energy -144842.498933 kJ/mol
# GULP energy per Si atom -5570.865344 kJ/mol
# Density = 2.135719 g / cm^3
# Si number density = 21.405913 Si / 1000 Ang^3
#
#
#
# Elastic Constant Matrix: (Units=GPa)
#
#
# Indices 1 2 3 4 5 6 
#
# 1 65.3718 28.3780 23.7189 0.0000 14.0633 0.0000
# 2 28.3780 153.2254 44.4987 0.0000 0.1756 0.0000
# 3 23.7189 44.4987 126.0563 0.0000 6.8590 0.0000
# 4 0.0000 0.0000 0.0000 13.2328 0.0000 1.1456
# 5 14.0633 0.1756 6.8590 0.0000 34.8060 0.0000
# 6 0.0000 0.0000 0.0000 1.1456 0.0000 37.6283
#
#
#
# Elastic Compliance Matrix: (Units=1/GPa)
#
#
# Indices 1 2 3 4 5 6 
#
# 1 0.018864 -0.002862 -0.002148 0.000000 -0.007184 0.000000
# 2 -0.002862 0.007714 -0.002270 0.000000 0.001565 0.000000
# 3 -0.002148 -0.002270 0.009189 0.000000 -0.000931 0.000000
# 4 0.000000 0.000000 0.000000 0.075769 0.000000 -0.002307
# 5 -0.007184 0.001565 -0.000931 0.000000 0.031809 0.000000
# 6 0.000000 0.000000 0.000000 -0.002307 0.000000 0.026646
#
#
# Mechanical properties :
#
#
# Convention : Reuss Voigt Hill
#
# Bulk Modulus (GPa) = 47.15264 59.76050 53.45657
# Shear Modulus (GPa) = 26.09326 33.67064 29.88195
#
# Velocity S-wave (km/s) = 3.49517 3.97036 3.74032
# Velocity P-wave (km/s) = 6.19386 6.99976 6.60911
#
# Compressibility (1/GPa) = 0.02120772
#
# Stress axis : x y z
#
# Youngs Moduli (GPa) = 53.00988 129.64017 108.82459
#
# Poissons Ratio (x) = 0.37098 0.23381
# Poissons Ratio (y) = 0.15169 0.24700
# Poissons Ratio (z) = 0.11389 0.29424
#
# Static dielectric constant tensor:
#      x y z
#    x 1.865910 0.000000 0.165420 
#    y 0.000000 1.730330 0.000000 
#    z 0.165420 0.000000 1.784270 
# 
# From -- ./inp_files/75970.got.cif
#   From: 2010.05.17/outbox.cif.g08.bks.cpg/sg13_38_cif.got.tgz:75970.got - 2010.06.03 16:44:36.
