data_PCOD9238472
_publ_section_title
;
Structure prediction by ZEFSAII (Michael W. Deem and Ramdas Pophale) SiO2 
 PCOD9238472
Probable space group: P 2/C
;
_chemical_formula_sum "Si O2"
_cell_formula_units_Z 22
_cell_length_a 12.410414
_cell_length_b 8.236619
_cell_length_c 16.338596
_cell_angle_alpha 90.000000
_cell_angle_beta 148.331175
_cell_angle_gamma 90.000000
_cell_volume 876.832084
_symmetry_space_group_name_H-M "P 2/C"
_symmetry_group_IT_number 13
_symmetry_cell_setting 'monoclinic'
loop_
_space_group_symop_operation_xyz
x,y,z
-x,y,1/2-z
-x,-y,-z
x,-y,1/2+z
loop_
_atom_site_type_symbol
_atom_site_label
_atom_site_fract_x
_atom_site_fract_y
_atom_site_fract_z
Si Si1 0.853542 0.754739 0.004271
Si Si2 0.308650 0.223618 0.725027
Si Si3 0.000000 0.553346 0.250000
Si Si4 0.312169 0.845873 0.765418
Si Si5 0.345830 0.309794 0.444352
Si Si6 0.852530 0.874096 0.541801
O O1 0.874714 0.645475 0.097906
O O2 0.082525 0.751861 0.115092
O O3 0.808012 0.936659 0.004454
O O4 0.705999 0.740391 0.829294
O O5 0.280131 0.229048 0.609237
O O6 0.365562 0.033517 0.781214
O O7 0.464505 0.340692 0.872333
O O8 0.820588 0.449225 0.177573
O O9 0.435442 0.763864 0.918592
O O10 0.083807 0.852914 0.658404
O O11 0.212095 0.182266 0.411089
#
# Coordination Sequence:
#
# PCOD9238472 Si02
#       6
#     4   4   2   4   4   4
#     4   9  22  41  61  83 123 166 203 244 308 371
#     4   9  20  37  65  90 115 153 208 266 303 340
#     4  12  26  36  60  90 130 176 196 236 314 378
#     4   9  18  38  62  91 113 154 206 255 306 350
#     4  12  21  36  62  95 121 155 208 253 305 360
#     4   9  18  38  65  87 113 156 206 257 298 355
#
# _framework density 25.090323999999999
#
# number of rings (size 3 to 8) (size 9 to 14) (size 15 to 20)
#    0.000    2.182    1.818    3.273    5.091    1.455 
#    0.000    0.000    4.000    0.000    0.000    0.000 
#    0.000    0.000    0.000    0.000    0.000    0.000 
#
# Total GULP energy -122930.366607 kJ/mol
# GULP energy per Si atom -5587.743937 kJ/mol
# Density = 2.503322 g / cm^3
# Si number density = 25.090324 Si / 1000 Ang^3
#
#
#
# Elastic Constant Matrix: (Units=GPa)
#
#
# Indices 1 2 3 4 5 6 
#
# 1 95.8155 24.0987 27.1566 0.0000 -26.6521 0.0000
# 2 24.0987 26.7195 11.0774 0.0000 -26.5884 0.0000
# 3 27.1566 11.0774 86.1561 0.0000 -23.2167 0.0000
# 4 0.0000 0.0000 0.0000 25.2826 0.0000 -10.5648
# 5 -26.6521 -26.5884 -23.2167 0.0000 61.7207 0.0000
# 6 0.0000 0.0000 0.0000 -10.5648 0.0000 15.9850
#
#
#
# Elastic Compliance Matrix: (Units=1/GPa)
#
#
# Indices 1 2 3 4 5 6 
#
# 1 0.014191 -0.011519 -0.002980 0.000000 0.000045 0.000000
# 2 -0.011519 0.074921 0.001508 0.000000 0.027868 0.000000
# 3 -0.002980 0.001508 0.013554 0.000000 0.004461 0.000000
# 4 0.000000 0.000000 0.000000 0.054645 0.000000 0.036116
# 5 0.000045 0.027868 0.004461 0.000000 0.029905 0.000000
# 6 0.000000 0.000000 0.000000 0.036116 0.000000 0.086428
#
#
# Mechanical properties :
#
#
# Convention : Reuss Voigt Hill
#
# Bulk Modulus (GPa) = 13.04057 37.03965 25.04011
# Shear Modulus (GPa) = 15.37571 30.35488 22.86529
#
# Velocity S-wave (km/s) = 2.47819 3.48203 3.02208
# Velocity P-wave (km/s) = 3.66024 5.56422 4.70945
#
# Compressibility (1/GPa) = 0.07668374
#
# Stress axis : x y z
#
# Youngs Moduli (GPa) = 70.46755 13.34736 73.77639
#
# Poissons Ratio (x) = 0.15375 0.21985
# Poissons Ratio (y) = 0.81172 -0.11122
# Poissons Ratio (z) = 0.20999 -0.02012
#
# Static dielectric constant tensor:
#      x y z
#    x 1.974690 0.000000 0.022600 
#    y 0.000000 1.973460 0.000000 
#    z 0.022600 0.000000 2.056700 
# 
# From -- ./inp_files/63529.got.cif
#   From: 2010.05.17/outbox.cif.g08.bks.cpg/sg13_32_cif.got.tgz:63529.got - 2010.06.03 16:44:36.
