data_PCOD9238937
_publ_section_title
;
Structure prediction by ZEFSAII (Michael W. Deem and Ramdas Pophale) SiO2 
 PCOD9238937
Probable space group: P 2/C
;
_chemical_formula_sum "Si O2"
_cell_formula_units_Z 32
_cell_length_a 9.000000
_cell_length_b 12.000000
_cell_length_c 15.000000
_cell_angle_alpha 90.000000
_cell_angle_beta 90.000000
_cell_angle_gamma 90.000000
_cell_volume 1620.000000
_symmetry_space_group_name_H-M "P 2/C"
_symmetry_group_IT_number 13
_symmetry_cell_setting 'monoclinic'
loop_
_space_group_symop_operation_xyz
x,y,z
-x,y,1/2-z
-x,-y,-z
x,-y,1/2+z
loop_
_atom_site_type_symbol
_atom_site_label
_atom_site_fract_x
_atom_site_fract_y
_atom_site_fract_z
Si Si1 0.269599 0.971008 0.018346
Si Si2 0.829473 0.748122 0.557596
Si Si3 0.460524 0.039477 0.847255
Si Si4 0.830326 0.219093 0.447476
Si Si5 0.651541 0.278910 0.625593
Si Si6 0.821711 0.288286 0.251297
Si Si7 0.385836 0.588229 0.045659
Si Si8 0.676372 0.522782 0.262068
O O1 0.385792 0.953094 0.098202
O O2 0.179098 0.084616 0.038892
O O3 0.184283 0.856327 0.004717
O O4 0.356207 0.985576 0.923831
O O5 0.777433 0.772834 0.659335
O O6 0.728644 0.647550 0.520696
O O7 0.005818 0.727801 0.556363
O O8 0.500000 0.989796 0.750000
O O9 0.379856 0.158799 0.831106
O O10 0.748653 0.267123 0.535341
O O11 0.764915 0.245858 0.348180
O O12 0.492977 0.319483 0.588764
O O13 0.705473 0.370326 0.698089
O O14 0.770364 0.415122 0.237048
O O15 0.000000 0.280011 0.250000
O O16 0.301565 0.540495 0.132134
O O17 0.500000 0.500000 0.000000
O O18 0.500000 0.498748 0.250000
#
# Coordination Sequence:
#
# PCOD9238937 Si02
#       8
#     4   4   4   4   4   4   4   4
#     4  10  22  38  61  90 120 159 204 249 315 369
#     4  11  22  40  61  87 120 160 203 255 307 370
#     4  10  20  37  60  92 119 151 195 255 309 359
#     4  10  23  41  60  85 122 162 203 250 307 374
#     4  10  20  38  60  84 121 152 195 250 298 362
#     4  10  23  40  58  84 120 158 201 248 301 366
#     4  11  21  36  61  89 119 154 201 252 305 358
#     4  10  21  38  60  90 117 157 197 248 303 361
#
# _framework density 19.753086
#
# number of rings (size 3 to 8) (size 9 to 14) (size 15 to 20)
#    0.000    1.750    1.250    3.750    1.750    1.000 
#    0.000    3.125    0.000    0.000    0.000    0.000 
#    0.000    0.000    0.000    0.000    0.000    0.000 
#
# Total GULP energy -178362.020038 kJ/mol
# GULP energy per Si atom -5573.813126 kJ/mol
# Density = 1.970813 g / cm^3
# Si number density = 19.753086 Si / 1000 Ang^3
#
#
#
# Elastic Constant Matrix: (Units=GPa)
#
#
# Indices 1 2 3 4 5 6 
#
# 1 26.3208 10.1181 21.3413 0.0000 4.0372 0.0000
# 2 10.1181 67.5543 29.4738 0.0000 11.4262 0.0000
# 3 21.3413 29.4738 141.1790 0.0000 -3.5498 0.0000
# 4 0.0000 0.0000 0.0000 25.5722 0.0000 -0.4101
# 5 4.0372 11.4262 -3.5498 0.0000 30.6859 0.0000
# 6 0.0000 0.0000 0.0000 -0.4101 0.0000 18.4634
#
#
#
# Elastic Compliance Matrix: (Units=1/GPa)
#
#
# Indices 1 2 3 4 5 6 
#
# 1 0.045147 -0.003068 -0.006323 0.000000 -0.005529 0.000000
# 2 -0.003068 0.017888 -0.003438 0.000000 -0.006655 0.000000
# 3 -0.006323 -0.003438 0.008836 0.000000 0.003134 0.000000
# 4 0.000000 0.000000 0.000000 0.039119 0.000000 0.000869
# 5 -0.005529 -0.006655 0.003134 0.000000 0.036156 0.000000
# 6 0.000000 0.000000 0.000000 0.000869 0.000000 0.054181
#
#
# Mechanical properties :
#
#
# Convention : Reuss Voigt Hill
#
# Bulk Modulus (GPa) = 21.63929 39.65784 30.64857
# Shear Modulus (GPa) = 20.62800 26.55235 23.59018
#
# Velocity S-wave (km/s) = 3.23506 3.67033 3.45955
# Velocity P-wave (km/s) = 4.99328 6.17107 5.61315
#
# Compressibility (1/GPa) = 0.04621223
#
# Stress axis : x y z
#
# Youngs Moduli (GPa) = 22.14984 55.90323 113.17849
#
# Poissons Ratio (x) = 0.17152 0.71564
# Poissons Ratio (y) = 0.06796 0.38911
# Poissons Ratio (z) = 0.14006 0.19220
#
# Static dielectric constant tensor:
#      x y z
#    x 1.689510 0.000000 0.002810 
#    y 0.000000 1.719890 0.000000 
#    z 0.002810 0.000000 1.728320 
# 
# From -- ./inp_files/47240.got.cif
#   From: 2010.05.17/outbox.ucp.g08.bks.cvg/sg13_24_cif.got.tgz:47240.got - 2010.06.11 12:23:55.
