data_PCOD9238358
_publ_section_title
;
Structure prediction by ZEFSAII (Michael W. Deem and Ramdas Pophale) SiO2 
 PCOD9238358
Probable space group: P 2/C
;
_chemical_formula_sum "Si O2"
_cell_formula_units_Z 20
_cell_length_a 9.351095
_cell_length_b 5.625795
_cell_length_c 14.711400
_cell_angle_alpha 90.000000
_cell_angle_beta 114.175242
_cell_angle_gamma 90.000000
_cell_volume 706.052020
_symmetry_space_group_name_H-M "P 2/C"
_symmetry_group_IT_number 13
_symmetry_cell_setting 'monoclinic'
loop_
_space_group_symop_operation_xyz
x,y,z
-x,y,1/2-z
-x,-y,-z
x,-y,1/2+z
loop_
_atom_site_type_symbol
_atom_site_label
_atom_site_fract_x
_atom_site_fract_y
_atom_site_fract_z
Si Si1 0.365375 0.057464 0.658491
Si Si2 0.560798 0.250654 0.470869
Si Si3 0.812570 0.969969 0.713049
Si Si4 0.185881 0.527393 0.281752
Si Si5 0.184486 0.481970 0.562818
O O1 0.500000 0.196575 0.750000
O O2 0.230495 0.973685 0.692021
O O3 0.273571 0.232125 0.566685
O O4 0.467682 0.845134 0.641858
O O5 0.500000 0.500000 0.500000
O O6 0.739256 0.325308 0.484415
O O7 0.500000 0.000000 0.500000
O O8 0.744836 0.224230 0.664346
O O9 0.000000 0.976037 0.750000
O O10 0.760957 0.718389 0.659806
O O11 0.208615 0.509793 0.179051
O O12 0.000000 0.538755 0.250000
O O13 0.000000 0.500000 0.500000
#
# Coordination Sequence:
#
# PCOD9238358 Si02
#       5
#     4   4   4   4   4
#     4  11  25  50  80 115 165 221 285 343 419 501
#     4  12  26  54  75 117 167 224 272 339 430 516
#     4   9  18  38  64 100 140 183 249 326 391 450
#     4   9  18  38  64  99 140 184 245 321 392 452
#     4  11  25  50  81 118 165 213 278 347 425 505
#
# _framework density 28.326525
#
# number of rings (size 3 to 8) (size 9 to 14) (size 15 to 20)
#    0.000    1.600    4.000    0.000    0.000    1.600 
#   21.600    0.000    0.000    0.000    0.000    0.000 
#    0.000    0.000    0.000    0.000    0.000    0.000 
#
# Total GULP energy -111395.481366 kJ/mol
# GULP energy per Si atom -5569.774068 kJ/mol
# Density = 2.826205 g / cm^3
# Si number density = 28.326525 Si / 1000 Ang^3
#
#
#
# Elastic Constant Matrix: (Units=GPa)
#
#
# Indices 1 2 3 4 5 6 
#
# 1 237.0610 74.6281 62.9993 0.0000 -24.1233 0.0000
# 2 74.6281 314.6950 56.8968 0.0000 9.8363 0.0000
# 3 62.9993 56.8968 112.6809 0.0000 -31.7240 0.0000
# 4 0.0000 0.0000 0.0000 45.2593 0.0000 -3.2157
# 5 -24.1233 9.8363 -31.7240 0.0000 69.5468 0.0000
# 6 0.0000 0.0000 0.0000 -3.2157 0.0000 53.3636
#
#
#
# Elastic Compliance Matrix: (Units=1/GPa)
#
#
# Indices 1 2 3 4 5 6 
#
# 1 0.005165 -0.000855 -0.002200 0.000000 0.000909 0.000000
# 2 -0.000855 0.003779 -0.001909 0.000000 -0.001702 0.000000
# 3 -0.002200 -0.001909 0.012540 0.000000 0.005227 0.000000
# 4 0.000000 0.000000 0.000000 0.022190 0.000000 0.001337
# 5 0.000909 -0.001702 0.005227 0.000000 0.017319 0.000000
# 6 0.000000 0.000000 0.000000 0.001337 0.000000 0.018820
#
#
# Mechanical properties :
#
#
# Convention : Reuss Voigt Hill
#
# Bulk Modulus (GPa) = 86.54002 117.05392 101.79697
# Shear Modulus (GPa) = 53.42296 64.96146 59.19221
#
# Velocity S-wave (km/s) = 4.34749 4.79405 4.57622
# Velocity P-wave (km/s) = 7.47115 8.48862 7.99608
#
# Compressibility (1/GPa) = 0.01155535
#
# Stress axis : x y z
#
# Youngs Moduli (GPa) = 193.62183 264.62749 79.74486
#
# Poissons Ratio (x) = 0.22639 0.17541
# Poissons Ratio (y) = 0.16564 0.15223
# Poissons Ratio (z) = 0.42590 0.50517
#
# Static dielectric constant tensor:
#      x y z
#    x 2.303480 0.000000 0.060290 
#    y 0.000000 2.587680 0.000000 
#    z 0.060290 0.000000 2.663140 
# 
# From -- ./inp_files/62473.got.cif
#   From: 2010.05.17/outbox.cif.g08.bks.cpg/sg13_32_cif.got.tgz:62473.got - 2010.06.03 16:44:36.
