data_PCOD9238129
_publ_section_title
;
Structure prediction by ZEFSAII (Michael W. Deem and Ramdas Pophale) SiO2 
 PCOD9238129
Probable space group: P 2/C
;
_chemical_formula_sum "Si O2"
_cell_formula_units_Z 16
_cell_length_a 8.388146
_cell_length_b 17.614714
_cell_length_c 8.673220
_cell_angle_alpha 90.000000
_cell_angle_beta 31.980159
_cell_angle_gamma 90.000000
_cell_volume 678.720360
_symmetry_space_group_name_H-M "P 2/C"
_symmetry_group_IT_number 13
_symmetry_cell_setting 'monoclinic'
loop_
_space_group_symop_operation_xyz
x,y,z
-x,y,1/2-z
-x,-y,-z
x,-y,1/2+z
loop_
_atom_site_type_symbol
_atom_site_label
_atom_site_fract_x
_atom_site_fract_y
_atom_site_fract_z
Si Si1 0.909643 0.578963 0.150377
Si Si2 0.332849 0.170774 0.039561
Si Si3 0.291253 0.659692 0.622876
Si Si4 0.190563 0.938841 0.940111
O O1 0.566775 0.600829 0.389648
O O2 0.000000 0.567794 0.250000
O O3 0.000000 0.500000 0.000000
O O4 0.127111 0.647238 0.918425
O O5 0.434413 0.257189 0.986302
O O6 0.302101 0.123713 0.223170
O O7 0.000000 0.179012 0.250000
O O8 0.500000 0.139663 0.750000
O O9 0.000000 0.647420 0.750000
O O10 0.500000 0.972905 0.750000
O O11 0.000000 0.914386 0.250000
O O12 0.000000 0.000000 0.000000
#
# Coordination Sequence:
#
# PCOD9238129 Si02
#       4
#     4   4   4   4
#     4  12  26  44  67 100 140 184 233 293 355 425
#     4  11  24  46  74 105 142 188 239 297 361 431
#     4  11  24  45  72 101 138 183 233 291 358 427
#     4  12  27  47  73 106 147 193 241 299 358 427
#
# _framework density 23.573772999999999
#
# number of rings (size 3 to 8) (size 9 to 14) (size 15 to 20)
#    0.000    0.500    0.000    9.000    0.000    7.000 
#    0.000    0.000    0.000    0.000    0.000    0.000 
#    0.000    0.000    0.000    0.000    0.000    0.000 
#
# Total GULP energy -89389.278395 kJ/mol
# GULP energy per Si atom -5586.829900 kJ/mol
# Density = 2.352012 g / cm^3
# Si number density = 23.573773 Si / 1000 Ang^3
#
#
#
# Elastic Constant Matrix: (Units=GPa)
#
#
# Indices 1 2 3 4 5 6 
#
# 1 156.4485 90.0420 70.5666 0.0000 14.3301 0.0000
# 2 90.0420 134.6043 62.2175 0.0000 3.1891 0.0000
# 3 70.5666 62.2175 163.3104 0.0000 15.5995 0.0000
# 4 0.0000 0.0000 0.0000 22.8838 0.0000 -9.1247
# 5 14.3301 3.1891 15.5995 0.0000 71.9573 0.0000
# 6 0.0000 0.0000 0.0000 -9.1247 0.0000 51.2231
#
#
#
# Elastic Compliance Matrix: (Units=1/GPa)
#
#
# Indices 1 2 3 4 5 6 
#
# 1 0.011262 -0.006450 -0.002269 0.000000 -0.001465 0.000000
# 2 -0.006450 0.012720 -0.002173 0.000000 0.001192 0.000000
# 3 -0.002269 -0.002173 0.008046 0.000000 -0.001196 0.000000
# 4 0.000000 0.000000 0.000000 0.047040 0.000000 0.008380
# 5 -0.001465 0.001192 -0.001196 0.000000 0.014395 0.000000
# 6 0.000000 0.000000 0.000000 0.008380 0.000000 0.021015
#
#
# Mechanical properties :
#
#
# Convention : Reuss Voigt Hill
#
# Bulk Modulus (GPa) = 97.61860 100.00170 98.81015
# Shear Modulus (GPa) = 35.79711 44.64864 40.22287
#
# Velocity S-wave (km/s) = 3.90104 4.35673 4.13517
# Velocity P-wave (km/s) = 7.86070 8.23535 8.05020
#
# Compressibility (1/GPa) = 0.01024395
#
# Stress axis : x y z
#
# Youngs Moduli (GPa) = 88.79701 78.61732 124.28876
#
# Poissons Ratio (x) = 0.50707 0.28201
# Poissons Ratio (y) = 0.57273 0.27006
# Poissons Ratio (z) = 0.20148 0.17082
#
# Static dielectric constant tensor:
#      x y z
#    x 1.935740 0.000000 0.079170 
#    y 0.000000 1.963650 0.000000 
#    z 0.079170 0.000000 1.949680 
# 
# From -- ./inp_files/12976.got.cif
#   From: 2010.05.17/outbox.cif.g08.bks.cpg/sg13_7_cif.got.tgz:12976.got - 2010.06.03 16:44:36.
