data_PCOD9238416
_publ_section_title
;
Structure prediction by ZEFSAII (Michael W. Deem and Ramdas Pophale) SiO2 
 PCOD9238416
Probable space group: P 2/C
;
_chemical_formula_sum "Si O2"
_cell_formula_units_Z 16
_cell_length_a 8.250828
_cell_length_b 4.851772
_cell_length_c 18.541552
_cell_angle_alpha 90.000000
_cell_angle_beta 129.322230
_cell_angle_gamma 90.000000
_cell_volume 574.192245
_symmetry_space_group_name_H-M "P 2/C"
_symmetry_group_IT_number 13
_symmetry_cell_setting 'monoclinic'
loop_
_space_group_symop_operation_xyz
x,y,z
-x,y,1/2-z
-x,-y,-z
x,-y,1/2+z
loop_
_atom_site_type_symbol
_atom_site_label
_atom_site_fract_x
_atom_site_fract_y
_atom_site_fract_z
Si Si1 0.153387 0.683297 0.091420
Si Si2 0.619884 0.203400 0.979472
Si Si3 0.274133 0.141731 0.209933
Si Si4 0.779734 0.439398 0.162787
O O1 0.262249 0.874285 0.059840
O O2 0.263557 0.439171 0.168057
O O3 0.103931 0.917793 0.135928
O O4 0.000000 0.500000 0.000000
O O5 0.435680 0.394459 0.895917
O O6 0.780772 0.356951 0.078998
O O7 0.500000 0.000000 0.000000
O O8 0.500000 0.022843 0.250000
O O9 0.251646 0.193544 0.288623
O O10 0.000000 0.566703 0.250000
#
# Coordination Sequence:
#
# PCOD9238416 Si02
#       4
#     4   4   4   4
#     4  12  27  49  80 117 161 213 275 339 411 490
#     4  11  26  50  79 115 166 211 271 345 411 489
#     4  12  25  49  79 114 156 214 272 330 407 494
#     4  11  26  49  76 115 157 212 266 331 412 491
#
# _framework density 27.865234000000001
#
# number of rings (size 3 to 8) (size 9 to 14) (size 15 to 20)
#    0.000    0.500    2.500    4.500    7.000    1.000 
#    4.500    0.000    0.000    0.000    0.000    0.000 
#    0.000    0.000    0.000    0.000    0.000    0.000 
#
# Total GULP energy -89505.715458 kJ/mol
# GULP energy per Si atom -5594.107216 kJ/mol
# Density = 2.780181 g / cm^3
# Si number density = 27.865234 Si / 1000 Ang^3
#
#
#
# Elastic Constant Matrix: (Units=GPa)
#
#
# Indices 1 2 3 4 5 6 
#
# 1 76.1519 12.6839 39.4017 0.0000 -22.6310 0.0000
# 2 12.6839 131.1116 59.0193 0.0000 -4.1812 0.0000
# 3 39.4017 59.0193 234.7846 0.0000 -2.4236 0.0000
# 4 0.0000 0.0000 0.0000 75.8018 0.0000 -16.4905
# 5 -22.6310 -4.1812 -2.4236 0.0000 47.9517 0.0000
# 6 0.0000 0.0000 0.0000 -16.4905 0.0000 46.1897
#
#
#
# Elastic Compliance Matrix: (Units=1/GPa)
#
#
# Indices 1 2 3 4 5 6 
#
# 1 0.016885 -0.000163 -0.002712 0.000000 0.007818 0.000000
# 2 -0.000163 0.008622 -0.002134 0.000000 0.000567 0.000000
# 3 -0.002712 -0.002134 0.005238 0.000000 -0.001201 0.000000
# 4 0.000000 0.000000 0.000000 0.014303 0.000000 0.005106
# 5 0.007818 0.000567 -0.001201 0.000000 0.024533 0.000000
# 6 0.000000 0.000000 0.000000 0.005106 0.000000 0.023473
#
#
# Mechanical properties :
#
#
# Convention : Reuss Voigt Hill
#
# Bulk Modulus (GPa) = 48.24713 73.80644 61.02678
# Shear Modulus (GPa) = 45.46211 56.05152 50.75681
#
# Velocity S-wave (km/s) = 4.04356 4.48986 4.27255
# Velocity P-wave (km/s) = 6.25720 7.30910 6.80351
#
# Compressibility (1/GPa) = 0.02072662
#
# Stress axis : x y z
#
# Youngs Moduli (GPa) = 59.22287 115.98803 190.89896
#
# Poissons Ratio (x) = 0.01896 0.51770
# Poissons Ratio (y) = 0.00968 0.40737
# Poissons Ratio (z) = 0.16061 0.24752
#
# Static dielectric constant tensor:
#      x y z
#    x 2.848840 0.000000 0.313460 
#    y 0.000000 2.208410 0.000000 
#    z 0.313460 0.000000 2.207520 
# 
# From -- ./inp_files/62555.got.cif
#   From: 2010.05.17/outbox.cif.g08.bks.cpg/sg13_32_cif.got.tgz:62555.got - 2010.06.03 16:44:36.
