data_PCOD9238485
_publ_section_title
;
Structure prediction by ZEFSAII (Michael W. Deem and Ramdas Pophale) SiO2 
 PCOD9238485
Probable space group: P 2/C
;
_chemical_formula_sum "Si O2"
_cell_formula_units_Z 26
_cell_length_a 11.473129
_cell_length_b 11.152319
_cell_length_c 18.583236
_cell_angle_alpha 90.000000
_cell_angle_beta 35.917863
_cell_angle_gamma 90.000000
_cell_volume 1394.854397
_symmetry_space_group_name_H-M "P 2/C"
_symmetry_group_IT_number 13
_symmetry_cell_setting 'monoclinic'
loop_
_space_group_symop_operation_xyz
x,y,z
-x,y,1/2-z
-x,-y,-z
x,-y,1/2+z
loop_
_atom_site_type_symbol
_atom_site_label
_atom_site_fract_x
_atom_site_fract_y
_atom_site_fract_z
Si Si1 0.759553 0.708173 0.571351
Si Si2 0.757310 0.907996 0.290000
Si Si3 0.237569 0.901218 0.820209
Si Si4 0.242690 0.907996 0.047309
Si Si5 0.500000 0.500000 0.750000
Si Si6 0.240447 0.291827 0.830904
Si Si7 0.762431 0.098782 0.557778
O O1 0.705456 0.775048 0.673996
O O2 0.706039 0.800769 0.533784
O O3 0.642446 0.584386 0.630879
O O4 0.000000 0.692165 0.448897
O O5 0.688459 0.890306 0.405770
O O6 0.706039 0.800769 0.260177
O O7 0.000000 0.907935 0.169590
O O8 0.698263 0.037501 0.285912
O O9 0.284435 1.000000 0.857782
O O10 1.000000 0.895509 0.935475
O O11 0.301737 0.037501 0.984175
O O12 0.357555 0.415614 0.773324
O O13 0.294544 0.224952 0.879452
#
# Coordination Sequence:
#
# PCOD9238485 Si02
#       7
#     4   4   4   4   2   4   4
#     4   9  18  32  49  71  98 126 161 202 235 274
#     4   8  13  25  50  79 101 122 148 186 246 306
#     4   7  11  23  44  68  93 118 146 188 238 281
#     4   8  13  25  50  79 101 122 148 186 246 306
#     4  12  22  32  48  66  88 132 182 204 224 266
#     4   9  18  32  49  71  98 126 161 202 235 274
#     4   7  11  23  44  68  93 118 146 188 238 281
#
# _framework density 18.639938000000001
#
# number of rings (size 3 to 8) (size 9 to 14) (size 15 to 20)
#    0.000    3.692    0.000    4.154    0.000    0.000 
#    0.000    7.692    0.000    5.538    0.000    8.615 
#    0.000    0.000    0.000    0.000    0.000    0.000 
#
# Total GULP energy -144798.614287 kJ/mol
# GULP energy per Si atom -5569.177473 kJ/mol
# Density = 1.859751 g / cm^3
# Si number density = 18.639938 Si / 1000 Ang^3
#
#
#
# Elastic Constant Matrix: (Units=GPa)
#
#
# Indices 1 2 3 4 5 6 
#
# 1 87.0682 47.5409 52.5114 0.0000 13.7286 0.0000
# 2 47.5409 116.9032 44.6426 0.0000 9.7545 0.0000
# 3 52.5114 44.6426 81.2269 0.0000 5.9313 0.0000
# 4 0.0000 0.0000 0.0000 26.5601 0.0000 -8.5134
# 5 13.7286 9.7545 5.9313 0.0000 41.4824 0.0000
# 6 0.0000 0.0000 0.0000 -8.5134 0.0000 24.0306
#
#
#
# Elastic Compliance Matrix: (Units=1/GPa)
#
#
# Indices 1 2 3 4 5 6 
#
# 1 0.021040 -0.003942 -0.011110 0.000000 -0.004447 0.000000
# 2 -0.003942 0.011687 -0.003809 0.000000 -0.000899 0.000000
# 3 -0.011110 -0.003809 0.021477 0.000000 0.001502 0.000000
# 4 0.000000 0.000000 0.000000 0.042474 0.000000 0.015047
# 5 -0.004447 -0.000899 0.001502 0.000000 0.025575 0.000000
# 6 0.000000 0.000000 0.000000 0.015047 0.000000 0.046944
#
#
# Mechanical properties :
#
#
# Convention : Reuss Voigt Hill
#
# Bulk Modulus (GPa) = 60.67549 63.84311 62.25930
# Shear Modulus (GPa) = 23.53897 27.78153 25.66025
#
# Velocity S-wave (km/s) = 3.55748 3.86480 3.71432
# Velocity P-wave (km/s) = 7.03535 7.36482 7.20197
#
# Compressibility (1/GPa) = 0.01648112
#
# Stress axis : x y z
#
# Youngs Moduli (GPa) = 47.52901 85.56640 46.56053
#
# Poissons Ratio (x) = 0.33733 0.51730
# Poissons Ratio (y) = 0.18738 0.17734
# Poissons Ratio (z) = 0.52806 0.32591
#
# Static dielectric constant tensor:
#      x y z
#    x 1.694810 0.000000 -0.043260 
#    y 0.000000 1.637950 0.000000 
#    z -0.043260 0.000000 1.707660 
# 
# From -- ./inp_files/66477.got.cif
#   From: 2010.05.17/outbox.cif.g08.bks.cpg/sg13_34_cif.got.tgz:66477.got - 2010.06.03 16:44:36.
