data_PCOD9238922
_publ_section_title
;
Structure prediction by ZEFSAII (Michael W. Deem and Ramdas Pophale) SiO2 
 PCOD9238922
Probable space group: P 2/C
;
_chemical_formula_sum "Si O2"
_cell_formula_units_Z 32
_cell_length_a 18.000000
_cell_length_b 24.000000
_cell_length_c 12.000000
_cell_angle_alpha 90.000000
_cell_angle_beta 20.000000
_cell_angle_gamma 90.000000
_cell_volume 1773.032423
_symmetry_space_group_name_H-M "P 2/C"
_symmetry_group_IT_number 13
_symmetry_cell_setting 'monoclinic'
loop_
_space_group_symop_operation_xyz
x,y,z
-x,y,1/2-z
-x,-y,-z
x,-y,1/2+z
loop_
_atom_site_type_symbol
_atom_site_label
_atom_site_fract_x
_atom_site_fract_y
_atom_site_fract_z
Si Si1 0.166624 0.255369 0.412794
Si Si2 0.857546 0.663967 0.222122
Si Si3 0.365421 0.943954 0.212782
Si Si4 0.028120 0.943570 0.891752
Si Si5 0.463210 0.444529 0.621968
Si Si6 0.528187 0.335935 0.387760
Si Si7 0.332408 0.139114 0.088350
Si Si8 0.130409 0.444553 0.284147
O O1 0.365262 0.292259 0.178692
O O2 0.250948 0.197458 0.248290
O O3 0.036039 0.291001 0.505302
O O4 0.000000 0.246661 0.750000
O O5 0.682215 0.686015 0.380893
O O6 0.714957 0.650254 0.533410
O O7 0.974209 0.608519 0.014401
O O8 0.207274 0.952419 0.542119
O O9 0.201365 0.929715 0.343278
O O10 0.536060 0.896128 0.004691
O O11 0.500000 0.000000 0.000000
O O12 0.129831 0.896690 0.827800
O O13 0.000000 0.000000 0.000000
O O14 0.500000 0.500000 0.500000
O O15 0.459155 0.391567 0.547887
O O16 0.670582 0.437437 0.410288
O O17 0.246016 0.449013 0.001594
O O18 0.500000 0.147017 0.750000
O O19 0.000000 0.500000 0.500000
#
# Coordination Sequence:
#
# PCOD9238922 Si02
#       8
#     4   4   4   4   4   4   4   4
#     4  10  22  40  60  84 116 154 195 240 285 336
#     4  10  21  39  62  85 112 149 192 238 289 342
#     4  10  20  35  57  85 117 153 192 236 288 340
#     4  10  20  35  57  85 117 153 192 236 288 340
#     4  11  23  37  56  85 118 151 190 235 288 348
#     4  10  21  39  62  85 112 149 192 238 289 342
#     4  10  22  38  56  84 120 154 193 238 283 340
#     4  11  23  37  56  85 118 151 190 235 288 348
#
# _framework density 18.048175000000001
#
# number of rings (size 3 to 8) (size 9 to 14) (size 15 to 20)
#    0.000    1.750    2.500    1.500    0.000    8.000 
#    0.000    0.000    0.000    0.000    0.000    0.000 
#    0.000    0.000    0.000    0.000    0.000    0.000 
#
# Total GULP energy -178708.338455 kJ/mol
# GULP energy per Si atom -5584.635577 kJ/mol
# Density = 1.800710 g / cm^3
# Si number density = 18.048175 Si / 1000 Ang^3
#
#
#
# Elastic Constant Matrix: (Units=GPa)
#
#
# Indices 1 2 3 4 5 6 
#
# 1 121.5856 81.0930 60.4237 0.0000 -25.9988 0.0000
# 2 81.0930 160.8816 79.3830 0.0000 -10.5655 0.0000
# 3 60.4237 79.3830 93.0267 0.0000 -27.1213 0.0000
# 4 0.0000 0.0000 0.0000 38.5891 0.0000 6.3425
# 5 -25.9988 -10.5655 -27.1213 0.0000 25.0233 0.0000
# 6 0.0000 0.0000 0.0000 6.3425 0.0000 24.8275
#
#
#
# Elastic Compliance Matrix: (Units=1/GPa)
#
#
# Indices 1 2 3 4 5 6 
#
# 1 0.015861 -0.006747 -0.000834 0.000000 0.012726 0.000000
# 2 -0.006747 0.014790 -0.012370 0.000000 -0.014173 0.000000
# 3 -0.000834 -0.012370 0.029344 0.000000 0.025715 0.000000
# 4 0.000000 0.000000 0.000000 0.027050 0.000000 -0.006910
# 5 0.012726 -0.014173 0.025715 0.000000 0.075072 0.000000
# 6 0.000000 0.000000 0.000000 -0.006910 0.000000 0.042043
#
#
# Mechanical properties :
#
#
# Convention : Reuss Voigt Hill
#
# Bulk Modulus (GPa) = 49.77180 90.81037 70.29108
# Shear Modulus (GPa) = 19.93951 27.99426 23.96689
#
# Velocity S-wave (km/s) = 3.32745 3.94265 3.64804
# Velocity P-wave (km/s) = 6.51150 8.43509 7.53493
#
# Compressibility (1/GPa) = 0.02009170
#
# Stress axis : x y z
#
# Youngs Moduli (GPa) = 63.04955 67.61503 34.07850
#
# Poissons Ratio (x) = 0.45622 0.02842
# Poissons Ratio (y) = 0.42541 0.42155
# Poissons Ratio (z) = 0.05259 0.83639
#
# Static dielectric constant tensor:
#      x y z
#    x 1.653340 0.000000 -0.011040 
#    y 0.000000 1.560450 0.000000 
#    z -0.011040 0.000000 1.600490 
# 
# From -- ./inp_files/39532.got.cif
#   From: 2010.05.17/outbox.ucp.g08.bks.cvg/sg13_20_cif.got.tgz:39532.got - 2010.06.11 12:23:55.
