data_PCOD9238219
_publ_section_title
;
Structure prediction by ZEFSAII (Michael W. Deem and Ramdas Pophale) SiO2 
 PCOD9238219
Probable space group: P 2/C
;
_chemical_formula_sum "Si O2"
_cell_formula_units_Z 16
_cell_length_a 20.105574
_cell_length_b 6.226259
_cell_length_c 10.373554
_cell_angle_alpha 90.000000
_cell_angle_beta 33.346971
_cell_angle_gamma 90.000000
_cell_volume 713.843734
_symmetry_space_group_name_H-M "P 2/C"
_symmetry_group_IT_number 13
_symmetry_cell_setting 'monoclinic'
loop_
_space_group_symop_operation_xyz
x,y,z
-x,y,1/2-z
-x,-y,-z
x,-y,1/2+z
loop_
_atom_site_type_symbol
_atom_site_label
_atom_site_fract_x
_atom_site_fract_y
_atom_site_fract_z
Si Si1 0.764209 0.601186 0.098866
Si Si2 0.643312 0.660313 0.017074
Si Si3 0.946495 0.307614 0.673328
Si Si4 0.167736 0.016595 0.849891
O O1 0.692334 0.611142 0.081122
O O2 0.682970 0.519991 0.349133
O O3 0.820822 0.831201 0.044202
O O4 0.871557 0.430611 0.904034
O O5 0.500000 0.684586 0.250000
O O6 0.712799 0.875232 0.860164
O O7 0.853109 0.174995 0.736467
O O8 0.000000 0.500000 0.500000
O O9 0.052448 0.140740 0.534644
#
# Coordination Sequence:
#
# PCOD9238219 Si02
#       4
#     4   4   4   4
#     4  12  26  51  77 115 153 201 254 320 387 457
#     4  12  29  51  77 108 152 206 263 319 377 453
#     4  11  24  49  74 114 156 198 245 319 386 462
#     4  11  26  47  77 111 156 197 257 303 397 456
#
# _framework density 22.413871
#
# number of rings (size 3 to 8) (size 9 to 14) (size 15 to 20)
#    0.000    0.500    5.000    0.750    3.500    8.000 
#    0.000    0.000    0.000    0.000    0.000    0.000 
#    0.000    0.000    0.000    0.000    0.000    0.000 
#
# Total GULP energy -89681.280343 kJ/mol
# GULP energy per Si atom -5605.080021 kJ/mol
# Density = 2.236286 g / cm^3
# Si number density = 22.413871 Si / 1000 Ang^3
#
#
#
# Elastic Constant Matrix: (Units=GPa)
#
#
# Indices 1 2 3 4 5 6 
#
# 1 149.1024 71.2608 61.9461 0.0000 7.1797 0.0000
# 2 71.2608 133.9122 58.9285 0.0000 -4.4978 0.0000
# 3 61.9461 58.9285 147.1195 0.0000 -16.4480 0.0000
# 4 0.0000 0.0000 0.0000 40.2645 0.0000 14.0970
# 5 7.1797 -4.4978 -16.4480 0.0000 36.6968 0.0000
# 6 0.0000 0.0000 0.0000 14.0970 0.0000 60.7509
#
#
#
# Elastic Compliance Matrix: (Units=1/GPa)
#
#
# Indices 1 2 3 4 5 6 
#
# 1 0.010159 -0.004204 -0.003025 0.000000 -0.003859 0.000000
# 2 -0.004204 0.010816 -0.002444 0.000000 0.001053 0.000000
# 3 -0.003025 -0.002444 0.009562 0.000000 0.004578 0.000000
# 4 0.000000 0.000000 0.000000 0.027032 0.000000 -0.006273
# 5 -0.003859 0.001053 0.004578 0.000000 0.030186 0.000000
# 6 0.000000 0.000000 0.000000 -0.006273 0.000000 0.017916
#
#
# Mechanical properties :
#
#
# Convention : Reuss Voigt Hill
#
# Bulk Modulus (GPa) = 89.37076 90.48945 89.93011
# Shear Modulus (GPa) = 38.83578 43.40903 41.12240
#
# Velocity S-wave (km/s) = 4.16705 4.40557 4.28797
# Velocity P-wave (km/s) = 7.94430 8.14484 8.04520
#
# Compressibility (1/GPa) = 0.01118934
#
# Stress axis : x y z
#
# Youngs Moduli (GPa) = 98.43771 92.45601 104.58457
#
# Poissons Ratio (x) = 0.38873 0.31634
# Poissons Ratio (y) = 0.41388 0.25563
# Poissons Ratio (z) = 0.29775 0.22599
#
# Static dielectric constant tensor:
#      x y z
#    x 1.909100 0.000000 0.049440 
#    y 0.000000 1.834350 0.000000 
#    z 0.049440 0.000000 1.797790 
# 
# From -- ./inp_files/31131.got.cif
#   From: 2010.05.17/outbox.cif.g08.bks.cpg/sg13_16_cif.got.tgz:31131.got - 2010.06.03 16:44:36.
