data_PCOD9238776
_publ_section_title
;
Structure prediction by ZEFSAII (Michael W. Deem and Ramdas Pophale) SiO2 
 PCOD9238776
Probable space group: P 2/C
;
_chemical_formula_sum "Si O2"
_cell_formula_units_Z 14
_cell_length_a 14.532025
_cell_length_b 4.800617
_cell_length_c 20.841258
_cell_angle_alpha 90.000000
_cell_angle_beta 20.985934
_cell_angle_gamma 90.000000
_cell_volume 520.713017
_symmetry_space_group_name_H-M "P 2/C"
_symmetry_group_IT_number 13
_symmetry_cell_setting 'monoclinic'
loop_
_space_group_symop_operation_xyz
x,y,z
-x,y,1/2-z
-x,-y,-z
x,-y,1/2+z
loop_
_atom_site_type_symbol
_atom_site_label
_atom_site_fract_x
_atom_site_fract_y
_atom_site_fract_z
Si Si1 0.751480 0.976424 0.516346
Si Si2 0.499194 0.799802 0.437476
Si Si3 0.000000 0.591631 0.250000
Si Si4 0.972075 0.477785 0.942435
O O1 0.519268 0.036690 0.618899
O O2 0.867270 0.256642 0.471320
O O3 0.754470 0.394693 0.397978
O O4 0.762595 0.763210 0.567267
O O5 0.064208 0.805485 0.151805
O O6 0.500000 0.000000 0.500000
O O7 0.748016 0.608847 0.266499
O O8 0.000000 0.500000 0.000000
#
# Coordination Sequence:
#
# PCOD9238776 Si02
#       4
#     4   4   2   4
#     4  12  28  51  82 125 161 214 287 340 411 512
#     4  12  29  52  90 122 171 218 277 359 425 492
#     4  12  26  52  80 130 166 206 290 346 426 490
#     4  12  30  56  80 121 170 225 278 340 429 506
#
# _framework density 26.886213000000001
#
# number of rings (size 3 to 8) (size 9 to 14) (size 15 to 20)
#    0.000    0.000    2.857    5.143    4.000    4.571 
#    5.143    0.000    0.000    0.000    0.000    0.000 
#    0.000    0.000    0.000    0.000    0.000    0.000 
#
# Total GULP energy -78449.658471 kJ/mol
# GULP energy per Si atom -5603.547034 kJ/mol
# Density = 2.682502 g / cm^3
# Si number density = 26.886213 Si / 1000 Ang^3
#
#
#
# Elastic Constant Matrix: (Units=GPa)
#
#
# Indices 1 2 3 4 5 6 
#
# 1 270.2293 103.1760 37.3982 0.0000 6.4414 0.0000
# 2 103.1760 211.4771 47.7903 0.0000 -18.2674 0.0000
# 3 37.3982 47.7903 118.7405 0.0000 -22.1355 0.0000
# 4 0.0000 0.0000 0.0000 -214.8726 0.0000 -139.2278
# 5 6.4414 -18.2674 -22.1355 0.0000 39.1761 0.0000
# 6 0.0000 0.0000 0.0000 -139.2278 0.0000 5.9393
#
#
#
# Elastic Compliance Matrix: (Units=1/GPa)
#
#
# Indices 1 2 3 4 5 6 
#
# 1 0.004785 -0.002313 -0.001033 0.000000 -0.002449 0.000000
# 2 -0.002313 0.006388 -0.001360 0.000000 0.002591 0.000000
# 3 -0.001033 -0.001360 0.010292 0.000000 0.005351 0.000000
# 4 0.000000 0.000000 0.000000 -0.000287 0.000000 -0.006739
# 5 -0.002449 0.002591 0.005351 0.000000 0.030160 0.000000
# 6 0.000000 0.000000 0.000000 -0.006739 0.000000 0.010400
#
#
# Mechanical properties :
#
#
# Convention : Reuss Voigt Hill
#
# Bulk Modulus (GPa) = 82.95630 108.57509 95.76570
# Shear Modulus (GPa) = 66.52036 -6.47927 30.02054
#
# Velocity S-wave (km/s) = 4.97947 -1.55406 3.34515
# Velocity P-wave (km/s) = 7.99886 6.10333 7.11451
#
# Compressibility (1/GPa) = 0.01205454
#
# Stress axis : x y z
#
# Youngs Moduli (GPa) = 208.99505 156.54486 97.16525
#
# Poissons Ratio (x) = 0.36202 0.10034
# Poissons Ratio (y) = 0.48331 0.13212
# Poissons Ratio (z) = 0.21583 0.21286
#
# Static dielectric constant tensor:
#      x y z
#    x 2.264880 0.000000 0.035420 
#    y 0.000000 2.167340 0.000000 
#    z 0.035420 0.000000 2.168500 
# 
# From -- ./inp_files/62215.got.cif
#   From: 2010.05.17/outbox.cif.g08.bks.cpg/sg13_32_cif.got.tgz:62215.got - 2010.06.03 16:44:36.
