data_PCOD9238607
_publ_section_title
;
Structure prediction by ZEFSAII (Michael W. Deem and Ramdas Pophale) SiO2 
 PCOD9238607
Probable space group: P 2/C
;
_chemical_formula_sum "Si O2"
_cell_formula_units_Z 12
_cell_length_a 23.176049
_cell_length_b 4.766597
_cell_length_c 9.104799
_cell_angle_alpha 90.000000
_cell_angle_beta 151.588084
_cell_angle_gamma 90.000000
_cell_volume 478.574060
_symmetry_space_group_name_H-M "P 2/C"
_symmetry_group_IT_number 13
_symmetry_cell_setting 'monoclinic'
loop_
_space_group_symop_operation_xyz
x,y,z
-x,y,1/2-z
-x,-y,-z
x,-y,1/2+z
loop_
_atom_site_type_symbol
_atom_site_label
_atom_site_fract_x
_atom_site_fract_y
_atom_site_fract_z
Si Si1 0.749757 0.944235 0.727255
Si Si2 0.908332 0.757628 0.824206
Si Si3 0.588287 0.415590 0.326577
O O1 0.853731 0.789629 0.864843
O O2 0.656818 0.688310 0.546672
O O3 0.681409 0.180800 0.478786
O O4 0.800476 0.146683 0.970689
O O5 0.000000 0.500000 0.000000
O O6 0.000000 0.000000 0.000000
O O7 0.500000 0.282493 0.250000
O O8 0.500000 0.500000 0.000000
#
# Coordination Sequence:
#
# PCOD9238607 Si02
#       3
#     4   4   4
#     4  12  25  45  70 102 141 186 237 296 357 426
#     4  12  26  46  70 102 141 188 239 296 357 426
#     4  12  24  43  69 102 139 184 234 292 356 428
#
# _framework density 25.074490999999998
#
# number of rings (size 3 to 8) (size 9 to 14) (size 15 to 20)
#    0.000    0.000    0.000   11.000    0.000    2.667 
#    0.000    0.000    0.000    0.000    0.000    0.000 
#    0.000    0.000    0.000    0.000    0.000    0.000 
#
# Total GULP energy -67003.666272 kJ/mol
# GULP energy per Si atom -5583.638856 kJ/mol
# Density = 2.501742 g / cm^3
# Si number density = 25.074491 Si / 1000 Ang^3
#
#
#
# Elastic Constant Matrix: (Units=GPa)
#
#
# Indices 1 2 3 4 5 6 
#
# 1 81.5452 8.9009 15.4840 0.0000 -5.3092 0.0000
# 2 8.9009 203.0431 51.9554 0.0000 8.7674 0.0000
# 3 15.4840 51.9554 110.4495 0.0000 0.4157 0.0000
# 4 0.0000 0.0000 0.0000 49.4934 0.0000 20.9893
# 5 -5.3092 8.7674 0.4157 0.0000 22.4626 0.0000
# 6 0.0000 0.0000 0.0000 20.9893 0.0000 38.1539
#
#
#
# Elastic Compliance Matrix: (Units=1/GPa)
#
#
# Indices 1 2 3 4 5 6 
#
# 1 0.012818 -0.000268 -0.001683 0.000000 0.003165 0.000000
# 2 -0.000268 0.005709 -0.002640 0.000000 -0.002243 0.000000
# 3 -0.001683 -0.002640 0.010530 0.000000 0.000438 0.000000
# 4 0.000000 0.000000 0.000000 0.026353 0.000000 -0.014497
# 5 0.003165 -0.002243 0.000438 0.000000 0.046134 0.000000
# 6 0.000000 0.000000 0.000000 -0.014497 0.000000 0.034185
#
#
# Mechanical properties :
#
#
# Convention : Reuss Voigt Hill
#
# Bulk Modulus (GPa) = 50.31135 60.85759 55.58447
# Shear Modulus (GPa) = 32.99576 43.26848 38.13212
#
# Velocity S-wave (km/s) = 3.63148 4.15854 3.90391
# Velocity P-wave (km/s) = 6.13937 6.88341 6.52201
#
# Compressibility (1/GPa) = 0.01987623
#
# Stress axis : x y z
#
# Youngs Moduli (GPa) = 78.01517 175.15998 94.96847
#
# Poissons Ratio (x) = 0.04694 0.15981
# Poissons Ratio (y) = 0.02091 0.25067
# Poissons Ratio (z) = 0.13129 0.46234
#
# Static dielectric constant tensor:
#      x y z
#    x 2.001390 0.000000 0.015410 
#    y 0.000000 1.835690 0.000000 
#    z 0.015410 0.000000 2.077640 
# 
# From -- ./inp_files/14000.got.cif
#   From: 2010.05.17/outbox.cif.g08.bks.cpg/sg13_7_cif.got.tgz:14000.got - 2010.06.03 16:44:36.
