data_PCOD9238896
_publ_section_title
;
Structure prediction by ZEFSAII (Michael W. Deem and Ramdas Pophale) SiO2 
 PCOD9238896
Probable space group: P 2/C
;
_chemical_formula_sum "Si O2"
_cell_formula_units_Z 28
_cell_length_a 12.000000
_cell_length_b 9.000000
_cell_length_c 15.000000
_cell_angle_alpha 90.000000
_cell_angle_beta 70.000000
_cell_angle_gamma 90.000000
_cell_volume 1522.302046
_symmetry_space_group_name_H-M "P 2/C"
_symmetry_group_IT_number 13
_symmetry_cell_setting 'monoclinic'
loop_
_space_group_symop_operation_xyz
x,y,z
-x,y,1/2-z
-x,-y,-z
x,-y,1/2+z
loop_
_atom_site_type_symbol
_atom_site_label
_atom_site_fract_x
_atom_site_fract_y
_atom_site_fract_z
Si Si1 0.086885 0.902883 0.651025
Si Si2 0.218873 0.903725 0.433052
Si Si3 0.474714 0.962943 0.904823
Si Si4 0.813174 0.548201 0.057660
Si Si5 0.993042 0.566978 0.855305
Si Si6 0.610386 0.667434 0.661188
Si Si7 0.723377 0.916255 0.750086
O O1 0.136164 0.958497 0.540063
O O2 0.021447 0.746614 0.646463
O O3 0.204921 0.882748 0.679251
O O4 0.000000 0.979598 0.750000
O O5 0.200936 0.726431 0.431192
O O6 0.357147 0.943278 0.413061
O O7 0.202200 0.984542 0.341577
O O8 0.438883 0.790857 0.894874
O O9 0.595212 0.986415 0.813714
O O10 0.500000 0.000000 0.000000
O O11 0.689528 0.461019 0.097491
O O12 0.896152 0.487453 0.115600
O O13 0.880053 0.516163 0.945531
O O14 0.000000 0.516080 0.750000
O O15 0.500000 0.610661 0.750000
O O16 0.691324 0.765925 0.706028
#
# Coordination Sequence:
#
# PCOD9238896 Si02
#       7
#     4   4   4   4   4   4   4
#     4  10  19  34  59  82 109 153 194 225 275 343
#     4  10  21  36  58  85 114 147 187 243 287 333
#     4  10  19  38  60  80 114 152 190 233 288 340
#     4  10  20  38  59  87 115 146 191 238 284 333
#     4   9  19  37  61  79 112 157 184 227 283 341
#     4   9  19  33  57  83 111 151 189 228 282 349
#     4  10  20  37  60  82 113 155 190 229 287 341
#
# _framework density 18.393196
#
# number of rings (size 3 to 8) (size 9 to 14) (size 15 to 20)
#    0.000    2.286    1.429    3.000    0.000    1.714 
#    2.571    4.286    0.000    0.000    0.000    0.000 
#    0.000    0.000    0.000    0.000    0.000    0.000 
#
# Total GULP energy -155969.703361 kJ/mol
# GULP energy per Si atom -5570.346549 kJ/mol
# Density = 1.835133 g / cm^3
# Si number density = 18.393196 Si / 1000 Ang^3
#
#
#
# Elastic Constant Matrix: (Units=GPa)
#
#
# Indices 1 2 3 4 5 6 
#
# 1 58.4773 19.0699 25.9407 0.0000 -9.3548 0.0000
# 2 19.0699 49.6974 36.9231 0.0000 -11.2699 0.0000
# 3 25.9407 36.9231 163.3714 0.0000 -17.7897 0.0000
# 4 0.0000 0.0000 0.0000 27.7011 0.0000 -10.6928
# 5 -9.3548 -11.2699 -17.7897 0.0000 45.2794 0.0000
# 6 0.0000 0.0000 0.0000 -10.6928 0.0000 25.3348
#
#
#
# Elastic Compliance Matrix: (Units=1/GPa)
#
#
# Indices 1 2 3 4 5 6 
#
# 1 0.020113 -0.006071 -0.001602 0.000000 0.002015 0.000000
# 2 -0.006071 0.026745 -0.004693 0.000000 0.003559 0.000000
# 3 -0.001602 -0.004693 0.007598 0.000000 0.001486 0.000000
# 4 0.000000 0.000000 0.000000 0.043126 0.000000 0.018202
# 5 0.002015 0.003559 0.001486 0.000000 0.023971 0.000000
# 6 0.000000 0.000000 0.000000 0.018202 0.000000 0.047154
#
#
# Mechanical properties :
#
#
# Convention : Reuss Voigt Hill
#
# Bulk Modulus (GPa) = 33.64243 48.37928 41.01085
# Shear Modulus (GPa) = 24.58857 32.30389 28.44623
#
# Velocity S-wave (km/s) = 3.66023 4.19536 3.93690
# Velocity P-wave (km/s) = 6.01610 7.05890 6.55826
#
# Compressibility (1/GPa) = 0.02972437
#
# Stress axis : x y z
#
# Youngs Moduli (GPa) = 49.71801 37.39021 131.61477
#
# Poissons Ratio (x) = 0.22698 0.21088
# Poissons Ratio (y) = 0.30182 0.61769
# Poissons Ratio (z) = 0.07966 0.17548
#
# Static dielectric constant tensor:
#      x y z
#    x 1.679100 0.000000 -0.009970 
#    y 0.000000 1.618980 0.000000 
#    z -0.009970 0.000000 1.663870 
# 
# From -- ./inp_files/49981.got.cif
#   From: 2010.05.17/outbox.ucp.g08.bks.cvg/sg13_25_cif.got.tgz:49981.got - 2010.06.11 12:23:55.
