data_PCOD9238542
_publ_section_title
;
Structure prediction by ZEFSAII (Michael W. Deem and Ramdas Pophale) SiO2 
 PCOD9238542
Probable space group: P 2/C
;
_chemical_formula_sum "Si O2"
_cell_formula_units_Z 22
_cell_length_a 6.271765
_cell_length_b 17.583274
_cell_length_c 10.548597
_cell_angle_alpha 90.000000
_cell_angle_beta 110.768013
_cell_angle_gamma 90.000000
_cell_volume 1087.694363
_symmetry_space_group_name_H-M "P 2/C"
_symmetry_group_IT_number 13
_symmetry_cell_setting 'monoclinic'
loop_
_space_group_symop_operation_xyz
x,y,z
-x,y,1/2-z
-x,-y,-z
x,-y,1/2+z
loop_
_atom_site_type_symbol
_atom_site_label
_atom_site_fract_x
_atom_site_fract_y
_atom_site_fract_z
Si Si1 0.710881 0.038287 0.113942
Si Si2 0.000000 0.641045 0.250000
Si Si3 0.000000 0.908550 0.250000
Si Si4 0.500000 0.839288 0.750000
Si Si5 0.541356 0.435305 0.610812
Si Si6 0.015717 0.156185 0.032630
Si Si7 0.697101 0.720198 0.388950
O O1 0.602524 0.107470 0.164649
O O2 0.794877 0.968647 0.218783
O O3 0.918940 0.078418 0.078501
O O4 0.500000 0.000000 0.000000
O O5 0.198227 0.589005 0.345158
O O6 0.104427 0.691395 0.161619
O O7 0.036410 0.862426 0.386893
O O8 0.256407 0.810116 0.637324
O O9 0.500000 0.458260 0.750000
O O10 0.500000 0.500000 0.500000
O O11 0.401042 0.356015 0.565681
O O12 0.809967 0.217076 0.000889
O O13 0.500000 0.749057 0.250000
#
# Coordination Sequence:
#
# PCOD9238542 Si02
#       7
#     4   2   2   2   4   4   4
#     4  12  24  41  61  88 121 161 221 279 324 375
#     4   8  17  38  64  89 126 156 204 246 303 360
#     4  12  23  40  62  91 112 168 230 272 321 380
#     4  12  24  42  60  80 128 170 202 276 332 380
#     4   9  19  37  67  97 128 162 204 257 306 381
#     4  12  25  40  64  91 124 167 217 268 331 385
#     4   9  21  37  61  94 121 159 209 261 308 377
#
# _framework density 20.226271000000001
#
# number of rings (size 3 to 8) (size 9 to 14) (size 15 to 20)
#    0.000    1.818    3.636    2.182    2.545    5.818 
#    0.000    0.000   20.000    0.000    0.000    0.000 
#    0.000    0.000    0.000    0.000    0.000    0.000 
#
# Total GULP energy -122476.022621 kJ/mol
# GULP energy per Si atom -5567.091937 kJ/mol
# Density = 2.018024 g / cm^3
# Si number density = 20.226271 Si / 1000 Ang^3
#
#
#
# Elastic Constant Matrix: (Units=GPa)
#
#
# Indices 1 2 3 4 5 6 
#
# 1 100.1284 31.4751 37.8902 0.0000 21.7890 0.0000
# 2 31.4751 98.4270 57.4503 0.0000 22.8470 0.0000
# 3 37.8902 57.4503 101.1680 0.0000 23.4773 0.0000
# 4 0.0000 0.0000 0.0000 -56.7558 0.0000 -2.1964
# 5 21.7890 22.8470 23.4773 0.0000 33.4871 0.0000
# 6 0.0000 0.0000 0.0000 -2.1964 0.0000 -1.7330
#
#
#
# Elastic Compliance Matrix: (Units=1/GPa)
#
#
# Indices 1 2 3 4 5 6 
#
# 1 0.012591 -0.001116 -0.002815 0.000000 -0.005457 0.000000
# 2 -0.001116 0.016080 -0.007567 0.000000 -0.004939 0.000000
# 3 -0.002815 -0.007567 0.016258 0.000000 -0.004404 0.000000
# 4 0.000000 0.000000 0.000000 -0.018528 0.000000 0.023483
# 5 -0.005457 -0.004939 -0.004404 0.000000 0.039870 0.000000
# 6 0.000000 0.000000 0.000000 0.023483 0.000000 -0.606802
#
#
# Mechanical properties :
#
#
# Convention : Reuss Voigt Hill
#
# Bulk Modulus (GPa) = 45.59639 61.48384 53.54011
# Shear Modulus (GPa) = -9.79964 6.52685 -1.63640
#
# Velocity S-wave (km/s) = -2.20353 1.79831 -0.90045
# Velocity P-wave (km/s) = 4.01473 5.89711 5.04450
#
# Compressibility (1/GPa) = 0.02193156
#
# Stress axis : x y z
#
# Youngs Moduli (GPa) = 79.42170 62.18863 61.50824
#
# Poissons Ratio (x) = 0.06943 0.17317
# Poissons Ratio (y) = 0.08867 0.46544
# Poissons Ratio (z) = 0.22360 0.47059
#
# Static dielectric constant tensor:
#      x y z
#    x 1.804170 0.000000 -0.050910 
#    y 0.000000 1.818180 0.000000 
#    z -0.050910 0.000000 1.781660 
# 
# From -- ./inp_files/26563.got.cif
#   From: 2010.05.17/outbox.cif.g08.bks.cpg/sg13_14_cif.got.tgz:26563.got - 2010.06.03 16:44:36.
