data_PCOD9238089
_publ_section_title
;
Structure prediction by ZEFSAII (Michael W. Deem and Ramdas Pophale) SiO2 
 PCOD9238089
Probable space group: P 2/C
;
_chemical_formula_sum "Si O2"
_cell_formula_units_Z 18
_cell_length_a 17.842845
_cell_length_b 9.419555
_cell_length_c 13.440581
_cell_angle_alpha 90.000000
_cell_angle_beta 21.113973
_cell_angle_gamma 90.000000
_cell_volume 813.739810
_symmetry_space_group_name_H-M "P 2/C"
_symmetry_group_IT_number 13
_symmetry_cell_setting 'monoclinic'
loop_
_space_group_symop_operation_xyz
x,y,z
-x,y,1/2-z
-x,-y,-z
x,-y,1/2+z
loop_
_atom_site_type_symbol
_atom_site_label
_atom_site_fract_x
_atom_site_fract_y
_atom_site_fract_z
Si Si1 0.761237 0.665121 0.211639
Si Si2 0.000000 0.292248 0.750000
Si Si3 0.158587 0.360026 0.347239
Si Si4 0.569661 0.124755 0.276937
Si Si5 0.545723 0.797972 0.311215
O O1 0.711010 0.506769 0.314283
O O2 0.611433 0.781962 0.447426
O O3 0.716444 0.694349 0.150616
O O4 0.997967 0.673210 0.957585
O O5 0.026355 0.372449 0.612732
O O6 0.208764 0.200954 0.495337
O O7 0.327467 0.237317 0.135033
O O8 0.500000 0.116451 0.250000
O O9 0.597138 0.960611 0.272503
O O10 0.500000 0.777425 0.250000
#
# Coordination Sequence:
#
# PCOD9238089 Si02
#       5
#     4   2   4   4   4
#     4  11  24  45  69 102 139 178 229 291 337 412
#     4  12  24  42  70 102 132 182 230 284 356 404
#     4  11  26  43  72 102 135 183 230 280 353 407
#     4  11  24  44  70 101 139 182 230 287 346 409
#     4  11  26  44  68 103 140 184 228 283 341 410
#
# _framework density 22.120093000000001
#
# number of rings (size 3 to 8) (size 9 to 14) (size 15 to 20)
#    0.000    0.889    4.444    1.333    0.000    9.778 
#    0.000    0.000    0.000    0.000    0.000    0.000 
#    0.000    0.000    0.000    0.000    0.000    0.000 
#
# Total GULP energy -100413.388268 kJ/mol
# GULP energy per Si atom -5578.521570 kJ/mol
# Density = 2.206975 g / cm^3
# Si number density = 22.120093 Si / 1000 Ang^3
#
#
#
# Elastic Constant Matrix: (Units=GPa)
#
#
# Indices 1 2 3 4 5 6 
#
# 1 149.5784 34.5639 38.5932 0.0000 -17.2203 0.0000
# 2 34.5639 83.8359 29.7846 0.0000 -19.0022 0.0000
# 3 38.5932 29.7846 54.5578 0.0000 -2.2331 0.0000
# 4 0.0000 0.0000 0.0000 -103.6361 0.0000 61.3187
# 5 -17.2203 -19.0022 -2.2331 0.0000 44.7691 0.0000
# 6 0.0000 0.0000 0.0000 61.3187 0.0000 5.5131
#
#
#
# Elastic Compliance Matrix: (Units=1/GPa)
#
#
# Indices 1 2 3 4 5 6 
#
# 1 0.008626 -0.001036 -0.005429 0.000000 0.002607 0.000000
# 2 -0.001036 0.016654 -0.008102 0.000000 0.006266 0.000000
# 3 -0.005429 -0.008102 0.026421 0.000000 -0.004209 0.000000
# 4 0.000000 0.000000 0.000000 -0.001273 0.000000 0.014157
# 5 0.002607 0.006266 -0.004209 0.000000 0.025789 0.000000
# 6 0.000000 0.000000 0.000000 0.014157 0.000000 0.023927
#
#
# Mechanical properties :
#
#
# Convention : Reuss Voigt Hill
#
# Bulk Modulus (GPa) = 44.31701 54.87285 49.59493
# Shear Modulus (GPa) = 36.54916 1.66457 19.10687
#
# Velocity S-wave (km/s) = 4.06927 0.86842 2.94220
# Velocity P-wave (km/s) = 6.49283 5.08588 5.83194
#
# Compressibility (1/GPa) = 0.02256470
#
# Stress axis : x y z
#
# Youngs Moduli (GPa) = 115.92935 60.04497 37.84909
#
# Poissons Ratio (x) = 0.06224 0.20549
# Poissons Ratio (y) = 0.12016 0.30666
# Poissons Ratio (z) = 0.62941 0.48650
#
# Static dielectric constant tensor:
#      x y z
#    x 1.919900 0.000000 0.059670 
#    y 0.000000 1.826920 0.000000 
#    z 0.059670 0.000000 1.782660 
# 
# From -- ./inp_files/56990.got.cif
#   From: 2010.05.17/outbox.cif.g08.bks.cpg/sg13_29_cif.got.tgz:56990.got - 2010.06.03 16:44:36.
