data_PCOD9238777
_publ_section_title
;
Structure prediction by ZEFSAII (Michael W. Deem and Ramdas Pophale) SiO2 
 PCOD9238777
Probable space group: P 2/C
;
_chemical_formula_sum "Si O2"
_cell_formula_units_Z 16
_cell_length_a 9.422001
_cell_length_b 15.888552
_cell_length_c 8.331701
_cell_angle_alpha 90.000000
_cell_angle_beta 148.675127
_cell_angle_gamma 90.000000
_cell_volume 648.444190
_symmetry_space_group_name_H-M "P 2/C"
_symmetry_group_IT_number 13
_symmetry_cell_setting 'monoclinic'
loop_
_space_group_symop_operation_xyz
x,y,z
-x,y,1/2-z
-x,-y,-z
x,-y,1/2+z
loop_
_atom_site_type_symbol
_atom_site_label
_atom_site_fract_x
_atom_site_fract_y
_atom_site_fract_z
Si Si1 0.239943 0.936394 0.749518
Si Si2 0.455861 0.294208 0.997083
Si Si3 0.500000 0.831438 0.250000
Si Si4 0.008436 0.596472 0.564497
Si Si5 0.000000 0.807719 0.250000
O O1 0.158626 0.866462 0.535459
O O2 0.273963 0.889531 0.950866
O O3 0.000000 0.000000 0.500000
O O4 0.500000 0.000000 0.000000
O O5 0.422755 0.227457 0.821653
O O6 0.277346 0.373369 0.779117
O O7 0.256651 0.248228 0.936032
O O8 0.759719 0.337640 0.279941
O O9 0.000000 0.602405 0.750000
O O10 0.000000 0.500000 0.500000
#
# Coordination Sequence:
#
# PCOD9238777 Si02
#       5
#     4   4   2   4   2
#     4  12  28  50  79 117 168 220 278 345 415 496
#     4  12  28  51  82 115 167 210 276 335 414 492
#     4  12  26  52  82 110 162 222 270 338 410 496
#     4  12  27  53  81 119 159 214 270 338 412 500
#     4  12  30  52  82 132 166 222 290 350 420 500
#
# _framework density 24.674443
#
# number of rings (size 3 to 8) (size 9 to 14) (size 15 to 20)
#    0.000    0.000    2.500    5.250    1.750   12.000 
#    0.000    0.000    0.000    0.000    0.000    0.000 
#    0.000    0.000    0.000    0.000    0.000    0.000 
#
# Total GULP energy -89227.444491 kJ/mol
# GULP energy per Si atom -5576.715281 kJ/mol
# Density = 2.461828 g / cm^3
# Si number density = 24.674443 Si / 1000 Ang^3
#
#
#
# Elastic Constant Matrix: (Units=GPa)
#
#
# Indices 1 2 3 4 5 6 
#
# 1 158.1561 71.3405 50.2560 0.0000 6.9948 0.0000
# 2 71.3405 132.2750 31.5230 0.0000 -0.8076 0.0000
# 3 50.2560 31.5230 151.6339 0.0000 15.6021 0.0000
# 4 0.0000 0.0000 0.0000 40.8310 0.0000 -30.7463
# 5 6.9948 -0.8076 15.6021 0.0000 43.0705 0.0000
# 6 0.0000 0.0000 0.0000 -30.7463 0.0000 33.3895
#
#
#
# Elastic Compliance Matrix: (Units=1/GPa)
#
#
# Indices 1 2 3 4 5 6 
#
# 1 0.008956 -0.004364 -0.001977 0.000000 -0.000820 0.000000
# 2 -0.004364 0.010106 -0.000776 0.000000 0.001179 0.000000
# 3 -0.001977 -0.000776 0.007665 0.000000 -0.002470 0.000000
# 4 0.000000 0.000000 0.000000 0.079881 0.000000 0.073557
# 5 -0.000820 0.001179 -0.002470 0.000000 0.024268 0.000000
# 6 0.000000 0.000000 0.000000 0.073557 0.000000 0.097684
#
#
# Mechanical properties :
#
#
# Convention : Reuss Voigt Hill
#
# Bulk Modulus (GPa) = 80.03866 83.14490 81.59178
# Shear Modulus (GPa) = 20.24643 42.72125 31.48384
#
# Velocity S-wave (km/s) = 2.86762 4.16552 3.57595
# Velocity P-wave (km/s) = 6.59338 7.54356 7.08442
#
# Compressibility (1/GPa) = 0.01249396
#
# Stress axis : x y z
#
# Youngs Moduli (GPa) = 111.65976 98.95280 130.45668
#
# Poissons Ratio (x) = 0.43184 0.25785
# Poissons Ratio (y) = 0.48730 0.10121
# Poissons Ratio (z) = 0.22070 0.07677
#
# Static dielectric constant tensor:
#      x y z
#    x 2.300310 0.000000 -0.257050 
#    y 0.000000 1.945410 0.000000 
#    z -0.257050 0.000000 2.036800 
# 
# From -- ./inp_files/13244.got.cif
#   From: 2010.05.17/outbox.cif.g08.bks.cpg/sg13_7_cif.got.tgz:13244.got - 2010.06.03 16:44:36.
