data_PCOD9238502
_publ_section_title
;
Structure prediction by ZEFSAII (Michael W. Deem and Ramdas Pophale) SiO2 
 PCOD9238502
Probable space group: P 2/C
;
_chemical_formula_sum "Si O2"
_cell_formula_units_Z 24
_cell_length_a 31.390465
_cell_length_b 4.815344
_cell_length_c 14.572345
_cell_angle_alpha 90.000000
_cell_angle_beta 154.947918
_cell_angle_gamma 90.000000
_cell_volume 932.713719
_symmetry_space_group_name_H-M "P 2/C"
_symmetry_group_IT_number 13
_symmetry_cell_setting 'monoclinic'
loop_
_space_group_symop_operation_xyz
x,y,z
-x,y,1/2-z
-x,-y,-z
x,-y,1/2+z
loop_
_atom_site_type_symbol
_atom_site_label
_atom_site_fract_x
_atom_site_fract_y
_atom_site_fract_z
Si Si1 0.688994 0.577068 0.786951
Si Si2 0.659944 0.237293 0.431873
Si Si3 0.526953 0.249955 0.704492
Si Si4 0.871631 0.187880 0.917703
Si Si5 0.080912 0.702229 0.609896
Si Si6 0.185973 0.911399 0.000373
O O1 0.698726 0.622276 0.914449
O O2 0.597433 0.518412 0.858277
O O3 0.576376 0.659948 0.543076
O O4 0.777843 0.772884 0.921278
O O5 0.754201 0.110729 0.670037
O O6 0.587222 0.981519 0.266534
O O7 0.856700 0.827833 0.682716
O O8 0.500000 0.121935 0.750000
O O9 0.939986 0.975881 0.992185
O O10 0.876314 0.493559 0.883772
O O11 0.883599 0.172389 0.050028
O O12 0.287603 0.271049 0.701831
O O13 0.000000 0.500000 0.500000
#
# Coordination Sequence:
#
# PCOD9238502 Si02
#       6
#     4   4   4   4   4   4
#     4  12  23  42  66  99 142 188 241 286 345 410
#     4  12  22  41  64  95 139 188 236 286 346 407
#     4  12  24  38  59  98 139 187 243 289 335 404
#     4  12  25  46  75 104 140 187 231 285 357 424
#     4  12  26  49  74 106 140 177 227 296 356 430
#     4  12  24  46  72 104 140 187 232 288 353 425
#
# _framework density 25.731366999999999
#
# number of rings (size 3 to 8) (size 9 to 14) (size 15 to 20)
#    0.000    0.000    3.333    8.000    0.000    0.667 
#    0.000    1.667    0.000    0.000    0.000    0.000 
#    0.000    0.000    0.000    0.000    0.000    0.000 
#
# Total GULP energy -134450.042183 kJ/mol
# GULP energy per Si atom -5602.085091 kJ/mol
# Density = 2.567280 g / cm^3
# Si number density = 25.731367 Si / 1000 Ang^3
#
#
#
# Elastic Constant Matrix: (Units=GPa)
#
#
# Indices 1 2 3 4 5 6 
#
# 1 139.7344 26.0644 22.7030 0.0000 -13.6475 0.0000
# 2 26.0644 96.1317 14.0715 0.0000 5.3387 0.0000
# 3 22.7030 14.0715 62.0574 0.0000 -4.7448 0.0000
# 4 0.0000 0.0000 0.0000 24.7363 0.0000 0.3757
# 5 -13.6475 5.3387 -4.7448 0.0000 34.3094 0.0000
# 6 0.0000 0.0000 0.0000 0.3757 0.0000 25.9937
#
#
#
# Elastic Compliance Matrix: (Units=1/GPa)
#
#
# Indices 1 2 3 4 5 6 
#
# 1 0.008237 -0.002080 -0.002291 0.000000 0.003284 0.000000
# 2 -0.002080 0.011427 -0.002051 0.000000 -0.002889 0.000000
# 3 -0.002291 -0.002051 0.017558 0.000000 0.001836 0.000000
# 4 0.000000 0.000000 0.000000 0.040435 0.000000 -0.000584
# 5 0.003284 -0.002889 0.001836 0.000000 0.031156 0.000000
# 6 0.000000 0.000000 0.000000 -0.000584 0.000000 0.038479
#
#
# Mechanical properties :
#
#
# Convention : Reuss Voigt Hill
#
# Bulk Modulus (GPa) = 41.02082 47.06682 44.04382
# Shear Modulus (GPa) = 29.71538 32.68018 31.19778
#
# Velocity S-wave (km/s) = 3.40197 3.56765 3.48579
# Velocity P-wave (km/s) = 5.60426 5.94156 5.77537
#
# Compressibility (1/GPa) = 0.02437786
#
# Stress axis : x y z
#
# Youngs Moduli (GPa) = 121.39784 87.51097 56.95548
#
# Poissons Ratio (x) = 0.18206 0.13047
# Poissons Ratio (y) = 0.25256 0.11681
# Poissons Ratio (z) = 0.27809 0.17948
#
# Static dielectric constant tensor:
#      x y z
#    x 2.022240 0.000000 0.058850 
#    y 0.000000 1.951910 0.000000 
#    z 0.058850 0.000000 2.113940 
# 
# From -- ./inp_files/59233.got.cif
#   From: 2010.05.17/outbox.cif.g08.bks.cpg/sg13_30_cif.got.tgz:59233.got - 2010.06.03 16:44:36.
