data_PCOD9238974
_publ_section_title
;
Structure prediction by ZEFSAII (Michael W. Deem and Ramdas Pophale) SiO2 
 PCOD9238974
Probable space group: P 2/C
;
_chemical_formula_sum "Si O2"
_cell_formula_units_Z 28
_cell_length_a 15.000000
_cell_length_b 9.000000
_cell_length_c 21.000000
_cell_angle_alpha 90.000000
_cell_angle_beta 30.000000
_cell_angle_gamma 90.000000
_cell_volume 1417.500000
_symmetry_space_group_name_H-M "P 2/C"
_symmetry_group_IT_number 13
_symmetry_cell_setting 'monoclinic'
loop_
_space_group_symop_operation_xyz
x,y,z
-x,y,1/2-z
-x,-y,-z
x,-y,1/2+z
loop_
_atom_site_type_symbol
_atom_site_label
_atom_site_fract_x
_atom_site_fract_y
_atom_site_fract_z
Si Si1 0.753891 0.534722 0.822910
Si Si2 0.056041 0.983165 0.314183
Si Si3 0.652480 0.168218 0.309838
Si Si4 0.460562 0.617591 0.846373
Si Si5 0.695450 0.035230 0.463832
Si Si6 0.054438 0.665681 0.141004
Si Si7 0.453653 0.639221 0.444121
O O1 0.692714 0.689344 0.829880
O O2 0.616958 0.402079 0.890098
O O3 0.950508 0.482842 0.684788
O O4 0.724418 0.565844 0.915309
O O5 0.170241 0.067450 0.297646
O O6 0.184949 0.018640 0.173792
O O7 0.851178 0.025927 0.421848
O O8 0.038565 0.807495 0.334552
O O9 0.597281 0.251312 0.280012
O O10 0.468501 0.081577 0.440352
O O11 0.500000 0.590840 0.750000
O O12 0.499402 0.461058 0.856168
O O13 0.261326 0.663871 0.992932
O O14 0.592528 0.190629 0.534846
O O15 0.000000 0.686971 0.250000
#
# Coordination Sequence:
#
# PCOD9238974 Si02
#       7
#     4   4   4   4   4   4   4
#     4  10  22  33  62  97 121 164 210 271 319 386
#     4  11  22  32  62  97 129 165 211 267 326 388
#     4  11  22  41  60  95 134 168 212 269 333 386
#     4  11  25  45  65  88 132 181 218 266 327 384
#     4  11  21  35  59  98 135 163 203 271 335 383
#     4  12  21  39  64  99 129 167 218 272 324 383
#     4  10  21  36  60  91 129 164 209 264 330 378
#
# _framework density 19.753086
#
# number of rings (size 3 to 8) (size 9 to 14) (size 15 to 20)
#    0.000    1.143    5.714    1.286    6.000    0.000 
#    0.000    4.286    0.000    0.000    0.000    0.000 
#    0.000    0.000    0.000    0.000    0.000    0.000 
#
# Total GULP energy -155887.892641 kJ/mol
# GULP energy per Si atom -5567.424737 kJ/mol
# Density = 1.970813 g / cm^3
# Si number density = 19.753086 Si / 1000 Ang^3
#
#
#
# Elastic Constant Matrix: (Units=GPa)
#
#
# Indices 1 2 3 4 5 6 
#
# 1 44.8679 38.4331 21.9385 0.0000 -16.3230 0.0000
# 2 38.4331 120.6422 23.1639 0.0000 -18.1763 0.0000
# 3 21.9385 23.1639 30.3384 0.0000 -16.2787 0.0000
# 4 0.0000 0.0000 0.0000 18.8504 0.0000 -23.2777
# 5 -16.3230 -18.1763 -16.2787 0.0000 38.4445 0.0000
# 6 0.0000 0.0000 0.0000 -23.2777 0.0000 24.0818
#
#
#
# Elastic Compliance Matrix: (Units=1/GPa)
#
#
# Indices 1 2 3 4 5 6 
#
# 1 0.041567 -0.008490 -0.021040 0.000000 0.004726 0.000000
# 2 -0.008490 0.011553 -0.002180 0.000000 0.000934 0.000000
# 3 -0.021040 -0.002180 0.057576 0.000000 0.014415 0.000000
# 4 0.000000 0.000000 0.000000 -0.273976 0.000000 -0.264827
# 5 0.004726 0.000934 0.014415 0.000000 0.034564 0.000000
# 6 0.000000 0.000000 0.000000 -0.264827 0.000000 -0.214459
#
#
# Mechanical properties :
#
#
# Convention : Reuss Voigt Hill
#
# Bulk Modulus (GPa) = 21.15300 40.32438 30.73869
# Shear Modulus (GPa) = -18.93968 23.76289 2.41160
#
# Velocity S-wave (km/s) = -3.09984 3.47219 1.10613
# Velocity P-wave (km/s) = 1.44225 6.04428 4.15050
#
# Compressibility (1/GPa) = 0.04727461
#
# Stress axis : x y z
#
# Youngs Moduli (GPa) = 24.05736 86.55689 17.36846
#
# Poissons Ratio (x) = 0.73490 0.36544
# Poissons Ratio (y) = 0.20426 0.03787
# Poissons Ratio (z) = 0.50617 0.18871
#
# Static dielectric constant tensor:
#      x y z
#    x 1.972160 0.000000 0.010910 
#    y 0.000000 1.735950 0.000000 
#    z 0.010910 0.000000 1.663870 
# 
# From -- ./inp_files/79941.got.cif
#   From: 2010.05.17/outbox.ucp.g08.bks.cvg/sg13_40_cif.got.tgz:79941.got - 2010.06.11 12:23:55.
