data_PCOD9238415
_publ_section_title
;
Structure prediction by ZEFSAII (Michael W. Deem and Ramdas Pophale) SiO2 
 PCOD9238415
Probable space group: P 2/C
;
_chemical_formula_sum "Si O2"
_cell_formula_units_Z 32
_cell_length_a 8.163887
_cell_length_b 11.249421
_cell_length_c 19.825805
_cell_angle_alpha 90.000000
_cell_angle_beta 53.595581
_cell_angle_gamma 90.000000
_cell_volume 1465.452915
_symmetry_space_group_name_H-M "P 2/C"
_symmetry_group_IT_number 13
_symmetry_cell_setting 'monoclinic'
loop_
_space_group_symop_operation_xyz
x,y,z
-x,y,1/2-z
-x,-y,-z
x,-y,1/2+z
loop_
_atom_site_type_symbol
_atom_site_label
_atom_site_fract_x
_atom_site_fract_y
_atom_site_fract_z
Si Si1 0.133300 0.349340 0.537013
Si Si2 0.537395 0.778051 0.990436
Si Si3 0.262013 0.756919 0.799005
Si Si4 0.911884 0.628831 0.955505
Si Si5 0.124734 0.010745 0.900113
Si Si6 0.082259 0.202336 0.805399
Si Si7 0.465678 0.124616 0.654792
Si Si8 0.231720 0.104785 0.182694
O O1 0.352342 0.283080 0.493315
O O2 0.146963 0.490822 0.525287
O O3 0.992759 0.316436 0.506803
O O4 0.009689 0.314036 0.633749
O O5 0.712741 0.690085 0.973849
O O6 0.664019 0.870969 0.914033
O O7 0.455836 0.836021 0.079387
O O8 0.500000 0.733833 0.750000
O O9 0.242550 0.776538 0.724092
O O10 0.107167 0.656429 0.861133
O O11 0.193051 0.880969 0.854435
O O12 0.018636 0.088700 0.867348
O O13 0.311329 0.096398 0.874495
O O14 0.000000 0.000000 0.000000
O O15 0.324756 0.207863 0.734595
O O16 0.000000 0.192840 0.750000
O O17 0.361603 0.996239 0.686205
O O18 0.000000 0.069662 0.250000
#
# Coordination Sequence:
#
# PCOD9238415 Si02
#       8
#     4   4   4   4   4   4   4   4
#     4  11  26  49  75 101 142 188 245 308 357 425
#     4  12  25  46  73 106 141 191 240 295 367 430
#     4  12  22  44  67  99 142 186 231 296 356 427
#     4  11  26  50  73 102 136 192 250 298 360 428
#     4  12  26  41  70 104 146 193 235 289 369 455
#     4  12  24  45  69 103 146 183 236 300 366 432
#     4  12  25  42  69 106 147 190 230 288 367 444
#     4  12  25  41  65 104 147 179 227 286 353 443
#
# _framework density 21.836254
#
# number of rings (size 3 to 8) (size 9 to 14) (size 15 to 20)
#    0.000    0.250    5.000    4.500    1.750    0.000 
#    2.250    3.750    0.000    0.000    0.000    0.000 
#    0.000    0.000    0.000    0.000    0.000    0.000 
#
# Total GULP energy -178761.230275 kJ/mol
# GULP energy per Si atom -5586.288446 kJ/mol
# Density = 2.178655 g / cm^3
# Si number density = 21.836254 Si / 1000 Ang^3
#
#
#
# Elastic Constant Matrix: (Units=GPa)
#
#
# Indices 1 2 3 4 5 6 
#
# 1 117.1102 22.1795 30.8144 0.0000 -9.3381 0.0000
# 2 22.1795 36.4135 2.4060 0.0000 -7.7032 0.0000
# 3 30.8144 2.4060 135.0648 0.0000 -5.4520 0.0000
# 4 0.0000 0.0000 0.0000 15.1436 0.0000 3.2098
# 5 -9.3381 -7.7032 -5.4520 0.0000 35.9135 0.0000
# 6 0.0000 0.0000 0.0000 3.2098 0.0000 19.1773
#
#
#
# Elastic Compliance Matrix: (Units=1/GPa)
#
#
# Indices 1 2 3 4 5 6 
#
# 1 0.010326 -0.005915 -0.002207 0.000000 0.001081 0.000000
# 2 -0.005915 0.032165 0.000999 0.000000 0.005513 0.000000
# 3 -0.002207 0.000999 0.007924 0.000000 0.000843 0.000000
# 4 0.000000 0.000000 0.000000 0.068463 0.000000 -0.011459
# 5 0.001081 0.005513 0.000843 0.000000 0.029436 0.000000
# 6 0.000000 0.000000 0.000000 -0.011459 0.000000 0.054063
#
#
# Mechanical properties :
#
#
# Convention : Reuss Voigt Hill
#
# Bulk Modulus (GPa) = 27.64767 44.37647 36.01207
# Shear Modulus (GPa) = 21.86461 29.59279 25.72870
#
# Velocity S-wave (km/s) = 3.16776 3.68532 3.43630
# Velocity P-wave (km/s) = 5.10573 6.20284 5.68083
#
# Compressibility (1/GPa) = 0.03616941
#
# Stress axis : x y z
#
# Youngs Moduli (GPa) = 96.84192 31.08921 126.20561
#
# Poissons Ratio (x) = 0.18390 0.27852
# Poissons Ratio (y) = 0.57283 -0.12609
# Poissons Ratio (z) = 0.21371 -0.03106
#
# Static dielectric constant tensor:
#      x y z
#    x 1.950450 0.000000 -0.021950 
#    y 0.000000 1.786010 0.000000 
#    z -0.021950 0.000000 1.837540 
# 
# From -- ./inp_files/76450.got.cif
#   From: 2010.05.17/outbox.cif.g08.bks.cpg/sg13_39_cif.got.tgz:76450.got - 2010.06.03 16:44:36.
