data_PCOD9238589
_publ_section_title
;
Structure prediction by ZEFSAII (Michael W. Deem and Ramdas Pophale) SiO2 
 PCOD9238589
Probable space group: P 2/C
;
_chemical_formula_sum "Si O2"
_cell_formula_units_Z 20
_cell_length_a 9.655470
_cell_length_b 10.904187
_cell_length_c 8.668681
_cell_angle_alpha 90.000000
_cell_angle_beta 82.947466
_cell_angle_gamma 90.000000
_cell_volume 905.777155
_symmetry_space_group_name_H-M "P 2/C"
_symmetry_group_IT_number 13
_symmetry_cell_setting 'monoclinic'
loop_
_space_group_symop_operation_xyz
x,y,z
-x,y,1/2-z
-x,-y,-z
x,-y,1/2+z
loop_
_atom_site_type_symbol
_atom_site_label
_atom_site_fract_x
_atom_site_fract_y
_atom_site_fract_z
Si Si1 0.883936 0.520270 0.891260
Si Si2 0.275179 0.740275 0.092843
Si Si3 0.040617 0.867614 0.927622
Si Si4 0.771382 0.250328 0.548467
Si Si5 0.470162 0.867091 0.574594
O O1 0.799043 0.393197 0.879976
O O2 0.769551 0.615366 0.971882
O O3 0.000000 0.565884 0.750000
O O4 0.000000 0.500000 0.000000
O O5 0.277756 0.779257 0.272187
O O6 0.187936 0.821947 0.979219
O O7 0.433363 0.760305 0.013653
O O8 0.000000 0.864884 0.750000
O O9 0.934143 0.776688 0.025243
O O10 0.000000 0.000000 0.000000
O O11 0.688667 0.163618 0.443783
O O12 0.500000 0.869983 0.750000
O O13 0.500000 0.000000 0.500000
#
# Coordination Sequence:
#
# PCOD9238589 Si02
#       5
#     4   4   4   4   4
#     4  12  24  44  73 107 145 182 229 290 348 409
#     4  12  25  45  70 101 138 184 229 287 348 410
#     4  12  24  40  66  98 133 176 233 286 346 412
#     4  12  25  44  71 100 140 182 232 285 347 412
#     4  12  28  49  72 100 141 185 234 289 351 419
#
# _framework density 22.080486000000001
#
# number of rings (size 3 to 8) (size 9 to 14) (size 15 to 20)
#    0.000    0.000    4.000    6.600    2.800    0.800 
#    0.000    0.000    0.000    0.000    0.000    0.000 
#    0.000    0.000    0.000    0.000    0.000    0.000 
#
# Total GULP energy -111424.735120 kJ/mol
# GULP energy per Si atom -5571.236756 kJ/mol
# Density = 2.203023 g / cm^3
# Si number density = 22.080486 Si / 1000 Ang^3
#
#
#
# Elastic Constant Matrix: (Units=GPa)
#
#
# Indices 1 2 3 4 5 6 
#
# 1 57.3820 -2.3961 -4.4492 0.0000 -0.8841 0.0000
# 2 -2.3961 86.0325 3.9311 0.0000 3.2841 0.0000
# 3 -4.4492 3.9311 163.6382 0.0000 -0.2177 0.0000
# 4 0.0000 0.0000 0.0000 23.4565 0.0000 -12.0556
# 5 -0.8841 3.2841 -0.2177 0.0000 39.4385 0.0000
# 6 0.0000 0.0000 0.0000 -12.0556 0.0000 19.7692
#
#
#
# Elastic Compliance Matrix: (Units=1/GPa)
#
#
# Indices 1 2 3 4 5 6 
#
# 1 0.017488 0.000452 0.000465 0.000000 0.000357 0.000000
# 2 0.000452 0.011685 -0.000270 0.000000 -0.000964 0.000000
# 3 0.000465 -0.000270 0.006130 0.000000 0.000067 0.000000
# 4 0.000000 0.000000 0.000000 0.062093 0.000000 0.037865
# 5 0.000357 -0.000964 0.000067 0.000000 0.025445 0.000000
# 6 0.000000 0.000000 0.000000 0.037865 0.000000 0.073674
#
#
# Mechanical properties :
#
#
# Convention : Reuss Voigt Hill
#
# Bulk Modulus (GPa) = 27.32382 33.46938 30.39660
# Shear Modulus (GPa) = 24.10577 37.19732 30.65154
#
# Velocity S-wave (km/s) = 3.30771 4.10887 3.72986
# Velocity P-wave (km/s) = 5.19513 6.14013 5.68729
#
# Compressibility (1/GPa) = 0.03659810
#
# Stress axis : x y z
#
# Youngs Moduli (GPa) = 57.18367 85.57801 163.12536
#
# Poissons Ratio (x) = -0.03870 -0.07587
# Poissons Ratio (y) = -0.02586 0.04400
# Poissons Ratio (z) = -0.02659 0.02308
#
# Static dielectric constant tensor:
#      x y z
#    x 1.723440 0.000000 -0.001850 
#    y 0.000000 0.270650 0.000000 
#    z -0.001850 0.000000 1.760130 
# 
# From -- ./inp_files/11776.got.cif
#   From: 2010.05.17/outbox.cif.g08.bks.cpg/sg13_6_cif.got.tgz:11776.got - 2010.06.03 16:44:36.
