data_PCOD9238342
_publ_section_title
;
Structure prediction by ZEFSAII (Michael W. Deem and Ramdas Pophale) SiO2 
 PCOD9238342
Probable space group: P 2/C
;
_chemical_formula_sum "Si O2"
_cell_formula_units_Z 18
_cell_length_a 11.647907
_cell_length_b 5.491850
_cell_length_c 21.763940
_cell_angle_alpha 90.000000
_cell_angle_beta 147.666102
_cell_angle_gamma 90.000000
_cell_volume 744.625631
_symmetry_space_group_name_H-M "P 2/C"
_symmetry_group_IT_number 13
_symmetry_cell_setting 'monoclinic'
loop_
_space_group_symop_operation_xyz
x,y,z
-x,y,1/2-z
-x,-y,-z
x,-y,1/2+z
loop_
_atom_site_type_symbol
_atom_site_label
_atom_site_fract_x
_atom_site_fract_y
_atom_site_fract_z
Si Si1 0.265103 0.774030 0.153097
Si Si2 0.604992 0.152569 0.492149
Si Si3 0.252504 0.470434 0.264254
Si Si4 0.000000 0.297684 0.750000
Si Si5 0.080160 0.147312 0.445690
O O1 0.500000 0.892579 0.250000
O O2 0.303319 0.558581 0.218828
O O3 0.167640 0.698733 0.043146
O O4 0.090808 0.954761 0.104223
O O5 0.438093 0.327121 0.382975
O O6 0.802173 0.294644 0.611487
O O7 0.500000 0.000000 0.500000
O O8 0.714241 0.977066 0.491612
O O9 0.174630 0.689607 0.271677
O O10 0.048174 0.292163 0.164354
#
# Coordination Sequence:
#
# PCOD9238342 Si02
#       5
#     4   4   4   2   4
#     4  11  26  44  74 104 145 190 247 295 365 435
#     4  12  26  46  79 105 148 196 240 300 371 430
#     4  12  26  45  73 106 143 190 242 303 361 435
#     4  12  26  46  70 108 144 188 246 298 356 432
#     4  11  25  49  71 105 148 191 240 305 363 432
#
# _framework density 24.173221000000002
#
# number of rings (size 3 to 8) (size 9 to 14) (size 15 to 20)
#    0.000    0.444    2.222    5.333    6.222    4.444 
#    0.000    0.000    0.000    0.000    0.000    0.000 
#    0.000    0.000    0.000    0.000    0.000    0.000 
#
# Total GULP energy -100276.371762 kJ/mol
# GULP energy per Si atom -5570.909542 kJ/mol
# Density = 2.411820 g / cm^3
# Si number density = 24.173221 Si / 1000 Ang^3
#
#
#
# Elastic Constant Matrix: (Units=GPa)
#
#
# Indices 1 2 3 4 5 6 
#
# 1 147.3040 54.0019 69.5319 0.0000 7.1717 0.0000
# 2 54.0019 97.4881 52.2242 0.0000 -7.6899 0.0000
# 3 69.5319 52.2242 217.9341 0.0000 -26.3649 0.0000
# 4 0.0000 0.0000 0.0000 209.1354 0.0000 -6.5107
# 5 7.1717 -7.6899 -26.3649 0.0000 57.5489 0.0000
# 6 0.0000 0.0000 0.0000 -6.5107 0.0000 31.9652
#
#
#
# Elastic Compliance Matrix: (Units=1/GPa)
#
#
# Indices 1 2 3 4 5 6 
#
# 1 0.009626 -0.004276 -0.002393 0.000000 -0.002867 0.000000
# 2 -0.004276 0.013673 -0.001722 0.000000 0.001571 0.000000
# 3 -0.002393 -0.001722 0.006112 0.000000 0.002868 0.000000
# 4 0.000000 0.000000 0.000000 0.004812 0.000000 0.000980
# 5 -0.002867 0.001571 0.002868 0.000000 0.019258 0.000000
# 6 0.000000 0.000000 0.000000 0.000980 0.000000 0.031484
#
#
# Mechanical properties :
#
#
# Convention : Reuss Voigt Hill
#
# Bulk Modulus (GPa) = 79.19366 90.47134 84.83250
# Shear Modulus (GPa) = 47.18962 78.86111 63.02536
#
# Velocity S-wave (km/s) = 4.42310 5.71788 5.11165
# Velocity P-wave (km/s) = 7.67575 9.00554 8.36710
#
# Compressibility (1/GPa) = 0.01262727
#
# Stress axis : x y z
#
# Youngs Moduli (GPa) = 103.88996 73.13810 163.61896
#
# Poissons Ratio (x) = 0.31274 0.39158
# Poissons Ratio (y) = 0.44424 0.28177
# Poissons Ratio (z) = 0.24863 0.12595
#
# Static dielectric constant tensor:
#      x y z
#    x 1.923790 0.000000 -0.000180 
#    y 0.000000 2.000750 0.000000 
#    z -0.000180 0.000000 1.875070 
# 
# From -- ./inp_files/41373.got.cif
#   From: 2010.05.17/outbox.cif.g08.bks.cpg/sg13_21_cif.got.tgz:41373.got - 2010.06.03 16:44:36.
