data_PCOD9238804
_publ_section_title
;
Structure prediction by ZEFSAII (Michael W. Deem and Ramdas Pophale) SiO2 
 PCOD9238804
Probable space group: P 2/C
;
_chemical_formula_sum "Si O2"
_cell_formula_units_Z 18
_cell_length_a 21.105837
_cell_length_b 4.883785
_cell_length_c 14.114125
_cell_angle_alpha 90.000000
_cell_angle_beta 151.861267
_cell_angle_gamma 90.000000
_cell_volume 686.110931
_symmetry_space_group_name_H-M "P 2/C"
_symmetry_group_IT_number 13
_symmetry_cell_setting 'monoclinic'
loop_
_space_group_symop_operation_xyz
x,y,z
-x,y,1/2-z
-x,-y,-z
x,-y,1/2+z
loop_
_atom_site_type_symbol
_atom_site_label
_atom_site_fract_x
_atom_site_fract_y
_atom_site_fract_z
Si Si1 0.380207 0.283352 0.365059
Si Si2 0.648623 0.525750 0.469738
Si Si3 0.000000 0.906285 0.250000
Si Si4 0.735086 0.761787 0.382867
Si Si5 0.923610 0.254437 0.851527
O O1 0.500000 0.500000 0.500000
O O2 0.302684 0.690151 0.058810
O O3 0.368407 0.276114 0.462279
O O4 0.261783 0.474771 0.167886
O O5 0.500000 0.409193 0.250000
O O6 0.633504 0.993250 0.205780
O O7 0.048862 0.744178 0.223627
O O8 0.122652 0.099381 0.439879
O O9 0.762970 0.304608 0.647900
O O10 0.000000 0.500000 0.000000
O O11 0.000000 0.000000 0.000000
#
# Coordination Sequence:
#
# PCOD9238804 Si02
#       5
#     4   4   2   4   4
#     4  12  27  52  78 117 169 211 268 335 424 486
#     4  12  28  52  85 128 166 218 284 346 423 494
#     4  12  28  52  84 114 164 214 284 322 418 492
#     4  12  28  52  79 123 161 218 271 343 408 503
#     4  12  28  54  80 117 164 217 273 340 408 500
#
# _framework density 26.234822000000001
#
# number of rings (size 3 to 8) (size 9 to 14) (size 15 to 20)
#    0.000    0.000    2.222    6.000    0.000    9.778 
#    0.000    0.000    0.000    0.000    0.000    0.000 
#    0.000    0.000    0.000    0.000    0.000    0.000 
#
# Total GULP energy -100966.500654 kJ/mol
# GULP energy per Si atom -5609.250036 kJ/mol
# Density = 2.617511 g / cm^3
# Si number density = 26.234822 Si / 1000 Ang^3
#
#
#
# Elastic Constant Matrix: (Units=GPa)
#
#
# Indices 1 2 3 4 5 6 
#
# 1 111.5429 20.2834 29.3861 0.0000 -12.1140 0.0000
# 2 20.2834 183.8132 62.3349 0.0000 1.8696 0.0000
# 3 29.3861 62.3349 137.2196 0.0000 13.1332 0.0000
# 4 0.0000 0.0000 0.0000 22.3075 0.0000 -5.7006
# 5 -12.1140 1.8696 13.1332 0.0000 76.3925 0.0000
# 6 0.0000 0.0000 0.0000 -5.7006 0.0000 35.7704
#
#
#
# Elastic Compliance Matrix: (Units=1/GPa)
#
#
# Indices 1 2 3 4 5 6 
#
# 1 0.009800 -0.000386 -0.002108 0.000000 0.001926 0.000000
# 2 -0.000386 0.006455 -0.002876 0.000000 0.000275 0.000000
# 3 -0.002108 -0.002876 0.009222 0.000000 -0.001849 0.000000
# 4 0.000000 0.000000 0.000000 0.046731 0.000000 0.007447
# 5 0.001926 0.000275 -0.001849 0.000000 0.013707 0.000000
# 6 0.000000 0.000000 0.000000 0.007447 0.000000 0.029143
#
#
# Mechanical properties :
#
#
# Convention : Reuss Voigt Hill
#
# Bulk Modulus (GPa) = 67.85245 72.95384 70.40314
# Shear Modulus (GPa) = 38.25230 48.26551 43.25890
#
# Velocity S-wave (km/s) = 3.82262 4.29388 4.06508
# Velocity P-wave (km/s) = 6.73816 7.24235 6.99480
#
# Compressibility (1/GPa) = 0.01473786
#
# Stress axis : x y z
#
# Youngs Moduli (GPa) = 102.04323 154.90670 108.43078
#
# Poissons Ratio (x) = 0.05984 0.22852
# Poissons Ratio (y) = 0.03942 0.31187
# Poissons Ratio (z) = 0.21506 0.44554
#
# Static dielectric constant tensor:
#      x y z
#    x 2.038090 0.000000 0.053260 
#    y 0.000000 2.220080 0.000000 
#    z 0.053260 0.000000 2.153250 
# 
# From -- ./inp_files/39657.got.cif
#   From: 2010.05.17/outbox.cif.g08.bks.cpg/sg13_20_cif.got.tgz:39657.got - 2010.06.03 16:44:36.
