data_PCOD9238561
_publ_section_title
;
Structure prediction by ZEFSAII (Michael W. Deem and Ramdas Pophale) SiO2 
 PCOD9238561
Probable space group: P 2/C
;
_chemical_formula_sum "Si O2"
_cell_formula_units_Z 18
_cell_length_a 20.138380
_cell_length_b 5.157221
_cell_length_c 8.881607
_cell_angle_alpha 90.000000
_cell_angle_beta 129.524762
_cell_angle_gamma 90.000000
_cell_volume 711.513413
_symmetry_space_group_name_H-M "P 2/C"
_symmetry_group_IT_number 13
_symmetry_cell_setting 'monoclinic'
loop_
_space_group_symop_operation_xyz
x,y,z
-x,y,1/2-z
-x,-y,-z
x,-y,1/2+z
loop_
_atom_site_type_symbol
_atom_site_label
_atom_site_fract_x
_atom_site_fract_y
_atom_site_fract_z
Si Si1 0.902666 0.994323 0.300136
Si Si2 0.401912 0.849968 0.062721
Si Si3 0.000000 0.383429 0.750000
Si Si4 0.846934 0.338642 0.963882
Si Si5 0.344265 0.366022 0.803338
O O1 0.920854 0.782468 0.198685
O O2 0.840019 0.900632 0.338245
O O3 0.867400 0.240231 0.161613
O O4 0.000000 0.000000 0.500000
O O5 0.500000 0.907001 0.250000
O O6 0.358581 0.736257 0.153323
O O7 0.398865 0.615071 0.936111
O O8 0.362875 0.115522 0.936867
O O9 0.059725 0.546416 0.948688
O O10 0.754634 0.465917 0.826009
#
# Coordination Sequence:
#
# PCOD9238561 Si02
#       5
#     4   4   2   4   4
#     4  12  23  44  60  93 130 188 236 285 342 407
#     4  12  26  52  79 111 148 192 239 301 384 451
#     4  12  24  38  68  86 134 184 234 274 342 400
#     4  12  27  41  67  97 138 180 238 285 347 410
#     4  12  28  46  78 114 149 191 244 310 360 444
#
# _framework density 25.298189000000001
#
# number of rings (size 3 to 8) (size 9 to 14) (size 15 to 20)
#    0.000    0.000    4.444    5.333    6.222    0.000 
#    0.000    0.000    0.000    0.000    0.000    0.000 
#    0.000    0.000    0.000    0.000    0.000    0.000 
#
# Total GULP energy -100524.106920 kJ/mol
# GULP energy per Si atom -5584.672607 kJ/mol
# Density = 2.524061 g / cm^3
# Si number density = 25.298189 Si / 1000 Ang^3
#
#
#
# Elastic Constant Matrix: (Units=GPa)
#
#
# Indices 1 2 3 4 5 6 
#
# 1 59.0172 -13.3715 15.4506 0.0000 14.8057 0.0000
# 2 -13.3715 101.4116 29.5915 0.0000 7.5868 0.0000
# 3 15.4506 29.5915 79.2141 0.0000 12.6639 0.0000
# 4 0.0000 0.0000 0.0000 38.2121 0.0000 -6.1747
# 5 14.8057 7.5868 12.6639 0.0000 47.7738 0.0000
# 6 0.0000 0.0000 0.0000 -6.1747 0.0000 31.5761
#
#
#
# Elastic Compliance Matrix: (Units=1/GPa)
#
#
# Indices 1 2 3 4 5 6 
#
# 1 0.020712 0.004574 -0.004810 0.000000 -0.005870 0.000000
# 2 0.004574 0.012099 -0.005094 0.000000 -0.001989 0.000000
# 3 -0.004810 -0.005094 0.015766 0.000000 -0.001879 0.000000
# 4 0.000000 0.000000 0.000000 0.027024 0.000000 0.005285
# 5 -0.005870 -0.001989 -0.001879 0.000000 0.023565 0.000000
# 6 0.000000 0.000000 0.000000 0.005285 0.000000 0.032703
#
#
# Mechanical properties :
#
#
# Convention : Reuss Voigt Hill
#
# Bulk Modulus (GPa) = 26.37367 33.66489 30.01928
# Shear Modulus (GPa) = 32.22309 37.37723 34.80016
#
# Velocity S-wave (km/s) = 3.57281 3.84795 3.71293
# Velocity P-wave (km/s) = 5.24096 5.75139 5.50210
#
# Compressibility (1/GPa) = 0.03791660
#
# Stress axis : x y z
#
# Youngs Moduli (GPa) = 48.28010 82.65127 63.42927
#
# Poissons Ratio (x) = -0.37803 0.30510
# Poissons Ratio (y) = -0.22082 0.32311
# Poissons Ratio (z) = 0.23223 0.42102
#
# Static dielectric constant tensor:
#      x y z
#    x 1.895090 0.000000 0.102610 
#    y 0.000000 4.621730 0.000000 
#    z 0.102610 0.000000 1.703860 
# 
# From -- ./inp_files/20330.got.cif
#   From: 2010.05.17/outbox.cif.g08.bks.cpg/sg13_11_cif.got.tgz:20330.got - 2010.06.03 16:44:36.
