data_PCOD9238671
_publ_section_title
;
Structure prediction by ZEFSAII (Michael W. Deem and Ramdas Pophale) SiO2 
 PCOD9238671
Probable space group: P 2/C
;
_chemical_formula_sum "Si O2"
_cell_formula_units_Z 14
_cell_length_a 8.727223
_cell_length_b 10.630911
_cell_length_c 8.612822
_cell_angle_alpha 90.000000
_cell_angle_beta 46.295799
_cell_angle_gamma 90.000000
_cell_volume 577.670457
_symmetry_space_group_name_H-M "P 2/C"
_symmetry_group_IT_number 13
_symmetry_cell_setting 'monoclinic'
loop_
_space_group_symop_operation_xyz
x,y,z
-x,y,1/2-z
-x,-y,-z
x,-y,1/2+z
loop_
_atom_site_type_symbol
_atom_site_label
_atom_site_fract_x
_atom_site_fract_y
_atom_site_fract_z
Si Si1 0.500000 0.768760 0.250000
Si Si2 0.231682 0.041366 0.143528
Si Si3 0.941977 0.636944 0.975112
Si Si4 0.733401 0.818369 0.580564
O O1 0.393735 0.862400 0.449847
O O2 0.302773 0.680599 0.335728
O O3 0.259589 0.063827 0.305257
O O4 0.000000 0.081483 0.250000
O O5 0.243220 0.894114 0.094857
O O6 0.000000 0.640376 0.750000
O O7 0.089657 0.727872 0.976298
O O8 0.000000 0.500000 0.000000
O O9 0.500000 0.758681 0.750000
#
# Coordination Sequence:
#
# PCOD9238671 Si02
#       4
#     2   4   4   4
#     4  12  24  50  80 104 156 188 256 312 372 440
#     4  12  25  45  75 113 157 190 245 310 387 442
#     4  12  30  54  76 110 151 205 258 308 366 456
#     4  12  26  46  76 116 153 198 248 310 384 449
#
# _framework density 24.235271999999998
#
# number of rings (size 3 to 8) (size 9 to 14) (size 15 to 20)
#    0.000    0.000    7.143    1.714    2.000    4.571 
#    0.000    0.000    0.000    0.000    0.000    0.000 
#    0.000    0.000    0.000    0.000    0.000    0.000 
#
# Total GULP energy -78390.385691 kJ/mol
# GULP energy per Si atom -5599.313264 kJ/mol
# Density = 2.418011 g / cm^3
# Si number density = 24.235272 Si / 1000 Ang^3
#
#
#
# Elastic Constant Matrix: (Units=GPa)
#
#
# Indices 1 2 3 4 5 6 
#
# 1 215.1334 89.9771 62.6098 0.0000 -58.5078 0.0000
# 2 89.9771 186.3057 57.5891 0.0000 -18.8862 0.0000
# 3 62.6098 57.5891 98.6474 0.0000 -30.3429 0.0000
# 4 0.0000 0.0000 0.0000 25.6619 0.0000 -2.9503
# 5 -58.5078 -18.8862 -30.3429 0.0000 57.5507 0.0000
# 6 0.0000 0.0000 0.0000 -2.9503 0.0000 53.0365
#
#
#
# Elastic Compliance Matrix: (Units=1/GPa)
#
#
# Indices 1 2 3 4 5 6 
#
# 1 0.007974 -0.002741 -0.001485 0.000000 0.006424 0.000000
# 2 -0.002741 0.007493 -0.003265 0.000000 -0.002049 0.000000
# 3 -0.001485 -0.003265 0.014551 0.000000 0.005091 0.000000
# 4 0.000000 0.000000 0.000000 0.039219 0.000000 0.002182
# 5 0.006424 -0.002049 0.005091 0.000000 0.025919 0.000000
# 6 0.000000 0.000000 0.000000 0.002182 0.000000 0.018976
#
#
# Mechanical properties :
#
#
# Convention : Reuss Voigt Hill
#
# Bulk Modulus (GPa) = 66.50205 102.27094 84.38650
# Shear Modulus (GPa) = 37.27856 46.57720 41.92788
#
# Velocity S-wave (km/s) = 3.92624 4.38868 4.16388
# Velocity P-wave (km/s) = 6.93207 8.24448 7.61659
#
# Compressibility (1/GPa) = 0.01503713
#
# Stress axis : x y z
#
# Youngs Moduli (GPa) = 125.41050 133.46349 68.72175
#
# Poissons Ratio (x) = 0.36579 0.10204
# Poissons Ratio (y) = 0.34372 0.22436
# Poissons Ratio (z) = 0.18621 0.43573
#
# Static dielectric constant tensor:
#      x y z
#    x 1.947830 0.000000 -0.004760 
#    y 0.000000 1.901870 0.000000 
#    z -0.004760 0.000000 2.077160 
# 
# From -- ./inp_files/11477.got.cif
#   From: 2010.05.17/outbox.cif.g08.bks.cpg/sg13_6_cif.got.tgz:11477.got - 2010.06.03 16:44:36.
