data_PCOD9238104
_publ_section_title
;
Structure prediction by ZEFSAII (Michael W. Deem and Ramdas Pophale) SiO2 
 PCOD9238104
Probable space group: P 2/C
;
_chemical_formula_sum "Si O2"
_cell_formula_units_Z 14
_cell_length_a 14.912686
_cell_length_b 9.100441
_cell_length_c 11.088065
_cell_angle_alpha 90.000000
_cell_angle_beta 26.964565
_cell_angle_gamma 90.000000
_cell_volume 682.328158
_symmetry_space_group_name_H-M "P 2/C"
_symmetry_group_IT_number 13
_symmetry_cell_setting 'monoclinic'
loop_
_space_group_symop_operation_xyz
x,y,z
-x,y,1/2-z
-x,-y,-z
x,-y,1/2+z
loop_
_atom_site_type_symbol
_atom_site_label
_atom_site_fract_x
_atom_site_fract_y
_atom_site_fract_z
Si Si1 0.491819 0.220558 0.961475
Si Si2 0.773109 0.290642 0.987847
Si Si3 0.226618 0.046933 0.712606
Si Si4 0.500000 0.538754 0.250000
O O1 0.360153 0.268777 0.233968
O O2 0.364889 0.096192 0.044949
O O3 0.689040 0.144715 0.777684
O O4 0.525119 0.357560 0.835172
O O5 0.754270 0.145982 0.928764
O O6 0.000000 0.311834 0.750000
O O7 0.686584 0.429494 0.019530
O O8 0.000000 0.000000 0.000000
#
# Coordination Sequence:
#
# PCOD9238104 Si02
#       4
#     4   4   4   2
#     4  11  26  45  71  99 139 182 231 284 347 406
#     4  12  25  45  70 101 140 181 231 287 343 413
#     4  11  24  44  73 100 131 176 239 289 340 399
#     4  12  28  44  68 100 146 188 222 280 350 414
#
# _framework density 20.517987999999999
#
# number of rings (size 3 to 8) (size 9 to 14) (size 15 to 20)
#    0.000    0.571    5.714    0.857    8.000    3.429 
#    0.000    0.000    0.000    0.000    0.000    0.000 
#    0.000    0.000    0.000    0.000    0.000    0.000 
#
# Total GULP energy -78380.378227 kJ/mol
# GULP energy per Si atom -5598.598445 kJ/mol
# Density = 2.047129 g / cm^3
# Si number density = 20.517988 Si / 1000 Ang^3
#
#
#
# Elastic Constant Matrix: (Units=GPa)
#
#
# Indices 1 2 3 4 5 6 
#
# 1 96.3102 40.7697 52.7991 0.0000 -35.6233 0.0000
# 2 40.7697 109.5633 37.4341 0.0000 -4.6770 0.0000
# 3 52.7991 37.4341 92.6853 0.0000 -13.6286 0.0000
# 4 0.0000 0.0000 0.0000 13.6998 0.0000 21.1985
# 5 -35.6233 -4.6770 -13.6286 0.0000 48.1626 0.0000
# 6 0.0000 0.0000 0.0000 21.1985 0.0000 55.9465
#
#
#
# Elastic Compliance Matrix: (Units=1/GPa)
#
#
# Indices 1 2 3 4 5 6 
#
# 1 0.022121 -0.004672 -0.008739 0.000000 0.013435 0.000000
# 2 -0.004672 0.011577 -0.002459 0.000000 -0.003028 0.000000
# 3 -0.008739 -0.002459 0.016460 0.000000 -0.002045 0.000000
# 4 0.000000 0.000000 0.000000 0.176444 0.000000 -0.066856
# 5 0.013435 -0.003028 -0.002045 0.000000 0.029828 0.000000
# 6 0.000000 0.000000 0.000000 -0.066856 0.000000 0.043206
#
#
# Mechanical properties :
#
#
# Convention : Reuss Voigt Hill
#
# Bulk Modulus (GPa) = 54.29741 62.28496 58.29118
# Shear Modulus (GPa) = 14.81412 34.73217 24.77315
#
# Velocity S-wave (km/s) = 2.68993 4.11879 3.47852
# Velocity P-wave (km/s) = 6.01402 7.28295 6.67869
#
# Compressibility (1/GPa) = 0.01841709
#
# Stress axis : x y z
#
# Youngs Moduli (GPa) = 45.20524 86.38013 60.75314
#
# Poissons Ratio (x) = 0.40359 0.53092
# Poissons Ratio (y) = 0.21121 0.14941
# Poissons Ratio (z) = 0.39505 0.21243
#
# Static dielectric constant tensor:
#      x y z
#    x 1.748320 0.000000 0.013510 
#    y 0.000000 1.713460 0.000000 
#    z 0.013510 0.000000 1.702050 
# 
# From -- ./inp_files/14660.got.cif
#   From: 2010.05.17/outbox.cif.g08.bks.cpg/sg13_8_cif.got.tgz:14660.got - 2010.06.03 16:44:36.
