data_PCOD9238531
_publ_section_title
;
Structure prediction by ZEFSAII (Michael W. Deem and Ramdas Pophale) SiO2 
 PCOD9238531
Probable space group: P 2/C
;
_chemical_formula_sum "Si O2"
_cell_formula_units_Z 22
_cell_length_a 21.510821
_cell_length_b 6.648648
_cell_length_c 22.943154
_cell_angle_alpha 90.000000
_cell_angle_beta 161.797077
_cell_angle_gamma 90.000000
_cell_volume 1025.017711
_symmetry_space_group_name_H-M "P 2/C"
_symmetry_group_IT_number 13
_symmetry_cell_setting 'monoclinic'
loop_
_space_group_symop_operation_xyz
x,y,z
-x,y,1/2-z
-x,-y,-z
x,-y,1/2+z
loop_
_atom_site_type_symbol
_atom_site_label
_atom_site_fract_x
_atom_site_fract_y
_atom_site_fract_z
Si Si1 0.812745 0.229700 0.225599
Si Si2 0.527642 0.260052 0.661606
Si Si3 0.777479 0.924451 0.813459
Si Si4 0.060405 0.105417 0.871519
Si Si5 0.500000 0.032664 0.750000
Si Si6 0.874574 0.440137 0.485187
O O1 0.703166 0.126430 0.182533
O O2 0.958518 0.396861 0.382477
O O3 0.649274 0.327439 0.037938
O O4 0.942887 0.066814 0.303981
O O5 0.651188 0.090665 0.735612
O O6 0.436456 0.160233 0.637577
O O7 0.677157 0.428335 0.818178
O O8 0.808514 0.726071 0.879775
O O9 0.000000 0.000000 0.000000
O O10 0.031728 0.319745 0.877001
O O11 0.000000 0.100990 0.750000
O O12 0.299115 0.079529 0.088809
#
# Coordination Sequence:
#
# PCOD9238531 Si02
#       6
#     4   4   4   4   2   4
#     4  12  26  46  73 104 141 181 237 285 347 413
#     4  12  27  44  74 103 142 183 232 289 345 414
#     4  12  23  48  73 100 145 187 225 287 354 408
#     4  12  26  46  75 100 141 187 229 287 352 414
#     4  12  22  48  70  98 140 184 226 282 350 406
#     4  12  25  45  71 109 132 188 231 290 342 410
#
# _framework density 21.463044
#
# number of rings (size 3 to 8) (size 9 to 14) (size 15 to 20)
#    0.000    0.000    9.091    1.091    0.000    6.545 
#    0.000    0.000    0.000    0.000    0.000    0.000 
#    0.000    0.000    0.000    0.000    0.000    0.000 
#
# Total GULP energy -122898.658440 kJ/mol
# GULP energy per Si atom -5586.302656 kJ/mol
# Density = 2.141419 g / cm^3
# Si number density = 21.463044 Si / 1000 Ang^3
#
#
#
# Elastic Constant Matrix: (Units=GPa)
#
#
# Indices 1 2 3 4 5 6 
#
# 1 98.0967 27.6081 -3.0284 0.0000 -12.7307 0.0000
# 2 27.6081 90.7950 7.7388 0.0000 8.6573 0.0000
# 3 -3.0284 7.7388 78.4132 0.0000 -6.8482 0.0000
# 4 0.0000 0.0000 0.0000 27.2760 0.0000 -10.0600
# 5 -12.7307 8.6573 -6.8482 0.0000 37.9345 0.0000
# 6 0.0000 0.0000 0.0000 -10.0600 0.0000 22.4652
#
#
#
# Elastic Compliance Matrix: (Units=1/GPa)
#
#
# Indices 1 2 3 4 5 6 
#
# 1 0.012138 -0.004312 0.001357 0.000000 0.005302 0.000000
# 2 -0.004312 0.012935 -0.001857 0.000000 -0.004734 0.000000
# 3 0.001357 -0.001857 0.013275 0.000000 0.003276 0.000000
# 4 0.000000 0.000000 0.000000 0.043915 0.000000 0.019666
# 5 0.005302 -0.004734 0.003276 0.000000 0.029812 0.000000
# 6 0.000000 0.000000 0.000000 0.019666 0.000000 0.053320
#
#
# Mechanical properties :
#
#
# Convention : Reuss Voigt Hill
#
# Bulk Modulus (GPa) = 34.81321 36.88242 35.84782
# Shear Modulus (GPa) = 27.08682 33.20089 30.14386
#
# Velocity S-wave (km/s) = 3.55635 3.93731 3.75167
# Velocity P-wave (km/s) = 5.75489 6.15560 5.95861
#
# Compressibility (1/GPa) = 0.02872472
#
# Stress axis : x y z
#
# Youngs Moduli (GPa) = 82.38843 77.31188 75.33133
#
# Poissons Ratio (x) = 0.33337 -0.10226
# Poissons Ratio (y) = 0.35526 0.13986
# Poissons Ratio (z) = -0.11184 0.14353
#
# Static dielectric constant tensor:
#      x y z
#    x 1.647360 0.000000 -0.012970 
#    y 0.000000 1.852610 0.000000 
#    z -0.012970 0.000000 1.798610 
# 
# From -- ./inp_files/88802.got.cif
#   From: 2010.05.17/outbox.cif.g08.bks.cpg/sg13_45_cif.got.tgz:88802.got - 2010.06.03 16:44:36.
