data_PCOD9238614
_publ_section_title
;
Structure prediction by ZEFSAII (Michael W. Deem and Ramdas Pophale) SiO2 
 PCOD9238614
Probable space group: P 2/C
;
_chemical_formula_sum "Si O2"
_cell_formula_units_Z 20
_cell_length_a 13.881061
_cell_length_b 5.075838
_cell_length_c 10.349965
_cell_angle_alpha 90.000000
_cell_angle_beta 93.945650
_cell_angle_gamma 90.000000
_cell_volume 727.509548
_symmetry_space_group_name_H-M "P 2/C"
_symmetry_group_IT_number 13
_symmetry_cell_setting 'monoclinic'
loop_
_space_group_symop_operation_xyz
x,y,z
-x,y,1/2-z
-x,-y,-z
x,-y,1/2+z
loop_
_atom_site_type_symbol
_atom_site_label
_atom_site_fract_x
_atom_site_fract_y
_atom_site_fract_z
Si Si1 0.824434 0.022803 0.725287
Si Si2 0.803866 0.475115 0.055568
Si Si3 0.939675 0.378227 0.372774
Si Si4 0.398885 0.409537 0.044576
Si Si5 0.608633 0.092570 0.810875
O O1 0.835643 0.794902 0.619841
O O2 0.902319 0.925170 0.841394
O O3 0.841715 0.284872 0.645561
O O4 0.712127 0.019901 0.758262
O O5 0.836429 0.500369 0.909010
O O6 0.689316 0.497628 0.049689
O O7 0.000000 0.442129 0.250000
O O8 0.000000 0.500000 0.500000
O O9 0.388679 0.593459 0.169560
O O10 0.390187 0.098339 0.063520
O O11 0.500000 0.500000 0.000000
O O12 0.500000 0.031233 0.750000
#
# Coordination Sequence:
#
# PCOD9238614 Si02
#       5
#     4   4   4   4   4
#     4  12  27  51  82 117 169 212 282 348 431 508
#     4  12  27  51  80 120 163 217 277 356 422 511
#     4  12  28  57  86 124 165 221 287 361 438 514
#     4  12  24  44  74 115 167 216 281 338 418 506
#     4  12  24  43  73 115 165 222 276 342 415 507
#
# _framework density 27.491046999999998
#
# number of rings (size 3 to 8) (size 9 to 14) (size 15 to 20)
#    0.000    0.000    4.000    6.000    0.000    0.800 
#    3.600    0.000    0.000    0.000    0.000    0.000 
#    0.000    0.000    0.000    0.000    0.000    0.000 
#
# Total GULP energy -111770.663305 kJ/mol
# GULP energy per Si atom -5588.533165 kJ/mol
# Density = 2.742848 g / cm^3
# Si number density = 27.491047 Si / 1000 Ang^3
#
#
#
# Elastic Constant Matrix: (Units=GPa)
#
#
# Indices 1 2 3 4 5 6 
#
# 1 191.6575 55.6226 79.5391 0.0000 -12.7236 0.0000
# 2 55.6226 129.9808 49.5787 0.0000 -1.4348 0.0000
# 3 79.5391 49.5787 127.6493 0.0000 -17.8015 0.0000
# 4 0.0000 0.0000 0.0000 49.6620 0.0000 7.7236
# 5 -12.7236 -1.4348 -17.8015 0.0000 69.6147 0.0000
# 6 0.0000 0.0000 0.0000 7.7236 0.0000 47.5678
#
#
#
# Elastic Compliance Matrix: (Units=1/GPa)
#
#
# Indices 1 2 3 4 5 6 
#
# 1 0.007329 -0.001652 -0.003881 0.000000 0.000313 0.000000
# 2 -0.001652 0.009441 -0.002750 0.000000 -0.000811 0.000000
# 3 -0.003881 -0.002750 0.011628 0.000000 0.002208 0.000000
# 4 0.000000 0.000000 0.000000 0.020658 0.000000 -0.003354
# 5 0.000313 -0.000811 0.002208 0.000000 0.014970 0.000000
# 6 0.000000 0.000000 0.000000 -0.003354 0.000000 0.021567
#
#
# Mechanical properties :
#
#
# Convention : Reuss Voigt Hill
#
# Bulk Modulus (GPa) = 84.52866 90.97425 87.75146
# Shear Modulus (GPa) = 47.12400 51.00537 49.06468
#
# Velocity S-wave (km/s) = 4.14473 4.31204 4.22922
# Velocity P-wave (km/s) = 7.32936 7.61287 7.47246
#
# Compressibility (1/GPa) = 0.01183031
#
# Stress axis : x y z
#
# Youngs Moduli (GPa) = 136.45087 105.92579 85.99676
#
# Poissons Ratio (x) = 0.17502 0.33377
# Poissons Ratio (y) = 0.22546 0.23651
# Poissons Ratio (z) = 0.52958 0.29132
#
# Static dielectric constant tensor:
#      x y z
#    x 2.179490 0.000000 0.039080 
#    y 0.000000 2.100090 0.000000 
#    z 0.039080 0.000000 2.319810 
# 
# From -- ./inp_files/35488.got.cif
#   From: 2010.05.17/outbox.cif.g08.bks.cpg/sg13_18_cif.got.tgz:35488.got - 2010.06.03 16:44:36.
