data_PCOD9238616
_publ_section_title
;
Structure prediction by ZEFSAII (Michael W. Deem and Ramdas Pophale) SiO2 
 PCOD9238616
Probable space group: P 2/C
;
_chemical_formula_sum "Si O2"
_cell_formula_units_Z 16
_cell_length_a 9.393599
_cell_length_b 10.937197
_cell_length_c 7.980904
_cell_angle_alpha 90.000000
_cell_angle_beta 58.126092
_cell_angle_gamma 90.000000
_cell_volume 696.316019
_symmetry_space_group_name_H-M "P 2/C"
_symmetry_group_IT_number 13
_symmetry_cell_setting 'monoclinic'
loop_
_space_group_symop_operation_xyz
x,y,z
-x,y,1/2-z
-x,-y,-z
x,-y,1/2+z
loop_
_atom_site_type_symbol
_atom_site_label
_atom_site_fract_x
_atom_site_fract_y
_atom_site_fract_z
Si Si1 0.000000 0.809153 0.750000
Si Si2 0.808664 0.011167 0.186669
Si Si3 0.500000 0.835604 0.750000
Si Si4 0.381266 0.241405 0.665723
Si Si5 0.061651 0.631353 0.401041
O O1 0.839739 0.897654 0.825374
O O2 0.005358 0.726283 0.580646
O O3 0.663508 0.079575 0.174035
O O4 0.739176 0.877833 0.270766
O O5 0.000000 0.000000 0.000000
O O6 0.522495 0.756534 0.569289
O O7 0.500000 0.225996 0.750000
O O8 0.261751 0.356687 0.767426
O O9 0.000000 0.658979 0.250000
O O10 0.000000 0.500000 0.500000
#
# Coordination Sequence:
#
# PCOD9238616 Si02
#       5
#     2   4   2   4   4
#     4  12  24  46  76 116 162 200 264 330 390 476
#     4  12  24  43  78 117 162 212 251 317 406 472
#     4  12  26  44  70 116 170 198 254 318 398 490
#     4  12  27  49  75 117 165 205 256 327 399 481
#     4  12  27  51  82 110 148 211 278 329 392 468
#
# _framework density 22.978073999999999
#
# number of rings (size 3 to 8) (size 9 to 14) (size 15 to 20)
#    0.000    0.000    5.000    5.250    1.750    0.000 
#    0.000    1.250    2.750    0.000    0.000    0.000 
#    0.000    0.000    0.000    0.000    0.000    0.000 
#
# Total GULP energy -89517.664757 kJ/mol
# GULP energy per Si atom -5594.854047 kJ/mol
# Density = 2.292577 g / cm^3
# Si number density = 22.978074 Si / 1000 Ang^3
#
#
#
# Elastic Constant Matrix: (Units=GPa)
#
#
# Indices 1 2 3 4 5 6 
#
# 1 177.1392 60.6969 77.0853 0.0000 11.1584 0.0000
# 2 60.6969 112.0518 54.6347 0.0000 4.8134 0.0000
# 3 77.0853 54.6347 170.2513 0.0000 18.4891 0.0000
# 4 0.0000 0.0000 0.0000 36.1761 0.0000 -4.9956
# 5 11.1584 4.8134 18.4891 0.0000 48.0588 0.0000
# 6 0.0000 0.0000 0.0000 -4.9956 0.0000 27.3403
#
#
#
# Elastic Compliance Matrix: (Units=1/GPa)
#
#
# Indices 1 2 3 4 5 6 
#
# 1 0.007792 -0.002971 -0.002516 0.000000 -0.000544 0.000000
# 2 -0.002971 0.011716 -0.002465 0.000000 0.000465 0.000000
# 3 -0.002516 -0.002465 0.008050 0.000000 -0.002266 0.000000
# 4 0.000000 0.000000 0.000000 0.028358 0.000000 0.005182
# 5 -0.000544 0.000465 -0.002266 0.000000 0.021759 0.000000
# 6 0.000000 0.000000 0.000000 0.005182 0.000000 0.037523
#
#
# Mechanical properties :
#
#
# Convention : Reuss Voigt Hill
#
# Bulk Modulus (GPa) = 85.80314 93.80846 89.80580
# Shear Modulus (GPa) = 37.04088 40.11673 38.57880
#
# Velocity S-wave (km/s) = 4.01934 4.18289 4.10193
# Velocity P-wave (km/s) = 7.67870 8.01515 7.84873
#
# Compressibility (1/GPa) = 0.01165458
#
# Stress axis : x y z
#
# Youngs Moduli (GPa) = 128.33185 85.35560 124.22691
#
# Poissons Ratio (x) = 0.25359 0.31251
# Poissons Ratio (y) = 0.38128 0.30621
# Poissons Ratio (z) = 0.32284 0.21039
#
# Static dielectric constant tensor:
#      x y z
#    x 1.903330 0.000000 0.080430 
#    y 0.000000 1.858400 0.000000 
#    z 0.080430 0.000000 2.003080 
# 
# From -- ./inp_files/11547.got.cif
#   From: 2010.05.17/outbox.cif.g08.bks.cpg/sg13_6_cif.got.tgz:11547.got - 2010.06.03 16:44:36.
