data_PCOD9238838
_publ_section_title
;
Structure prediction by ZEFSAII (Michael W. Deem and Ramdas Pophale) SiO2 
 PCOD9238838
Probable space group: P 2/C
;
_chemical_formula_sum "Si O2"
_cell_formula_units_Z 32
_cell_length_a 14.410360
_cell_length_b 7.037194
_cell_length_c 13.393411
_cell_angle_alpha 90.000000
_cell_angle_beta 51.488083
_cell_angle_gamma 90.000000
_cell_volume 1062.766984
_symmetry_space_group_name_H-M "P 2/C"
_symmetry_group_IT_number 13
_symmetry_cell_setting 'monoclinic'
loop_
_space_group_symop_operation_xyz
x,y,z
-x,y,1/2-z
-x,-y,-z
x,-y,1/2+z
loop_
_atom_site_type_symbol
_atom_site_label
_atom_site_fract_x
_atom_site_fract_y
_atom_site_fract_z
Si Si1 0.540886 0.908948 0.616622
Si Si2 0.840200 0.505736 0.953287
Si Si3 0.090030 0.473400 0.821672
Si Si4 0.962841 0.978406 0.140110
Si Si5 0.214876 0.053057 0.501724
Si Si6 0.661030 0.423731 0.812481
Si Si7 0.289682 0.008182 0.220605
Si Si8 0.591906 0.468089 0.577032
O O1 0.500000 0.992268 0.750000
O O2 0.669891 0.999078 0.508153
O O3 0.574949 0.690802 0.611910
O O4 0.423150 0.908094 0.628313
O O5 0.874716 0.530987 0.814087
O O6 0.960476 0.561488 0.931780
O O7 0.813523 0.279363 0.978553
O O8 0.711100 0.602383 0.052062
O O9 0.063921 0.246832 0.830100
O O10 0.210543 0.507451 0.805275
O O11 0.835822 0.079367 0.239341
O O12 0.085594 0.031706 0.112842
O O13 0.000000 0.000000 0.000000
O O14 0.255467 0.008768 0.361927
O O15 0.691107 0.210060 0.822479
O O16 0.543621 0.400281 0.824146
O O17 0.622873 0.535291 0.937921
#
# Coordination Sequence:
#
# PCOD9238838 Si02
#       8
#     4   4   4   4   4   4   4   4
#     4   9  17  29  44  63  84 111 145 179 214 258
#     4   8  13  23  41  63  86 114 148 184 214 253
#     4   8  13  22  39  64  88 112 148 183 215 256
#     4   8  13  22  38  61  84 109 138 176 219 256
#     4   8  14  25  41  61  84 109 140 179 215 249
#     4   9  17  28  43  65  90 114 142 179 218 260
#     4   9  16  26  42  64  86 109 140 176 218 260
#     4   9  17  29  44  63  88 116 145 176 215 258
#
# _framework density 30.110081999999998
#
# number of rings (size 3 to 8) (size 9 to 14) (size 15 to 20)
#    0.000    3.500    0.000    0.000    0.000    0.500 
#    0.000    1.875    0.000    1.500    0.000   78.750 
#    0.000    0.000    0.000    0.000    0.000    0.000 
#
# Total GULP energy -178982.852785 kJ/mol
# GULP energy per Si atom -5593.214150 kJ/mol
# Density = 3.004155 g / cm^3
# Si number density = 30.110082 Si / 1000 Ang^3
#
#
#
# Elastic Constant Matrix: (Units=GPa)
#
#
# Indices 1 2 3 4 5 6 
#
# 1 287.2079 14.9851 109.0505 0.0000 -97.7144 0.0000
# 2 14.9851 106.9251 21.2855 0.0000 -1.4533 0.0000
# 3 109.0505 21.2855 240.7621 0.0000 -89.3104 0.0000
# 4 0.0000 0.0000 0.0000 12.9921 0.0000 -3.9151
# 5 -97.7144 -1.4533 -89.3104 0.0000 96.1245 0.0000
# 6 0.0000 0.0000 0.0000 -3.9151 0.0000 26.0015
#
#
#
# Elastic Compliance Matrix: (Units=1/GPa)
#
#
# Indices 1 2 3 4 5 6 
#
# 1 0.005418 -0.000581 -0.000554 0.000000 0.004985 0.000000
# 2 -0.000581 0.009642 -0.001151 0.000000 -0.001515 0.000000
# 3 -0.000554 -0.001151 0.006547 0.000000 0.005503 0.000000
# 4 0.000000 0.000000 0.000000 0.080628 0.000000 0.012140
# 5 0.004985 -0.001515 0.005503 0.000000 0.020560 0.000000
# 6 0.000000 0.000000 0.000000 0.012140 0.000000 0.040287
#
#
# Mechanical properties :
#
#
# Convention : Reuss Voigt Hill
#
# Bulk Modulus (GPa) = 58.69975 102.83745 80.76860
# Shear Modulus (GPa) = 28.84594 59.66189 44.25391
#
# Velocity S-wave (km/s) = 3.09854 4.45619 3.83787
# Velocity P-wave (km/s) = 5.68671 7.79133 6.82068
#
# Compressibility (1/GPa) = 0.01703585
#
# Stress axis : x y z
#
# Youngs Moduli (GPa) = 184.56169 103.70905 152.73376
#
# Poissons Ratio (x) = 0.06029 0.08457
# Poissons Ratio (y) = 0.10730 0.17579
# Poissons Ratio (z) = 0.10219 0.11937
#
# Static dielectric constant tensor:
#      x y z
#    x 1.975530 0.000000 -0.572300 
#    y 0.000000 2.437800 0.000000 
#    z -0.572300 0.000000 1.743400 
# 
# From -- ./inp_files/80764.got.cif
#   From: 2010.05.17/outbox.cif.g08.bks.cpg/sg13_41_cif.got.tgz:80764.got - 2010.06.03 16:44:36.
