data_PCOD9238431
_publ_section_title
;
Structure prediction by ZEFSAII (Michael W. Deem and Ramdas Pophale) SiO2 
 PCOD9238431
Probable space group: P 2/C
;
_chemical_formula_sum "Si O2"
_cell_formula_units_Z 16
_cell_length_a 8.801269
_cell_length_b 4.849237
_cell_length_c 14.186304
_cell_angle_alpha 90.000000
_cell_angle_beta 103.240886
_cell_angle_gamma 90.000000
_cell_volume 589.367680
_symmetry_space_group_name_H-M "P 2/C"
_symmetry_group_IT_number 13
_symmetry_cell_setting 'monoclinic'
loop_
_space_group_symop_operation_xyz
x,y,z
-x,y,1/2-z
-x,-y,-z
x,-y,1/2+z
loop_
_atom_site_type_symbol
_atom_site_label
_atom_site_fract_x
_atom_site_fract_y
_atom_site_fract_z
Si Si1 0.340740 0.602959 0.084773
Si Si2 0.693948 0.441147 0.134936
Si Si3 0.806054 0.933980 0.260034
Si Si4 0.925133 0.758631 0.933620
O O1 0.525540 0.584477 0.119638
O O2 0.258494 0.304559 0.082643
O O3 0.267793 0.772211 0.160727
O O4 0.296969 0.672925 0.970600
O O5 0.701251 0.171337 0.199822
O O6 0.817228 0.678808 0.186018
O O7 0.941309 0.123453 0.329489
O O8 0.000000 0.500000 0.000000
O O9 0.000000 0.000000 0.000000
#
# Coordination Sequence:
#
# PCOD9238431 Si02
#       4
#     4   4   4   4
#     4  11  27  46  75 106 154 180 237 310 354 431
#     4  11  28  43  75 114 140 185 241 296 380 418
#     4  12  25  45  75 106 141 192 237 297 362 432
#     4  12  25  46  72  98 143 196 236 287 357 419
#
# _framework density 27.147735000000001
#
# number of rings (size 3 to 8) (size 9 to 14) (size 15 to 20)
#    0.000    0.500    5.000    0.750   10.500    2.000 
#    0.000    7.500    0.000    0.000    0.000    0.000 
#    0.000    0.000    0.000    0.000    0.000    0.000 
#
# Total GULP energy -89361.801984 kJ/mol
# GULP energy per Si atom -5585.112624 kJ/mol
# Density = 2.708595 g / cm^3
# Si number density = 27.147735 Si / 1000 Ang^3
#
#
#
# Elastic Constant Matrix: (Units=GPa)
#
#
# Indices 1 2 3 4 5 6 
#
# 1 69.1641 8.8771 28.6885 0.0000 2.8882 0.0000
# 2 8.8771 189.6983 83.9810 0.0000 13.6905 0.0000
# 3 28.6885 83.9810 249.5864 0.0000 -13.4299 0.0000
# 4 0.0000 0.0000 0.0000 64.3000 0.0000 3.2213
# 5 2.8882 13.6905 -13.4299 0.0000 38.4707 0.0000
# 6 0.0000 0.0000 0.0000 3.2213 0.0000 32.9693
#
#
#
# Elastic Compliance Matrix: (Units=1/GPa)
#
#
# Indices 1 2 3 4 5 6 
#
# 1 0.015316 0.000292 -0.001963 0.000000 -0.001939 0.000000
# 2 0.000292 0.006556 -0.002412 0.000000 -0.003197 0.000000
# 3 -0.001963 -0.002412 0.005195 0.000000 0.002819 0.000000
# 4 0.000000 0.000000 0.000000 0.015629 0.000000 -0.001527
# 5 -0.001939 -0.003197 0.002819 0.000000 0.028261 0.000000
# 6 0.000000 0.000000 0.000000 -0.001527 0.000000 0.030480
#
#
# Mechanical properties :
#
#
# Convention : Reuss Voigt Hill
#
# Bulk Modulus (GPa) = 52.90231 83.50469 68.20350
# Shear Modulus (GPa) = 43.13907 52.94150 48.04028
#
# Velocity S-wave (km/s) = 3.99061 4.42081 4.21121
# Velocity P-wave (km/s) = 6.38455 7.54217 6.98737
#
# Compressibility (1/GPa) = 0.01890277
#
# Stress axis : x y z
#
# Youngs Moduli (GPa) = 65.29060 152.52636 192.47508
#
# Poissons Ratio (x) = -0.04459 0.37787
# Poissons Ratio (y) = -0.01909 0.46419
# Poissons Ratio (z) = 0.12818 0.36784
#
# Static dielectric constant tensor:
#      x y z
#    x 2.320010 0.000000 -0.075690 
#    y 0.000000 2.113680 0.000000 
#    z -0.075690 0.000000 2.297870 
# 
# From -- ./inp_files/48471.got.cif
#   From: 2010.05.17/outbox.cif.g08.bks.cpg/sg13_25_cif.got.tgz:48471.got - 2010.06.03 16:44:36.
