data_PCOD9238770
_publ_section_title
;
Structure prediction by ZEFSAII (Michael W. Deem and Ramdas Pophale) SiO2 
 PCOD9238770
Probable space group: P 2/C
;
_chemical_formula_sum "Si O2"
_cell_formula_units_Z 10
_cell_length_a 7.005101
_cell_length_b 6.951923
_cell_length_c 7.984335
_cell_angle_alpha 90.000000
_cell_angle_beta 114.764537
_cell_angle_gamma 90.000000
_cell_volume 353.070647
_symmetry_space_group_name_H-M "P 2/C"
_symmetry_group_IT_number 13
_symmetry_cell_setting 'monoclinic'
loop_
_space_group_symop_operation_xyz
x,y,z
-x,y,1/2-z
-x,-y,-z
x,-y,1/2+z
loop_
_atom_site_type_symbol
_atom_site_label
_atom_site_fract_x
_atom_site_fract_y
_atom_site_fract_z
Si Si1 0.035571 0.776299 0.462202
Si Si2 0.500000 0.800647 0.750000
Si Si3 0.383929 0.687364 0.034982
O O1 0.858004 0.666514 0.503415
O O2 0.000000 0.752707 0.250000
O O3 0.271039 0.725737 0.601478
O O4 0.000000 0.000000 0.500000
O O5 0.593901 0.847189 0.600387
O O6 0.500000 0.744045 0.250000
O O7 0.500000 0.500000 0.000000
#
# Coordination Sequence:
#
# PCOD9238770 Si02
#       3
#     4   2   4
#     4  12  28  50  82 119 160 214 269 333 403 480
#     4  12  26  50  78 116 162 208 268 338 392 482
#     4  12  26  50  79 117 159 214 266 331 402 481
#
# _framework density 28.322946999999999
#
# number of rings (size 3 to 8) (size 9 to 14) (size 15 to 20)
#    0.000    0.000    6.000    3.600    2.800    4.800 
#    7.200    0.000    0.000    0.000    0.000    0.000 
#    0.000    0.000    0.000    0.000    0.000    0.000 
#
# Total GULP energy -55793.934003 kJ/mol
# GULP energy per Si atom -5579.393400 kJ/mol
# Density = 2.825848 g / cm^3
# Si number density = 28.322947 Si / 1000 Ang^3
#
#
#
# Elastic Constant Matrix: (Units=GPa)
#
#
# Indices 1 2 3 4 5 6 
#
# 1 322.6639 39.1202 106.6274 0.0000 17.7108 0.0000
# 2 39.1202 105.0651 28.3932 0.0000 2.3614 0.0000
# 3 106.6274 28.3932 290.8102 0.0000 -13.8325 0.0000
# 4 0.0000 0.0000 0.0000 18.3004 0.0000 -16.6278
# 5 17.7108 2.3614 -13.8325 0.0000 90.9592 0.0000
# 6 0.0000 0.0000 0.0000 -16.6278 0.0000 0.4984
#
#
#
# Elastic Compliance Matrix: (Units=1/GPa)
#
#
# Indices 1 2 3 4 5 6 
#
# 1 0.003700 -0.001006 -0.001301 0.000000 -0.000892 0.000000
# 2 -0.001006 0.010064 -0.000621 0.000000 -0.000160 0.000000
# 3 -0.001301 -0.000621 0.004018 0.000000 0.000880 0.000000
# 4 0.000000 0.000000 0.000000 -0.001864 0.000000 -0.062192
# 5 -0.000892 -0.000160 0.000880 0.000000 0.011306 0.000000
# 6 0.000000 0.000000 0.000000 -0.062192 0.000000 -0.068448
#
#
# Mechanical properties :
#
#
# Convention : Reuss Voigt Hill
#
# Bulk Modulus (GPa) = 83.85227 118.53563 101.19395
# Shear Modulus (GPa) = -159.27552 58.24482 -50.51535
#
# Velocity S-wave (km/s) = -7.50717 4.53973 -4.22779
# Velocity P-wave (km/s) = 6.74340 8.33194 3.46033
#
# Compressibility (1/GPa) = 0.01192574
#
# Stress axis : x y z
#
# Youngs Moduli (GPa) = 270.26853 99.36388 248.86925
#
# Poissons Ratio (x) = 0.09997 0.32374
# Poissons Ratio (y) = 0.27191 0.15463
# Poissons Ratio (z) = 0.35158 0.06174
#
# Static dielectric constant tensor:
#      x y z
#    x 2.069130 0.000000 -0.020220 
#    y 0.000000 2.622080 0.000000 
#    z -0.020220 0.000000 2.088040 
# 
# From -- ./inp_files/8262.got.cif
#   From: 2010.05.17/outbox.cif.g08.bks.cpg/sg13_5_cif.got.tgz:8262.got - 2010.06.03 16:44:36.
