data_PCOD9238107
_publ_section_title
;
Structure prediction by ZEFSAII (Michael W. Deem and Ramdas Pophale) SiO2 
 PCOD9238107
Probable space group: P 2/C
;
_chemical_formula_sum "Si O2"
_cell_formula_units_Z 18
_cell_length_a 7.301352
_cell_length_b 7.016476
_cell_length_c 18.201598
_cell_angle_alpha 90.000000
_cell_angle_beta 70.445868
_cell_angle_gamma 90.000000
_cell_volume 878.684332
_symmetry_space_group_name_H-M "P 2/C"
_symmetry_group_IT_number 13
_symmetry_cell_setting 'monoclinic'
loop_
_space_group_symop_operation_xyz
x,y,z
-x,y,1/2-z
-x,-y,-z
x,-y,1/2+z
loop_
_atom_site_type_symbol
_atom_site_label
_atom_site_fract_x
_atom_site_fract_y
_atom_site_fract_z
Si Si1 0.735119 0.354033 0.400616
Si Si2 0.694350 0.539846 0.565419
Si Si3 0.045001 0.884467 0.920535
Si Si4 0.000000 0.576993 0.250000
Si Si5 0.706451 0.794772 0.183316
O O1 0.732145 0.476910 0.476501
O O2 0.512379 0.351075 0.404838
O O3 0.843231 0.157489 0.405824
O O4 0.865884 0.451842 0.321285
O O5 0.858924 0.682328 0.571996
O O6 0.685768 0.352183 0.617612
O O7 0.198782 0.008101 0.854945
O O8 0.000000 0.000000 0.000000
O O9 0.142563 0.701054 0.280642
O O10 0.500000 0.819076 0.250000
#
# Coordination Sequence:
#
# PCOD9238107 Si02
#       5
#     4   4   4   2   4
#     4  11  24  44  74 100 135 186 227 282 348 413
#     4  11  24  48  71  96 142 186 228 279 352 420
#     4  12  25  43  72 103 137 182 234 285 348 415
#     4  12  24  42  72 100 136 178 236 280 346 406
#     4  12  26  45  70 104 139 182 233 292 344 417
#
# _framework density 20.485174000000001
#
# number of rings (size 3 to 8) (size 9 to 14) (size 15 to 20)
#    0.000    0.444    6.667    2.000    0.000    6.222 
#    0.000    0.000    0.000    0.000    0.000    0.000 
#    0.000    0.000    0.000    0.000    0.000    0.000 
#
# Total GULP energy -100726.042617 kJ/mol
# GULP energy per Si atom -5595.891257 kJ/mol
# Density = 2.043855 g / cm^3
# Si number density = 20.485174 Si / 1000 Ang^3
#
#
#
# Elastic Constant Matrix: (Units=GPa)
#
#
# Indices 1 2 3 4 5 6 
#
# 1 119.8899 7.4219 14.3123 0.0000 -15.6280 0.0000
# 2 7.4219 49.7714 6.3235 0.0000 -8.9994 0.0000
# 3 14.3123 6.3235 109.5132 0.0000 -18.4412 0.0000
# 4 0.0000 0.0000 0.0000 34.0994 0.0000 -6.1412
# 5 -15.6280 -8.9994 -18.4412 0.0000 40.3479 0.0000
# 6 0.0000 0.0000 0.0000 -6.1412 0.0000 10.4306
#
#
#
# Elastic Compliance Matrix: (Units=1/GPa)
#
#
# Indices 1 2 3 4 5 6 
#
# 1 0.008847 -0.000701 -0.000612 0.000000 0.002991 0.000000
# 2 -0.000701 0.021013 -0.000410 0.000000 0.004228 0.000000
# 3 -0.000612 -0.000410 0.009945 0.000000 0.004217 0.000000
# 4 0.000000 0.000000 0.000000 0.032804 0.000000 0.019314
# 5 0.002991 0.004228 0.004217 0.000000 0.028813 0.000000
# 6 0.000000 0.000000 0.000000 0.019314 0.000000 0.107243
#
#
# Mechanical properties :
#
#
# Convention : Reuss Voigt Hill
#
# Bulk Modulus (GPa) = 27.50280 37.25444 32.37862
# Shear Modulus (GPa) = 22.29836 33.71670 28.00753
#
# Velocity S-wave (km/s) = 3.30284 4.06138 3.70159
# Velocity P-wave (km/s) = 5.29149 6.34181 5.84031
#
# Compressibility (1/GPa) = 0.03635993
#
# Stress axis : x y z
#
# Youngs Moduli (GPa) = 113.02884 47.58972 100.55217
#
# Poissons Ratio (x) = 0.03335 0.06156
# Poissons Ratio (y) = 0.07921 0.04120
# Poissons Ratio (z) = 0.06919 0.01950
#
# Static dielectric constant tensor:
#      x y z
#    x 1.752730 0.000000 0.016980 
#    y 0.000000 1.710500 0.000000 
#    z 0.016980 0.000000 1.790090 
# 
# From -- ./inp_files/62258.got.cif
#   From: 2010.05.17/outbox.cif.g08.bks.cpg/sg13_32_cif.got.tgz:62258.got - 2010.06.03 16:44:36.
