data_PCOD9238409
_publ_section_title
;
Structure prediction by ZEFSAII (Michael W. Deem and Ramdas Pophale) SiO2 
 PCOD9238409
Probable space group: P 2/C
;
_chemical_formula_sum "Si O2"
_cell_formula_units_Z 22
_cell_length_a 13.252559
_cell_length_b 5.227031
_cell_length_c 18.566445
_cell_angle_alpha 90.000000
_cell_angle_beta 139.276384
_cell_angle_gamma 90.000000
_cell_volume 839.082651
_symmetry_space_group_name_H-M "P 2/C"
_symmetry_group_IT_number 13
_symmetry_cell_setting 'monoclinic'
loop_
_space_group_symop_operation_xyz
x,y,z
-x,y,1/2-z
-x,-y,-z
x,-y,1/2+z
loop_
_atom_site_type_symbol
_atom_site_label
_atom_site_fract_x
_atom_site_fract_y
_atom_site_fract_z
Si Si1 0.712501 0.834173 0.044624
Si Si2 0.535574 0.673949 0.413703
Si Si3 0.804648 0.452328 0.731382
Si Si4 0.500000 0.892102 0.250000
Si Si5 0.940479 0.260105 0.543874
Si Si6 0.216907 0.143361 0.176514
O O1 0.814658 0.706082 0.163067
O O2 0.813834 0.867107 0.027292
O O3 0.591467 0.603385 0.967749
O O4 0.622727 0.102145 0.004721
O O5 0.350230 0.683906 0.320288
O O6 0.576446 0.717393 0.352362
O O7 0.761148 0.741452 0.732177
O O8 0.975321 0.460410 0.858966
O O9 0.376647 0.060827 0.226290
O O10 0.857128 0.334252 0.424538
O O11 0.087311 0.076129 0.608856
#
# Coordination Sequence:
#
# PCOD9238409 Si02
#       6
#     4   4   4   2   4   4
#     4  12  29  50  78 115 161 204 261 321 395 466
#     4  12  28  48  80 114 156 206 267 321 381 467
#     4  12  27  47  79 111 159 210 256 327 389 466
#     4  12  24  50  80 114 148 208 258 328 380 462
#     4  11  26  48  75 114 158 203 258 326 385 470
#     4  11  26  49  78 116 156 202 269 319 389 459
#
# _framework density 26.219111000000002
#
# number of rings (size 3 to 8) (size 9 to 14) (size 15 to 20)
#    0.000    0.364    3.636    3.273    7.636    0.727 
#    0.000    0.000    0.000    0.000    0.000    0.000 
#    0.000    0.000    0.000    0.000    0.000    0.000 
#
# Total GULP energy -122816.901584 kJ/mol
# GULP energy per Si atom -5582.586436 kJ/mol
# Density = 2.615944 g / cm^3
# Si number density = 26.219111 Si / 1000 Ang^3
#
#
#
# Elastic Constant Matrix: (Units=GPa)
#
#
# Indices 1 2 3 4 5 6 
#
# 1 91.3053 16.8381 8.7793 0.0000 13.4661 0.0000
# 2 16.8381 88.7118 24.2818 0.0000 12.4920 0.0000
# 3 8.7793 24.2818 92.4738 0.0000 -9.2035 0.0000
# 4 0.0000 0.0000 0.0000 39.7342 0.0000 1.6371
# 5 13.4661 12.4920 -9.2035 0.0000 51.2011 0.0000
# 6 0.0000 0.0000 0.0000 1.6371 0.0000 19.2563
#
#
#
# Elastic Compliance Matrix: (Units=1/GPa)
#
#
# Indices 1 2 3 4 5 6 
#
# 1 0.011761 -0.001552 -0.000997 0.000000 -0.002894 0.000000
# 2 -0.001552 0.013039 -0.003617 0.000000 -0.003423 0.000000
# 3 -0.000997 -0.003617 0.012190 0.000000 0.003336 0.000000
# 4 0.000000 0.000000 0.000000 0.025256 0.000000 -0.002147
# 5 -0.002894 -0.003423 0.003336 0.000000 0.021727 0.000000
# 6 0.000000 0.000000 0.000000 -0.002147 0.000000 0.052114
#
#
# Mechanical properties :
#
#
# Convention : Reuss Voigt Hill
#
# Bulk Modulus (GPa) = 40.55441 41.36548 40.95994
# Shear Modulus (GPa) = 31.92059 36.87774 34.39916
#
# Velocity S-wave (km/s) = 3.49299 3.75443 3.62607
# Velocity P-wave (km/s) = 5.63640 5.88264 5.76084
#
# Compressibility (1/GPa) = 0.02465823
#
# Stress axis : x y z
#
# Youngs Moduli (GPa) = 85.02583 76.69201 82.03199
#
# Poissons Ratio (x) = 0.11902 0.08179
# Poissons Ratio (y) = 0.13195 0.29673
# Poissons Ratio (z) = 0.08478 0.27741
#
# Static dielectric constant tensor:
#      x y z
#    x 2.104260 0.000000 -0.127330 
#    y 0.000000 2.151130 0.000000 
#    z -0.127330 0.000000 2.203350 
# 
# From -- ./inp_files/79384.got.cif
#   From: 2010.05.17/outbox.cif.g08.bks.cpg/sg13_40_cif.got.tgz:79384.got - 2010.06.03 16:44:36.
