data_PCOD9238992
_publ_section_title
;
Structure prediction by ZEFSAII (Michael W. Deem and Ramdas Pophale) SiO2 
 PCOD9238992
Probable space group: P 2/C
;
_chemical_formula_sum "Si O2"
_cell_formula_units_Z 32
_cell_length_a 18.000000
_cell_length_b 12.000000
_cell_length_c 15.000000
_cell_angle_alpha 90.000000
_cell_angle_beta 150.000000
_cell_angle_gamma 90.000000
_cell_volume 1620.000000
_symmetry_space_group_name_H-M "P 2/C"
_symmetry_group_IT_number 13
_symmetry_cell_setting 'monoclinic'
loop_
_space_group_symop_operation_xyz
x,y,z
-x,y,1/2-z
-x,-y,-z
x,-y,1/2+z
loop_
_atom_site_type_symbol
_atom_site_label
_atom_site_fract_x
_atom_site_fract_y
_atom_site_fract_z
Si Si1 0.859372 0.693160 0.462839
Si Si2 0.669131 0.669001 0.441118
Si Si3 0.105497 0.252826 0.696928
Si Si4 0.689015 0.098010 0.073854
Si Si5 0.015884 0.921536 0.867616
Si Si6 0.074844 0.506830 0.730639
Si Si7 0.340290 0.124556 0.066783
Si Si8 0.205405 0.109557 0.126195
O O1 0.735033 0.680271 0.409208
O O2 0.822139 0.737998 0.326266
O O3 0.959410 0.790336 0.609228
O O4 0.958468 0.582552 0.554614
O O5 0.500000 0.633175 0.250000
O O6 0.669777 0.787747 0.496157
O O7 0.773135 0.578738 0.600077
O O8 0.089522 0.380768 0.712757
O O9 0.942084 0.191139 0.520524
O O10 0.217676 0.188515 0.879635
O O11 0.677055 0.120094 0.168954
O O12 0.860558 0.062381 0.251968
O O13 0.623026 0.992761 0.949009
O O14 0.000000 0.964692 0.750000
O O15 0.140531 0.984353 0.052273
O O16 0.000000 0.502497 0.750000
O O17 0.500000 0.181300 0.250000
O O18 0.274644 0.119149 0.099008
#
# Coordination Sequence:
#
# PCOD9238992 Si02
#       8
#     4   4   4   4   4   4   4   4
#     4  11  21  38  65  93 115 149 200 257 296 340
#     4  11  23  40  62  89 121 158 197 242 296 356
#     4  12  23  40  64  90 118 157 202 247 296 351
#     4  12  22  38  63  91 119 152 200 251 296 345
#     4  12  17  35  63  91 118 146 192 252 300 336
#     4  10  21  39  61  88 120 151 198 252 298 342
#     4  12  27  41  56  87 130 165 193 235 298 365
#     4  12  23  38  65  90 118 156 202 247 297 351
#
# _framework density 19.753086
#
# number of rings (size 3 to 8) (size 9 to 14) (size 15 to 20)
#    0.000    0.500    6.250    3.375    0.000    2.000 
#    0.000    0.625    0.000    0.000    0.000    0.000 
#    0.000    0.000    0.000    0.000    0.000    0.000 
#
# Total GULP energy -178398.843479 kJ/mol
# GULP energy per Si atom -5574.963859 kJ/mol
# Density = 1.970813 g / cm^3
# Si number density = 19.753086 Si / 1000 Ang^3
#
#
#
# Elastic Constant Matrix: (Units=GPa)
#
#
# Indices 1 2 3 4 5 6 
#
# 1 88.1368 16.9135 42.5682 0.0000 -32.5889 0.0000
# 2 16.9135 119.1301 23.5963 0.0000 -11.8349 0.0000
# 3 42.5682 23.5963 82.0231 0.0000 -13.8201 0.0000
# 4 0.0000 0.0000 0.0000 18.5919 0.0000 -8.7270
# 5 -32.5889 -11.8349 -13.8201 0.0000 26.7825 0.0000
# 6 0.0000 0.0000 0.0000 -8.7270 0.0000 38.4991
#
#
#
# Elastic Compliance Matrix: (Units=1/GPa)
#
#
# Indices 1 2 3 4 5 6 
#
# 1 0.025306 0.000807 -0.008890 0.000000 0.026562 0.000000
# 2 0.000807 0.009132 -0.002410 0.000000 0.003773 0.000000
# 3 -0.008890 -0.002410 0.016972 0.000000 -0.003124 0.000000
# 4 0.000000 0.000000 0.000000 0.060191 0.000000 0.013644
# 5 0.026562 0.003773 -0.003124 0.000000 0.069713 0.000000
# 6 0.000000 0.000000 0.000000 0.013644 0.000000 0.029067
#
#
# Mechanical properties :
#
#
# Convention : Reuss Voigt Hill
#
# Bulk Modulus (GPa) = 32.86896 50.60512 41.73704
# Shear Modulus (GPa) = 20.70308 30.52218 25.61263
#
# Velocity S-wave (km/s) = 3.24094 3.93515 3.60479
# Velocity P-wave (km/s) = 5.53904 6.80600 6.20494
#
# Compressibility (1/GPa) = 0.03042384
#
# Stress axis : x y z
#
# Youngs Moduli (GPa) = 39.51607 109.50676 58.91958
#
# Poissons Ratio (x) = -0.08835 0.52380
# Poissons Ratio (y) = -0.03188 0.14199
# Poissons Ratio (z) = 0.35130 0.26391
#
# Static dielectric constant tensor:
#      x y z
#    x 1.816030 0.000000 -0.053300 
#    y 0.000000 1.713700 0.000000 
#    z -0.053300 0.000000 1.722000 
# 
# From -- ./inp_files/55831.got.cif
#   From: 2010.05.17/outbox.ucp.g08.bks.cvg/sg13_28_cif.got.tgz:55831.got - 2010.06.11 12:23:55.
