data_PCOD9238050
_publ_section_title
;
Structure prediction by ZEFSAII (Michael W. Deem and Ramdas Pophale) SiO2 
 PCOD9238050
Probable space group: P 2/C
;
_chemical_formula_sum "Si O2"
_cell_formula_units_Z 28
_cell_length_a 25.733749
_cell_length_b 9.490974
_cell_length_c 9.007370
_cell_angle_alpha 90.000000
_cell_angle_beta 141.539209
_cell_angle_gamma 90.000000
_cell_volume 1368.319516
_symmetry_space_group_name_H-M "P 2/C"
_symmetry_group_IT_number 13
_symmetry_cell_setting 'monoclinic'
loop_
_space_group_symop_operation_xyz
x,y,z
-x,y,1/2-z
-x,-y,-z
x,-y,1/2+z
loop_
_atom_site_type_symbol
_atom_site_label
_atom_site_fract_x
_atom_site_fract_y
_atom_site_fract_z
Si Si1 0.058746 0.952366 0.497737
Si Si2 0.647915 0.145452 0.390839
Si Si3 0.933003 0.534536 0.471732
Si Si4 0.182308 0.714518 0.867940
Si Si5 0.509934 0.655116 0.451205
Si Si6 0.365890 0.163500 0.784538
Si Si7 0.160742 0.780024 0.152238
O O1 0.100452 0.085683 0.509389
O O2 0.000000 0.872411 0.250000
O O3 0.132699 0.855546 0.717750
O O4 0.000000 0.000000 0.500000
O O5 0.625549 0.148829 0.517091
O O6 0.746566 0.174203 0.599504
O O7 0.633525 0.992251 0.286184
O O8 0.595785 0.266464 0.189867
O O9 0.863460 0.411003 0.322598
O O10 0.881011 0.675281 0.325028
O O11 0.000000 0.500000 0.500000
O O12 0.000000 0.562875 0.750000
O O13 0.279543 0.750597 0.061826
O O14 0.167673 0.696449 0.012015
O O15 0.500000 0.650030 0.250000
O O16 0.500000 0.500000 0.500000
O O17 0.439349 0.750419 0.371191
#
# Coordination Sequence:
#
# PCOD9238050 Si02
#       7
#     4   4   4   4   4   4   4
#     4  12  22  39  67  93 133 178 228 281 334 390
#     4  11  24  46  74 105 141 183 224 286 341 412
#     4  12  24  45  65  91 135 186 234 285 346 400
#     4  11  24  43  65 100 134 179 229 282 338 402
#     4  12  27  50  77 108 141 179 222 273 342 416
#     4  11  24  46  73 106 142 179 231 279 345 410
#     4  11  24  44  64  98 140 174 228 286 339 396
#
# _framework density 20.463058
#
# number of rings (size 3 to 8) (size 9 to 14) (size 15 to 20)
#    0.000    0.571    4.286    4.286    2.000    0.000 
#    7.714    0.000    0.000    0.000    0.000    0.000 
#    0.000    0.000    0.000    0.000    0.000    0.000 
#
# Total GULP energy -156385.592323 kJ/mol
# GULP energy per Si atom -5585.199726 kJ/mol
# Density = 2.041648 g / cm^3
# Si number density = 20.463058 Si / 1000 Ang^3
#
#
#
# Elastic Constant Matrix: (Units=GPa)
#
#
# Indices 1 2 3 4 5 6 
#
# 1 87.8396 21.2569 45.0153 0.0000 -1.1920 0.0000
# 2 21.2569 113.2449 36.0475 0.0000 2.6737 0.0000
# 3 45.0153 36.0475 105.7749 0.0000 2.6558 0.0000
# 4 0.0000 0.0000 0.0000 35.0680 0.0000 8.0987
# 5 -1.1920 2.6737 2.6558 0.0000 27.0089 0.0000
# 6 0.0000 0.0000 0.0000 8.0987 0.0000 33.6869
#
#
#
# Elastic Compliance Matrix: (Units=1/GPa)
#
#
# Indices 1 2 3 4 5 6 
#
# 1 0.014681 -0.000883 -0.005980 0.000000 0.001323 0.000000
# 2 -0.000883 0.009969 -0.003003 0.000000 -0.000731 0.000000
# 3 -0.005980 -0.003003 0.013054 0.000000 -0.001250 0.000000
# 4 0.000000 0.000000 0.000000 0.030192 0.000000 -0.007259
# 5 0.001323 -0.000731 -0.001250 0.000000 0.037279 0.000000
# 6 0.000000 0.000000 0.000000 -0.007259 0.000000 0.031430
#
#
# Mechanical properties :
#
#
# Convention : Reuss Voigt Hill
#
# Bulk Modulus (GPa) = 55.64570 56.83317 56.23944
# Shear Modulus (GPa) = 30.80176 32.78874 31.79525
#
# Velocity S-wave (km/s) = 3.88395 4.00726 3.94609
# Velocity P-wave (km/s) = 6.88227 7.01746 6.95019
#
# Compressibility (1/GPa) = 0.01797084
#
# Stress axis : x y z
#
# Youngs Moduli (GPa) = 68.11686 100.30624 76.60593
#
# Poissons Ratio (x) = 0.08861 0.45810
# Poissons Ratio (y) = 0.06018 0.23007
# Poissons Ratio (z) = 0.40733 0.30124
#
# Static dielectric constant tensor:
#      x y z
#    x 1.724900 0.000000 -0.025980 
#    y 0.000000 1.721230 0.000000 
#    z -0.025980 0.000000 1.664140 
# 
# From -- ./inp_files/24583.got.cif
#   From: 2010.05.17/outbox.cif.g08.bks.cpg/sg13_13_cif.got.tgz:24583.got - 2010.06.03 16:44:36.
