data_PCOD9238244
_publ_section_title
;
Structure prediction by ZEFSAII (Michael W. Deem and Ramdas Pophale) SiO2 
 PCOD9238244
Probable space group: P 2/C
;
_chemical_formula_sum "Si O2"
_cell_formula_units_Z 16
_cell_length_a 12.506893
_cell_length_b 5.861213
_cell_length_c 10.788100
_cell_angle_alpha 90.000000
_cell_angle_beta 53.986221
_cell_angle_gamma 90.000000
_cell_volume 639.681285
_symmetry_space_group_name_H-M "P 2/C"
_symmetry_group_IT_number 13
_symmetry_cell_setting 'monoclinic'
loop_
_space_group_symop_operation_xyz
x,y,z
-x,y,1/2-z
-x,-y,-z
x,-y,1/2+z
loop_
_atom_site_type_symbol
_atom_site_label
_atom_site_fract_x
_atom_site_fract_y
_atom_site_fract_z
Si Si1 0.881396 0.088832 0.925449
Si Si2 0.291323 0.571389 0.098765
Si Si3 0.492763 0.189670 0.614882
Si Si4 0.052090 0.308126 0.374949
O O1 0.754318 0.212997 0.954363
O O2 0.000000 0.174049 0.750000
O O3 0.878032 0.142250 0.073847
O O4 0.927560 0.826305 0.903349
O O5 0.356604 0.678729 0.177280
O O6 0.163170 0.427794 0.219695
O O7 0.395655 0.388201 0.973540
O O8 0.500000 0.097103 0.750000
O O9 0.500000 0.000000 0.500000
O O10 0.000000 0.500000 0.500000
#
# Coordination Sequence:
#
# PCOD9238244 Si02
#       4
#     4   4   4   4
#     4  11  25  43  72 111 154 205 253 321 402 482
#     4  11  26  50  78 113 158 208 272 330 406 485
#     4  11  28  52  83 114 156 216 274 347 404 483
#     4  11  25  44  71 112 162 201 257 327 403 486
#
# _framework density 25.012456
#
# number of rings (size 3 to 8) (size 9 to 14) (size 15 to 20)
#    0.000    1.000    2.500    1.500    7.000    8.000 
#    0.000    0.000    0.000    0.000    0.000    0.000 
#    0.000    0.000    0.000    0.000    0.000    0.000 
#
# Total GULP energy -89225.882151 kJ/mol
# GULP energy per Si atom -5576.617634 kJ/mol
# Density = 2.495553 g / cm^3
# Si number density = 25.012456 Si / 1000 Ang^3
#
#
#
# Elastic Constant Matrix: (Units=GPa)
#
#
# Indices 1 2 3 4 5 6 
#
# 1 171.2760 113.2877 64.4308 0.0000 13.2676 0.0000
# 2 113.2877 140.5405 61.0766 0.0000 -0.8533 0.0000
# 3 64.4308 61.0766 68.5472 0.0000 21.2547 0.0000
# 4 0.0000 0.0000 0.0000 46.4519 0.0000 8.2123
# 5 13.2676 -0.8533 21.2547 0.0000 39.7493 0.0000
# 6 0.0000 0.0000 0.0000 8.2123 0.0000 71.6016
#
#
#
# Elastic Compliance Matrix: (Units=1/GPa)
#
#
# Indices 1 2 3 4 5 6 
#
# 1 0.013672 -0.009544 -0.003438 0.000000 -0.002930 0.000000
# 2 -0.009544 0.020120 -0.012081 0.000000 0.010078 0.000000
# 3 -0.003438 -0.012081 0.033936 0.000000 -0.017258 0.000000
# 4 0.000000 0.000000 0.000000 0.021973 0.000000 -0.002520
# 5 -0.002930 0.010078 -0.017258 0.000000 0.035580 0.000000
# 6 0.000000 0.000000 0.000000 -0.002520 0.000000 0.014255
#
#
# Mechanical properties :
#
#
# Convention : Reuss Voigt Hill
#
# Bulk Modulus (GPa) = 56.81590 95.32820 76.07205
# Shear Modulus (GPa) = 25.57137 40.99847 33.28492
#
# Velocity S-wave (km/s) = 3.20088 4.05300 3.65188
# Velocity P-wave (km/s) = 6.03533 7.75225 6.94704
#
# Compressibility (1/GPa) = 0.01760071
#
# Stress axis : x y z
#
# Youngs Moduli (GPa) = 73.14386 49.70105 29.46701
#
# Poissons Ratio (x) = 0.47435 0.10132
# Poissons Ratio (y) = 0.69809 0.35600
# Poissons Ratio (z) = 0.25149 0.60046
#
# Static dielectric constant tensor:
#      x y z
#    x 2.030900 0.000000 0.060650 
#    y 0.000000 2.111590 0.000000 
#    z 0.060650 0.000000 2.029940 
# 
# From -- ./inp_files/31210.got.cif
#   From: 2010.05.17/outbox.cif.g08.bks.cpg/sg13_16_cif.got.tgz:31210.got - 2010.06.03 16:44:36.
