data_PCOD9238228
_publ_section_title
;
Structure prediction by ZEFSAII (Michael W. Deem and Ramdas Pophale) SiO2 
 PCOD9238228
Probable space group: P 2/C
;
_chemical_formula_sum "Si O2"
_cell_formula_units_Z 18
_cell_length_a 10.633094
_cell_length_b 8.282634
_cell_length_c 10.052752
_cell_angle_alpha 90.000000
_cell_angle_beta 54.611730
_cell_angle_gamma 90.000000
_cell_volume 721.775221
_symmetry_space_group_name_H-M "P 2/C"
_symmetry_group_IT_number 13
_symmetry_cell_setting 'monoclinic'
loop_
_space_group_symop_operation_xyz
x,y,z
-x,y,1/2-z
-x,-y,-z
x,-y,1/2+z
loop_
_atom_site_type_symbol
_atom_site_label
_atom_site_fract_x
_atom_site_fract_y
_atom_site_fract_z
Si Si1 0.761171 0.351766 0.219783
Si Si2 0.148443 0.897153 0.447428
Si Si3 0.500000 0.472673 0.750000
Si Si4 0.315885 0.992534 0.611042
Si Si5 0.176795 0.566449 0.543510
O O1 0.586684 0.416146 0.303747
O O2 0.743435 0.170491 0.279253
O O3 0.838485 0.453488 0.291072
O O4 0.837478 0.405660 0.034199
O O5 0.245125 0.985402 0.506278
O O6 0.094715 0.725484 0.539253
O O7 0.247941 0.872803 0.252253
O O8 0.000000 0.000000 0.500000
O O9 0.641308 0.381885 0.594224
O O10 0.500000 0.000000 0.500000
#
# Coordination Sequence:
#
# PCOD9238228 Si02
#       5
#     4   4   2   4   4
#     4   9  20  34  58  96 132 163 217 282 330 386
#     4  11  25  44  63  92 137 180 215 273 343 400
#     4   8  18  30  58  88 136 150 214 272 338 350
#     4  11  25  40  68 100 130 173 230 275 328 400
#     4   9  20  35  60  90 129 169 216 269 332 386
#
# _framework density 24.938510000000001
#
# number of rings (size 3 to 8) (size 9 to 14) (size 15 to 20)
#    1.333    0.889    0.000    2.000    9.333    1.778 
#    0.000    1.111    0.000    2.667    0.000    0.000 
#    0.000    0.000    0.000    0.000    0.000    0.000 
#
# Total GULP energy -100595.282457 kJ/mol
# GULP energy per Si atom -5588.626803 kJ/mol
# Density = 2.488175 g / cm^3
# Si number density = 24.938510 Si / 1000 Ang^3
#
#
#
# Elastic Constant Matrix: (Units=GPa)
#
#
# Indices 1 2 3 4 5 6 
#
# 1 167.6102 23.0325 32.4172 0.0000 11.1571 0.0000
# 2 23.0325 49.7417 2.4366 0.0000 6.6331 0.0000
# 3 32.4172 2.4366 111.3290 0.0000 0.1092 0.0000
# 4 0.0000 0.0000 0.0000 42.7259 0.0000 3.7648
# 5 11.1571 6.6331 0.1092 0.0000 50.7803 0.0000
# 6 0.0000 0.0000 0.0000 3.7648 0.0000 45.6503
#
#
#
# Elastic Compliance Matrix: (Units=1/GPa)
#
#
# Indices 1 2 3 4 5 6 
#
# 1 0.006811 -0.002912 -0.001919 0.000000 -0.001112 0.000000
# 2 -0.002912 0.021727 0.000374 0.000000 -0.002199 0.000000
# 3 -0.001919 0.000374 0.009532 0.000000 0.000352 0.000000
# 4 0.000000 0.000000 0.000000 0.023576 0.000000 -0.001944
# 5 -0.001112 -0.002199 0.000352 0.000000 0.020224 0.000000
# 6 0.000000 0.000000 0.000000 -0.001944 0.000000 0.022066
#
#
# Mechanical properties :
#
#
# Convention : Reuss Voigt Hill
#
# Bulk Modulus (GPa) = 34.29432 49.38373 41.83903
# Shear Modulus (GPa) = 40.79361 45.88427 43.33894
#
# Velocity S-wave (km/s) = 4.04885 4.29405 4.17325
# Velocity P-wave (km/s) = 5.96984 6.66561 6.32730
#
# Compressibility (1/GPa) = 0.02915935
#
# Stress axis : x y z
#
# Youngs Moduli (GPa) = 146.81197 46.02564 104.90434
#
# Poissons Ratio (x) = 0.13401 0.20127
# Poissons Ratio (y) = 0.42747 -0.03928
# Poissons Ratio (z) = 0.28167 -0.01724
#
# Static dielectric constant tensor:
#      x y z
#    x 2.018330 0.000000 -0.061280 
#    y 0.000000 2.004760 0.000000 
#    z -0.061280 0.000000 2.016820 
# 
# From -- ./inp_files/11608.got.cif
#   From: 2010.05.17/outbox.cif.g08.bks.cpg/sg13_6_cif.got.tgz:11608.got - 2010.06.03 16:44:36.
