data_PCOD9238100
_publ_section_title
;
Structure prediction by ZEFSAII (Michael W. Deem and Ramdas Pophale) SiO2 
 PCOD9238100
Probable space group: P 2/C
;
_chemical_formula_sum "Si O2"
_cell_formula_units_Z 18
_cell_length_a 7.163063
_cell_length_b 9.883215
_cell_length_c 12.164956
_cell_angle_alpha 90.000000
_cell_angle_beta 94.634911
_cell_angle_gamma 90.000000
_cell_volume 858.390715
_symmetry_space_group_name_H-M "P 2/C"
_symmetry_group_IT_number 13
_symmetry_cell_setting 'monoclinic'
loop_
_space_group_symop_operation_xyz
x,y,z
-x,y,1/2-z
-x,-y,-z
x,-y,1/2+z
loop_
_atom_site_type_symbol
_atom_site_label
_atom_site_fract_x
_atom_site_fract_y
_atom_site_fract_z
Si Si1 0.533065 0.276778 0.038347
Si Si2 0.645808 0.526337 0.350284
Si Si3 0.841597 0.170737 0.568537
Si Si4 0.000000 0.616375 0.250000
Si Si5 0.903088 0.861759 0.631229
O O1 0.421418 0.382113 0.109035
O O2 0.696492 0.200013 0.109364
O O3 0.630799 0.367355 0.948711
O O4 0.375287 0.182586 0.976418
O O5 0.500000 0.570572 0.250000
O O6 0.850150 0.527995 0.308104
O O7 0.893520 0.287365 0.657807
O O8 0.970298 0.184083 0.466133
O O9 0.884723 0.024311 0.621289
O O10 0.000000 0.825021 0.750000
#
# Coordination Sequence:
#
# PCOD9238100 Si02
#       5
#     4   4   4   2   4
#     4  11  25  45  66 104 139 183 234 287 343 424
#     4  11  25  43  69 100 139 184 235 282 350 409
#     4  11  24  44  72 104 138 184 233 291 356 415
#     4  12  22  46  72 104 140 188 234 292 346 430
#     4  11  25  44  70 105 143 180 233 291 355 415
#
# _framework density 20.969474000000002
#
# number of rings (size 3 to 8) (size 9 to 14) (size 15 to 20)
#    0.000    0.889    5.556    0.667    3.111    2.667 
#    0.000    0.000    0.000    0.000    0.000    0.000 
#    0.000    0.000    0.000    0.000    0.000    0.000 
#
# Total GULP energy -100777.972926 kJ/mol
# GULP energy per Si atom -5598.776274 kJ/mol
# Density = 2.092175 g / cm^3
# Si number density = 20.969474 Si / 1000 Ang^3
#
#
#
# Elastic Constant Matrix: (Units=GPa)
#
#
# Indices 1 2 3 4 5 6 
#
# 1 144.5727 27.1819 55.9651 0.0000 -0.6242 0.0000
# 2 27.1819 38.5001 39.6999 0.0000 -10.3990 0.0000
# 3 55.9651 39.6999 116.8175 0.0000 8.4182 0.0000
# 4 0.0000 0.0000 0.0000 -9.9700 0.0000 9.9290
# 5 -0.6242 -10.3990 8.4182 0.0000 51.2696 0.0000
# 6 0.0000 0.0000 0.0000 9.9290 0.0000 25.0867
#
#
#
# Elastic Compliance Matrix: (Units=1/GPa)
#
#
# Indices 1 2 3 4 5 6 
#
# 1 0.008689 -0.002801 -0.003215 0.000000 0.000066 0.000000
# 2 -0.002801 0.047333 -0.015618 0.000000 0.012131 0.000000
# 3 -0.003215 -0.015618 0.015827 0.000000 -0.005806 0.000000
# 4 0.000000 0.000000 0.000000 -0.071944 0.000000 0.028474
# 5 0.000066 0.012131 -0.005806 0.000000 0.022919 0.000000
# 6 0.000000 0.000000 0.000000 0.028474 0.000000 0.028592
#
#
# Mechanical properties :
#
#
# Convention : Reuss Voigt Hill
#
# Bulk Modulus (GPa) = 34.99031 60.62045 47.80538
# Shear Modulus (GPa) = 47.97949 25.08017 36.52983
#
# Velocity S-wave (km/s) = 4.78856 3.46212 4.17831
# Velocity P-wave (km/s) = 6.87723 6.70473 6.79153
#
# Compressibility (1/GPa) = 0.02857934
#
# Stress axis : x y z
#
# Youngs Moduli (GPa) = 115.09425 21.12694 63.18360
#
# Poissons Ratio (x) = 0.05918 0.20316
# Poissons Ratio (y) = 0.32238 0.98681
# Poissons Ratio (z) = 0.37006 0.32996
#
# Static dielectric constant tensor:
#      x y z
#    x 1.717840 0.000000 -0.003600 
#    y 0.000000 1.733070 0.000000 
#    z -0.003600 0.000000 1.748030 
# 
# From -- ./inp_files/25713.got.cif
#   From: 2010.05.17/outbox.cif.g08.bks.cpg/sg13_13_cif.got.tgz:25713.got - 2010.06.03 16:44:36.
