data_PCOD9238609
_publ_section_title
;
Structure prediction by ZEFSAII (Michael W. Deem and Ramdas Pophale) SiO2 
 PCOD9238609
Probable space group: P 2/C
;
_chemical_formula_sum "Si O2"
_cell_formula_units_Z 16
_cell_length_a 5.151549
_cell_length_b 30.368739
_cell_length_c 5.163347
_cell_angle_alpha 90.000000
_cell_angle_beta 124.638976
_cell_angle_gamma 90.000000
_cell_volume 664.605213
_symmetry_space_group_name_H-M "P 2/C"
_symmetry_group_IT_number 13
_symmetry_cell_setting 'monoclinic'
loop_
_space_group_symop_operation_xyz
x,y,z
-x,y,1/2-z
-x,-y,-z
x,-y,1/2+z
loop_
_atom_site_type_symbol
_atom_site_label
_atom_site_fract_x
_atom_site_fract_y
_atom_site_fract_z
Si Si1 0.000000 0.782287 0.750000
Si Si2 0.000000 0.530598 0.750000
Si Si3 0.500000 0.900175 0.750000
Si Si4 0.500000 0.839447 0.250000
Si Si5 0.000000 0.031525 0.750000
Si Si6 0.500000 0.408789 0.750000
Si Si7 0.000000 0.652780 0.250000
Si Si8 0.500000 0.278580 0.250000
O O1 0.822047 0.810757 0.426930
O O2 0.709584 0.753091 0.688420
O O3 0.685114 0.560430 0.557904
O O4 0.000000 0.500000 0.500000
O O5 0.569312 0.868046 0.547036
O O6 0.273589 0.934467 0.474831
O O7 0.000000 0.000000 0.500000
O O8 0.220867 0.378685 0.704031
O O9 0.242332 0.686997 0.507672
#
# Coordination Sequence:
#
# PCOD9238609 Si02
#       8
#     2   2   2   2   2   2   2   2
#     4  12  26  46  74 108 147 196 247 308 374 446
#     4  12  27  49  76 112 152 200 252 312 376 449
#     4  12  25  45  70 104 144 192 244 304 368 441
#     4  12  26  46  72 106 147 194 247 306 370 444
#     4  12  24  43  69 102 142 190 242 302 367 439
#     4  12  26  47  75 110 150 198 250 310 375 447
#     4  12  25  46  73 108 147 194 247 308 373 446
#     4  12  25  46  73 108 147 194 247 308 373 446
#
# _framework density 24.074441
#
# number of rings (size 3 to 8) (size 9 to 14) (size 15 to 20)
#    0.000    0.000    0.000   10.500    0.000    4.000 
#    0.000    0.000    0.000    0.000    0.000    0.000 
#    0.000    0.000    0.000    0.000    0.000    0.000 
#
# Total GULP energy -89406.198419 kJ/mol
# GULP energy per Si atom -5587.887401 kJ/mol
# Density = 2.401965 g / cm^3
# Si number density = 24.074441 Si / 1000 Ang^3
#
#
#
# Elastic Constant Matrix: (Units=GPa)
#
#
# Indices 1 2 3 4 5 6 
#
# 1 159.1936 87.6776 66.3532 0.0000 -2.1459 0.0000
# 2 87.6776 154.8398 83.2782 0.0000 -2.1913 0.0000
# 3 66.3532 83.2782 197.8701 0.0000 17.2577 0.0000
# 4 0.0000 0.0000 0.0000 50.2825 0.0000 14.8546
# 5 -2.1459 -2.1913 17.2577 0.0000 55.3517 0.0000
# 6 0.0000 0.0000 0.0000 14.8546 0.0000 48.0249
#
#
#
# Elastic Compliance Matrix: (Units=1/GPa)
#
#
# Indices 1 2 3 4 5 6 
#
# 1 0.009351 -0.004619 -0.001241 0.000000 0.000567 0.000000
# 2 -0.004619 0.010747 -0.003079 0.000000 0.001207 0.000000
# 3 -0.001241 -0.003079 0.006970 0.000000 -0.002343 0.000000
# 4 0.000000 0.000000 0.000000 0.021888 0.000000 -0.006770
# 5 0.000567 0.001207 -0.002343 0.000000 0.018867 0.000000
# 6 0.000000 0.000000 0.000000 -0.006770 0.000000 0.022917
#
#
# Mechanical properties :
#
#
# Convention : Reuss Voigt Hill
#
# Bulk Modulus (GPa) = 108.82616 109.61349 109.21983
# Shear Modulus (GPa) = 44.77017 49.03813 46.90415
#
# Velocity S-wave (km/s) = 4.31705 4.51814 4.41874
# Velocity P-wave (km/s) = 8.37564 8.53511 8.45575
#
# Compressibility (1/GPa) = 0.00918897
#
# Stress axis : x y z
#
# Youngs Moduli (GPa) = 106.94408 93.04652 143.46486
#
# Poissons Ratio (x) = 0.42982 0.17802
# Poissons Ratio (y) = 0.49402 0.44179
# Poissons Ratio (z) = 0.13270 0.28653
#
# Static dielectric constant tensor:
#      x y z
#    x 1.957810 0.000000 -0.036190 
#    y 0.000000 2.042620 0.000000 
#    z -0.036190 0.000000 1.870110 
# 
# From -- ./inp_files/490.got.cif
#   From: 2010.05.17/outbox.cif.g08.bks.cpg/sg13_1_cif.got.tgz:490.got - 2010.06.03 16:44:36.
