data_PCOD9238923
_publ_section_title
;
Structure prediction by ZEFSAII (Michael W. Deem and Ramdas Pophale) SiO2 
 PCOD9238923
Probable space group: P 2/C
;
_chemical_formula_sum "Si O2"
_cell_formula_units_Z 26
_cell_length_a 15.000000
_cell_length_b 9.000000
_cell_length_c 15.000000
_cell_angle_alpha 90.000000
_cell_angle_beta 140.000000
_cell_angle_gamma 90.000000
_cell_volume 1301.644910
_symmetry_space_group_name_H-M "P 2/C"
_symmetry_group_IT_number 13
_symmetry_cell_setting 'monoclinic'
loop_
_space_group_symop_operation_xyz
x,y,z
-x,y,1/2-z
-x,-y,-z
x,-y,1/2+z
loop_
_atom_site_type_symbol
_atom_site_label
_atom_site_fract_x
_atom_site_fract_y
_atom_site_fract_z
Si Si1 0.590328 0.372228 0.677067
Si Si2 0.218960 0.113352 0.349400
Si Si3 0.401498 0.834828 0.487042
Si Si4 0.205770 0.324187 0.982195
Si Si5 0.712566 0.645020 0.465196
Si Si6 0.687271 0.299959 0.235948
Si Si7 0.000000 0.892043 0.250000
O O1 0.610509 0.248405 0.617173
O O2 0.431780 0.379892 0.590980
O O3 0.676345 0.339478 0.833164
O O4 0.634986 0.533374 0.673309
O O5 0.223406 0.209562 0.442586
O O6 0.215568 0.227941 0.264787
O O7 0.352658 0.004842 0.446672
O O8 0.095825 0.997658 0.264509
O O9 0.309429 0.748010 0.489538
O O10 0.556636 0.809332 0.638097
O O11 0.194939 0.498206 0.952391
O O12 0.257342 0.312356 0.122325
O O13 0.073971 0.220922 0.873091
#
# Coordination Sequence:
#
# PCOD9238923 Si02
#       7
#     4   4   4   4   4   4   2
#     4  10  20  35  62  96 133 147 198 238 314 374
#     4  11  24  39  62  89 128 159 204 243 314 354
#     4  11  20  35  58  97 130 156 184 247 312 373
#     4  10  22  40  63  81 121 163 213 245 293 347
#     4  10  20  38  61  94 120 165 193 253 295 368
#     4  11  20  36  62  95 118 161 197 250 302 368
#     4  10  26  46  54  84 118 172 208 258 288 356
#
# _framework density 19.974726
#
# number of rings (size 3 to 8) (size 9 to 14) (size 15 to 20)
#    0.000    1.538    3.077    2.308    0.000    3.692 
#    5.538    1.538    0.000   10.154    0.000    0.000 
#    0.000    0.000    0.000    0.000    0.000    0.000 
#
# Total GULP energy -145105.769871 kJ/mol
# GULP energy per Si atom -5580.991149 kJ/mol
# Density = 1.992926 g / cm^3
# Si number density = 19.974726 Si / 1000 Ang^3
#
#
#
# Elastic Constant Matrix: (Units=GPa)
#
#
# Indices 1 2 3 4 5 6 
#
# 1 6.9293 8.3251 40.5230 0.0000 -5.9103 0.0000
# 2 8.3251 87.0688 56.3532 0.0000 9.7518 0.0000
# 3 40.5230 56.3532 60.5436 0.0000 -10.6907 0.0000
# 4 0.0000 0.0000 0.0000 22.8005 0.0000 10.6145
# 5 -5.9103 9.7518 -10.6907 0.0000 21.2296 0.0000
# 6 0.0000 0.0000 0.0000 10.6145 0.0000 23.9688
#
#
#
# Elastic Compliance Matrix: (Units=1/GPa)
#
#
# Indices 1 2 3 4 5 6 
#
# 1 -0.011778 -0.024827 0.035591 0.000000 0.026048 0.000000
# 2 -0.024827 0.016415 -0.001333 0.000000 -0.015123 0.000000
# 3 0.035591 -0.001333 -0.004617 0.000000 0.008196 0.000000
# 4 0.000000 0.000000 0.000000 0.055249 0.000000 -0.024467
# 5 0.026048 -0.015123 0.008196 0.000000 0.065430 0.000000
# 6 0.000000 0.000000 0.000000 -0.024467 0.000000 0.052556
#
#
# Mechanical properties :
#
#
# Convention : Reuss Voigt Hill
#
# Bulk Modulus (GPa) = 52.95587 40.54937 46.75262
# Shear Modulus (GPa) = 31.11629 16.88914 24.00271
#
# Velocity S-wave (km/s) = 3.95116 2.91095 3.47025
# Velocity P-wave (km/s) = 6.88364 5.62517 6.28598
#
# Compressibility (1/GPa) = 0.01888365
#
# Stress axis : x y z
#
# Youngs Moduli (GPa) = -84.90611 60.91815 -216.60388
#
# Poissons Ratio (x) = 1.51239 7.70909
# Poissons Ratio (y) = -2.10793 -0.28871
# Poissons Ratio (z) = 3.02187 0.08120
#
# Static dielectric constant tensor:
#      x y z
#    x 1.724960 0.000000 0.037550 
#    y 0.000000 1.695030 0.000000 
#    z 0.037550 0.000000 1.784130 
# 
# From -- ./inp_files/53387.got.cif
#   From: 2010.05.17/outbox.ucp.g08.bks.cvg/sg13_27_cif.got.tgz:53387.got - 2010.06.11 12:23:55.
