data_PCOD9238343
_publ_section_title
;
Structure prediction by ZEFSAII (Michael W. Deem and Ramdas Pophale) SiO2 
 PCOD9238343
Probable space group: P 2/C
;
_chemical_formula_sum "Si O2"
_cell_formula_units_Z 18
_cell_length_a 7.866011
_cell_length_b 10.928818
_cell_length_c 9.283490
_cell_angle_alpha 90.000000
_cell_angle_beta 61.085824
_cell_angle_gamma 90.000000
_cell_volume 698.583359
_symmetry_space_group_name_H-M "P 2/C"
_symmetry_group_IT_number 13
_symmetry_cell_setting 'monoclinic'
loop_
_space_group_symop_operation_xyz
x,y,z
-x,y,1/2-z
-x,-y,-z
x,-y,1/2+z
loop_
_atom_site_type_symbol
_atom_site_label
_atom_site_fract_x
_atom_site_fract_y
_atom_site_fract_z
Si Si1 0.285579 0.976120 0.323575
Si Si2 0.816234 0.839080 0.416629
Si Si3 0.201813 0.665743 0.845644
Si Si4 0.757939 0.724394 0.983803
Si Si5 0.500000 0.543109 0.250000
O O1 0.500000 0.030405 0.250000
O O2 0.269060 0.932731 0.165307
O O3 0.272381 0.849707 0.418129
O O4 0.149782 0.076038 0.456798
O O5 0.725553 0.722784 0.532922
O O6 0.000000 0.792992 0.250000
O O7 0.241883 0.745681 0.686647
O O8 0.319460 0.541116 0.776346
O O9 0.965997 0.663980 0.943402
O O10 0.586362 0.632579 0.094454
#
# Coordination Sequence:
#
# PCOD9238343 Si02
#       5
#     4   4   4   4   2
#     4  12  26  44  75 105 151 185 241 292 365 427
#     4  12  26  47  73 109 146 191 238 295 359 436
#     4  11  27  46  75 107 147 190 245 295 367 423
#     4  11  25  49  72 108 147 192 239 303 359 433
#     4  12  26  48  78 104 142 194 248 304 354 430
#
# _framework density 25.766431000000001
#
# number of rings (size 3 to 8) (size 9 to 14) (size 15 to 20)
#    0.000    0.444    3.333    4.000    7.778    1.778 
#    4.000    0.000    0.000    0.000    0.000    0.000 
#    0.000    0.000    0.000    0.000    0.000    0.000 
#
# Total GULP energy -100638.459241 kJ/mol
# GULP energy per Si atom -5591.025513 kJ/mol
# Density = 2.570779 g / cm^3
# Si number density = 25.766431 Si / 1000 Ang^3
#
#
#
# Elastic Constant Matrix: (Units=GPa)
#
#
# Indices 1 2 3 4 5 6 
#
# 1 66.0445 20.0059 53.9941 0.0000 1.6221 0.0000
# 2 20.0059 102.6221 64.4350 0.0000 -10.5125 0.0000
# 3 53.9941 64.4350 185.7991 0.0000 11.3273 0.0000
# 4 0.0000 0.0000 0.0000 32.6966 0.0000 8.1201
# 5 1.6221 -10.5125 11.3273 0.0000 40.0205 0.0000
# 6 0.0000 0.0000 0.0000 8.1201 0.0000 7.3652
#
#
#
# Elastic Compliance Matrix: (Units=1/GPa)
#
#
# Indices 1 2 3 4 5 6 
#
# 1 0.019890 -0.000177 -0.005766 0.000000 0.000779 0.000000
# 2 -0.000177 0.013340 -0.004873 0.000000 0.004890 0.000000
# 3 -0.005766 -0.004873 0.008966 0.000000 -0.003584 0.000000
# 4 0.000000 0.000000 0.000000 0.042115 0.000000 -0.046432
# 5 0.000779 0.004890 -0.003584 0.000000 0.027255 0.000000
# 6 0.000000 0.000000 0.000000 -0.046432 0.000000 0.186966
#
#
# Mechanical properties :
#
#
# Convention : Reuss Voigt Hill
#
# Bulk Modulus (GPa) = 48.63001 70.14838 59.38920
# Shear Modulus (GPa) = 15.28967 30.41851 22.85409
#
# Velocity S-wave (km/s) = 2.43861 3.43964 2.98144
# Velocity P-wave (km/s) = 5.18107 6.56191 5.91194
#
# Compressibility (1/GPa) = 0.02056343
#
# Stress axis : x y z
#
# Youngs Moduli (GPa) = 50.27673 74.96501 111.52962
#
# Poissons Ratio (x) = 0.01328 0.64310
# Poissons Ratio (y) = 0.00891 0.54346
# Poissons Ratio (z) = 0.28990 0.36529
#
# Static dielectric constant tensor:
#      x y z
#    x 2.129100 0.000000 -0.010870 
#    y 0.000000 1.979020 0.000000 
#    z -0.010870 0.000000 1.983900 
# 
# From -- ./inp_files/11581.got.cif
#   From: 2010.05.17/outbox.cif.g08.bks.cpg/sg13_6_cif.got.tgz:11581.got - 2010.06.03 16:44:36.
