data_PCOD9238171
_publ_section_title
;
Structure prediction by ZEFSAII (Michael W. Deem and Ramdas Pophale) SiO2 
 PCOD9238171
Probable space group: P 2/C
;
_chemical_formula_sum "Si O2"
_cell_formula_units_Z 22
_cell_length_a 19.607107
_cell_length_b 8.565513
_cell_length_c 8.693923
_cell_angle_alpha 90.000000
_cell_angle_beta 141.171866
_cell_angle_gamma 90.000000
_cell_volume 915.463045
_symmetry_space_group_name_H-M "P 2/C"
_symmetry_group_IT_number 13
_symmetry_cell_setting 'monoclinic'
loop_
_space_group_symop_operation_xyz
x,y,z
-x,y,1/2-z
-x,-y,-z
x,-y,1/2+z
loop_
_atom_site_type_symbol
_atom_site_label
_atom_site_fract_x
_atom_site_fract_y
_atom_site_fract_z
Si Si1 0.546203 0.651053 0.501901
Si Si2 0.786234 0.334535 0.331242
Si Si3 0.000000 0.149173 0.250000
Si Si4 0.397648 0.082189 0.171285
Si Si5 0.766425 0.980908 0.351361
Si Si6 0.895794 0.602786 0.336405
O O1 0.500000 0.500000 0.500000
O O2 0.671617 0.619604 0.697297
O O3 0.542074 0.789931 0.618128
O O4 0.500000 0.679420 0.250000
O O5 0.774786 0.149236 0.276841
O O6 0.814141 0.471857 0.261281
O O7 0.865614 0.338173 0.615752
O O8 0.062318 0.257719 0.482490
O O9 0.108698 0.058145 0.381165
O O10 0.500000 0.014951 0.250000
O O11 0.320214 0.996911 0.161480
O O12 0.301238 0.133014 0.883006
O O13 0.000000 0.500000 0.500000
#
# Coordination Sequence:
#
# PCOD9238171 Si02
#       6
#     4   4   2   4   4   4
#     4  11  24  46  77 113 150 200 251 319 380 462
#     4  11  26  47  70 107 148 194 254 307 387 452
#     4  12  26  44  78 112 152 196 258 308 406 466
#     4  11  26  50  75 108 154 199 265 317 393 457
#     4  11  28  47  77 112 154 204 252 332 388 477
#     4  12  25  47  71 106 144 197 245 315 376 464
#
# _framework density 24.031554
#
# number of rings (size 3 to 8) (size 9 to 14) (size 15 to 20)
#    0.000    0.727    1.818    4.364    5.091   10.182 
#    0.000    0.000    0.000    0.000    0.000    0.000 
#    0.000    0.000    0.000    0.000    0.000    0.000 
#
# Total GULP energy -122638.703118 kJ/mol
# GULP energy per Si atom -5574.486505 kJ/mol
# Density = 2.397686 g / cm^3
# Si number density = 24.031554 Si / 1000 Ang^3
#
#
#
# Elastic Constant Matrix: (Units=GPa)
#
#
# Indices 1 2 3 4 5 6 
#
# 1 95.4349 48.7049 15.2919 0.0000 16.5521 0.0000
# 2 48.7049 107.9472 29.5463 0.0000 -7.0379 0.0000
# 3 15.2919 29.5463 128.1241 0.0000 -5.8574 0.0000
# 4 0.0000 0.0000 0.0000 28.9901 0.0000 -4.0477
# 5 16.5521 -7.0379 -5.8574 0.0000 58.5808 0.0000
# 6 0.0000 0.0000 0.0000 -4.0477 0.0000 28.6980
#
#
#
# Elastic Compliance Matrix: (Units=1/GPa)
#
#
# Indices 1 2 3 4 5 6 
#
# 1 0.014999 -0.006988 -0.000413 0.000000 -0.005119 0.000000
# 2 -0.006988 0.013198 -0.002056 0.000000 0.003354 0.000000
# 3 -0.000413 -0.002056 0.008361 0.000000 0.000706 0.000000
# 4 0.000000 0.000000 0.000000 0.035188 0.000000 0.004963
# 5 -0.005119 0.003354 0.000706 0.000000 0.018990 0.000000
# 6 0.000000 0.000000 0.000000 0.004963 0.000000 0.035546
#
#
# Mechanical properties :
#
#
# Convention : Reuss Voigt Hill
#
# Bulk Modulus (GPa) = 56.67748 57.62135 57.14942
# Shear Modulus (GPa) = 33.09600 39.11801 36.10701
#
# Velocity S-wave (km/s) = 3.71508 4.03895 3.88039
# Velocity P-wave (km/s) = 6.48369 6.76611 6.62640
#
# Compressibility (1/GPa) = 0.01764369
#
# Stress axis : x y z
#
# Youngs Moduli (GPa) = 66.67323 75.76784 119.60846
#
# Poissons Ratio (x) = 0.52946 0.04935
# Poissons Ratio (y) = 0.46591 0.24594
# Poissons Ratio (z) = 0.02751 0.15579
#
# Static dielectric constant tensor:
#      x y z
#    x 1.907270 0.000000 0.022530 
#    y 0.000000 1.982150 0.000000 
#    z 0.022530 0.000000 1.874520 
# 
# From -- ./inp_files/22901.got.cif
#   From: 2010.05.17/outbox.cif.g08.bks.cpg/sg13_12_cif.got.tgz:22901.got - 2010.06.03 16:44:36.
