data_PCOD9239292
_publ_section_title
;
Structure prediction by ZEFSAII (Michael W. Deem and Ramdas Pophale) SiO2 
 PCOD9239292
Probable space group: P 21/C
;
_chemical_formula_sum "Si O2"
_cell_formula_units_Z 32
_cell_length_a 12.954143
_cell_length_b 5.381325
_cell_length_c 22.991798
_cell_angle_alpha 90.000000
_cell_angle_beta 78.601124
_cell_angle_gamma 90.000000
_cell_volume 1571.154139
_symmetry_space_group_name_H-M "P 21/C"
_symmetry_group_IT_number 14
_symmetry_cell_setting 'monoclinic'
loop_
_space_group_symop_operation_xyz
x,y,z
-x,1/2+y,1/2-z
-x,-y,-z
x,1/2-y,1/2+z
loop_
_atom_site_type_symbol
_atom_site_label
_atom_site_fract_x
_atom_site_fract_y
_atom_site_fract_z
Si Si1 0.550895 0.297367 0.560649
Si Si2 0.567013 0.216000 0.786067
Si Si3 0.116323 0.245586 0.032109
Si Si4 0.368530 0.215601 0.724489
Si Si5 0.198040 0.287216 0.336051
Si Si6 0.307449 0.786857 0.348355
Si Si7 0.997735 0.246206 0.421574
Si Si8 0.633949 0.796773 0.493783
O O1 0.597721 0.243922 0.618214
O O2 0.585072 0.579438 0.540656
O O3 0.429360 0.256884 0.558483
O O4 0.607921 0.078837 0.516215
O O5 0.449335 0.215069 0.772517
O O6 0.598624 0.468842 0.812911
O O7 0.642892 0.215404 0.721186
O O8 0.599890 0.963619 0.812473
O O9 0.066235 0.489933 0.067482
O O10 0.074520 0.989613 0.064692
O O11 0.241699 0.260032 0.021217
O O12 0.073913 0.248321 0.970198
O O13 0.252887 0.213832 0.765944
O O14 0.232104 0.548376 0.360922
O O15 0.073716 0.260521 0.357259
O O16 0.248212 0.047042 0.362270
#
# Coordination Sequence:
#
# PCOD9239292 Si02
#       8
#     4   4   4   4   4   4   4   4
#     4  10  19  30  45  62  78 103 136 163 197 241
#     4   8  14  23  36  55  78 105 128 150 188 232
#     4  10  19  30  41  55  78 102 129 166 198 227
#     4   8  14  24  36  53  79 106 128 151 187 231
#     4  10  18  27  41  60  83 108 133 163 192 228
#     4  10  17  26  42  61  83 106 131 163 193 231
#     4  10  19  28  41  58  75 102 135 161 192 232
#     4  10  20  32  44  58  80 106 132 167 203 232
#
# _framework density 20.367193
#
# number of rings (size 3 to 8) (size 9 to 14) (size 15 to 20)
#    0.000    2.500    0.000    3.750    0.000    2.000 
#    0.000    0.000    0.000    0.000    0.000    0.000 
#    0.000    2.000    0.000    0.000    0.000    8.500 
#
# Total GULP energy -178489.138451 kJ/mol
# GULP energy per Si atom -5577.785577 kJ/mol
# Density = 2.032084 g / cm^3
# Si number density = 20.367193 Si / 1000 Ang^3
#
#
#
# Elastic Constant Matrix: (Units=GPa)
#
#
# Indices 1 2 3 4 5 6 
#
# 1 90.8691 16.1127 4.5048 0.0000 -19.5311 0.0000
# 2 16.1127 154.5607 9.7377 0.0000 -9.8351 0.0000
# 3 4.5048 9.7377 21.1319 0.0000 -8.3112 0.0000
# 4 0.0000 0.0000 0.0000 11.9410 0.0000 -8.6492
# 5 -19.5311 -9.8351 -8.3112 0.0000 28.3556 0.0000
# 6 0.0000 0.0000 0.0000 -8.6492 0.0000 24.2671
#
#
#
# Elastic Compliance Matrix: (Units=1/GPa)
#
#
# Indices 1 2 3 4 5 6 
#
# 1 0.013039 -0.000858 0.001166 0.000000 0.009025 0.000000
# 2 -0.000858 0.006784 -0.002544 0.000000 0.001016 0.000000
# 3 0.001166 -0.002544 0.054497 0.000000 0.015894 0.000000
# 4 0.000000 0.000000 0.000000 0.112889 0.000000 0.040235
# 5 0.009025 0.001016 0.015894 0.000000 0.046494 0.000000
# 6 0.000000 0.000000 0.000000 0.040235 0.000000 0.055549
#
#
# Mechanical properties :
#
#
# Convention : Reuss Voigt Hill
#
# Bulk Modulus (GPa) = 14.31700 36.36357 25.34029
# Shear Modulus (GPa) = 15.77254 28.65984 22.21619
#
# Velocity S-wave (km/s) = 2.78584 3.75528 3.30628
# Velocity P-wave (km/s) = 4.17044 6.05769 5.20039
#
# Compressibility (1/GPa) = 0.06984702
#
# Stress axis : x y z
#
# Youngs Moduli (GPa) = 76.69245 147.39780 18.34979
#
# Poissons Ratio (x) = 0.12653 -0.02139
# Poissons Ratio (y) = 0.06584 0.04667
# Poissons Ratio (z) = -0.08939 0.37491
#
# Static dielectric constant tensor:
#      x y z
#    x 1.689080 0.000000 -0.027440 
#    y 0.000000 1.874100 0.000000 
#    z -0.027440 0.000000 1.757090 
# 
# From -- ./inp_files/67840.got.cif
#   From: 2010.05.17/outbox.cif.g08.bks.cpg/sg14_34_cif.got.tgz:67840.got - 2010.06.03 17:49:19.
