data_PCOD9239466
_publ_section_title
;
Structure prediction by ZEFSAII (Michael W. Deem and Ramdas Pophale) SiO2 
 PCOD9239466
Probable space group: P 21/C
;
_chemical_formula_sum "Si O2"
_cell_formula_units_Z 28
_cell_length_a 14.103823
_cell_length_b 11.976847
_cell_length_c 9.630424
_cell_angle_alpha 90.000000
_cell_angle_beta 123.029254
_cell_angle_gamma 90.000000
_cell_volume 1363.867185
_symmetry_space_group_name_H-M "P 21/C"
_symmetry_group_IT_number 14
_symmetry_cell_setting 'monoclinic'
loop_
_space_group_symop_operation_xyz
x,y,z
-x,1/2+y,1/2-z
-x,-y,-z
x,1/2-y,1/2+z
loop_
_atom_site_type_symbol
_atom_site_label
_atom_site_fract_x
_atom_site_fract_y
_atom_site_fract_z
Si Si1 0.463263 0.223658 0.415149
Si Si2 0.354591 0.593328 0.495294
Si Si3 0.661672 0.836764 0.960356
Si Si4 0.669768 0.103916 0.699699
Si Si5 0.844619 0.213924 0.278894
Si Si6 0.038255 0.652839 0.398013
Si Si7 0.831372 0.574129 0.400249
O O1 0.542252 0.334146 0.477530
O O2 0.357935 0.253221 0.429205
O O3 0.423275 0.200104 0.228751
O O4 0.546890 0.128562 0.540768
O O5 0.370938 0.462063 0.520411
O O6 0.331601 0.634916 0.636334
O O7 0.246267 0.615594 0.311052
O O8 0.784644 0.849230 0.987214
O O9 0.761064 0.179265 0.689582
O O10 0.719919 0.979789 0.740228
O O11 0.904131 0.247635 0.468087
O O12 0.939924 0.187535 0.241855
O O13 0.102787 0.534833 0.483958
O O14 0.913649 0.633022 0.357909
#
# Coordination Sequence:
#
# PCOD9239466 Si02
#       7
#     4   4   4   4   4   4   4
#     4  11  22  36  59  89 116 159 199 240 295 342
#     4  10  19  37  57  88 113 157 194 242 292 352
#     4  11  22  38  59  82 125 153 198 244 289 353
#     4   9  18  35  58  85 112 151 203 237 278 361
#     4  10  17  33  60  89 107 147 200 238 291 346
#     4  10  19  35  62  84 113 151 199 245 292 346
#     4   9  20  37  56  83 113 161 190 238 298 345
#
# _framework density 20.529858000000001
#
# number of rings (size 3 to 8) (size 9 to 14) (size 15 to 20)
#    0.000    2.000    5.714    0.429    0.000    3.429 
#    0.000    0.000    3.143    7.714    0.000    0.000 
#    0.000    0.000    0.000    0.000    0.000    0.000 
#
# Total GULP energy -156075.158867 kJ/mol
# GULP energy per Si atom -5574.112817 kJ/mol
# Density = 2.048313 g / cm^3
# Si number density = 20.529858 Si / 1000 Ang^3
#
#
#
# Elastic Constant Matrix: (Units=GPa)
#
#
# Indices 1 2 3 4 5 6 
#
# 1 116.0700 32.0131 -4.2691 0.0000 -4.8678 0.0000
# 2 32.0131 61.0653 12.1398 0.0000 -4.0051 0.0000
# 3 -4.2691 12.1398 27.2953 0.0000 1.4014 0.0000
# 4 0.0000 0.0000 0.0000 16.1033 0.0000 -8.7591
# 5 -4.8678 -4.0051 1.4014 0.0000 14.5855 0.0000
# 6 0.0000 0.0000 0.0000 -8.7591 0.0000 37.5249
#
#
#
# Elastic Compliance Matrix: (Units=1/GPa)
#
#
# Indices 1 2 3 4 5 6 
#
# 1 0.010581 -0.006332 0.004401 0.000000 0.001370 0.000000
# 2 -0.006332 0.022243 -0.011143 0.000000 0.005065 0.000000
# 3 0.004401 -0.011143 0.042572 0.000000 -0.005681 0.000000
# 4 0.000000 0.000000 0.000000 0.071130 0.000000 0.016603
# 5 0.001370 0.005065 -0.005681 0.000000 0.070955 0.000000
# 6 0.000000 0.000000 0.000000 0.016603 0.000000 0.030524
#
#
# Mechanical properties :
#
#
# Convention : Reuss Voigt Hill
#
# Bulk Modulus (GPa) = 20.30551 31.57757 25.94154
# Shear Modulus (GPa) = 17.20747 24.61253 20.91000
#
# Velocity S-wave (km/s) = 2.89825 3.46622 3.19488
# Velocity P-wave (km/s) = 4.59478 5.60663 5.12573
#
# Compressibility (1/GPa) = 0.04924771
#
# Stress axis : x y z
#
# Youngs Moduli (GPa) = 94.50640 44.95784 23.48941
#
# Poissons Ratio (x) = 0.28468 -0.10338
# Poissons Ratio (y) = 0.59844 0.26175
# Poissons Ratio (z) = -0.41592 0.50098
#
# Static dielectric constant tensor:
#      x y z
#    x 1.791780 0.000000 0.022250 
#    y 0.000000 1.740190 0.000000 
#    z 0.022250 0.000000 1.717080 
# 
# From -- ./inp_files/15865.got.cif
#   From: 2010.05.17/outbox.cif.g08.bks.cpg/sg14_8_cif.got.tgz:15865.got - 2010.06.03 17:49:19.
