data_PCOD9239265
_publ_section_title
;
Structure prediction by ZEFSAII (Michael W. Deem and Ramdas Pophale) SiO2 
 PCOD9239265
Probable space group: P 21/C
;
_chemical_formula_sum "Si O2"
_cell_formula_units_Z 26
_cell_length_a 14.342566
_cell_length_b 11.589460
_cell_length_c 11.696929
_cell_angle_alpha 90.000000
_cell_angle_beta 150.916920
_cell_angle_gamma 90.000000
_cell_volume 945.077175
_symmetry_space_group_name_H-M "P 21/C"
_symmetry_group_IT_number 14
_symmetry_cell_setting 'monoclinic'
loop_
_space_group_symop_operation_xyz
x,y,z
-x,1/2+y,1/2-z
-x,-y,-z
x,1/2-y,1/2+z
loop_
_atom_site_type_symbol
_atom_site_label
_atom_site_fract_x
_atom_site_fract_y
_atom_site_fract_z
Si Si1 0.268915 0.304956 0.616078
Si Si2 0.569986 0.147275 0.839008
Si Si3 0.967993 0.739026 0.951213
Si Si4 0.231774 0.039021 0.366310
Si Si5 0.734115 0.130260 0.397036
Si Si6 0.692081 0.561684 0.578428
Si Si7 0.500000 0.500000 0.000000
O O1 0.383229 0.189298 0.706271
O O2 0.063765 0.288755 0.456018
O O3 0.257080 0.372939 0.485274
O O4 0.407019 0.378098 0.846294
O O5 0.469654 0.070838 0.628443
O O6 0.670652 0.259001 0.901331
O O7 0.709690 0.070259 0.062847
O O8 0.884221 0.844909 0.782569
O O9 0.822340 0.629155 0.804502
O O10 0.141275 0.681443 0.070716
O O11 0.185688 0.967146 0.429976
O O12 0.267814 0.962380 0.292844
O O13 0.531713 0.080270 0.136231
#
# Coordination Sequence:
#
# PCOD9239265 Si02
#       7
#     4   4   4   4   4   4   2
#     4  10  20  37  60  93 119 159 207 250 299 367
#     4  10  18  39  63  81 120 162 198 245 306 361
#     4  11  23  37  63  88 124 160 201 258 305 358
#     4  10  19  37  63  84 121 159 199 252 302 349
#     4  10  21  38  57  92 116 160 205 244 306 368
#     4  10  21  42  62  83 124 164 200 251 308 358
#     4  10  16  34  62  92 112 156 206 252 290 358
#
# _framework density 27.510981999999998
#
# number of rings (size 3 to 8) (size 9 to 14) (size 15 to 20)
#    0.000    1.846    7.692    0.000    2.154    0.615 
#    0.000    8.462    0.000    0.000    0.000    0.000 
#    0.000    0.000    0.000    0.000    0.000    0.000 
#
# Total GULP energy -145132.226404 kJ/mol
# GULP energy per Si atom -5582.008708 kJ/mol
# Density = 2.744837 g / cm^3
# Si number density = 27.510982 Si / 1000 Ang^3
#
#
#
# Elastic Constant Matrix: (Units=GPa)
#
#
# Indices 1 2 3 4 5 6 
#
# 1 159.8040 37.5527 27.0304 0.0000 29.5598 0.0000
# 2 37.5527 133.7824 28.5443 0.0000 -0.7376 0.0000
# 3 27.0304 28.5443 52.5758 0.0000 1.9410 0.0000
# 4 0.0000 0.0000 0.0000 16.6885 0.0000 -10.1853
# 5 29.5598 -0.7376 1.9410 0.0000 40.6305 0.0000
# 6 0.0000 0.0000 0.0000 -10.1853 0.0000 16.8385
#
#
#
# Elastic Compliance Matrix: (Units=1/GPa)
#
#
# Indices 1 2 3 4 5 6 
#
# 1 0.008274 -0.001690 -0.003119 0.000000 -0.005901 0.000000
# 2 -0.001690 0.008805 -0.003970 0.000000 0.001579 0.000000
# 3 -0.003119 -0.003970 0.022738 0.000000 0.001111 0.000000
# 4 0.000000 0.000000 0.000000 0.094988 0.000000 0.057456
# 5 -0.005901 0.001579 0.001111 0.000000 0.028881 0.000000
# 6 0.000000 0.000000 0.000000 0.057456 0.000000 0.094142
#
#
# Mechanical properties :
#
#
# Convention : Reuss Voigt Hill
#
# Bulk Modulus (GPa) = 44.92308 59.15743 52.04026
# Shear Modulus (GPa) = 17.68014 31.70049 24.69032
#
# Velocity S-wave (km/s) = 2.53782 3.39822 2.99903
# Velocity P-wave (km/s) = 4.99519 6.07841 5.56323
#
# Compressibility (1/GPa) = 0.02226027
#
# Stress axis : x y z
#
# Youngs Moduli (GPa) = 120.86413 113.57390 43.97958
#
# Poissons Ratio (x) = 0.19189 0.13715
# Poissons Ratio (y) = 0.20421 0.17460
# Poissons Ratio (z) = 0.37692 0.45088
#
# Static dielectric constant tensor:
#      x y z
#    x -0.044710 0.000000 0.481490 
#    y 0.000000 1.560170 0.000000 
#    z 0.481490 0.000000 2.121810 
# 
# From -- ./inp_files/47240.got.cif
#   From: 2010.05.17/outbox.cif.g08.bks.cpg/sg14_24_cif.got.tgz:47240.got - 2010.06.03 17:49:19.
