data_PCOD9239420
_publ_section_title
;
Structure prediction by ZEFSAII (Michael W. Deem and Ramdas Pophale) SiO2 
 PCOD9239420
Probable space group: P 21/C
;
_chemical_formula_sum "Si O2"
_cell_formula_units_Z 32
_cell_length_a 18.552064
_cell_length_b 8.189658
_cell_length_c 14.682384
_cell_angle_alpha 90.000000
_cell_angle_beta 36.848657
_cell_angle_gamma 90.000000
_cell_volume 1337.799648
_symmetry_space_group_name_H-M "P 21/C"
_symmetry_group_IT_number 14
_symmetry_cell_setting 'monoclinic'
loop_
_space_group_symop_operation_xyz
x,y,z
-x,1/2+y,1/2-z
-x,-y,-z
x,1/2-y,1/2+z
loop_
_atom_site_type_symbol
_atom_site_label
_atom_site_fract_x
_atom_site_fract_y
_atom_site_fract_z
Si Si1 0.728155 0.110888 0.035037
Si Si2 0.770025 0.387827 0.193789
Si Si3 0.502912 0.082058 0.364518
Si Si4 0.621793 0.928949 0.980598
Si Si5 0.828219 0.875224 0.394150
Si Si6 0.054506 0.678873 0.124080
Si Si7 0.609877 0.553432 0.222664
Si Si8 0.691895 0.374816 0.915772
O O1 0.644361 0.076399 0.206935
O O2 0.859739 0.167835 0.933317
O O3 0.687231 0.262644 0.011012
O O4 0.699573 0.965467 0.992626
O O5 0.716441 0.540869 0.304390
O O6 0.684886 0.404209 0.190927
O O7 0.749462 0.236112 0.280654
O O8 0.903375 0.374654 0.019497
O O9 0.444815 0.255803 0.448315
O O10 0.457184 0.043224 0.306553
O O11 0.438589 0.936611 0.482820
O O12 0.508986 0.059310 0.092582
O O13 0.725114 0.837075 0.574953
O O14 0.919177 0.734277 0.274837
O O15 0.908678 0.023258 0.353230
O O16 0.764547 0.962855 0.372036
#
# Coordination Sequence:
#
# PCOD9239420 Si02
#       8
#     4   4   4   4   4   4   4   4
#     4   9  18  34  54  78 109 149 183 219 271 326
#     4  10  20  36  54  80 115 149 172 217 287 332
#     4  10  17  32  56  83 108 141 186 225 262 327
#     4  10  19  33  57  85 115 141 172 225 286 326
#     4   9  19  36  56  78 103 144 192 229 260 314
#     4  10  20  36  56  76 105 144 191 228 264 318
#     4   9  19  35  57  79 106 145 187 220 261 321
#     4   9  19  34  54  78 110 144 179 221 277 328
#
# _framework density 23.919874
#
# number of rings (size 3 to 8) (size 9 to 14) (size 15 to 20)
#    0.000    2.500    0.000    4.875    0.000    2.500 
#    0.000    6.250    0.000   36.000    0.000    0.000 
#    0.000    0.000    0.000    0.000    0.000    0.000 
#
# Total GULP energy -178191.067363 kJ/mol
# GULP energy per Si atom -5568.470855 kJ/mol
# Density = 2.386543 g / cm^3
# Si number density = 23.919874 Si / 1000 Ang^3
#
#
#
# Elastic Constant Matrix: (Units=GPa)
#
#
# Indices 1 2 3 4 5 6 
#
# 1 39.5493 21.5000 28.9751 0.0000 2.2574 0.0000
# 2 21.5000 60.0068 38.8203 0.0000 -7.3437 0.0000
# 3 28.9751 38.8203 163.4281 0.0000 -14.8874 0.0000
# 4 0.0000 0.0000 0.0000 19.3002 0.0000 -10.6634
# 5 2.2574 -7.3437 -14.8874 0.0000 37.3855 0.0000
# 6 0.0000 0.0000 0.0000 -10.6634 0.0000 40.5412
#
#
#
# Elastic Compliance Matrix: (Units=1/GPa)
#
#
# Indices 1 2 3 4 5 6 
#
# 1 0.034246 -0.010287 -0.004151 0.000000 -0.005742 0.000000
# 2 -0.010287 0.022938 -0.003277 0.000000 0.003822 0.000000
# 3 -0.004151 -0.003277 0.007883 0.000000 0.002746 0.000000
# 4 0.000000 0.000000 0.000000 0.060623 0.000000 0.015945
# 5 -0.005742 0.003822 0.002746 0.000000 0.028939 0.000000
# 6 0.000000 0.000000 0.000000 0.015945 0.000000 0.028860
#
#
# Mechanical properties :
#
#
# Convention : Reuss Voigt Hill
#
# Bulk Modulus (GPa) = 33.74082 49.06388 41.40235
# Shear Modulus (GPa) = 21.85314 31.02461 26.43888
#
# Velocity S-wave (km/s) = 3.02586 3.60533 3.32823
# Velocity P-wave (km/s) = 5.13265 6.15528 5.66708
#
# Compressibility (1/GPa) = 0.02963769
#
# Stress axis : x y z
#
# Youngs Moduli (GPa) = 29.20021 43.59543 126.84947
#
# Poissons Ratio (x) = 0.44848 0.52657
# Poissons Ratio (y) = 0.30039 0.41563
# Poissons Ratio (z) = 0.12121 0.14284
#
# Static dielectric constant tensor:
#      x y z
#    x 1.968030 0.000000 0.031090 
#    y 0.000000 2.011960 0.000000 
#    z 0.031090 0.000000 2.001360 
# 
# From -- ./inp_files/61696.got.cif
#   From: 2010.05.17/outbox.cif.g08.bks.cpg/sg14_31_cif.got.tgz:61696.got - 2010.06.03 17:49:19.
