data_PCOD9239184
_publ_section_title
;
Structure prediction by ZEFSAII (Michael W. Deem and Ramdas Pophale) SiO2 
 PCOD9239184
Probable space group: P 21/C
;
_chemical_formula_sum "Si O2"
_cell_formula_units_Z 32
_cell_length_a 11.277888
_cell_length_b 23.740471
_cell_length_c 5.504053
_cell_angle_alpha 90.000000
_cell_angle_beta 90.218277
_cell_angle_gamma 90.000000
_cell_volume 1473.657517
_symmetry_space_group_name_H-M "P 21/C"
_symmetry_group_IT_number 14
_symmetry_cell_setting 'monoclinic'
loop_
_space_group_symop_operation_xyz
x,y,z
-x,1/2+y,1/2-z
-x,-y,-z
x,1/2-y,1/2+z
loop_
_atom_site_type_symbol
_atom_site_label
_atom_site_fract_x
_atom_site_fract_y
_atom_site_fract_z
Si Si1 0.364772 0.780407 0.711614
Si Si2 0.102701 0.449998 0.760039
Si Si3 0.299643 0.312594 0.153995
Si Si4 0.919217 0.280623 0.761515
Si Si5 0.167649 0.920290 0.239553
Si Si6 0.139693 0.601092 0.240271
Si Si7 0.607788 0.818014 0.847210
Si Si8 0.103918 0.111976 0.760623
O O1 0.386547 0.765181 0.429539
O O2 0.224463 0.788391 0.735458
O O3 0.469205 0.822425 0.784069
O O4 0.149321 0.513281 0.741049
O O5 0.140591 0.416254 0.517271
O O6 0.956837 0.449756 0.756418
O O7 0.136887 0.424312 0.021688
O O8 0.325757 0.339170 0.891809
O O9 0.368904 0.339545 0.382432
O O10 0.341882 0.247397 0.136814
O O11 0.164427 0.327148 0.224251
O O12 0.951968 0.251188 0.509021
O O13 0.951586 0.345965 0.764438
O O14 0.217102 0.901276 0.497965
O O15 0.038535 0.889855 0.237029
O O16 0.217500 0.900799 0.983207
#
# Coordination Sequence:
#
# PCOD9239184 Si02
#       8
#     4   4   4   4   4   4   4   4
#     4  10  16  30  48  69  87 127 159 201 233 272
#     4  10  19  33  53  71  96 124 163 209 250 280
#     4  10  18  27  46  65  95 124 158 198 229 274
#     4  10  21  32  50  71 103 133 161 198 233 284
#     4  10  19  33  55  71  94 126 163 211 248 280
#     4  10  18  32  51  71  99 126 164 204 237 287
#     4  10  17  30  45  64  93 129 159 190 233 272
#     4  10  18  29  46  70  99 119 155 203 239 285
#
# _framework density 21.714680999999999
#
# number of rings (size 3 to 8) (size 9 to 14) (size 15 to 20)
#    0.000    2.000    2.500    5.250    0.000    0.000 
#    0.000    0.000   66.000    0.000    0.000    0.000 
#    0.000   34.000    0.000    0.000    0.000    0.000 
#
# Total GULP energy -178196.101731 kJ/mol
# GULP energy per Si atom -5568.628179 kJ/mol
# Density = 2.166526 g / cm^3
# Si number density = 21.714681 Si / 1000 Ang^3
#
#
#
# Elastic Constant Matrix: (Units=GPa)
#
#
# Indices 1 2 3 4 5 6 
#
# 1 16.6988 8.2743 3.7240 0.0000 3.2982 0.0000
# 2 8.2743 44.3097 36.3725 0.0000 -2.2157 0.0000
# 3 3.7240 36.3725 215.2545 0.0000 -2.3852 0.0000
# 4 0.0000 0.0000 0.0000 31.2775 0.0000 -2.6837
# 5 3.2982 -2.2157 -2.3852 0.0000 17.6741 0.0000
# 6 0.0000 0.0000 0.0000 -2.6837 0.0000 2.7949
#
#
#
# Elastic Compliance Matrix: (Units=1/GPa)
#
#
# Indices 1 2 3 4 5 6 
#
# 1 0.069821 -0.014686 0.001110 0.000000 -0.014721 0.000000
# 2 -0.014686 0.029420 -0.004653 0.000000 0.005801 0.000000
# 3 0.001110 -0.004653 0.005412 0.000000 -0.000060 0.000000
# 4 0.000000 0.000000 0.000000 0.034842 0.000000 0.033456
# 5 -0.014721 0.005801 -0.000060 0.000000 0.060046 0.000000
# 6 0.000000 0.000000 0.000000 0.033456 0.000000 0.389922
#
#
# Mechanical properties :
#
#
# Convention : Reuss Voigt Hill
#
# Bulk Modulus (GPa) = 14.66341 41.44494 28.05418
# Shear Modulus (GPa) = 7.70827 25.54210 16.62519
#
# Velocity S-wave (km/s) = 1.88613 3.43338 2.76998
# Velocity P-wave (km/s) = 3.39275 5.90297 4.81435
#
# Compressibility (1/GPa) = 0.06819695
#
# Stress axis : x y z
#
# Youngs Moduli (GPa) = 14.32225 33.99001 184.77419
#
# Poissons Ratio (x) = 0.49918 -0.20519
# Poissons Ratio (y) = 0.21034 0.85974
# Poissons Ratio (z) = -0.01590 0.15815
#
# Static dielectric constant tensor:
#      x y z
#    x 1.803310 0.000000 -0.003090 
#    y 0.000000 1.870720 0.000000 
#    z -0.003090 0.000000 1.933780 
# 
# From -- ./inp_files/3169.got.cif
#   From: 2010.05.17/outbox.cif.g08.bks.cpg/sg14_2_cif.got.tgz:3169.got - 2010.06.03 17:49:19.
