data_PCOD9239102
_publ_section_title
;
Structure prediction by ZEFSAII (Michael W. Deem and Ramdas Pophale) SiO2 
 PCOD9239102
Probable space group: P 21/C
;
_chemical_formula_sum "Si O2"
_cell_formula_units_Z 24
_cell_length_a 9.324155
_cell_length_b 9.223686
_cell_length_c 11.907765
_cell_angle_alpha 90.000000
_cell_angle_beta 97.202806
_cell_angle_gamma 90.000000
_cell_volume 1016.022785
_symmetry_space_group_name_H-M "P 21/C"
_symmetry_group_IT_number 14
_symmetry_cell_setting 'monoclinic'
loop_
_space_group_symop_operation_xyz
x,y,z
-x,1/2+y,1/2-z
-x,-y,-z
x,1/2-y,1/2+z
loop_
_atom_site_type_symbol
_atom_site_label
_atom_site_fract_x
_atom_site_fract_y
_atom_site_fract_z
Si Si1 0.726697 0.854833 0.336515
Si Si2 0.428555 0.593981 0.890355
Si Si3 0.538321 0.346053 0.450698
Si Si4 0.903551 0.915131 0.145604
Si Si5 0.785214 0.984999 0.884102
Si Si6 0.247760 0.147166 0.404854
O O1 0.557405 0.893215 0.314937
O O2 0.815703 0.940524 0.251801
O O3 0.739021 0.678353 0.341412
O O4 0.773290 0.894334 0.467236
O O5 0.291769 0.498524 0.845693
O O6 0.500000 0.500000 0.000000
O O7 0.395633 0.746372 0.943770
O O8 0.500000 0.500000 0.500000
O O9 0.662998 0.389074 0.374725
O O10 0.388677 0.258137 0.406024
O O11 0.890505 0.739828 0.140857
O O12 0.065018 0.970571 0.158179
O O13 0.828087 0.967177 0.022443
#
# Coordination Sequence:
#
# PCOD9239102 Si02
#       6
#     4   4   4   4   4   4
#     4   9  17  35  55  79 114 147 186 234 287 347
#     4   8  16  32  55  79 109 145 177 232 294 327
#     4  10  14  32  61  78 104 146 189 232 283 333
#     4  10  20  36  58  80 113 152 189 236 288 350
#     4  10  20  36  59  82 111 151 196 236 291 341
#     4   9  19  37  58  80 115 149 182 241 303 329
#
# _framework density 23.621516
#
# number of rings (size 3 to 8) (size 9 to 14) (size 15 to 20)
#    0.000    3.000    5.000    0.000    0.000    0.000 
#   18.000    0.833    7.333    0.000    0.000    0.000 
#    0.000    0.000    0.000    0.000    0.000    0.000 
#
# Total GULP energy -133804.411012 kJ/mol
# GULP energy per Si atom -5575.183792 kJ/mol
# Density = 2.356775 g / cm^3
# Si number density = 23.621516 Si / 1000 Ang^3
#
#
#
# Elastic Constant Matrix: (Units=GPa)
#
#
# Indices 1 2 3 4 5 6 
#
# 1 123.7932 51.3701 53.4688 0.0000 -22.5224 0.0000
# 2 51.3701 119.2311 26.3464 0.0000 -24.7370 0.0000
# 3 53.4688 26.3464 126.9951 0.0000 -42.9065 0.0000
# 4 0.0000 0.0000 0.0000 41.2009 0.0000 -12.5777
# 5 -22.5224 -24.7370 -42.9065 0.0000 45.8551 0.0000
# 6 0.0000 0.0000 0.0000 -12.5777 0.0000 41.8693
#
#
#
# Elastic Compliance Matrix: (Units=1/GPa)
#
#
# Indices 1 2 3 4 5 6 
#
# 1 0.011497 -0.004134 -0.004136 0.000000 -0.000453 0.000000
# 2 -0.004134 0.010941 0.001139 0.000000 0.004937 0.000000
# 3 -0.004136 0.001139 0.013015 0.000000 0.010761 0.000000
# 4 0.000000 0.000000 0.000000 0.026722 0.000000 0.008027
# 5 -0.000453 0.004937 0.010761 0.000000 0.034318 0.000000
# 6 0.000000 0.000000 0.000000 0.008027 0.000000 0.026295
#
#
# Mechanical properties :
#
#
# Convention : Reuss Voigt Hill
#
# Bulk Modulus (GPa) = 47.18954 70.26554 58.72754
# Shear Modulus (GPa) = 34.69462 41.70734 38.20098
#
# Velocity S-wave (km/s) = 3.83661 4.20652 4.02582
# Velocity P-wave (km/s) = 6.29658 7.30781 6.82096
#
# Compressibility (1/GPa) = 0.02119114
#
# Stress axis : x y z
#
# Youngs Moduli (GPa) = 86.97618 91.40152 76.83252
#
# Poissons Ratio (x) = 0.37782 0.31780
# Poissons Ratio (y) = 0.35953 -0.08749
# Poissons Ratio (z) = 0.35976 -0.10408
#
# Static dielectric constant tensor:
#      x y z
#    x 1.970240 0.000000 0.149470 
#    y 0.000000 1.913710 0.000000 
#    z 0.149470 0.000000 2.246270 
# 
# From -- ./inp_files/43025.got.cif
#   From: 2010.05.17/outbox.cif.g08.bks.cpg/sg14_22_cif.got.tgz:43025.got - 2010.06.03 17:49:19.
