data_PCOD9239659
_publ_section_title
;
Structure prediction by ZEFSAII (Michael W. Deem and Ramdas Pophale) SiO2 
 PCOD9239659
Probable space group: P 21/C
;
_chemical_formula_sum "Si O2"
_cell_formula_units_Z 28
_cell_length_a 16.014103
_cell_length_b 21.435856
_cell_length_c 5.087027
_cell_angle_alpha 90.000000
_cell_angle_beta 103.804522
_cell_angle_gamma 90.000000
_cell_volume 1695.814542
_symmetry_space_group_name_H-M "P 21/C"
_symmetry_group_IT_number 14
_symmetry_cell_setting 'monoclinic'
loop_
_space_group_symop_operation_xyz
x,y,z
-x,1/2+y,1/2-z
-x,-y,-z
x,1/2-y,1/2+z
loop_
_atom_site_type_symbol
_atom_site_label
_atom_site_fract_x
_atom_site_fract_y
_atom_site_fract_z
Si Si1 0.954412 0.288459 0.428522
Si Si2 0.345131 0.912088 0.098704
Si Si3 0.975734 0.582089 0.738599
Si Si4 0.747884 0.212075 0.781104
Si Si5 0.697667 0.495704 0.935058
Si Si6 0.478465 0.042365 0.734957
Si Si7 0.891577 0.969457 0.672934
O O1 0.976859 0.266422 0.738524
O O2 0.850978 0.297086 0.356414
O O3 0.996127 0.351108 0.348295
O O4 0.297302 0.849172 0.141699
O O5 0.319229 0.962593 0.299446
O O6 0.449135 0.904329 0.195194
O O7 0.317633 0.942991 0.801040
O O8 0.906801 0.554508 0.479506
O O9 0.057557 0.535324 0.801834
O O10 0.937410 0.577133 0.001519
O O11 0.725675 0.232407 0.468638
O O12 0.624448 0.549037 0.842019
O O13 0.793853 0.520939 0.014268
O O14 0.500000 0.000000 0.500000
O O15 0.500000 0.000000 0.000000
#
# Coordination Sequence:
#
# PCOD9239659 Si02
#       7
#     4   4   4   4   4   4   4
#     4  10  20  33  49  67  91 124 160 197 231 274
#     4  10  18  30  48  68  97 126 148 188 231 272
#     4  10  20  33  46  69  96 123 159 192 238 284
#     4  10  20  31  45  68  92 120 158 188 222 274
#     4  10  18  30  48  71  95 123 154 184 233 284
#     4   8  16  28  44  68  93 117 148 178 216 273
#     4  10  20  31  48  70  98 126 151 194 239 287
#
# _framework density 16.511240000000001
#
# number of rings (size 3 to 8) (size 9 to 14) (size 15 to 20)
#    0.000    2.286    0.000    3.429    0.000    4.571 
#    0.000    0.000    0.000    0.000    0.000    6.000 
#    0.000    0.000    0.000    0.000    0.000    0.000 
#
# Total GULP energy -155964.355013 kJ/mol
# GULP energy per Si atom -5570.155536 kJ/mol
# Density = 1.647366 g / cm^3
# Si number density = 16.511240 Si / 1000 Ang^3
#
#
#
# Elastic Constant Matrix: (Units=GPa)
#
#
# Indices 1 2 3 4 5 6 
#
# 1 84.4864 31.1683 17.6599 0.0000 14.3132 0.0000
# 2 31.1683 42.7191 -8.8284 0.0000 3.2056 0.0000
# 3 17.6599 -8.8284 72.4371 0.0000 -1.3677 0.0000
# 4 0.0000 0.0000 0.0000 17.5516 0.0000 -9.1654
# 5 14.3132 3.2056 -1.3677 0.0000 22.5451 0.0000
# 6 0.0000 0.0000 0.0000 -9.1654 0.0000 23.4246
#
#
#
# Elastic Compliance Matrix: (Units=1/GPa)
#
#
# Indices 1 2 3 4 5 6 
#
# 1 0.021355 -0.016233 -0.007406 0.000000 -0.011699 0.000000
# 2 -0.016233 0.036592 0.008524 0.000000 0.005620 0.000000
# 3 -0.007406 0.008524 0.016734 0.000000 0.004505 0.000000
# 4 0.000000 0.000000 0.000000 0.071606 0.000000 0.028017
# 5 -0.011699 0.005620 0.004505 0.000000 0.051257 0.000000
# 6 0.000000 0.000000 0.000000 0.028017 0.000000 0.053653
#
#
# Mechanical properties :
#
#
# Convention : Reuss Voigt Hill
#
# Bulk Modulus (GPa) = 22.49671 31.07136 26.78403
# Shear Modulus (GPa) = 16.87795 23.34711 20.11253
#
# Velocity S-wave (km/s) = 3.20067 3.76442 3.49393
# Velocity P-wave (km/s) = 5.22625 6.14440 5.70383
#
# Compressibility (1/GPa) = 0.04445095
#
# Stress axis : x y z
#
# Youngs Moduli (GPa) = 46.82779 27.32805 59.75709
#
# Poissons Ratio (x) = 0.44362 0.44254
# Poissons Ratio (y) = 0.76017 -0.50934
# Poissons Ratio (z) = 0.34679 -0.23293
#
# Static dielectric constant tensor:
#      x y z
#    x 1.582770 0.000000 0.005240 
#    y 0.000000 1.535010 0.000000 
#    z 0.005240 0.000000 1.561720 
# 
# From -- ./inp_files/3688.got.cif
#   From: 2010.05.17/outbox.cif.g08.bks.cpg/sg14_2_cif.got.tgz:3688.got - 2010.06.03 17:49:19.
