data_PCOD9239487
_publ_section_title
;
Structure prediction by ZEFSAII (Michael W. Deem and Ramdas Pophale) SiO2 
 PCOD9239487
Probable space group: P 21/C
;
_chemical_formula_sum "Si O2"
_cell_formula_units_Z 16
_cell_length_a 9.809431
_cell_length_b 13.089914
_cell_length_c 8.482291
_cell_angle_alpha 90.000000
_cell_angle_beta 147.972178
_cell_angle_gamma 90.000000
_cell_volume 577.618099
_symmetry_space_group_name_H-M "P 21/C"
_symmetry_group_IT_number 14
_symmetry_cell_setting 'monoclinic'
loop_
_space_group_symop_operation_xyz
x,y,z
-x,1/2+y,1/2-z
-x,-y,-z
x,1/2-y,1/2+z
loop_
_atom_site_type_symbol
_atom_site_label
_atom_site_fract_x
_atom_site_fract_y
_atom_site_fract_z
Si Si1 0.844061 0.736148 0.958262
Si Si2 0.347210 0.835239 0.360776
Si Si3 0.534077 0.564181 0.770346
Si Si4 0.776671 0.125259 0.353150
O O1 0.612355 0.813238 0.706379
O O2 0.751199 0.653603 0.995112
O O3 0.093146 0.808348 0.211117
O O4 0.927760 0.655008 0.899260
O O5 0.363351 0.930490 0.260096
O O6 0.338129 0.737012 0.233510
O O7 0.351891 0.589944 0.441709
O O8 0.687619 0.460830 0.886005
#
# Coordination Sequence:
#
# PCOD9239487 Si02
#       4
#     4   4   4   4
#     4   9  19  33  45  79 101 127 175 199 252 306
#     4   9  20  31  49  78 104 131 163 212 254 298
#     4  10  17  34  58  73 108 132 162 225 246 289
#     4   8  19  33  52  84  97 128 182 199 258 301
#
# _framework density 27.699963
#
# number of rings (size 3 to 8) (size 9 to 14) (size 15 to 20)
#    1.500    1.500    0.000    0.750    3.500    0.000 
#    0.000    0.000    0.000    7.500    0.000    0.000 
#    0.000    0.000    0.000    0.000    0.000    0.000 
#
# Total GULP energy -89281.142970 kJ/mol
# GULP energy per Si atom -5580.071436 kJ/mol
# Density = 2.763692 g / cm^3
# Si number density = 27.699963 Si / 1000 Ang^3
#
#
#
# Elastic Constant Matrix: (Units=GPa)
#
#
# Indices 1 2 3 4 5 6 
#
# 1 57.6086 12.6869 31.6640 0.0000 26.2928 0.0000
# 2 12.6869 85.0830 11.3801 0.0000 3.7030 0.0000
# 3 31.6640 11.3801 130.5754 0.0000 30.4368 0.0000
# 4 0.0000 0.0000 0.0000 30.2753 0.0000 1.5562
# 5 26.2928 3.7030 30.4368 0.0000 40.1105 0.0000
# 6 0.0000 0.0000 0.0000 1.5562 0.0000 57.5290
#
#
#
# Elastic Compliance Matrix: (Units=1/GPa)
#
#
# Indices 1 2 3 4 5 6 
#
# 1 0.026273 -0.002915 -0.002631 0.000000 -0.014957 0.000000
# 2 -0.002915 0.012220 -0.000657 0.000000 0.001281 0.000000
# 3 -0.002631 -0.000657 0.009643 0.000000 -0.005532 0.000000
# 4 0.000000 0.000000 0.000000 0.033076 0.000000 -0.000895
# 5 -0.014957 0.001281 -0.005532 0.000000 0.038815 0.000000
# 6 0.000000 0.000000 0.000000 -0.000895 0.000000 0.017407
#
#
# Mechanical properties :
#
#
# Convention : Reuss Voigt Hill
#
# Bulk Modulus (GPa) = 27.98656 42.74767 35.36711
# Shear Modulus (GPa) = 30.91215 40.08534 35.49875
#
# Velocity S-wave (km/s) = 3.34423 3.80824 3.58375
# Velocity P-wave (km/s) = 5.00372 5.89939 5.46992
#
# Compressibility (1/GPa) = 0.03573143
#
# Stress axis : x y z
#
# Youngs Moduli (GPa) = 38.06253 81.83335 103.70034
#
# Poissons Ratio (x) = 0.23852 0.27279
# Poissons Ratio (y) = 0.11094 0.06811
# Poissons Ratio (z) = 0.10013 0.05375
#
# Static dielectric constant tensor:
#      x y z
#    x 2.228960 0.000000 -0.039750 
#    y 0.000000 2.134000 0.000000 
#    z -0.039750 0.000000 2.166010 
# 
# From -- ./inp_files/5006.got.cif
#   From: 2010.05.17/outbox.cif.g08.bks.cpg/sg14_3_cif.got.tgz:5006.got - 2010.06.03 17:49:19.
