data_PCOD9239235
_publ_section_title
;
Structure prediction by ZEFSAII (Michael W. Deem and Ramdas Pophale) SiO2 
 PCOD9239235
Probable space group: P 21/C
;
_chemical_formula_sum "Si O2"
_cell_formula_units_Z 30
_cell_length_a 10.960063
_cell_length_b 11.494038
_cell_length_c 9.063907
_cell_angle_alpha 90.000000
_cell_angle_beta 91.857155
_cell_angle_gamma 90.000000
_cell_volume 1141.229365
_symmetry_space_group_name_H-M "P 21/C"
_symmetry_group_IT_number 14
_symmetry_cell_setting 'monoclinic'
loop_
_space_group_symop_operation_xyz
x,y,z
-x,1/2+y,1/2-z
-x,-y,-z
x,1/2-y,1/2+z
loop_
_atom_site_type_symbol
_atom_site_label
_atom_site_fract_x
_atom_site_fract_y
_atom_site_fract_z
Si Si1 0.327029 0.116910 0.947158
Si Si2 0.508191 0.940480 0.818174
Si Si3 0.902602 0.540033 0.375484
Si Si4 0.230557 0.648638 0.090573
Si Si5 0.032340 0.126951 0.434603
Si Si6 0.500000 0.500000 0.000000
Si Si7 0.712519 0.128557 0.739125
Si Si8 0.262661 0.389703 0.134684
O O1 0.392666 0.997275 0.893719
O O2 0.290012 0.173880 0.790276
O O3 0.427879 0.153281 0.073337
O O4 0.206593 0.094287 0.034763
O O5 0.483486 0.915610 0.648208
O O6 0.604895 0.047405 0.795098
O O7 0.947604 0.618826 0.240811
O O8 0.839027 0.432183 0.287897
O O9 0.000000 0.500000 0.500000
O O10 0.288705 0.743894 0.197030
O O11 0.214944 0.522500 0.165026
O O12 0.093743 0.695013 0.043852
O O13 0.298708 0.628989 0.937543
O O14 0.156380 0.160638 0.525403
O O15 0.000000 0.000000 0.500000
O O16 0.611611 0.585046 0.943768
#
# Coordination Sequence:
#
# PCOD9239235 Si02
#       8
#     4   4   4   4   4   2   4   4
#     4   9  19  30  56  85 113 138 184 244 289 330
#     4   9  18  35  51  84 114 143 188 240 285 349
#     4  11  20  34  57  86 116 150 198 247 286 345
#     4  11  23  36  56  84 118 155 188 245 302 361
#     4  10  19  36  55  81 114 152 199 240 285 347
#     4  10  16  32  60  82 110 146 186 242 290 328
#     4  11  23  37  55  85 119 152 196 240 304 361
#     4  10  18  34  57  85 113 150 194 239 285 338
#
# _framework density 26.287441999999999
#
# number of rings (size 3 to 8) (size 9 to 14) (size 15 to 20)
#    0.000    1.867    4.000    2.400    5.600    0.000 
#    0.000    0.000    0.000    1.600    0.000    0.000 
#    0.000    0.000    0.000    0.000    0.000    0.000 
#
# Total GULP energy -167266.879531 kJ/mol
# GULP energy per Si atom -5575.562651 kJ/mol
# Density = 2.622761 g / cm^3
# Si number density = 26.287442 Si / 1000 Ang^3
#
#
#
# Elastic Constant Matrix: (Units=GPa)
#
#
# Indices 1 2 3 4 5 6 
#
# 1 101.8736 11.4442 65.1515 0.0000 11.0893 0.0000
# 2 11.4442 84.1854 29.0822 0.0000 10.3519 0.0000
# 3 65.1515 29.0822 234.2721 0.0000 10.8564 0.0000
# 4 0.0000 0.0000 0.0000 31.2824 0.0000 1.1870
# 5 11.0893 10.3519 10.8564 0.0000 71.2600 0.0000
# 6 0.0000 0.0000 0.0000 1.1870 0.0000 0.4088
#
#
#
# Elastic Compliance Matrix: (Units=1/GPa)
#
#
# Indices 1 2 3 4 5 6 
#
# 1 0.012082 -0.000354 -0.003254 0.000000 -0.001333 0.000000
# 2 -0.000354 0.012600 -0.001393 0.000000 -0.001563 0.000000
# 3 -0.003254 -0.001393 0.005351 0.000000 -0.000106 0.000000
# 4 0.000000 0.000000 0.000000 0.035925 0.000000 -0.104316
# 5 -0.001333 -0.001563 -0.000106 0.000000 0.014484 0.000000
# 6 0.000000 0.000000 0.000000 -0.104316 0.000000 2.749242
#
#
# Mechanical properties :
#
#
# Convention : Reuss Voigt Hill
#
# Bulk Modulus (GPa) = 49.92474 70.18744 60.05609
# Shear Modulus (GPa) = 1.75663 41.56711 21.66187
#
# Velocity S-wave (km/s) = 0.81835 3.98081 2.87372
# Velocity P-wave (km/s) = 4.46386 6.92005 5.82293
#
# Compressibility (1/GPa) = 0.02003015
#
# Stress axis : x y z
#
# Youngs Moduli (GPa) = 82.76609 79.36389 186.86489
#
# Poissons Ratio (x) = 0.02812 0.60812
# Poissons Ratio (y) = 0.02933 0.26034
# Poissons Ratio (z) = 0.26935 0.11057
#
# Static dielectric constant tensor:
#      x y z
#    x 2.038910 0.000000 0.150340 
#    y 0.000000 2.202370 0.000000 
#    z 0.150340 0.000000 2.124930 
# 
# From -- ./inp_files/13115.got.cif
#   From: 2010.05.17/outbox.cif.g08.bks.cpg/sg14_7_cif.got.tgz:13115.got - 2010.06.03 17:49:19.
