data_PCOD9239115
_publ_section_title
;
Structure prediction by ZEFSAII (Michael W. Deem and Ramdas Pophale) SiO2 
 PCOD9239115
Probable space group: P 21/C
;
_chemical_formula_sum "Si O2"
_cell_formula_units_Z 24
_cell_length_a 13.409217
_cell_length_b 9.272959
_cell_length_c 13.705865
_cell_angle_alpha 90.000000
_cell_angle_beta 30.880997
_cell_angle_gamma 90.000000
_cell_volume 874.707358
_symmetry_space_group_name_H-M "P 21/C"
_symmetry_group_IT_number 14
_symmetry_cell_setting 'monoclinic'
loop_
_space_group_symop_operation_xyz
x,y,z
-x,1/2+y,1/2-z
-x,-y,-z
x,1/2-y,1/2+z
loop_
_atom_site_type_symbol
_atom_site_label
_atom_site_fract_x
_atom_site_fract_y
_atom_site_fract_z
Si Si1 0.787833 0.413454 0.376218
Si Si2 0.347277 0.215724 0.007281
Si Si3 0.392015 0.024258 0.798164
Si Si4 0.827024 0.685078 0.665016
Si Si5 0.795940 0.527513 0.065299
Si Si6 0.758426 0.261299 0.723922
O O1 0.654871 0.549080 0.453345
O O2 0.740265 0.408415 0.530741
O O3 0.730198 0.276335 0.361495
O O4 0.008382 0.451249 0.162402
O O5 0.190593 0.295684 0.204015
O O6 0.323564 0.173046 0.915178
O O7 0.548747 0.296073 0.856134
O O8 0.327224 0.070423 0.745789
O O9 0.612473 0.996507 0.647100
O O10 0.045107 0.650238 0.449457
O O11 0.778445 0.839281 0.654950
O O12 0.810441 0.386082 0.120992
#
# Coordination Sequence:
#
# PCOD9239115 Si02
#       6
#     4   4   4   4   4   4
#     4   9  15  27  44  66  96 113 141 186 235 272
#     4   9  17  28  45  67  97 117 143 191 234 273
#     4   9  20  29  43  70 100 119 149 190 229 272
#     4  11  18  29  49  73  91 124 156 181 233 281
#     4  10  16  30  49  68  96 120 146 195 238 269
#     4  10  15  27  50  72  87 116 148 195 248 273
#
# _framework density 27.437747000000002
#
# number of rings (size 3 to 8) (size 9 to 14) (size 15 to 20)
#    1.000    1.333    3.333    2.500    0.000    1.333 
#    0.000    0.000    0.000    1.000    0.000    9.333 
#    0.000    0.000    0.000    0.000    0.000    0.000 
#
# Total GULP energy -134198.483292 kJ/mol
# GULP energy per Si atom -5591.603471 kJ/mol
# Density = 2.737530 g / cm^3
# Si number density = 27.437747 Si / 1000 Ang^3
#
#
#
# Elastic Constant Matrix: (Units=GPa)
#
#
# Indices 1 2 3 4 5 6 
#
# 1 86.0016 19.3022 1.2067 0.0000 -16.8203 0.0000
# 2 19.3022 84.7698 1.5108 0.0000 -13.1647 0.0000
# 3 1.2067 1.5108 94.6239 0.0000 -13.5265 0.0000
# 4 0.0000 0.0000 0.0000 32.3798 0.0000 -13.4435
# 5 -16.8203 -13.1647 -13.5265 0.0000 30.9868 0.0000
# 6 0.0000 0.0000 0.0000 -13.4435 0.0000 34.8380
#
#
#
# Elastic Compliance Matrix: (Units=1/GPa)
#
#
# Indices 1 2 3 4 5 6 
#
# 1 0.013393 -0.002012 0.000830 0.000000 0.006778 0.000000
# 2 -0.002012 0.012965 0.000480 0.000000 0.004625 0.000000
# 3 0.000830 0.000480 0.011352 0.000000 0.005610 0.000000
# 4 0.000000 0.000000 0.000000 0.036775 0.000000 0.014191
# 5 0.006778 0.004625 0.005610 0.000000 0.040365 0.000000
# 6 0.000000 0.000000 0.000000 0.014191 0.000000 0.034180
#
#
# Mechanical properties :
#
#
# Convention : Reuss Voigt Hill
#
# Bulk Modulus (GPa) = 27.54368 34.38164 30.96266
# Shear Modulus (GPa) = 30.76246 35.86595 33.31421
#
# Velocity S-wave (km/s) = 3.35202 3.61941 3.48828
# Velocity P-wave (km/s) = 5.00418 5.47949 5.24722
#
# Compressibility (1/GPa) = 0.03630598
#
# Stress axis : x y z
#
# Youngs Moduli (GPa) = 74.66479 77.13359 88.09147
#
# Poissons Ratio (x) = 0.15518 -0.07313
# Poissons Ratio (y) = 0.15021 -0.04227
# Poissons Ratio (z) = -0.06199 -0.03701
#
# Static dielectric constant tensor:
#      x y z
#    x 2.206150 0.000000 0.101000 
#    y 0.000000 2.265070 0.000000 
#    z 0.101000 0.000000 2.131390 
# 
# From -- ./inp_files/40802.got.cif
#   From: 2010.05.17/outbox.cif.g08.bks.cpg/sg14_21_cif.got.tgz:40802.got - 2010.06.03 17:49:19.
