data_PCOD9239303
_publ_section_title
;
Structure prediction by ZEFSAII (Michael W. Deem and Ramdas Pophale) SiO2 
 PCOD9239303
Probable space group: P 21/C
;
_chemical_formula_sum "Si O2"
_cell_formula_units_Z 28
_cell_length_a 15.566422
_cell_length_b 5.266557
_cell_length_c 28.679351
_cell_angle_alpha 90.000000
_cell_angle_beta 138.575765
_cell_angle_gamma 90.000000
_cell_volume 1555.605603
_symmetry_space_group_name_H-M "P 21/C"
_symmetry_group_IT_number 14
_symmetry_cell_setting 'monoclinic'
loop_
_space_group_symop_operation_xyz
x,y,z
-x,1/2+y,1/2-z
-x,-y,-z
x,1/2-y,1/2+z
loop_
_atom_site_type_symbol
_atom_site_label
_atom_site_fract_x
_atom_site_fract_y
_atom_site_fract_z
Si Si1 0.058171 0.832999 0.212983
Si Si2 0.419054 0.577049 0.707165
Si Si3 0.512816 0.672715 0.651439
Si Si4 0.567357 0.965834 0.077505
Si Si5 0.680235 0.328311 0.238849
Si Si6 0.095541 0.832527 0.340571
Si Si7 0.642962 0.468112 0.080269
O O1 0.185732 0.862408 0.233678
O O2 0.088634 0.839382 0.280954
O O3 0.991014 0.563163 0.176484
O O4 0.958869 0.065024 0.164840
O O5 0.529002 0.789177 0.765523
O O6 0.402774 0.632330 0.645675
O O7 0.309159 0.629756 0.700703
O O8 0.477645 0.619513 0.583445
O O9 0.619668 0.452244 0.705997
O O10 0.578101 0.949382 0.682693
O O11 0.672641 0.741961 0.114529
O O12 0.628770 0.239854 0.111026
O O13 0.500000 0.000000 0.000000
O O14 0.247183 0.886834 0.411104
O O15 0.500000 0.500000 0.000000
#
# Coordination Sequence:
#
# PCOD9239303 Si02
#       7
#     4   4   4   4   4   4   4
#     4  10  19  28  43  63  90 119 145 179 215 270
#     4   8  16  27  41  62  86 115 151 182 214 264
#     4  10  17  28  45  63  91 123 147 184 225 262
#     4  10  19  29  44  66  89 114 148 182 225 270
#     4  10  18  29  44  64  89 122 154 177 218 272
#     4  10  19  30  42  63  88 117 151 178 218 267
#     4  10  20  33  47  63  89 119 151 191 224 261
#
# _framework density 17.999421999999999
#
# number of rings (size 3 to 8) (size 9 to 14) (size 15 to 20)
#    0.000    2.286    0.000    4.286    0.000    2.286 
#    0.000    0.000    0.000    0.000    0.000    0.000 
#    0.000   27.429    0.000    0.000    0.000    0.000 
#
# Total GULP energy -155898.325680 kJ/mol
# GULP energy per Si atom -5567.797346 kJ/mol
# Density = 1.795845 g / cm^3
# Si number density = 17.999422 Si / 1000 Ang^3
#
#
#
# Elastic Constant Matrix: (Units=GPa)
#
#
# Indices 1 2 3 4 5 6 
#
# 1 115.6477 -0.5137 18.3521 0.0000 -13.1385 0.0000
# 2 -0.5137 110.5663 -2.9042 0.0000 1.0829 0.0000
# 3 18.3521 -2.9042 31.7887 0.0000 -1.1454 0.0000
# 4 0.0000 0.0000 0.0000 11.7954 0.0000 0.7062
# 5 -13.1385 1.0829 -1.1454 0.0000 26.5071 0.0000
# 6 0.0000 0.0000 0.0000 0.7062 0.0000 26.9148
#
#
#
# Elastic Compliance Matrix: (Units=1/GPa)
#
#
# Indices 1 2 3 4 5 6 
#
# 1 0.010086 -0.000149 -0.005665 0.000000 0.004761 0.000000
# 2 -0.000149 0.009071 0.000900 0.000000 -0.000405 0.000000
# 3 -0.005665 0.000900 0.034762 0.000000 -0.001343 0.000000
# 4 0.000000 0.000000 0.000000 0.084912 0.000000 -0.002228
# 5 0.004761 -0.000405 -0.001343 0.000000 0.040044 0.000000
# 6 0.000000 0.000000 0.000000 -0.002228 0.000000 0.037213
#
#
# Mechanical properties :
#
#
# Convention : Reuss Voigt Hill
#
# Bulk Modulus (GPa) = 22.67974 31.98570 27.33272
# Shear Modulus (GPa) = 20.78028 29.24803 25.01415
#
# Velocity S-wave (km/s) = 3.40148 4.03543 3.73194
# Velocity P-wave (km/s) = 5.29663 6.28665 5.81276
#
# Compressibility (1/GPa) = 0.04409221
#
# Stress axis : x y z
#
# Youngs Moduli (GPa) = 99.14643 110.23820 28.76707
#
# Poissons Ratio (x) = 0.01638 0.16296
# Poissons Ratio (y) = 0.01473 -0.02589
# Poissons Ratio (z) = 0.56165 -0.09920
#
# Static dielectric constant tensor:
#      x y z
#    x 1.676980 0.000000 -0.069890 
#    y 0.000000 1.800390 0.000000 
#    z -0.069890 0.000000 1.790380 
# 
# From -- ./inp_files/69542.got.cif
#   From: 2010.05.17/outbox.cif.g08.bks.cpg/sg14_35_cif.got.tgz:69542.got - 2010.06.03 17:49:19.
