data_PCOD9239990
_publ_section_title
;
Structure prediction by ZEFSAII (Michael W. Deem and Ramdas Pophale) SiO2 
 PCOD9239990
Probable space group: P 21/C
;
_chemical_formula_sum "Si O2"
_cell_formula_units_Z 16
_cell_length_a 9.963284
_cell_length_b 6.870754
_cell_length_c 10.686174
_cell_angle_alpha 90.000000
_cell_angle_beta 111.353879
_cell_angle_gamma 90.000000
_cell_volume 681.305208
_symmetry_space_group_name_H-M "P 21/C"
_symmetry_group_IT_number 14
_symmetry_cell_setting 'monoclinic'
loop_
_space_group_symop_operation_xyz
x,y,z
-x,1/2+y,1/2-z
-x,-y,-z
x,1/2-y,1/2+z
loop_
_atom_site_type_symbol
_atom_site_label
_atom_site_fract_x
_atom_site_fract_y
_atom_site_fract_z
Si Si1 0.181119 0.532352 0.407632
Si Si2 0.147353 0.480647 0.665271
Si Si3 0.663211 0.437615 0.039469
Si Si4 0.855503 0.448514 0.876370
O O1 0.296619 0.707170 0.438806
O O2 0.205864 0.420780 0.547417
O O3 0.171444 0.446697 0.264966
O O4 0.013644 0.598907 0.368591
O O5 0.246494 0.460350 0.819566
O O6 0.134444 0.717558 0.649217
O O7 0.500000 0.500000 0.000000
O O8 0.723967 0.487060 0.924004
O O9 0.000000 0.500000 0.000000
#
# Coordination Sequence:
#
# PCOD9239990 Si02
#       4
#     4   4   4   4
#     4   9  18  35  63  89 120 155 211 259 300 372
#     4   9  18  34  62  91 122 155 209 263 299 371
#     4  10  20  35  61  89 127 164 200 258 317 369
#     4  10  18  33  62  92 117 159 208 249 310 376
#
# _framework density 23.484332999999999
#
# number of rings (size 3 to 8) (size 9 to 14) (size 15 to 20)
#    0.000    2.500    2.500    0.000    0.000    0.000 
#    0.000    1.250   66.000    0.000    0.000    0.000 
#    0.000    0.000    0.000    0.000    0.000    0.000 
#
# Total GULP energy -89322.097777 kJ/mol
# GULP energy per Si atom -5582.631111 kJ/mol
# Density = 2.343088 g / cm^3
# Si number density = 23.484333 Si / 1000 Ang^3
#
#
#
# Elastic Constant Matrix: (Units=GPa)
#
#
# Indices 1 2 3 4 5 6 
#
# 1 178.8600 25.4701 68.5512 0.0000 -12.7441 0.0000
# 2 25.4701 97.9726 -2.3677 0.0000 17.2089 0.0000
# 3 68.5512 -2.3677 151.0047 0.0000 -47.1126 0.0000
# 4 0.0000 0.0000 0.0000 6.2840 0.0000 12.2903
# 5 -12.7441 17.2089 -47.1126 0.0000 55.9528 0.0000
# 6 0.0000 0.0000 0.0000 12.2903 0.0000 26.5776
#
#
#
# Elastic Compliance Matrix: (Units=1/GPa)
#
#
# Indices 1 2 3 4 5 6 
#
# 1 0.007138 -0.001804 -0.003511 0.000000 -0.000775 0.000000
# 2 -0.001804 0.011402 -0.000304 0.000000 -0.004174 0.000000
# 3 -0.003511 -0.000304 0.010838 0.000000 0.008420 0.000000
# 4 0.000000 0.000000 0.000000 1.665057 0.000000 -0.769972
# 5 -0.000775 -0.004174 0.008420 0.000000 0.026069 0.000000
# 6 0.000000 0.000000 0.000000 -0.769972 0.000000 0.393684
#
#
# Mechanical properties :
#
#
# Convention : Reuss Voigt Hill
#
# Bulk Modulus (GPa) = 55.12856 67.90494 61.51675
# Shear Modulus (GPa) = 2.34579 40.17511 21.26045
#
# Velocity S-wave (km/s) = 1.00052 4.14057 3.01209
# Velocity P-wave (km/s) = 4.98601 7.19978 6.19262
#
# Compressibility (1/GPa) = 0.01813942
#
# Stress axis : x y z
#
# Youngs Moduli (GPa) = 140.09120 87.70518 92.26616
#
# Poissons Ratio (x) = 0.15826 0.32392
# Poissons Ratio (y) = 0.25278 0.02808
# Poissons Ratio (z) = 0.49181 0.02669
#
# Static dielectric constant tensor:
#      x y z
#    x 1.828810 0.000000 -0.082010 
#    y 0.000000 2.075850 0.000000 
#    z -0.082010 0.000000 1.917480 
# 
# From -- ./inp_files/22566.got.cif
#   From: 2010.05.17/outbox.cif.g08.bks.cpg/sg14_12_cif.got.tgz:22566.got - 2010.06.03 17:49:19.
