data_PCOD9239776
_publ_section_title
;
Structure prediction by ZEFSAII (Michael W. Deem and Ramdas Pophale) SiO2 
 PCOD9239776
Probable space group: P 21/C
;
_chemical_formula_sum "Si O2"
_cell_formula_units_Z 32
_cell_length_a 21.393233
_cell_length_b 8.745100
_cell_length_c 26.834874
_cell_angle_alpha 90.000000
_cell_angle_beta 18.739264
_cell_angle_gamma 90.000000
_cell_volume 1612.872936
_symmetry_space_group_name_H-M "P 21/C"
_symmetry_group_IT_number 14
_symmetry_cell_setting 'monoclinic'
loop_
_space_group_symop_operation_xyz
x,y,z
-x,1/2+y,1/2-z
-x,-y,-z
x,1/2-y,1/2+z
loop_
_atom_site_type_symbol
_atom_site_label
_atom_site_fract_x
_atom_site_fract_y
_atom_site_fract_z
Si Si1 0.237612 0.335711 0.567804
Si Si2 0.708311 0.370031 0.879785
Si Si3 0.970818 0.227641 0.425624
Si Si4 0.343137 0.787166 0.757867
Si Si5 0.416858 0.954113 0.009059
Si Si6 0.725718 0.970396 0.266449
Si Si7 0.988146 0.104838 0.807542
Si Si8 0.823366 0.009647 0.672939
O O1 0.428791 0.244505 0.406446
O O2 0.302369 0.404550 0.572185
O O3 0.058001 0.221984 0.712215
O O4 0.182201 0.486379 0.578075
O O5 0.768105 0.406125 0.778013
O O6 0.830827 0.491402 0.818736
O O7 0.720152 0.192383 0.883545
O O8 0.481952 0.405210 0.059775
O O9 0.769121 0.240523 0.607466
O O10 0.112566 0.341272 0.349713
O O11 0.952855 0.294904 0.383855
O O12 0.071647 0.061321 0.357301
O O13 0.260519 0.676989 0.776178
O O14 0.296619 0.953942 0.770793
O O15 0.613850 0.921922 0.827767
O O16 0.500000 0.000000 0.000000
O O17 0.000000 0.000000 0.500000
#
# Coordination Sequence:
#
# PCOD9239776 Si02
#       8
#     4   4   4   4   4   4   4   4
#     4  11  23  39  59  82 113 155 201 246 290 351
#     4  10  19  32  55  87 118 149 190 239 289 356
#     4  10  20  36  60  86 119 152 190 242 300 355
#     4  10  20  36  58  87 118 153 190 245 298 357
#     4  11  20  33  59  86 113 143 188 241 299 345
#     4  10  18  31  56  89 119 145 184 238 298 349
#     4  11  23  40  59  81 117 158 203 244 289 354
#     4   9  18  31  51  82 115 144 179 228 293 348
#
# _framework density 19.840371000000001
#
# number of rings (size 3 to 8) (size 9 to 14) (size 15 to 20)
#    0.000    1.750    2.500    3.375    1.750    0.000 
#    0.000    1.250    0.000    4.500    0.000    0.000 
#    0.000    0.000    0.000    0.000    0.000    0.000 
#
# Total GULP energy -178160.326515 kJ/mol
# GULP energy per Si atom -5567.510204 kJ/mol
# Density = 1.979521 g / cm^3
# Si number density = 19.840371 Si / 1000 Ang^3
#
#
#
# Elastic Constant Matrix: (Units=GPa)
#
#
# Indices 1 2 3 4 5 6 
#
# 1 55.0643 18.7267 22.7647 0.0000 -6.3979 0.0000
# 2 18.7267 46.8858 17.0320 0.0000 7.7009 0.0000
# 3 22.7647 17.0320 61.9017 0.0000 3.0548 0.0000
# 4 0.0000 0.0000 0.0000 21.6290 0.0000 -5.2612
# 5 -6.3979 7.7009 3.0548 0.0000 17.4143 0.0000
# 6 0.0000 0.0000 0.0000 -5.2612 0.0000 41.7173
#
#
#
# Elastic Compliance Matrix: (Units=1/GPa)
#
#
# Indices 1 2 3 4 5 6 
#
# 1 0.026762 -0.010476 -0.007740 0.000000 0.015822 0.000000
# 2 -0.010476 0.029434 -0.003444 0.000000 -0.016261 0.000000
# 3 -0.007740 -0.003444 0.020189 0.000000 -0.004862 0.000000
# 4 0.000000 0.000000 0.000000 0.047698 0.000000 0.006015
# 5 0.015822 -0.016261 -0.004862 0.000000 0.071281 0.000000
# 6 0.000000 0.000000 0.000000 0.006015 0.000000 0.024729
#
#
# Mechanical properties :
#
#
# Convention : Reuss Voigt Hill
#
# Bulk Modulus (GPa) = 30.24340 31.21097 30.72718
# Shear Modulus (GPa) = 18.21931 23.17401 20.69666
#
# Velocity S-wave (km/s) = 3.03363 3.42134 3.23330
# Velocity P-wave (km/s) = 5.24852 5.60113 5.42769
#
# Compressibility (1/GPa) = 0.03306507
#
# Stress axis : x y z
#
# Youngs Moduli (GPa) = 37.36690 33.97375 49.53291
#
# Poissons Ratio (x) = 0.35591 0.38339
# Poissons Ratio (y) = 0.39145 0.17058
# Poissons Ratio (z) = 0.28923 0.11700
#
# Static dielectric constant tensor:
#      x y z
#    x 1.708720 0.000000 0.006500 
#    y 0.000000 1.783420 0.000000 
#    z 0.006500 0.000000 1.705810 
# 
# From -- ./inp_files/77958.got.cif
#   From: 2010.05.17/outbox.cif.g08.bks.cpg/sg14_39_cif.got.tgz:77958.got - 2010.06.03 17:49:19.
