data_PCOD9239895
_publ_section_title
;
Structure prediction by ZEFSAII (Michael W. Deem and Ramdas Pophale) SiO2 
 PCOD9239895
Probable space group: P 21/C
;
_chemical_formula_sum "Si O2"
_cell_formula_units_Z 22
_cell_length_a 8.788316
_cell_length_b 7.216748
_cell_length_c 13.286138
_cell_angle_alpha 90.000000
_cell_angle_beta 99.116960
_cell_angle_gamma 90.000000
_cell_volume 832.002342
_symmetry_space_group_name_H-M "P 21/C"
_symmetry_group_IT_number 14
_symmetry_cell_setting 'monoclinic'
loop_
_space_group_symop_operation_xyz
x,y,z
-x,1/2+y,1/2-z
-x,-y,-z
x,1/2-y,1/2+z
loop_
_atom_site_type_symbol
_atom_site_label
_atom_site_fract_x
_atom_site_fract_y
_atom_site_fract_z
Si Si1 0.517849 0.656118 0.626843
Si Si2 0.866629 0.528138 0.837226
Si Si3 0.378023 0.778854 0.812178
Si Si4 0.859214 0.736857 0.154602
Si Si5 0.231787 0.654195 0.986663
Si Si6 0.000000 0.500000 0.500000
O O1 0.488622 0.683892 0.743512
O O2 0.529324 0.435536 0.617042
O O3 0.678814 0.744617 0.611096
O O4 0.373980 0.748847 0.560070
O O5 0.756459 0.389288 0.761650
O O6 0.865282 0.716823 0.774913
O O7 0.807601 0.520657 0.945445
O O8 0.036895 0.442586 0.853159
O O9 0.300025 0.641266 0.881972
O O10 0.940246 0.898733 0.098231
O O11 0.095925 0.806180 0.979993
#
# Coordination Sequence:
#
# PCOD9239895 Si02
#       6
#     4   4   4   4   4   2
#     4  10  21  36  59  85 112 150 190 237 278 341
#     4   9  20  36  57  80 116 144 187 238 276 335
#     4  10  20  38  55  82 118 144 192 231 285 330
#     4  10  20  37  56  85 111 149 195 229 285 328
#     4  10  19  36  60  83 112 150 188 233 282 336
#     4  10  18  32  62  76 108 148 192 222 268 342
#
# _framework density 26.442233000000002
#
# number of rings (size 3 to 8) (size 9 to 14) (size 15 to 20)
#    0.000    2.182    3.636    0.545    0.000    4.364 
#    0.000    9.091    0.000    0.000    0.000    0.000 
#    0.000    0.000    0.000    0.000    0.000    0.000 
#
# Total GULP energy -122759.774263 kJ/mol
# GULP energy per Si atom -5579.989739 kJ/mol
# Density = 2.638205 g / cm^3
# Si number density = 26.442233 Si / 1000 Ang^3
#
#
#
# Elastic Constant Matrix: (Units=GPa)
#
#
# Indices 1 2 3 4 5 6 
#
# 1 66.6344 14.9798 31.8580 0.0000 -31.5977 0.0000
# 2 14.9798 59.3565 -2.8374 0.0000 -10.8387 0.0000
# 3 31.8580 -2.8374 104.1374 0.0000 -28.6127 0.0000
# 4 0.0000 0.0000 0.0000 37.8008 0.0000 -8.7593
# 5 -31.5977 -10.8387 -28.6127 0.0000 50.3108 0.0000
# 6 0.0000 0.0000 0.0000 -8.7593 0.0000 32.1992
#
#
#
# Elastic Compliance Matrix: (Units=1/GPa)
#
#
# Indices 1 2 3 4 5 6 
#
# 1 0.023281 -0.003982 -0.004088 0.000000 0.011439 0.000000
# 2 -0.003982 0.018507 0.002525 0.000000 0.002922 0.000000
# 3 -0.004088 0.002525 0.012286 0.000000 0.004964 0.000000
# 4 0.000000 0.000000 0.000000 0.028234 0.000000 0.007681
# 5 0.011439 0.002922 0.004964 0.000000 0.030513 0.000000
# 6 0.000000 0.000000 0.000000 0.007681 0.000000 0.033146
#
#
# Mechanical properties :
#
#
# Convention : Reuss Voigt Hill
#
# Bulk Modulus (GPa) = 23.26402 35.34769 29.30586
# Shear Modulus (GPa) = 29.17415 36.47069 32.82242
#
# Velocity S-wave (km/s) = 3.32522 3.71787 3.52701
# Velocity P-wave (km/s) = 4.85386 5.64154 5.26246
#
# Compressibility (1/GPa) = 0.04298483
#
# Stress axis : x y z
#
# Youngs Moduli (GPa) = 42.95323 54.03466 81.39386
#
# Poissons Ratio (x) = 0.21517 0.33272
# Poissons Ratio (y) = 0.17104 -0.20555
# Poissons Ratio (z) = 0.17558 -0.13646
#
# Static dielectric constant tensor:
#      x y z
#    x 2.116880 0.000000 0.118650 
#    y 0.000000 2.269880 0.000000 
#    z 0.118650 0.000000 2.238350 
# 
# From -- ./inp_files/31992.got.cif
#   From: 2010.05.17/outbox.cif.g08.bks.cpg/sg14_16_cif.got.tgz:31992.got - 2010.06.03 17:49:19.
