data_PCOD9239661
_publ_section_title
;
Structure prediction by ZEFSAII (Michael W. Deem and Ramdas Pophale) SiO2 
 PCOD9239661
Probable space group: P 21/C
;
_chemical_formula_sum "Si O2"
_cell_formula_units_Z 28
_cell_length_a 11.952033
_cell_length_b 28.576198
_cell_length_c 13.849050
_cell_angle_alpha 90.000000
_cell_angle_beta 158.791909
_cell_angle_gamma 90.000000
_cell_volume 1711.126926
_symmetry_space_group_name_H-M "P 21/C"
_symmetry_group_IT_number 14
_symmetry_cell_setting 'monoclinic'
loop_
_space_group_symop_operation_xyz
x,y,z
-x,1/2+y,1/2-z
-x,-y,-z
x,1/2-y,1/2+z
loop_
_atom_site_type_symbol
_atom_site_label
_atom_site_fract_x
_atom_site_fract_y
_atom_site_fract_z
Si Si1 0.262077 0.686938 0.501674
Si Si2 0.422516 0.287634 0.055397
Si Si3 0.431864 0.787834 0.552950
Si Si4 0.253326 0.313351 0.504328
Si Si5 0.660880 0.602577 0.739940
Si Si6 0.398548 0.602026 0.313458
Si Si7 0.367154 0.000325 0.785050
O O1 0.320591 0.694658 0.662853
O O2 0.376294 0.733734 0.538298
O O3 0.468792 0.643617 0.634929
O O4 0.898707 0.684507 0.186226
O O5 0.366910 0.233527 0.040542
O O6 0.494505 0.290597 0.000530
O O7 0.686357 0.805833 0.833214
O O8 0.110475 0.815581 0.310685
O O9 0.453397 0.356939 0.629832
O O10 0.568208 0.602836 0.552961
O O11 0.563480 0.551316 0.702901
O O12 0.032524 0.608601 0.040786
O O13 0.450210 0.550317 0.308703
O O14 0.000000 0.000000 0.500000
O O15 0.500000 0.000000 0.000000
#
# Coordination Sequence:
#
# PCOD9239661 Si02
#       7
#     4   4   4   4   4   4   4
#     4  10  20  31  48  69  89 123 157 181 230 275
#     4  10  20  33  46  66  94 120 154 194 222 264
#     4  10  20  33  46  66  94 120 154 194 222 264
#     4  10  20  31  48  69  89 123 157 181 230 275
#     4  10  18  30  48  71  98 122 149 187 229 278
#     4  10  18  30  48  71  98 122 149 187 229 278
#     4   8  16  28  44  68  95 120 145 182 232 276
#
# _framework density 16.363485000000001
#
# number of rings (size 3 to 8) (size 9 to 14) (size 15 to 20)
#    0.000    2.286    0.000    3.429    0.000    4.571 
#    0.000    0.000    0.000    0.000    0.000    6.000 
#    0.000    0.000    0.000    0.000    0.000    0.000 
#
# Total GULP energy -155965.783074 kJ/mol
# GULP energy per Si atom -5570.206538 kJ/mol
# Density = 1.632624 g / cm^3
# Si number density = 16.363485 Si / 1000 Ang^3
#
#
#
# Elastic Constant Matrix: (Units=GPa)
#
#
# Indices 1 2 3 4 5 6 
#
# 1 48.9110 23.3012 -12.3639 0.0000 -0.7831 0.0000
# 2 23.3012 99.8684 17.6721 0.0000 15.6316 0.0000
# 3 -12.3639 17.6721 65.4456 0.0000 -8.0850 0.0000
# 4 0.0000 0.0000 0.0000 23.4169 0.0000 5.8497
# 5 -0.7831 15.6316 -8.0850 0.0000 20.7422 0.0000
# 6 0.0000 0.0000 0.0000 5.8497 0.0000 11.6489
#
#
#
# Elastic Compliance Matrix: (Units=1/GPa)
#
#
# Indices 1 2 3 4 5 6 
#
# 1 0.027884 -0.010136 0.009538 0.000000 0.012409 0.000000
# 2 -0.010136 0.016339 -0.008295 0.000000 -0.015929 0.000000
# 3 0.009538 -0.008295 0.021157 0.000000 0.014858 0.000000
# 4 0.000000 0.000000 0.000000 0.048830 0.000000 -0.024521
# 5 0.012409 -0.015929 0.014858 0.000000 0.066475 0.000000
# 6 0.000000 0.000000 0.000000 -0.024521 0.000000 0.098159
#
#
# Mechanical properties :
#
#
# Convention : Reuss Voigt Hill
#
# Bulk Modulus (GPa) = 21.01107 30.16042 25.58574
# Shear Modulus (GPa) = 16.00035 23.53597 19.76816
#
# Velocity S-wave (km/s) = 3.13038 3.79664 3.47949
# Velocity P-wave (km/s) = 5.09253 6.13929 5.64024
#
# Compressibility (1/GPa) = 0.04759397
#
# Stress axis : x y z
#
# Youngs Moduli (GPa) = 35.86348 61.20315 47.26583
#
# Poissons Ratio (x) = 0.62034 -0.45080
# Poissons Ratio (y) = 0.36350 0.39205
# Poissons Ratio (z) = -0.34205 0.50766
#
# Static dielectric constant tensor:
#      x y z
#    x 1.519540 0.000000 -0.006550 
#    y 0.000000 1.584370 0.000000 
#    z -0.006550 0.000000 1.555630 
# 
# From -- ./inp_files/21975.got.cif
#   From: 2010.05.17/outbox.cif.g08.bks.cpg/sg14_11_cif.got.tgz:21975.got - 2010.06.03 17:49:19.
