data_PCOD9239962
_publ_section_title
;
Structure prediction by ZEFSAII (Michael W. Deem and Ramdas Pophale) SiO2 
 PCOD9239962
Probable space group: P 21/C
;
_chemical_formula_sum "Si O2"
_cell_formula_units_Z 28
_cell_length_a 25.939778
_cell_length_b 7.951695
_cell_length_c 21.912952
_cell_angle_alpha 90.000000
_cell_angle_beta 161.309814
_cell_angle_gamma 90.000000
_cell_volume 1448.398735
_symmetry_space_group_name_H-M "P 21/C"
_symmetry_group_IT_number 14
_symmetry_cell_setting 'monoclinic'
loop_
_space_group_symop_operation_xyz
x,y,z
-x,1/2+y,1/2-z
-x,-y,-z
x,1/2-y,1/2+z
loop_
_atom_site_type_symbol
_atom_site_label
_atom_site_fract_x
_atom_site_fract_y
_atom_site_fract_z
Si Si1 0.189841 0.541137 0.135508
Si Si2 0.157112 0.694697 0.783254
Si Si3 0.088349 0.266267 0.101701
Si Si4 0.344324 0.493653 0.910089
Si Si5 0.326384 0.638002 0.754927
Si Si6 0.989643 0.607627 0.305850
Si Si7 0.953801 0.501610 0.769225
O O1 0.212664 0.395256 0.209744
O O2 0.331979 0.668373 0.282322
O O3 0.038847 0.644335 0.996356
O O4 0.121606 0.478898 0.994527
O O5 0.315992 0.649232 0.923202
O O6 0.160540 0.873504 0.821614
O O7 0.018942 0.702349 0.575492
O O8 0.113182 0.544934 0.780664
O O9 0.195035 0.130407 0.255359
O O10 0.322289 0.538136 0.814056
O O11 0.519965 0.415340 0.111546
O O12 0.160284 0.612865 0.532820
O O13 0.025302 0.562578 0.275751
O O14 0.918231 0.797924 0.229679
#
# Coordination Sequence:
#
# PCOD9239962 Si02
#       7
#     4   4   4   4   4   4   4
#     4   9  19  34  55  87 112 139 190 243 278 335
#     4  11  20  35  59  84 111 146 192 239 284 336
#     4  10  18  33  58  85 111 143 186 238 287 328
#     4  11  20  33  55  82 115 152 177 224 293 345
#     4  10  21  34  53  82 117 149 182 223 287 345
#     4  11  20  38  60  83 111 146 197 244 278 340
#     4  10  21  34  60  86 106 144 193 244 284 325
#
# _framework density 19.331693000000001
#
# number of rings (size 3 to 8) (size 9 to 14) (size 15 to 20)
#    0.000    1.714    4.286    2.143    0.000    0.571 
#    0.000    0.000    6.286    0.000    0.000    0.000 
#    0.000    0.000    0.000    0.000    0.000    0.000 
#
# Total GULP energy -156112.027070 kJ/mol
# GULP energy per Si atom -5575.429538 kJ/mol
# Density = 1.928769 g / cm^3
# Si number density = 19.331693 Si / 1000 Ang^3
#
#
#
# Elastic Constant Matrix: (Units=GPa)
#
#
# Indices 1 2 3 4 5 6 
#
# 1 92.2170 32.4944 25.8109 0.0000 -1.9045 0.0000
# 2 32.4944 101.1051 25.8402 0.0000 5.8635 0.0000
# 3 25.8109 25.8402 29.0339 0.0000 9.4633 0.0000
# 4 0.0000 0.0000 0.0000 19.2096 0.0000 5.2359
# 5 -1.9045 5.8635 9.4633 0.0000 23.4914 0.0000
# 6 0.0000 0.0000 0.0000 5.2359 0.0000 44.1966
#
#
#
# Elastic Compliance Matrix: (Units=1/GPa)
#
#
# Indices 1 2 3 4 5 6 
#
# 1 0.015827 -0.001674 -0.015119 0.000000 0.007792 0.000000
# 2 -0.001674 0.013033 -0.010368 0.000000 0.000788 0.000000
# 3 -0.015119 -0.010368 0.065232 0.000000 -0.024916 0.000000
# 4 0.000000 0.000000 0.000000 0.053794 0.000000 -0.006373
# 5 0.007792 0.000788 -0.024916 0.000000 0.053041 0.000000
# 6 0.000000 0.000000 0.000000 -0.006373 0.000000 0.023381
#
#
# Mechanical properties :
#
#
# Convention : Reuss Voigt Hill
#
# Bulk Modulus (GPa) = 25.14530 43.40524 34.27527
# Shear Modulus (GPa) = 17.12996 26.59354 21.86175
#
# Velocity S-wave (km/s) = 2.97999 3.71299 3.36650
# Velocity P-wave (km/s) = 4.98758 6.39401 5.73408
#
# Compressibility (1/GPa) = 0.03976886
#
# Stress axis : x y z
#
# Youngs Moduli (GPa) = 63.18448 76.72924 15.32999
#
# Poissons Ratio (x) = 0.12847 0.23178
# Poissons Ratio (y) = 0.10579 0.15893
# Poissons Ratio (z) = 0.95530 0.79549
#
# Static dielectric constant tensor:
#      x y z
#    x 1.681590 0.000000 0.012450 
#    y 0.000000 1.770250 0.000000 
#    z 0.012450 0.000000 1.647300 
# 
# From -- ./inp_files/70185.got.cif
#   From: 2010.05.17/outbox.cif.g08.bks.cpg/sg14_36_cif.got.tgz:70185.got - 2010.06.03 17:49:19.
