data_PCOD9239696
_publ_section_title
;
Structure prediction by ZEFSAII (Michael W. Deem and Ramdas Pophale) SiO2 
 PCOD9239696
Probable space group: P 21/C
;
_chemical_formula_sum "Si O2"
_cell_formula_units_Z 28
_cell_length_a 14.779980
_cell_length_b 8.274781
_cell_length_c 12.077419
_cell_angle_alpha 90.000000
_cell_angle_beta 48.906152
_cell_angle_gamma 90.000000
_cell_volume 1113.178874
_symmetry_space_group_name_H-M "P 21/C"
_symmetry_group_IT_number 14
_symmetry_cell_setting 'monoclinic'
loop_
_space_group_symop_operation_xyz
x,y,z
-x,1/2+y,1/2-z
-x,-y,-z
x,1/2-y,1/2+z
loop_
_atom_site_type_symbol
_atom_site_label
_atom_site_fract_x
_atom_site_fract_y
_atom_site_fract_z
Si Si1 0.327343 0.662279 0.999489
Si Si2 0.492249 0.606752 0.671789
Si Si3 0.711744 0.500792 0.635250
Si Si4 0.907022 0.031588 0.442752
Si Si5 0.652512 0.670144 0.901110
Si Si6 0.879506 0.804546 0.855024
Si Si7 0.740137 0.153661 0.737446
O O1 0.210602 0.596788 0.029208
O O2 0.372231 0.509539 0.033505
O O3 0.282142 0.800846 0.118029
O O4 0.433814 0.690357 0.827037
O O5 0.602287 0.511263 0.636077
O O6 0.543953 0.722914 0.534911
O O7 0.370818 0.538922 0.712649
O O8 0.681941 0.638805 0.749956
O O9 0.830166 0.554103 0.474022
O O10 0.731163 0.329609 0.681880
O O11 0.864318 0.070627 0.602172
O O12 0.015972 0.133688 0.307605
O O13 0.919384 0.845129 0.399880
O O14 0.769295 0.741435 0.868733
#
# Coordination Sequence:
#
# PCOD9239696 Si02
#       7
#     4   4   4   4   4   4   4
#     4   9  19  35  55  79 108 147 187 220 264 328
#     4  10  18  30  54  84 110 136 176 228 268 308
#     4  10  20  36  58  81 109 147 187 224 268 325
#     4  10  21  38  58  81 110 142 182 229 276 325
#     4   9  19  35  55  79 108 147 187 220 264 328
#     4  10  21  38  58  81 110 142 182 229 276 325
#     4  10  20  36  58  81 109 147 187 224 268 325
#
# _framework density 25.153186999999999
#
# number of rings (size 3 to 8) (size 9 to 14) (size 15 to 20)
#    0.000    2.286    0.000    2.571    0.000    4.571 
#    0.000   14.286    0.000   20.571    0.000    0.000 
#    0.000    0.000    0.000    0.000    0.000    0.000 
#
# Total GULP energy -156616.284806 kJ/mol
# GULP energy per Si atom -5593.438743 kJ/mol
# Density = 2.509594 g / cm^3
# Si number density = 25.153187 Si / 1000 Ang^3
#
#
#
# Elastic Constant Matrix: (Units=GPa)
#
#
# Indices 1 2 3 4 5 6 
#
# 1 34.3469 20.1441 10.5509 0.0000 -0.4436 0.0000
# 2 20.1441 102.7365 65.0650 0.0000 1.9908 0.0000
# 3 10.5509 65.0650 194.0027 0.0000 -13.1046 0.0000
# 4 0.0000 0.0000 0.0000 29.5146 0.0000 25.6143
# 5 -0.4436 1.9908 -13.1046 0.0000 33.7347 0.0000
# 6 0.0000 0.0000 0.0000 25.6143 0.0000 9.1660
#
#
#
# Elastic Compliance Matrix: (Units=1/GPa)
#
#
# Indices 1 2 3 4 5 6 
#
# 1 0.032969 -0.006850 0.000576 0.000000 0.001061 0.000000
# 2 -0.006850 0.013974 -0.004494 0.000000 -0.002660 0.000000
# 3 0.000576 -0.004494 0.006828 0.000000 0.002925 0.000000
# 4 0.000000 0.000000 0.000000 -0.023773 0.000000 0.066433
# 5 0.001061 -0.002660 0.002925 0.000000 0.030950 0.000000
# 6 0.000000 0.000000 0.000000 0.066433 0.000000 -0.076549
#
#
# Mechanical properties :
#
#
# Convention : Reuss Voigt Hill
#
# Bulk Modulus (GPa) = 31.02142 58.06735 44.54438
# Shear Modulus (GPa) = 299.76021 30.17146 164.96583
#
# Velocity S-wave (km/s) = 10.92852 3.46715 8.10721
# Velocity P-wave (km/s) = 13.09974 6.25810 10.26565
#
# Compressibility (1/GPa) = 0.03223579
#
# Stress axis : x y z
#
# Youngs Moduli (GPa) = 30.33170 71.55972 146.45536
#
# Poissons Ratio (x) = 0.49016 -0.08435
# Poissons Ratio (y) = 0.20776 0.65816
# Poissons Ratio (z) = -0.01747 0.32158
#
# Static dielectric constant tensor:
#      x y z
#    x 2.040120 0.000000 0.045140 
#    y 0.000000 2.003280 0.000000 
#    z 0.045140 0.000000 1.953290 
# 
# From -- ./inp_files/48557.got.cif
#   From: 2010.05.17/outbox.cif.g08.bks.cpg/sg14_25_cif.got.tgz:48557.got - 2010.06.03 17:49:19.
