data_PCOD9239928
_publ_section_title
;
Structure prediction by ZEFSAII (Michael W. Deem and Ramdas Pophale) SiO2 
 PCOD9239928
Probable space group: P 21/C
;
_chemical_formula_sum "Si O2"
_cell_formula_units_Z 32
_cell_length_a 23.411644
_cell_length_b 13.470148
_cell_length_c 8.356407
_cell_angle_alpha 90.000000
_cell_angle_beta 147.521602
_cell_angle_gamma 90.000000
_cell_volume 1415.087385
_symmetry_space_group_name_H-M "P 21/C"
_symmetry_group_IT_number 14
_symmetry_cell_setting 'monoclinic'
loop_
_space_group_symop_operation_xyz
x,y,z
-x,1/2+y,1/2-z
-x,-y,-z
x,1/2-y,1/2+z
loop_
_atom_site_type_symbol
_atom_site_label
_atom_site_fract_x
_atom_site_fract_y
_atom_site_fract_z
Si Si1 0.552745 0.712692 0.935427
Si Si2 0.030515 0.138678 0.627848
Si Si3 0.675978 0.647361 0.906173
Si Si4 0.790464 0.492571 0.366359
Si Si5 0.321568 0.439866 0.561534
Si Si6 0.205155 0.796046 0.973674
Si Si7 0.677955 0.150861 0.065782
Si Si8 0.852111 0.699807 0.891550
O O1 0.615573 0.677236 0.927922
O O2 0.427543 0.704849 0.622290
O O3 0.591413 0.823518 0.071799
O O4 0.588800 0.636641 0.164178
O O5 0.060922 0.148276 0.514091
O O6 0.090581 0.041042 0.839261
O O7 0.091806 0.230893 0.850718
O O8 0.907600 0.164282 0.361421
O O9 0.728047 0.542384 0.071682
O O10 0.772843 0.724794 0.110678
O O11 0.735798 0.526476 0.406353
O O12 0.781909 0.374571 0.349732
O O13 0.350026 0.535453 0.525422
O O14 0.229942 0.383145 0.246337
O O15 0.224627 0.686828 0.091047
O O16 0.289591 0.813743 0.034195
#
# Coordination Sequence:
#
# PCOD9239928 Si02
#       8
#     4   4   4   4   4   4   4   4
#     4  10  18  33  55  77 100 132 167 206 251 297
#     4  10  18  33  55  77 100 132 167 206 251 297
#     4   9  17  32  55  81 100 124 166 214 252 294
#     4   8  17  33  54  74  98 131 169 204 248 303
#     4   8  17  33  54  74  98 131 169 204 248 303
#     4  11  22  36  50  72 104 139 171 204 244 298
#     4  11  22  36  50  72 104 139 171 204 244 298
#     4   9  17  32  55  81 100 124 166 214 252 294
#
# _framework density 22.613444000000001
#
# number of rings (size 3 to 8) (size 9 to 14) (size 15 to 20)
#    0.000    2.500    0.000    4.500    0.000    0.000 
#    0.000    6.250    0.000    0.000    0.000    0.000 
#    0.000    0.000    0.000    0.000    0.000    0.000 
#
# Total GULP energy -178414.084815 kJ/mol
# GULP energy per Si atom -5575.440150 kJ/mol
# Density = 2.256197 g / cm^3
# Si number density = 22.613444 Si / 1000 Ang^3
#
#
#
# Elastic Constant Matrix: (Units=GPa)
#
#
# Indices 1 2 3 4 5 6 
#
# 1 50.8221 8.2593 10.3044 0.0000 12.4203 0.0000
# 2 8.2593 52.8099 12.3786 0.0000 1.2297 0.0000
# 3 10.3044 12.3786 52.3653 0.0000 14.9983 0.0000
# 4 0.0000 0.0000 0.0000 30.0931 0.0000 0.7747
# 5 12.4203 1.2297 14.9983 0.0000 24.2245 0.0000
# 6 0.0000 0.0000 0.0000 0.7747 0.0000 20.0382
#
#
#
# Elastic Compliance Matrix: (Units=1/GPa)
#
#
# Indices 1 2 3 4 5 6 
#
# 1 0.023079 -0.003221 -0.000532 0.000000 -0.011340 0.000000
# 2 -0.003221 0.020605 -0.005361 0.000000 0.003925 0.000000
# 3 -0.000532 -0.005361 0.024691 0.000000 -0.014742 0.000000
# 4 0.000000 0.000000 0.000000 0.033263 0.000000 -0.001286
# 5 -0.011340 0.003925 -0.014742 0.000000 0.056023 0.000000
# 6 0.000000 0.000000 0.000000 -0.001286 0.000000 0.049954
#
#
# Mechanical properties :
#
#
# Convention : Reuss Voigt Hill
#
# Bulk Modulus (GPa) = 19.94129 24.20909 22.07519
# Shear Modulus (GPa) = 20.61351 23.20816 21.91083
#
# Velocity S-wave (km/s) = 3.02248 3.20707 3.11614
# Velocity P-wave (km/s) = 4.58454 4.94394 4.76763
#
# Compressibility (1/GPa) = 0.05014720
#
# Stress axis : x y z
#
# Youngs Moduli (GPa) = 43.32908 48.53234 40.50053
#
# Poissons Ratio (x) = 0.15631 0.02155
# Poissons Ratio (y) = 0.13955 0.21713
# Poissons Ratio (z) = 0.02306 0.26019
#
# Static dielectric constant tensor:
#      x y z
#    x 1.801850 0.000000 -0.010080 
#    y 0.000000 1.868140 0.000000 
#    z -0.010080 0.000000 1.887380 
# 
# From -- ./inp_files/19835.got.cif
#   From: 2010.05.17/outbox.cif.g08.bks.cpg/sg14_10_cif.got.tgz:19835.got - 2010.06.03 17:49:19.
