data_PCOD9239486
_publ_section_title
;
Structure prediction by ZEFSAII (Michael W. Deem and Ramdas Pophale) SiO2 
 PCOD9239486
Probable space group: P 21/C
;
_chemical_formula_sum "Si O2"
_cell_formula_units_Z 32
_cell_length_a 14.117516
_cell_length_b 8.730950
_cell_length_c 13.014377
_cell_angle_alpha 90.000000
_cell_angle_beta 123.049270
_cell_angle_gamma 90.000000
_cell_volume 1344.596013
_symmetry_space_group_name_H-M "P 21/C"
_symmetry_group_IT_number 14
_symmetry_cell_setting 'monoclinic'
loop_
_space_group_symop_operation_xyz
x,y,z
-x,1/2+y,1/2-z
-x,-y,-z
x,1/2-y,1/2+z
loop_
_atom_site_type_symbol
_atom_site_label
_atom_site_fract_x
_atom_site_fract_y
_atom_site_fract_z
Si Si1 0.784007 0.792793 0.527390
Si Si2 0.067414 0.466742 0.309564
Si Si3 0.718963 0.797453 0.723759
Si Si4 0.279376 0.834384 0.937469
Si Si5 0.974449 0.840922 0.930408
Si Si6 0.607332 0.945774 0.833687
Si Si7 0.124140 0.897043 0.462111
Si Si8 0.409835 0.971487 0.854906
O O1 0.894504 0.682449 0.603152
O O2 0.746034 0.834118 0.621127
O O3 0.679151 0.696238 0.422381
O O4 0.817174 0.942497 0.482885
O O5 0.187339 0.537316 0.353389
O O6 0.005279 0.600794 0.333971
O O7 0.989530 0.429054 0.168968
O O8 0.842950 0.799474 0.850728
O O9 0.640514 0.923951 0.734555
O O10 0.658706 0.630995 0.695094
O O11 0.212377 0.691763 0.941847
O O12 0.345564 0.827660 0.869108
O O13 0.346475 0.907027 0.075217
O O14 0.070528 0.715458 0.015898
O O15 0.000000 0.000000 0.000000
O O16 0.477222 0.934674 0.790690
O O17 0.500000 0.000000 0.000000
#
# Coordination Sequence:
#
# PCOD9239486 Si02
#       8
#     4   4   4   4   4   4   4   4
#     4  11  20  38  62  92 128 170 217 274 330 394
#     4  10  17  34  57  88 123 164 207 247 320 406
#     4  12  20  39  68  93 126 173 223 276 334 402
#     4   9  18  36  60  84 118 165 205 256 333 396
#     4  11  22  37  63  95 134 176 213 264 341 409
#     4  10  23  41  63  89 122 168 222 275 337 398
#     4  11  19  33  58  91 126 159 210 264 316 394
#     4  10  19  41  68  85 116 172 220 274 341 397
#
# _framework density 23.798970000000001
#
# number of rings (size 3 to 8) (size 9 to 14) (size 15 to 20)
#    0.000    1.500    6.250    3.000    0.000    0.000 
#    2.250    6.875    0.000    0.000    0.000    0.000 
#    0.000    0.000    0.000    0.000    0.000    0.000 
#
# Total GULP energy -178547.392168 kJ/mol
# GULP energy per Si atom -5579.606005 kJ/mol
# Density = 2.374480 g / cm^3
# Si number density = 23.798970 Si / 1000 Ang^3
#
#
#
# Elastic Constant Matrix: (Units=GPa)
#
#
# Indices 1 2 3 4 5 6 
#
# 1 131.7800 33.7856 -4.0605 0.0000 -4.5974 0.0000
# 2 33.7856 103.8130 5.8222 0.0000 7.0896 0.0000
# 3 -4.0605 5.8222 43.0807 0.0000 1.4598 0.0000
# 4 0.0000 0.0000 0.0000 14.1265 0.0000 -11.1273
# 5 -4.5974 7.0896 1.4598 0.0000 25.3224 0.0000
# 6 0.0000 0.0000 0.0000 -11.1273 0.0000 25.0595
#
#
#
# Elastic Compliance Matrix: (Units=1/GPa)
#
#
# Indices 1 2 3 4 5 6 
#
# 1 0.008466 -0.002976 0.001122 0.000000 0.002306 0.000000
# 2 -0.002976 0.010933 -0.001639 0.000000 -0.003507 0.000000
# 3 0.001122 -0.001639 0.023563 0.000000 -0.000696 0.000000
# 4 0.000000 0.000000 0.000000 0.108866 0.000000 0.048340
# 5 0.002306 -0.003507 -0.000696 0.000000 0.040931 0.000000
# 6 0.000000 0.000000 0.000000 0.048340 0.000000 0.061370
#
#
# Mechanical properties :
#
#
# Convention : Reuss Voigt Hill
#
# Bulk Modulus (GPa) = 27.79610 38.86314 33.32962
# Shear Modulus (GPa) = 18.30788 29.11011 23.70900
#
# Velocity S-wave (km/s) = 2.77658 3.50117 3.15972
# Velocity P-wave (km/s) = 4.68872 5.71922 5.22942
#
# Compressibility (1/GPa) = 0.03597627
#
# Stress axis : x y z
#
# Youngs Moduli (GPa) = 118.11510 91.47005 42.43923
#
# Poissons Ratio (x) = 0.27219 -0.04762
# Poissons Ratio (y) = 0.35148 0.06956
# Poissons Ratio (z) = -0.13253 0.14993
#
# Static dielectric constant tensor:
#      x y z
#    x 2.050930 0.000000 -0.075580 
#    y 0.000000 1.970280 0.000000 
#    z -0.075580 0.000000 1.965320 
# 
# From -- ./inp_files/46510.got.cif
#   From: 2010.05.17/outbox.cif.g08.bks.cpg/sg14_24_cif.got.tgz:46510.got - 2010.06.03 17:49:19.
