data_PCOD9239226
_publ_section_title
;
Structure prediction by ZEFSAII (Michael W. Deem and Ramdas Pophale) SiO2 
 PCOD9239226
Probable space group: P 21/C
;
_chemical_formula_sum "Si O2"
_cell_formula_units_Z 26
_cell_length_a 11.712083
_cell_length_b 6.709350
_cell_length_c 18.123448
_cell_angle_alpha 90.000000
_cell_angle_beta 141.407791
_cell_angle_gamma 90.000000
_cell_volume 888.346123
_symmetry_space_group_name_H-M "P 21/C"
_symmetry_group_IT_number 14
_symmetry_cell_setting 'monoclinic'
loop_
_space_group_symop_operation_xyz
x,y,z
-x,1/2+y,1/2-z
-x,-y,-z
x,1/2-y,1/2+z
loop_
_atom_site_type_symbol
_atom_site_label
_atom_site_fract_x
_atom_site_fract_y
_atom_site_fract_z
Si Si1 0.279702 0.018325 0.875399
Si Si2 0.701353 0.408325 0.461772
Si Si3 0.290449 0.147207 0.726229
Si Si4 0.000000 0.500000 0.500000
Si Si5 0.632124 0.626313 0.899097
Si Si6 0.282390 0.476478 0.906574
Si Si7 0.202343 0.592431 0.712433
O O1 0.235291 0.998184 0.765319
O O2 0.231749 0.249141 0.862626
O O3 0.212437 0.894555 0.912320
O O4 0.500000 0.000000 0.000000
O O5 0.502709 0.302972 0.353941
O O6 0.830577 0.381916 0.458212
O O7 0.650861 0.641710 0.427668
O O8 0.303625 0.071133 0.650036
O O9 0.177951 0.357336 0.666731
O O10 0.975057 0.333283 0.418256
O O11 0.411413 0.616487 0.795449
O O12 0.735572 0.503003 0.015227
O O13 0.190455 0.597608 0.794178
O O14 0.500000 0.500000 0.000000
#
# Coordination Sequence:
#
# PCOD9239226 Si02
#       7
#     4   4   4   2   4   4   4
#     4   8  16  28  48  74 103 128 169 217 255 298
#     4  10  20  32  54  81 107 140 179 223 267 315
#     4  10  16  32  54  83 100 139 183 220 256 312
#     4  12  20  32  52  82 110 138 176 218 276 324
#     4  10  16  32  54  83 100 139 183 220 256 312
#     4   8  16  28  48  74 103 128 169 217 255 298
#     4  10  20  32  54  81 107 140 179 223 267 315
#
# _framework density 29.267872000000001
#
# number of rings (size 3 to 8) (size 9 to 14) (size 15 to 20)
#    0.000    2.462    3.077    0.000    0.000    0.000 
#    0.000    0.000    0.000   59.077    0.000    0.000 
#    0.000    0.000    0.000    0.000    0.000    0.000 
#
# Total GULP energy -145050.752311 kJ/mol
# GULP energy per Si atom -5578.875089 kJ/mol
# Density = 2.920126 g / cm^3
# Si number density = 29.267872 Si / 1000 Ang^3
#
#
#
# Elastic Constant Matrix: (Units=GPa)
#
#
# Indices 1 2 3 4 5 6 
#
# 1 112.8826 23.6326 65.7307 0.0000 -37.0180 0.0000
# 2 23.6326 67.3577 1.3761 0.0000 1.5234 0.0000
# 3 65.7307 1.3761 138.2339 0.0000 -43.3643 0.0000
# 4 0.0000 0.0000 0.0000 32.8690 0.0000 -13.5700
# 5 -37.0180 1.5234 -43.3643 0.0000 88.3127 0.0000
# 6 0.0000 0.0000 0.0000 -13.5700 0.0000 31.5414
#
#
#
# Elastic Compliance Matrix: (Units=1/GPa)
#
#
# Indices 1 2 3 4 5 6 
#
# 1 0.014309 -0.004977 -0.005728 0.000000 0.003271 0.000000
# 2 -0.004977 0.016592 0.001723 0.000000 -0.001527 0.000000
# 3 -0.005728 0.001723 0.010849 0.000000 0.002897 0.000000
# 4 0.000000 0.000000 0.000000 0.036995 0.000000 0.015916
# 5 0.003271 -0.001527 0.002897 0.000000 0.014143 0.000000
# 6 0.000000 0.000000 0.000000 0.015916 0.000000 0.038552
#
#
# Mechanical properties :
#
#
# Convention : Reuss Voigt Hill
#
# Bulk Modulus (GPa) = 42.04462 55.55033 48.79747
# Shear Modulus (GPa) = 31.77948 45.72694 38.75321
#
# Velocity S-wave (km/s) = 3.29874 3.95696 3.64275
# Velocity P-wave (km/s) = 5.37639 6.31648 5.86530
#
# Compressibility (1/GPa) = 0.02378426
#
# Stress axis : x y z
#
# Youngs Moduli (GPa) = 69.88605 60.27093 92.17043
#
# Poissons Ratio (x) = 0.29999 0.52798
# Poissons Ratio (y) = 0.34784 -0.15878
# Poissons Ratio (z) = 0.40033 -0.10383
#
# Static dielectric constant tensor:
#      x y z
#    x 2.221600 0.000000 -0.100510 
#    y 0.000000 2.551860 0.000000 
#    z -0.100510 0.000000 1.872160 
# 
# From -- ./inp_files/57149.got.cif
#   From: 2010.05.17/outbox.cif.g08.bks.cpg/sg14_29_cif.got.tgz:57149.got - 2010.06.03 17:49:19.
