data_PCOD9239246
_publ_section_title
;
Structure prediction by ZEFSAII (Michael W. Deem and Ramdas Pophale) SiO2 
 PCOD9239246
Probable space group: P 21/C
;
_chemical_formula_sum "Si O2"
_cell_formula_units_Z 28
_cell_length_a 9.702335
_cell_length_b 21.219045
_cell_length_c 8.165595
_cell_angle_alpha 90.000000
_cell_angle_beta 133.834629
_cell_angle_gamma 90.000000
_cell_volume 1212.637565
_symmetry_space_group_name_H-M "P 21/C"
_symmetry_group_IT_number 14
_symmetry_cell_setting 'monoclinic'
loop_
_space_group_symop_operation_xyz
x,y,z
-x,1/2+y,1/2-z
-x,-y,-z
x,1/2-y,1/2+z
loop_
_atom_site_type_symbol
_atom_site_label
_atom_site_fract_x
_atom_site_fract_y
_atom_site_fract_z
Si Si1 0.076330 0.170670 0.740766
Si Si2 0.103401 0.424165 0.815182
Si Si3 0.374077 0.097055 0.814469
Si Si4 0.872576 0.270426 0.766579
Si Si5 0.196873 0.936476 0.348809
Si Si6 0.775520 0.153548 0.890925
Si Si7 0.744215 0.456904 0.731594
O O1 0.286649 0.151509 0.855149
O O2 0.048991 0.234646 0.821112
O O3 0.951608 0.185218 0.474725
O O4 0.979149 0.111144 0.753170
O O5 0.987740 0.374932 0.610474
O O6 0.953636 0.443010 0.836408
O O7 0.148348 0.490991 0.768002
O O8 0.285364 0.396777 0.060332
O O9 0.294833 0.030709 0.820256
O O10 0.597164 0.082872 0.002209
O O11 0.765505 0.211389 0.756109
O O12 0.742648 0.307331 0.531199
O O13 0.305018 0.904195 0.285366
O O14 0.292582 0.941430 0.607810
#
# Coordination Sequence:
#
# PCOD9239246 Si02
#       7
#     4   4   4   4   4   4   4
#     4  10  16  33  53  77 103 141 183 222 265 319
#     4  11  18  34  55  84 112 140 177 223 272 327
#     4  10  18  31  56  79 110 146 173 215 270 325
#     4   9  19  30  52  83  98 142 194 219 263 319
#     4  10  18  31  54  82 112 142 172 223 277 325
#     4  10  19  31  55  79 106 140 185 225 266 320
#     4  10  19  31  55  83 113 139 176 211 275 335
#
# _framework density 23.090164000000001
#
# number of rings (size 3 to 8) (size 9 to 14) (size 15 to 20)
#    0.000    2.000    4.286    1.286    0.000    0.000 
#    0.000    0.000    6.286   17.143    0.000    0.000 
#    0.000    0.000    0.000    0.000    0.000    0.000 
#
# Total GULP energy -155989.028812 kJ/mol
# GULP energy per Si atom -5571.036743 kJ/mol
# Density = 2.303761 g / cm^3
# Si number density = 23.090164 Si / 1000 Ang^3
#
#
#
# Elastic Constant Matrix: (Units=GPa)
#
#
# Indices 1 2 3 4 5 6 
#
# 1 40.3869 2.8466 4.0226 0.0000 -8.4222 0.0000
# 2 2.8466 101.8032 -12.1925 0.0000 -13.5313 0.0000
# 3 4.0226 -12.1925 54.2953 0.0000 -20.3596 0.0000
# 4 0.0000 0.0000 0.0000 33.6569 0.0000 -13.9697
# 5 -8.4222 -13.5313 -20.3596 0.0000 33.5107 0.0000
# 6 0.0000 0.0000 0.0000 -13.9697 0.0000 27.8816
#
#
#
# Elastic Compliance Matrix: (Units=1/GPa)
#
#
# Indices 1 2 3 4 5 6 
#
# 1 0.026159 0.000329 0.000843 0.000000 0.007220 0.000000
# 2 0.000329 0.011578 0.005646 0.000000 0.008188 0.000000
# 3 0.000843 0.005646 0.026623 0.000000 0.018666 0.000000
# 4 0.000000 0.000000 0.000000 0.037513 0.000000 0.018795
# 5 0.007220 0.008188 0.018666 0.000000 0.046303 0.000000
# 6 0.000000 0.000000 0.000000 0.018795 0.000000 0.045283
#
#
# Mechanical properties :
#
#
# Convention : Reuss Voigt Hill
#
# Bulk Modulus (GPa) = 12.82118 20.64875 16.73497
# Shear Modulus (GPa) = 24.29298 32.46377 28.37837
#
# Velocity S-wave (km/s) = 3.24712 3.75368 3.50955
# Velocity P-wave (km/s) = 4.42979 5.26772 4.86682
#
# Compressibility (1/GPa) = 0.07799596
#
# Stress axis : x y z
#
# Youngs Moduli (GPa) = 38.22797 86.36925 37.56195
#
# Poissons Ratio (x) = -0.02843 -0.03167
# Poissons Ratio (y) = -0.01258 -0.21207
# Poissons Ratio (z) = -0.03223 -0.48764
#
# Static dielectric constant tensor:
#      x y z
#    x 1.973450 0.000000 -0.039410 
#    y 0.000000 1.908970 0.000000 
#    z -0.039410 0.000000 1.871510 
# 
# From -- ./inp_files/14352.got.cif
#   From: 2010.05.17/outbox.cif.g08.bks.cpg/sg14_8_cif.got.tgz:14352.got - 2010.06.03 17:49:19.
