data_PCOD9239520
_publ_section_title
;
Structure prediction by ZEFSAII (Michael W. Deem and Ramdas Pophale) SiO2 
 PCOD9239520
Probable space group: P 21/C
;
_chemical_formula_sum "Si O2"
_cell_formula_units_Z 32
_cell_length_a 17.311700
_cell_length_b 5.188101
_cell_length_c 22.229092
_cell_angle_alpha 90.000000
_cell_angle_beta 52.995591
_cell_angle_gamma 90.000000
_cell_volume 1594.385345
_symmetry_space_group_name_H-M "P 21/C"
_symmetry_group_IT_number 14
_symmetry_cell_setting 'monoclinic'
loop_
_space_group_symop_operation_xyz
x,y,z
-x,1/2+y,1/2-z
-x,-y,-z
x,1/2-y,1/2+z
loop_
_atom_site_type_symbol
_atom_site_label
_atom_site_fract_x
_atom_site_fract_y
_atom_site_fract_z
Si Si1 0.683502 0.799484 0.542425
Si Si2 0.004193 0.701130 0.869932
Si Si3 0.558285 0.789210 0.205390
Si Si4 0.229242 0.176773 0.839826
Si Si5 0.120816 0.295952 0.273107
Si Si6 0.885778 0.321133 0.066056
Si Si7 0.196093 0.803230 0.010239
Si Si8 0.184168 0.167905 0.109639
O O1 0.583463 0.763792 0.623272
O O2 0.750713 0.566063 0.535637
O O3 0.707937 0.756493 0.460425
O O4 0.727381 0.077445 0.535387
O O5 0.055558 0.445507 0.822653
O O6 0.022561 0.715232 0.933258
O O7 0.894504 0.703153 0.898607
O O8 0.058697 0.944690 0.813386
O O9 0.489452 0.565440 0.262129
O O10 0.661188 0.778216 0.191480
O O11 0.210557 0.198485 0.777120
O O12 0.161029 0.399783 0.900411
O O13 0.190133 0.893402 0.874829
O O14 0.154925 0.242337 0.189564
O O15 0.893208 0.255628 0.991824
O O16 0.176327 0.870831 0.089552
#
# Coordination Sequence:
#
# PCOD9239520 Si02
#       8
#     4   4   4   4   4   4   4   4
#     4  10  22  36  54  81 111 144 178 220 282 341
#     4  10  22  33  55  83 111 150 201 234 256 296
#     4  12  22  36  63  87 107 131 175 236 285 340
#     4  10  19  36  55  82 111 141 179 220 286 329
#     4  10  22  36  57  78 114 154 190 232 258 311
#     4  10  17  35  54  77 115 149 177 229 271 322
#     4  10  19  33  55  73 112 148 177 218 273 334
#     4  10  23  35  57  79 115 154 194 221 268 316
#
# _framework density 20.070430000000002
#
# number of rings (size 3 to 8) (size 9 to 14) (size 15 to 20)
#    0.750    1.000    2.500    2.250    3.500    0.500 
#    0.000    0.625    0.000    1.500    0.000    0.000 
#    0.000    0.000    0.000    0.000    0.000    0.000 
#
# Total GULP energy -178455.032996 kJ/mol
# GULP energy per Si atom -5576.719781 kJ/mol
# Density = 2.002475 g / cm^3
# Si number density = 20.070430 Si / 1000 Ang^3
#
#
#
# Elastic Constant Matrix: (Units=GPa)
#
#
# Indices 1 2 3 4 5 6 
#
# 1 49.3298 5.8937 22.1917 0.0000 2.3435 0.0000
# 2 5.8937 110.2130 10.8575 0.0000 -0.1369 0.0000
# 3 22.1917 10.8575 89.5605 0.0000 14.6688 0.0000
# 4 0.0000 0.0000 0.0000 30.0302 0.0000 -7.8016
# 5 2.3435 -0.1369 14.6688 0.0000 28.1476 0.0000
# 6 0.0000 0.0000 0.0000 -7.8016 0.0000 25.3035
#
#
#
# Elastic Compliance Matrix: (Units=1/GPa)
#
#
# Indices 1 2 3 4 5 6 
#
# 1 0.022895 -0.000654 -0.005774 0.000000 0.001100 0.000000
# 2 -0.000654 0.009214 -0.001062 0.000000 0.000653 0.000000
# 3 -0.005774 -0.001062 0.013827 0.000000 -0.006730 0.000000
# 4 0.000000 0.000000 0.000000 0.036199 0.000000 0.011161
# 5 0.001100 0.000653 -0.006730 0.000000 0.038946 0.000000
# 6 0.000000 0.000000 0.000000 0.011161 0.000000 0.042961
#
#
# Mechanical properties :
#
#
# Convention : Reuss Voigt Hill
#
# Bulk Modulus (GPa) = 32.30326 36.33212 34.31769
# Shear Modulus (GPa) = 26.40731 30.70695 28.55713
#
# Velocity S-wave (km/s) = 3.63124 3.91571 3.77616
# Velocity P-wave (km/s) = 5.80612 6.21171 6.01234
#
# Compressibility (1/GPa) = 0.03095663
#
# Stress axis : x y z
#
# Youngs Moduli (GPa) = 43.67752 108.53363 72.32039
#
# Poissons Ratio (x) = 0.07100 0.41757
# Poissons Ratio (y) = 0.02857 0.07679
# Poissons Ratio (z) = 0.25219 0.11524
#
# Static dielectric constant tensor:
#      x y z
#    x 1.709820 0.000000 0.049730 
#    y 0.000000 1.764600 0.000000 
#    z 0.049730 0.000000 1.762570 
# 
# From -- ./inp_files/74037.got.cif
#   From: 2010.05.17/outbox.cif.g08.bks.cpg/sg14_38_cif.got.tgz:74037.got - 2010.06.03 17:49:19.
