data_PCOD9239346
_publ_section_title
;
Structure prediction by ZEFSAII (Michael W. Deem and Ramdas Pophale) SiO2 
 PCOD9239346
Probable space group: P 21/C
;
_chemical_formula_sum "Si O2"
_cell_formula_units_Z 28
_cell_length_a 10.282187
_cell_length_b 8.617447
_cell_length_c 13.106128
_cell_angle_alpha 90.000000
_cell_angle_beta 67.918119
_cell_angle_gamma 90.000000
_cell_volume 1076.101188
_symmetry_space_group_name_H-M "P 21/C"
_symmetry_group_IT_number 14
_symmetry_cell_setting 'monoclinic'
loop_
_space_group_symop_operation_xyz
x,y,z
-x,1/2+y,1/2-z
-x,-y,-z
x,1/2-y,1/2+z
loop_
_atom_site_type_symbol
_atom_site_label
_atom_site_fract_x
_atom_site_fract_y
_atom_site_fract_z
Si Si1 0.132621 0.335876 0.933001
Si Si2 0.539842 0.080156 0.880480
Si Si3 0.378290 0.897129 0.581168
Si Si4 0.135571 0.370004 0.179632
Si Si5 0.249951 0.002676 0.899375
Si Si6 0.157475 0.015245 0.165573
Si Si7 0.186793 0.673296 0.948710
O O1 0.137339 0.349531 0.055848
O O2 0.968065 0.328560 0.956916
O O3 0.197926 0.172175 0.879452
O O4 0.195844 0.505911 0.891302
O O5 0.537454 0.266082 0.882235
O O6 0.419136 0.012291 0.844450
O O7 0.703741 0.053263 0.825621
O O8 0.500000 0.000000 0.000000
O O9 0.299068 0.819828 0.507276
O O10 0.500000 0.000000 0.500000
O O11 0.261383 0.008790 0.666633
O O12 0.152691 0.191833 0.204882
O O13 0.987828 0.434846 0.262252
O O14 0.200569 0.831290 0.879042
O O15 0.187372 0.005525 0.034849
#
# Coordination Sequence:
#
# PCOD9239346 Si02
#       7
#     4   4   4   4   4   4   4
#     4   9  20  33  48  83 100 140 178 212 253 327
#     4  10  17  30  48  77 104 128 166 217 262 310
#     4  11  19  31  52  80 106 132 173 219 267 310
#     4  10  21  32  51  76 107 138 173 222 264 318
#     4  10  19  33  54  80 107 133 178 222 264 313
#     4  10  19  32  48  77 106 134 173 217 275 314
#     4  10  18  32  54  72 112 136 170 216 269 301
#
# _framework density 26.019860000000001
#
# number of rings (size 3 to 8) (size 9 to 14) (size 15 to 20)
#    0.000    2.000    2.857    4.714    2.000    0.000 
#    0.000    0.000    0.000    0.000   26.000    0.000 
#    0.000    0.000    0.000    0.000    0.000    0.000 
#
# Total GULP energy -156626.792998 kJ/mol
# GULP energy per Si atom -5593.814036 kJ/mol
# Density = 2.596064 g / cm^3
# Si number density = 26.019860 Si / 1000 Ang^3
#
#
#
# Elastic Constant Matrix: (Units=GPa)
#
#
# Indices 1 2 3 4 5 6 
#
# 1 58.1384 37.2986 2.4912 0.0000 -17.3999 0.0000
# 2 37.2986 257.0762 44.3069 0.0000 -19.3770 0.0000
# 3 2.4912 44.3069 75.6823 0.0000 -5.4566 0.0000
# 4 0.0000 0.0000 0.0000 31.6520 0.0000 -11.1025
# 5 -17.3999 -19.3770 -5.4566 0.0000 32.7366 0.0000
# 6 0.0000 0.0000 0.0000 -11.1025 0.0000 44.3310
#
#
#
# Elastic Compliance Matrix: (Units=1/GPa)
#
#
# Indices 1 2 3 4 5 6 
#
# 1 0.021947 -0.002679 0.001592 0.000000 0.010345 0.000000
# 2 -0.002679 0.004810 -0.002657 0.000000 0.000981 0.000000
# 3 0.001592 -0.002657 0.014842 0.000000 0.001747 0.000000
# 4 0.000000 0.000000 0.000000 0.034636 0.000000 0.008675
# 5 0.010345 0.000981 0.001747 0.000000 0.036917 0.000000
# 6 0.000000 0.000000 0.000000 0.008675 0.000000 0.024730
#
#
# Mechanical properties :
#
#
# Convention : Reuss Voigt Hill
#
# Bulk Modulus (GPa) = 29.31640 62.12116 45.71878
# Shear Modulus (GPa) = 31.89961 42.19727 37.04844
#
# Velocity S-wave (km/s) = 3.50519 4.03144 3.77749
# Velocity P-wave (km/s) = 5.26053 6.75251 6.05267
#
# Compressibility (1/GPa) = 0.03411060
#
# Stress axis : x y z
#
# Youngs Moduli (GPa) = 45.56498 207.88039 67.37468
#
# Poissons Ratio (x) = 0.55687 -0.10724
# Poissons Ratio (y) = 0.12206 0.17904
# Poissons Ratio (z) = -0.07252 0.55241
#
# Static dielectric constant tensor:
#      x y z
#    x 2.058080 0.000000 0.089890 
#    y 0.000000 2.058270 0.000000 
#    z 0.089890 0.000000 2.023430 
# 
# From -- ./inp_files/56788.got.cif
#   From: 2010.05.17/outbox.cif.g08.bks.cpg/sg14_29_cif.got.tgz:56788.got - 2010.06.03 17:49:19.
