data_PCOD9239224
_publ_section_title
;
Structure prediction by ZEFSAII (Michael W. Deem and Ramdas Pophale) SiO2 
 PCOD9239224
Probable space group: P 21/C
;
_chemical_formula_sum "Si O2"
_cell_formula_units_Z 32
_cell_length_a 13.396524
_cell_length_b 11.860015
_cell_length_c 16.389461
_cell_angle_alpha 90.000000
_cell_angle_beta 134.616500
_cell_angle_gamma 90.000000
_cell_volume 1853.593711
_symmetry_space_group_name_H-M "P 21/C"
_symmetry_group_IT_number 14
_symmetry_cell_setting 'monoclinic'
loop_
_space_group_symop_operation_xyz
x,y,z
-x,1/2+y,1/2-z
-x,-y,-z
x,1/2-y,1/2+z
loop_
_atom_site_type_symbol
_atom_site_label
_atom_site_fract_x
_atom_site_fract_y
_atom_site_fract_z
Si Si1 0.467824 0.313177 0.977449
Si Si2 0.183090 0.035843 0.675730
Si Si3 0.322944 0.789741 0.139309
Si Si4 0.400869 0.035807 0.186744
Si Si5 0.118654 0.898702 0.475883
Si Si6 0.365654 0.253175 0.252356
Si Si7 0.404551 0.867091 0.837732
Si Si8 0.373810 0.503454 0.037489
O O1 0.361664 0.281871 0.844523
O O2 0.576520 0.400847 0.998131
O O3 0.537771 0.200988 0.052652
O O4 0.398074 0.382667 0.010856
O O5 0.275236 0.135718 0.689738
O O6 0.045280 0.089986 0.636702
O O7 0.138043 0.952812 0.576768
O O8 0.284066 0.957754 0.788214
O O9 0.470632 0.773871 0.176069
O O10 0.349287 0.728085 0.241463
O O11 0.308330 0.923779 0.135301
O O12 0.195052 0.722830 0.024162
O O13 0.321999 0.147637 0.171998
O O14 0.476191 0.065443 0.144757
O O15 0.525745 0.015894 0.325394
O O16 0.215961 0.972381 0.472655
#
# Coordination Sequence:
#
# PCOD9239224 Si02
#       8
#     4   4   4   4   4   4   4   4
#     4  10  20  29  52  80 107 132 173 217 258 309
#     4  10  20  34  52  77 107 135 176 213 267 312
#     4  10  16  32  53  78  99 133 179 215 261 298
#     4  10  17  30  55  77 103 129 172 225 253 294
#     4  10  19  34  56  75 100 141 175 217 257 315
#     4  10  19  33  49  79 107 136 168 219 262 309
#     4  10  18  29  52  81 104 133 170 224 258 306
#     4  10  17  33  51  78 104 138 176 208 256 313
#
# _framework density 17.263762
#
# number of rings (size 3 to 8) (size 9 to 14) (size 15 to 20)
#    0.000    2.000    7.500    0.000    1.750    0.500 
#    0.000    1.875    0.000    0.000    0.000    0.000 
#    0.000    0.000    0.000    0.000    0.000    0.000 
#
# Total GULP energy -178282.593304 kJ/mol
# GULP energy per Si atom -5571.331041 kJ/mol
# Density = 1.722447 g / cm^3
# Si number density = 17.263762 Si / 1000 Ang^3
#
#
#
# Elastic Constant Matrix: (Units=GPa)
#
#
# Indices 1 2 3 4 5 6 
#
# 1 59.4538 21.6019 22.1181 0.0000 19.3313 0.0000
# 2 21.6019 113.5946 25.1955 0.0000 25.1214 0.0000
# 3 22.1181 25.1955 27.6208 0.0000 14.0712 0.0000
# 4 0.0000 0.0000 0.0000 17.4393 0.0000 -2.0538
# 5 19.3313 25.1214 14.0712 0.0000 17.9076 0.0000
# 6 0.0000 0.0000 0.0000 -2.0538 0.0000 21.9902
#
#
#
# Elastic Compliance Matrix: (Units=1/GPa)
#
#
# Indices 1 2 3 4 5 6 
#
# 1 0.028659 0.002919 -0.012949 0.000000 -0.024858 0.000000
# 2 0.002919 0.013360 -0.005621 0.000000 -0.017476 0.000000
# 3 -0.012949 -0.005621 0.067639 0.000000 -0.031284 0.000000
# 4 0.000000 0.000000 0.000000 0.057980 0.000000 0.005415
# 5 -0.024858 -0.017476 -0.031284 0.000000 0.131774 0.000000
# 6 0.000000 0.000000 0.000000 0.005415 0.000000 0.045981
#
#
# Mechanical properties :
#
#
# Convention : Reuss Voigt Hill
#
# Bulk Modulus (GPa) = 12.76229 37.61114 25.18671
# Shear Modulus (GPa) = 12.41276 20.25100 16.33188
#
# Velocity S-wave (km/s) = 2.68434 3.42868 3.07908
# Velocity P-wave (km/s) = 4.12506 6.12437 5.22130
#
# Compressibility (1/GPa) = 0.07835587
#
# Stress axis : x y z
#
# Youngs Moduli (GPa) = 34.89342 74.85224 14.78438
#
# Poissons Ratio (x) = -0.21852 0.19144
# Poissons Ratio (y) = -0.10187 0.08311
# Poissons Ratio (z) = 0.45182 0.42078
#
# Static dielectric constant tensor:
#      x y z
#    x 1.599010 0.000000 -0.009410 
#    y 0.000000 1.631220 0.000000 
#    z -0.009410 0.000000 1.585790 
# 
# From -- ./inp_files/57573.got.cif
#   From: 2010.05.17/outbox.cif.g08.bks.cpg/sg14_29_cif.got.tgz:57573.got - 2010.06.03 17:49:19.
