data_PCOD9239381
_publ_section_title
;
Structure prediction by ZEFSAII (Michael W. Deem and Ramdas Pophale) SiO2 
 PCOD9239381
Probable space group: P 21/C
;
_chemical_formula_sum "Si O2"
_cell_formula_units_Z 24
_cell_length_a 10.499397
_cell_length_b 7.165159
_cell_length_c 20.156801
_cell_angle_alpha 90.000000
_cell_angle_beta 40.007511
_cell_angle_gamma 90.000000
_cell_volume 974.870963
_symmetry_space_group_name_H-M "P 21/C"
_symmetry_group_IT_number 14
_symmetry_cell_setting 'monoclinic'
loop_
_space_group_symop_operation_xyz
x,y,z
-x,1/2+y,1/2-z
-x,-y,-z
x,1/2-y,1/2+z
loop_
_atom_site_type_symbol
_atom_site_label
_atom_site_fract_x
_atom_site_fract_y
_atom_site_fract_z
Si Si1 0.081522 0.956990 0.119380
Si Si2 0.511729 0.971172 0.155645
Si Si3 0.170260 0.721526 0.717573
Si Si4 0.507297 0.153398 0.593979
Si Si5 0.768833 0.843768 0.425356
Si Si6 0.269846 0.207355 0.813131
O O1 0.177043 0.823759 0.136988
O O2 0.210635 0.139981 0.049530
O O3 0.914770 0.077137 0.229131
O O4 0.955503 0.843438 0.115678
O O5 0.377819 0.833421 0.165716
O O6 0.664671 0.870137 0.142480
O O7 0.347676 0.082665 0.267976
O O8 0.594953 0.144703 0.078889
O O9 0.994762 0.597768 0.820081
O O10 0.658268 0.996853 0.511814
O O11 0.353001 0.183615 0.594819
O O12 0.399832 0.100648 0.705201
#
# Coordination Sequence:
#
# PCOD9239381 Si02
#       6
#     4   4   4   4   4   4
#     4  10  17  31  52  80  98 136 174 212 250 306
#     4  10  19  33  52  78 102 137 174 211 254 311
#     4  10  17  31  52  80  98 136 174 212 250 306
#     4   9  18  33  53  81 104 135 172 212 259 309
#     4   9  18  31  57  79 104 132 175 214 255 312
#     4  10  19  33  52  78 102 137 174 211 254 311
#
# _framework density 24.618642999999999
#
# number of rings (size 3 to 8) (size 9 to 14) (size 15 to 20)
#    2.000    0.333    3.333    2.000    0.000    0.000 
#    0.000    3.333    0.000   12.000    0.000    0.000 
#    0.000    0.000    0.000    0.000    0.000    0.000 
#
# Total GULP energy -133984.891359 kJ/mol
# GULP energy per Si atom -5582.703807 kJ/mol
# Density = 2.456261 g / cm^3
# Si number density = 24.618643 Si / 1000 Ang^3
#
#
#
# Elastic Constant Matrix: (Units=GPa)
#
#
# Indices 1 2 3 4 5 6 
#
# 1 170.9203 33.4800 27.4746 0.0000 -6.9298 0.0000
# 2 33.4800 88.6705 10.8845 0.0000 -3.1518 0.0000
# 3 27.4746 10.8845 63.5324 0.0000 -1.4461 0.0000
# 4 0.0000 0.0000 0.0000 41.2375 0.0000 -1.1274
# 5 -6.9298 -3.1518 -1.4461 0.0000 33.9785 0.0000
# 6 0.0000 0.0000 0.0000 -1.1274 0.0000 23.7394
#
#
#
# Elastic Compliance Matrix: (Units=1/GPa)
#
#
# Indices 1 2 3 4 5 6 
#
# 1 0.006727 -0.002194 -0.002509 0.000000 0.001062 0.000000
# 2 -0.002194 0.012269 -0.001138 0.000000 0.000642 0.000000
# 3 -0.002509 -0.001138 0.017022 0.000000 0.000107 0.000000
# 4 0.000000 0.000000 0.000000 0.024281 0.000000 0.001153
# 5 0.001062 0.000642 0.000107 0.000000 0.029711 0.000000
# 6 0.000000 0.000000 0.000000 0.001153 0.000000 0.042179
#
#
# Mechanical properties :
#
#
# Convention : Reuss Voigt Hill
#
# Bulk Modulus (GPa) = 41.09313 51.86680 46.47997
# Shear Modulus (GPa) = 32.89822 36.54335 34.72078
#
# Velocity S-wave (km/s) = 3.65953 3.85694 3.75953
# Velocity P-wave (km/s) = 5.88084 6.39910 6.14544
#
# Compressibility (1/GPa) = 0.02433497
#
# Stress axis : x y z
#
# Youngs Moduli (GPa) = 148.65872 81.50787 58.74589
#
# Poissons Ratio (x) = 0.17884 0.14739
# Poissons Ratio (y) = 0.32618 0.06688
# Poissons Ratio (z) = 0.37297 0.09279
#
# Static dielectric constant tensor:
#      x y z
#    x 1.865240 0.000000 -0.017860 
#    y 0.000000 1.976660 0.000000 
#    z -0.017860 0.000000 2.185420 
# 
# From -- ./inp_files/71880.got.cif
#   From: 2010.05.17/outbox.cif.g08.bks.cpg/sg14_36_cif.got.tgz:71880.got - 2010.06.03 17:49:19.
