data_PCOD9239330
_publ_section_title
;
Structure prediction by ZEFSAII (Michael W. Deem and Ramdas Pophale) SiO2 
 PCOD9239330
Probable space group: P 21/C
;
_chemical_formula_sum "Si O2"
_cell_formula_units_Z 32
_cell_length_a 11.429902
_cell_length_b 8.652177
_cell_length_c 19.482024
_cell_angle_alpha 90.000000
_cell_angle_beta 126.976138
_cell_angle_gamma 90.000000
_cell_volume 1539.170849
_symmetry_space_group_name_H-M "P 21/C"
_symmetry_group_IT_number 14
_symmetry_cell_setting 'monoclinic'
loop_
_space_group_symop_operation_xyz
x,y,z
-x,1/2+y,1/2-z
-x,-y,-z
x,1/2-y,1/2+z
loop_
_atom_site_type_symbol
_atom_site_label
_atom_site_fract_x
_atom_site_fract_y
_atom_site_fract_z
Si Si1 0.754455 0.029336 0.572086
Si Si2 0.991957 0.752575 0.781303
Si Si3 0.236368 0.020618 0.737983
Si Si4 0.382198 0.297500 0.724158
Si Si5 0.609036 0.239220 0.685340
Si Si6 0.469846 0.058829 0.399591
Si Si7 0.133251 0.515421 0.665105
Si Si8 0.990193 0.689651 0.116854
O O1 0.865400 0.156366 0.642935
O O2 0.620810 0.111288 0.486080
O O3 0.672715 0.928569 0.602308
O O4 0.845423 0.912125 0.555872
O O5 0.858984 0.636914 0.750906
O O6 0.995721 0.787414 0.702063
O O7 0.954337 0.906830 0.811904
O O8 0.337973 0.123238 0.726129
O O9 0.320914 0.898102 0.815126
O O10 0.127300 0.922356 0.651413
O O11 0.504546 0.291752 0.709942
O O12 0.444577 0.365872 0.817296
O O13 0.235222 0.398441 0.657156
O O14 0.742880 0.128143 0.757261
O O15 0.518626 0.127603 0.604578
O O16 0.020115 0.642254 0.595096
#
# Coordination Sequence:
#
# PCOD9239330 Si02
#       8
#     4   4   4   4   4   4   4   4
#     4  10  20  35  54  78 110 137 160 214 274 318
#     4  10  17  29  51  76 103 133 170 211 253 304
#     4   9  17  27  47  74  95 124 172 212 244 289
#     4  10  18  32  53  76 103 135 175 216 248 295
#     4  10  18  32  53  76 103 135 175 216 248 295
#     4  10  21  35  52  79 109 136 169 207 270 323
#     4   9  18  29  49  77  98 127 177 217 246 291
#     4  10  17  29  51  76 103 133 170 211 253 304
#
# _framework density 20.790413999999998
#
# number of rings (size 3 to 8) (size 9 to 14) (size 15 to 20)
#    0.000    2.250    0.000    7.500    0.000    0.000 
#    0.000    1.250    0.000   33.000    0.000    0.000 
#    0.000    0.000    0.000    0.000    0.000    0.000 
#
# Total GULP energy -178333.310450 kJ/mol
# GULP energy per Si atom -5572.915952 kJ/mol
# Density = 2.074309 g / cm^3
# Si number density = 20.790414 Si / 1000 Ang^3
#
#
#
# Elastic Constant Matrix: (Units=GPa)
#
#
# Indices 1 2 3 4 5 6 
#
# 1 77.5204 28.0953 25.1731 0.0000 16.6833 0.0000
# 2 28.0953 114.5133 5.7231 0.0000 11.8004 0.0000
# 3 25.1731 5.7231 28.1231 0.0000 17.9638 0.0000
# 4 0.0000 0.0000 0.0000 12.5406 0.0000 4.4608
# 5 16.6833 11.8004 17.9638 0.0000 18.3935 0.0000
# 6 0.0000 0.0000 0.0000 4.4608 0.0000 32.3347
#
#
#
# Elastic Compliance Matrix: (Units=1/GPa)
#
#
# Indices 1 2 3 4 5 6 
#
# 1 0.019937 -0.004277 -0.019080 0.000000 0.003295 0.000000
# 2 -0.004277 0.010555 0.009379 0.000000 -0.012052 0.000000
# 3 -0.019080 0.009379 0.115686 0.000000 -0.101694 0.000000
# 4 0.000000 0.000000 0.000000 0.083856 0.000000 -0.011568
# 5 0.003295 -0.012052 -0.101694 0.000000 0.158429 0.000000
# 6 0.000000 0.000000 0.000000 -0.011568 0.000000 0.032522
#
#
# Mechanical properties :
#
#
# Convention : Reuss Voigt Hill
#
# Bulk Modulus (GPa) = 8.45873 37.57110 23.01491
# Shear Modulus (GPa) = 10.23860 23.39813 16.81837
#
# Velocity S-wave (km/s) = 2.22157 3.35838 2.84729
# Velocity P-wave (km/s) = 3.26464 5.75751 4.68011
#
# Compressibility (1/GPa) = 0.11822110
#
# Stress axis : x y z
#
# Youngs Moduli (GPa) = 50.15896 94.73986 8.64410
#
# Poissons Ratio (x) = 0.40524 0.16493
# Poissons Ratio (y) = 0.21455 -0.08107
# Poissons Ratio (z) = 0.95702 -0.88855
#
# Static dielectric constant tensor:
#      x y z
#    x 1.787740 0.000000 0.025390 
#    y 0.000000 1.791610 0.000000 
#    z 0.025390 0.000000 1.763200 
# 
# From -- ./inp_files/67045.got.cif
#   From: 2010.05.17/outbox.cif.g08.bks.cpg/sg14_34_cif.got.tgz:67045.got - 2010.06.03 17:49:19.
