data_PCOD9239648
_publ_section_title
;
Structure prediction by ZEFSAII (Michael W. Deem and Ramdas Pophale) SiO2 
 PCOD9239648
Probable space group: P 21/C
;
_chemical_formula_sum "Si O2"
_cell_formula_units_Z 32
_cell_length_a 11.692347
_cell_length_b 8.002719
_cell_length_c 21.222100
_cell_angle_alpha 90.000000
_cell_angle_beta 140.504046
_cell_angle_gamma 90.000000
_cell_volume 1262.992988
_symmetry_space_group_name_H-M "P 21/C"
_symmetry_group_IT_number 14
_symmetry_cell_setting 'monoclinic'
loop_
_space_group_symop_operation_xyz
x,y,z
-x,1/2+y,1/2-z
-x,-y,-z
x,1/2-y,1/2+z
loop_
_atom_site_type_symbol
_atom_site_label
_atom_site_fract_x
_atom_site_fract_y
_atom_site_fract_z
Si Si1 0.963053 0.248904 0.885818
Si Si2 0.788129 0.903536 0.793342
Si Si3 0.357663 0.114451 0.021188
Si Si4 0.717951 0.742210 0.638008
Si Si5 0.186450 0.761183 0.939876
Si Si6 0.999550 0.003385 0.294642
Si Si7 0.450087 0.466186 0.693471
Si Si8 0.734821 0.173607 0.397288
O O1 0.945683 0.414986 0.837705
O O2 0.918591 0.286366 0.939108
O O3 0.162905 0.181983 0.960202
O O4 0.827163 0.102882 0.803931
O O5 0.671977 0.818626 0.687220
O O6 0.694763 0.880662 0.821135
O O7 0.988242 0.827478 0.875475
O O8 0.400782 0.218532 0.975791
O O9 0.319758 0.917695 0.990743
O O10 0.472599 0.116842 0.134263
O O11 0.815758 0.563589 0.687463
O O12 0.886734 0.859766 0.692709
O O13 0.143367 0.646215 0.862737
O O14 0.246452 0.638894 0.021689
O O15 0.374582 0.651713 0.652293
O O16 0.629878 0.458953 0.810788
#
# Coordination Sequence:
#
# PCOD9239648 Si02
#       8
#     4   4   4   4   4   4   4   4
#     4   9  18  32  53  79 106 134 172 216 259 305
#     4   9  18  34  54  77 106 139 174 211 259 312
#     4   9  18  34  54  77 106 139 174 211 259 312
#     4  10  18  30  52  78 108 138 170 210 260 308
#     4   9  18  32  53  79 106 134 172 216 259 305
#     4  10  18  29  50  79 106 132 168 218 258 304
#     4  10  21  35  54  76 104 141 177 216 260 308
#     4  10  21  36  54  76 106 140 175 216 262 308
#
# _framework density 25.336642999999999
#
# number of rings (size 3 to 8) (size 9 to 14) (size 15 to 20)
#    0.000    2.500    0.000    3.750    0.000    7.500 
#    0.000    0.000    0.000   19.500    0.000    0.000 
#    0.000    0.000    0.000    0.000    0.000    0.000 
#
# Total GULP energy -178749.681819 kJ/mol
# GULP energy per Si atom -5585.927557 kJ/mol
# Density = 2.527898 g / cm^3
# Si number density = 25.336643 Si / 1000 Ang^3
#
#
#
# Elastic Constant Matrix: (Units=GPa)
#
#
# Indices 1 2 3 4 5 6 
#
# 1 61.8290 -3.9302 10.5538 0.0000 1.8709 0.0000
# 2 -3.9302 47.2920 11.4726 0.0000 -9.3075 0.0000
# 3 10.5538 11.4726 86.7761 0.0000 -30.6300 0.0000
# 4 0.0000 0.0000 0.0000 27.7404 0.0000 -0.3304
# 5 1.8709 -9.3075 -30.6300 0.0000 28.1563 0.0000
# 6 0.0000 0.0000 0.0000 -0.3304 0.0000 24.2804
#
#
#
# Elastic Compliance Matrix: (Units=1/GPa)
#
#
# Indices 1 2 3 4 5 6 
#
# 1 0.017111 0.001405 -0.004065 0.000000 -0.005095 0.000000
# 2 0.001405 0.022749 -0.000904 0.000000 0.006443 0.000000
# 3 -0.004065 -0.000904 0.019687 0.000000 0.021388 0.000000
# 4 0.000000 0.000000 0.000000 0.036054 0.000000 0.000491
# 5 -0.005095 0.006443 0.021388 0.000000 0.061252 0.000000
# 6 0.000000 0.000000 0.000000 0.000491 0.000000 0.041192
#
#
# Mechanical properties :
#
#
# Convention : Reuss Voigt Hill
#
# Bulk Modulus (GPa) = 19.07677 25.78773 22.43225
# Shear Modulus (GPa) = 22.45701 27.88881 25.17291
#
# Velocity S-wave (km/s) = 2.98038 3.32132 3.15546
# Velocity P-wave (km/s) = 4.40332 4.99083 4.70625
#
# Compressibility (1/GPa) = 0.05241976
#
# Stress axis : x y z
#
# Youngs Moduli (GPa) = 58.44183 43.95705 50.79378
#
# Poissons Ratio (x) = -0.06178 0.20649
# Poissons Ratio (y) = -0.08214 0.04594
# Poissons Ratio (z) = 0.23758 0.03976
#
# Static dielectric constant tensor:
#      x y z
#    x 1.993270 0.000000 -0.010100 
#    y 0.000000 2.013340 0.000000 
#    z -0.010100 0.000000 2.049220 
# 
# From -- ./inp_files/68233.got.cif
#   From: 2010.05.17/outbox.cif.g08.bks.cpg/sg14_35_cif.got.tgz:68233.got - 2010.06.03 17:49:19.
