data_PCOD9239741
_publ_section_title
;
Structure prediction by ZEFSAII (Michael W. Deem and Ramdas Pophale) SiO2 
 PCOD9239741
Probable space group: P 21/C
;
_chemical_formula_sum "Si O2"
_cell_formula_units_Z 24
_cell_length_a 11.664639
_cell_length_b 8.691655
_cell_length_c 18.369448
_cell_angle_alpha 90.000000
_cell_angle_beta 45.878741
_cell_angle_gamma 90.000000
_cell_volume 1336.947967
_symmetry_space_group_name_H-M "P 21/C"
_symmetry_group_IT_number 14
_symmetry_cell_setting 'monoclinic'
loop_
_space_group_symop_operation_xyz
x,y,z
-x,1/2+y,1/2-z
-x,-y,-z
x,1/2-y,1/2+z
loop_
_atom_site_type_symbol
_atom_site_label
_atom_site_fract_x
_atom_site_fract_y
_atom_site_fract_z
Si Si1 0.617627 0.504235 0.851584
Si Si2 0.880083 0.360024 0.636509
Si Si3 0.970108 0.408807 0.198319
Si Si4 0.087374 0.853200 0.050034
Si Si5 0.713099 0.106864 0.464321
Si Si6 0.851473 0.724749 0.257337
O O1 0.719164 0.434226 0.740727
O O2 0.653165 0.399047 0.907027
O O3 0.694303 0.672730 0.833521
O O4 0.430130 0.530853 0.926579
O O5 0.906438 0.197762 0.662887
O O6 0.878747 0.347803 0.550487
O O7 0.027610 0.473549 0.593511
O O8 0.847075 0.543975 0.273290
O O9 0.130984 0.498579 0.104150
O O10 0.021715 0.300993 0.242615
O O11 0.231987 0.771677 0.028978
O O12 0.930518 0.755266 0.143327
#
# Coordination Sequence:
#
# PCOD9239741 Si02
#       6
#     4   4   4   4   4   4
#     4   9  18  34  51  72 101 131 166 210 253 292
#     4  10  19  32  51  75 102 130 165 207 251 301
#     4  10  18  31  53  75  95 126 168 206 246 296
#     4   9  18  33  51  71  98 131 165 202 246 298
#     4   9  18  33  53  72  98 133 168 207 250 295
#     4   9  17  30  51  72  94 127 166 205 244 295
#
# _framework density 17.951335
#
# number of rings (size 3 to 8) (size 9 to 14) (size 15 to 20)
#    0.000    2.667    0.000    4.000    0.000    2.667 
#    0.000    8.333    0.000   12.000    0.000    0.000 
#    0.000    0.000    0.000    0.000    0.000    0.000 
#
# Total GULP energy -133628.956226 kJ/mol
# GULP energy per Si atom -5567.873176 kJ/mol
# Density = 1.791048 g / cm^3
# Si number density = 17.951335 Si / 1000 Ang^3
#
#
#
# Elastic Constant Matrix: (Units=GPa)
#
#
# Indices 1 2 3 4 5 6 
#
# 1 35.9513 26.1457 24.3797 0.0000 -6.0382 0.0000
# 2 26.1457 101.3866 18.3145 0.0000 11.7220 0.0000
# 3 24.3797 18.3145 93.1651 0.0000 8.2716 0.0000
# 4 0.0000 0.0000 0.0000 18.2484 0.0000 3.9716
# 5 -6.0382 11.7220 8.2716 0.0000 21.3527 0.0000
# 6 0.0000 0.0000 0.0000 3.9716 0.0000 22.7636
#
#
#
# Elastic Compliance Matrix: (Units=1/GPa)
#
#
# Indices 1 2 3 4 5 6 
#
# 1 0.051610 -0.014103 -0.013169 0.000000 0.027438 0.000000
# 2 -0.014103 0.014625 0.001949 0.000000 -0.012772 0.000000
# 3 -0.013169 0.001949 0.014729 0.000000 -0.010500 0.000000
# 4 0.000000 0.000000 0.000000 0.056962 0.000000 -0.009938
# 5 0.027438 -0.012772 -0.010500 0.000000 0.065670 0.000000
# 6 0.000000 0.000000 0.000000 -0.009938 0.000000 0.045664
#
#
# Mechanical properties :
#
#
# Convention : Reuss Voigt Hill
#
# Bulk Modulus (GPa) = 32.98303 40.90919 36.94611
# Shear Modulus (GPa) = 16.12844 23.25048 19.68946
#
# Velocity S-wave (km/s) = 3.00067 3.60279 3.31543
# Velocity P-wave (km/s) = 5.51533 6.33602 5.93987
#
# Compressibility (1/GPa) = 0.03031862
#
# Stress axis : x y z
#
# Youngs Moduli (GPa) = 19.37592 68.37825 67.89419
#
# Poissons Ratio (x) = 0.96432 0.89412
# Poissons Ratio (y) = 0.27325 -0.13236
# Poissons Ratio (z) = 0.25517 -0.13330
#
# Static dielectric constant tensor:
#      x y z
#    x 1.609140 0.000000 0.010010 
#    y 0.000000 1.650960 0.000000 
#    z 0.010010 0.000000 1.643450 
# 
# From -- ./inp_files/56967.got.cif
#   From: 2010.05.17/outbox.cif.g08.bks.cpg/sg14_29_cif.got.tgz:56967.got - 2010.06.03 17:49:19.
