data_PCOD9239623
_publ_section_title
;
Structure prediction by ZEFSAII (Michael W. Deem and Ramdas Pophale) SiO2 
 PCOD9239623
Probable space group: P 21/C
;
_chemical_formula_sum "Si O2"
_cell_formula_units_Z 30
_cell_length_a 19.517457
_cell_length_b 9.168296
_cell_length_c 17.003050
_cell_angle_alpha 90.000000
_cell_angle_beta 159.584308
_cell_angle_gamma 90.000000
_cell_volume 1061.331224
_symmetry_space_group_name_H-M "P 21/C"
_symmetry_group_IT_number 14
_symmetry_cell_setting 'monoclinic'
loop_
_space_group_symop_operation_xyz
x,y,z
-x,1/2+y,1/2-z
-x,-y,-z
x,1/2-y,1/2+z
loop_
_atom_site_type_symbol
_atom_site_label
_atom_site_fract_x
_atom_site_fract_y
_atom_site_fract_z
Si Si1 0.254312 0.791816 0.796971
Si Si2 0.276281 0.979969 0.684684
Si Si3 0.500000 0.500000 0.000000
Si Si4 0.457849 0.829358 0.334600
Si Si5 0.890702 0.884866 0.193587
Si Si6 0.102311 0.146282 0.173702
Si Si7 0.481609 0.454822 0.261992
Si Si8 0.127304 0.626267 0.794851
O O1 0.289244 0.951611 0.792860
O O2 0.400253 0.659136 0.929715
O O3 0.214711 0.768712 0.846608
O O4 0.042673 0.744827 0.531845
O O5 0.359667 0.821501 0.748202
O O6 0.403186 0.086940 0.765222
O O7 0.054616 0.982510 0.414906
O O8 0.363571 0.529532 0.772634
O O9 0.476382 0.841612 0.262276
O O10 0.668699 0.856777 0.608507
O O11 0.895732 0.729640 0.241481
O O12 0.960717 0.858071 0.180420
O O13 0.676663 0.948736 0.975671
O O14 0.060042 0.981092 0.151502
O O15 0.303921 0.545542 0.030326
#
# Coordination Sequence:
#
# PCOD9239623 Si02
#       8
#     4   4   2   4   4   4   4   4
#     4  10  19  31  50  77 111 140 161 212 265 315
#     4   9  20  35  48  74 109 131 174 209 251 312
#     4  10  18  28  46  78 106 136 156 206 264 318
#     4  10  19  31  52  75 109 133 166 211 258 308
#     4  10  21  32  50  71 106 141 172 207 251 310
#     4  10  19  33  50  75 108 139 167 206 261 308
#     4  10  19  34  49  74 105 141 172 205 254 310
#     4  10  21  33  50  80 108 133 172 211 255 315
#
# _framework density 28.266387999999999
#
# number of rings (size 3 to 8) (size 9 to 14) (size 15 to 20)
#    0.000    2.133    4.000    0.400    5.600    0.000 
#    0.000    0.000    0.000    0.000    0.000   18.667 
#    0.000    0.667    0.000    0.000    0.000    0.000 
#
# Total GULP energy -167406.704815 kJ/mol
# GULP energy per Si atom -5580.223494 kJ/mol
# Density = 2.820205 g / cm^3
# Si number density = 28.266388 Si / 1000 Ang^3
#
#
#
# Elastic Constant Matrix: (Units=GPa)
#
#
# Indices 1 2 3 4 5 6 
#
# 1 116.7738 2.6531 44.3018 0.0000 0.0844 0.0000
# 2 2.6531 73.2614 11.5572 0.0000 7.8236 0.0000
# 3 44.3018 11.5572 88.5460 0.0000 16.1890 0.0000
# 4 0.0000 0.0000 0.0000 34.5639 0.0000 -3.3254
# 5 0.0844 7.8236 16.1890 0.0000 54.2916 0.0000
# 6 0.0000 0.0000 0.0000 -3.3254 0.0000 47.6644
#
#
#
# Elastic Compliance Matrix: (Units=1/GPa)
#
#
# Indices 1 2 3 4 5 6 
#
# 1 0.010720 0.000337 -0.005707 0.000000 0.001636 0.000000
# 2 0.000337 0.014072 -0.001729 0.000000 -0.001513 0.000000
# 3 -0.005707 -0.001729 0.015153 0.000000 -0.004260 0.000000
# 4 0.000000 0.000000 0.000000 0.029127 0.000000 0.002032
# 5 0.001636 -0.001513 -0.004260 0.000000 0.019905 0.000000
# 6 0.000000 0.000000 0.000000 0.002032 0.000000 0.021122
#
#
# Mechanical properties :
#
#
# Convention : Reuss Voigt Hill
#
# Bulk Modulus (GPa) = 38.83707 43.95615 41.39661
# Shear Modulus (GPa) = 37.62852 41.97526 39.80189
#
# Velocity S-wave (km/s) = 3.65253 3.85774 3.75654
# Velocity P-wave (km/s) = 5.61761 5.95208 5.78726
#
# Compressibility (1/GPa) = 0.02574860
#
# Stress axis : x y z
#
# Youngs Moduli (GPa) = 93.28656 71.06403 65.99228
#
# Poissons Ratio (x) = -0.02397 0.37659
# Poissons Ratio (y) = -0.03146 0.11409
# Poissons Ratio (z) = 0.53234 0.12286
#
# Static dielectric constant tensor:
#      x y z
#    x 2.024380 0.000000 -0.227550 
#    y 0.000000 2.021150 0.000000 
#    z -0.227550 0.000000 2.136750 
# 
# From -- ./inp_files/61441.got.cif
#   From: 2010.05.17/outbox.cif.g08.bks.cpg/sg14_31_cif.got.tgz:61441.got - 2010.06.03 17:49:19.
