data_PCOD9239838
_publ_section_title
;
Structure prediction by ZEFSAII (Michael W. Deem and Ramdas Pophale) SiO2 
 PCOD9239838
Probable space group: P 21/C
;
_chemical_formula_sum "Si O2"
_cell_formula_units_Z 32
_cell_length_a 7.422596
_cell_length_b 14.174291
_cell_length_c 23.517558
_cell_angle_alpha 90.000000
_cell_angle_beta 149.318812
_cell_angle_gamma 90.000000
_cell_volume 1262.529123
_symmetry_space_group_name_H-M "P 21/C"
_symmetry_group_IT_number 14
_symmetry_cell_setting 'monoclinic'
loop_
_space_group_symop_operation_xyz
x,y,z
-x,1/2+y,1/2-z
-x,-y,-z
x,1/2-y,1/2+z
loop_
_atom_site_type_symbol
_atom_site_label
_atom_site_fract_x
_atom_site_fract_y
_atom_site_fract_z
Si Si1 0.153507 0.420678 0.858836
Si Si2 0.130124 0.270359 0.687855
Si Si3 0.786726 0.052241 0.149936
Si Si4 0.905358 0.862635 0.926227
Si Si5 0.579386 0.751778 0.116246
Si Si6 0.011813 0.921882 0.077109
Si Si7 0.218382 0.860630 0.249327
Si Si8 0.479311 0.872347 0.438669
O O1 0.457886 0.358086 0.909692
O O2 0.273774 0.529111 0.892313
O O3 0.818808 0.417260 0.725478
O O4 0.168542 0.382855 0.927646
O O5 0.023468 0.375199 0.679185
O O6 0.291675 0.288918 0.668832
O O7 0.779376 0.206905 0.604429
O O8 0.385936 0.235260 0.807035
O O9 0.396757 0.057277 0.019283
O O10 0.973039 0.951707 0.198079
O O11 0.299245 0.825248 0.016725
O O12 0.844701 0.973578 0.898921
O O13 0.935914 0.855937 0.002195
O O14 0.957294 0.774595 0.190952
O O15 0.253913 0.878417 0.191929
O O16 0.509441 0.858034 0.378670
#
# Coordination Sequence:
#
# PCOD9239838 Si02
#       8
#     4   4   4   4   4   4   4   4
#     4   9  18  31  52  85 107 136 185 235 272 320
#     4  10  19  33  57  82 107 145 186 228 282 333
#     4  10  18  32  54  83 112 138 178 242 283 322
#     4  11  21  36  54  81 116 151 185 225 278 361
#     4  10  19  33  57  82 107 145 186 228 282 333
#     4  11  22  33  54  86 116 146 182 230 300 336
#     4  10  18  32  54  83 112 138 178 242 283 322
#     4   9  18  31  52  85 107 136 185 235 272 320
#
# _framework density 25.345949000000001
#
# number of rings (size 3 to 8) (size 9 to 14) (size 15 to 20)
#    0.000    2.000    3.750    1.125    0.000    0.000 
#    0.000    3.750    0.000    0.000    0.000    3.500 
#    0.000    0.000    0.000    0.000    0.000    0.000 
#
# Total GULP energy -178363.126950 kJ/mol
# GULP energy per Si atom -5573.847717 kJ/mol
# Density = 2.528826 g / cm^3
# Si number density = 25.345949 Si / 1000 Ang^3
#
#
#
# Elastic Constant Matrix: (Units=GPa)
#
#
# Indices 1 2 3 4 5 6 
#
# 1 55.9237 12.3100 31.3214 0.0000 -37.1121 0.0000
# 2 12.3100 95.6914 12.4087 0.0000 -10.6376 0.0000
# 3 31.3214 12.4087 146.8515 0.0000 -57.3551 0.0000
# 4 0.0000 0.0000 0.0000 40.0232 0.0000 -14.7379
# 5 -37.1121 -10.6376 -57.3551 0.0000 55.3291 0.0000
# 6 0.0000 0.0000 0.0000 -14.7379 0.0000 24.7859
#
#
#
# Elastic Compliance Matrix: (Units=1/GPa)
#
#
# Indices 1 2 3 4 5 6 
#
# 1 0.033171 -0.001873 0.002743 0.000000 0.024733 0.000000
# 2 -0.001873 0.010787 -0.000324 0.000000 0.000482 0.000000
# 3 0.002743 -0.000324 0.011672 0.000000 0.013877 0.000000
# 4 0.000000 0.000000 0.000000 0.031990 0.000000 0.019021
# 5 0.024733 0.000482 0.013877 0.000000 0.049141 0.000000
# 6 0.000000 0.000000 0.000000 0.019021 0.000000 0.051656
#
#
# Mechanical properties :
#
#
# Convention : Reuss Voigt Hill
#
# Bulk Modulus (GPa) = 17.63011 45.61631 31.62321
# Shear Modulus (GPa) = 24.24469 40.18940 32.21705
#
# Velocity S-wave (km/s) = 3.09617 3.98632 3.56911
# Velocity P-wave (km/s) = 4.44439 6.26293 5.43032
#
# Compressibility (1/GPa) = 0.05672114
#
# Stress axis : x y z
#
# Youngs Moduli (GPa) = 30.14710 92.70599 85.67735
#
# Poissons Ratio (x) = 0.17368 -0.23503
# Poissons Ratio (y) = 0.05648 0.02774
# Poissons Ratio (z) = -0.08270 0.03002
#
# Static dielectric constant tensor:
#      x y z
#    x 2.114340 0.000000 -0.107490 
#    y 0.000000 2.035750 0.000000 
#    z -0.107490 0.000000 2.091740 
# 
# From -- ./inp_files/72416.got.cif
#   From: 2010.05.17/outbox.cif.g08.bks.cpg/sg14_37_cif.got.tgz:72416.got - 2010.06.03 17:49:19.
