data_PCOD9239833
_publ_section_title
;
Structure prediction by ZEFSAII (Michael W. Deem and Ramdas Pophale) SiO2 
 PCOD9239833
Probable space group: P 21/C
;
_chemical_formula_sum "Si O2"
_cell_formula_units_Z 32
_cell_length_a 8.317214
_cell_length_b 11.967848
_cell_length_c 17.880462
_cell_angle_alpha 90.000000
_cell_angle_beta 100.411304
_cell_angle_gamma 90.000000
_cell_volume 1750.503024
_symmetry_space_group_name_H-M "P 21/C"
_symmetry_group_IT_number 14
_symmetry_cell_setting 'monoclinic'
loop_
_space_group_symop_operation_xyz
x,y,z
-x,1/2+y,1/2-z
-x,-y,-z
x,1/2-y,1/2+z
loop_
_atom_site_type_symbol
_atom_site_label
_atom_site_fract_x
_atom_site_fract_y
_atom_site_fract_z
Si Si1 0.506984 0.668105 0.357310
Si Si2 0.302491 0.853289 0.280675
Si Si3 0.566994 0.218942 0.873916
Si Si4 0.896897 0.335430 0.440932
Si Si5 0.196135 0.423900 0.532203
Si Si6 0.045756 0.291902 0.294470
Si Si7 0.293188 0.038377 0.872839
Si Si8 0.323656 0.382378 0.786533
O O1 0.423640 0.788552 0.346489
O O2 0.641811 0.640940 0.430905
O O3 0.360659 0.578895 0.351053
O O4 0.604626 0.645297 0.289010
O O5 0.367825 0.819417 0.202866
O O6 0.115595 0.810663 0.267928
O O7 0.305833 0.985590 0.291517
O O8 0.727179 0.228391 0.938683
O O9 0.448729 0.120745 0.891277
O O10 0.456221 0.328075 0.854142
O O11 0.839706 0.465073 0.422500
O O12 0.035462 0.346281 0.515607
O O13 0.982694 0.285089 0.374861
O O14 0.219218 0.468167 0.449448
O O15 0.165554 0.400039 0.307247
O O16 0.155522 0.185896 0.282769
#
# Coordination Sequence:
#
# PCOD9239833 Si02
#       8
#     4   4   4   4   4   4   4   4
#     4  11  20  32  52  82 111 135 173 227 271 316
#     4  10  20  34  51  78 109 142 178 222 266 307
#     4   9  17  33  54  76 104 144 173 213 265 333
#     4   9  17  33  51  80 103 138 177 210 271 313
#     4  10  19  31  54  83 115 135 168 236 267 312
#     4   9  20  34  52  75 105 148 176 213 262 327
#     4  10  18  32  54  81 108 139 177 212 280 319
#     4  10  20  35  53  74 112 143 175 216 266 324
#
# _framework density 18.280460000000001
#
# number of rings (size 3 to 8) (size 9 to 14) (size 15 to 20)
#    0.000    2.250    2.500    1.125    1.750    0.000 
#    0.000    0.000    0.000    7.500    0.000    0.000 
#    0.000    0.000    0.000    0.000    0.000    0.000 
#
# Total GULP energy -178360.318334 kJ/mol
# GULP energy per Si atom -5573.759948 kJ/mol
# Density = 1.823885 g / cm^3
# Si number density = 18.280460 Si / 1000 Ang^3
#
#
#
# Elastic Constant Matrix: (Units=GPa)
#
#
# Indices 1 2 3 4 5 6 
#
# 1 115.8455 56.7398 20.0548 0.0000 18.7309 0.0000
# 2 56.7398 125.1612 25.2526 0.0000 16.0812 0.0000
# 3 20.0548 25.2526 26.8813 0.0000 9.2750 0.0000
# 4 0.0000 0.0000 0.0000 16.3922 0.0000 -4.5274
# 5 18.7309 16.0812 9.2750 0.0000 32.6079 0.0000
# 6 0.0000 0.0000 0.0000 -4.5274 0.0000 25.9719
#
#
#
# Elastic Compliance Matrix: (Units=1/GPa)
#
#
# Indices 1 2 3 4 5 6 
#
# 1 0.011922 -0.004183 -0.003674 0.000000 -0.003740 0.000000
# 2 -0.004183 0.011508 -0.007275 0.000000 -0.001204 0.000000
# 3 -0.003674 -0.007275 0.049687 0.000000 -0.008434 0.000000
# 4 0.000000 0.000000 0.000000 0.064090 0.000000 0.011172
# 5 -0.003740 -0.001204 -0.008434 0.000000 0.035808 0.000000
# 6 0.000000 0.000000 0.000000 0.011172 0.000000 0.040451
#
#
# Mechanical properties :
#
#
# Convention : Reuss Voigt Hill
#
# Bulk Modulus (GPa) = 23.33627 52.44247 37.88937
# Shear Modulus (GPa) = 19.37875 26.05047 22.71461
#
# Velocity S-wave (km/s) = 3.25942 3.77907 3.52882
# Velocity P-wave (km/s) = 5.19216 6.91316 6.11352
#
# Compressibility (1/GPa) = 0.04285174
#
# Stress axis : x y z
#
# Youngs Moduli (GPa) = 83.88122 86.89382 20.12614
#
# Poissons Ratio (x) = 0.36344 0.07395
# Poissons Ratio (y) = 0.35084 0.14643
# Poissons Ratio (z) = 0.30822 0.63219
#
# Static dielectric constant tensor:
#      x y z
#    x 1.672130 0.000000 0.022580 
#    y 0.000000 1.609260 0.000000 
#    z 0.022580 0.000000 1.672460 
# 
# From -- ./inp_files/65266.got.cif
#   From: 2010.05.17/outbox.cif.g08.bks.cpg/sg14_33_cif.got.tgz:65266.got - 2010.06.03 17:49:19.
