data_PCOD9239414
_publ_section_title
;
Structure prediction by ZEFSAII (Michael W. Deem and Ramdas Pophale) SiO2 
 PCOD9239414
Probable space group: P 21/C
;
_chemical_formula_sum "Si O2"
_cell_formula_units_Z 32
_cell_length_a 9.786791
_cell_length_b 13.010059
_cell_length_c 10.543888
_cell_angle_alpha 90.000000
_cell_angle_beta 86.750590
_cell_angle_gamma 90.000000
_cell_volume 1340.360334
_symmetry_space_group_name_H-M "P 21/C"
_symmetry_group_IT_number 14
_symmetry_cell_setting 'monoclinic'
loop_
_space_group_symop_operation_xyz
x,y,z
-x,1/2+y,1/2-z
-x,-y,-z
x,1/2-y,1/2+z
loop_
_atom_site_type_symbol
_atom_site_label
_atom_site_fract_x
_atom_site_fract_y
_atom_site_fract_z
Si Si1 0.028826 0.125335 0.708294
Si Si2 0.485229 0.859589 0.293589
Si Si3 0.262753 0.004147 0.644763
Si Si4 0.948560 0.311554 0.465981
Si Si5 0.158420 0.352154 0.634746
Si Si6 0.214484 0.640163 0.947882
Si Si7 0.416465 0.285882 0.477622
Si Si8 0.186264 0.139944 0.404959
O O1 0.139894 0.040094 0.740204
O O2 0.117954 0.231047 0.674593
O O3 0.927044 0.145022 0.829379
O O4 0.929448 0.097551 0.597845
O O5 0.595188 0.950438 0.315318
O O6 0.335324 0.888905 0.348032
O O7 0.494579 0.833053 0.142676
O O8 0.522056 0.771975 0.400663
O O9 0.214772 0.063394 0.518354
O O10 0.256183 0.890561 0.589707
O O11 0.820357 0.261389 0.542042
O O12 0.032492 0.383904 0.554796
O O13 0.060466 0.219478 0.430527
O O14 0.298317 0.356504 0.547942
O O15 0.168678 0.406552 0.767775
O O16 0.324997 0.206028 0.400963
#
# Coordination Sequence:
#
# PCOD9239414 Si02
#       8
#     4   4   4   4   4   4   4   4
#     4  10  18  33  54  80 108 137 182 233 270 322
#     4  11  22  34  54  85 112 144 188 233 274 324
#     4  11  19  36  55  80 112 143 189 224 275 330
#     4   9  18  31  51  81 108 136 178 231 282 315
#     4   9  14  29  53  82  99 132 188 232 267 304
#     4  11  23  33  52  83 115 145 173 232 285 334
#     4  10  17  32  54  81 107 140 190 237 267 311
#     4   9  15  28  53  80 100 137 182 232 267 317
#
# _framework density 23.874177
#
# number of rings (size 3 to 8) (size 9 to 14) (size 15 to 20)
#    0.000    2.000    6.250    2.250    1.750    0.000 
#    0.000    0.000    0.000    1.500    9.750    0.000 
#    0.000    0.000    0.000    0.000    0.000    0.000 
#
# Total GULP energy -178196.403061 kJ/mol
# GULP energy per Si atom -5568.637596 kJ/mol
# Density = 2.381984 g / cm^3
# Si number density = 23.874177 Si / 1000 Ang^3
#
#
#
# Elastic Constant Matrix: (Units=GPa)
#
#
# Indices 1 2 3 4 5 6 
#
# 1 103.9545 5.3300 2.2826 0.0000 -13.8577 0.0000
# 2 5.3300 19.4133 6.7986 0.0000 -4.0348 0.0000
# 3 2.2826 6.7986 101.5534 0.0000 -10.9501 0.0000
# 4 0.0000 0.0000 0.0000 26.5463 0.0000 -3.3595
# 5 -13.8577 -4.0348 -10.9501 0.0000 23.4867 0.0000
# 6 0.0000 0.0000 0.0000 -3.3595 0.0000 13.2840
#
#
#
# Elastic Compliance Matrix: (Units=1/GPa)
#
#
# Indices 1 2 3 4 5 6 
#
# 1 0.010520 -0.001801 0.000548 0.000000 0.006153 0.000000
# 2 -0.001801 0.054452 -0.002854 0.000000 0.006961 0.000000
# 3 0.000548 -0.002854 0.010538 0.000000 0.004746 0.000000
# 4 0.000000 0.000000 0.000000 0.038916 0.000000 0.009842
# 5 0.006153 0.006961 0.004746 0.000000 0.049616 0.000000
# 6 0.000000 0.000000 0.000000 0.009842 0.000000 0.077767
#
#
# Mechanical properties :
#
#
# Convention : Reuss Voigt Hill
#
# Bulk Modulus (GPa) = 14.86025 28.19375 21.52700
# Shear Modulus (GPa) = 18.35159 26.69739 22.52449
#
# Velocity S-wave (km/s) = 2.77551 3.34766 3.07492
# Velocity P-wave (km/s) = 4.06315 5.17469 4.65224
#
# Compressibility (1/GPa) = 0.06729362
#
# Stress axis : x y z
#
# Youngs Moduli (GPa) = 95.05560 18.36482 94.89911
#
# Poissons Ratio (x) = 0.03308 -0.05196
# Poissons Ratio (y) = 0.17122 0.27087
# Poissons Ratio (z) = -0.05205 0.05242
#
# Static dielectric constant tensor:
#      x y z
#    x 1.906660 0.000000 -0.039390 
#    y 0.000000 2.084030 0.000000 
#    z -0.039390 0.000000 1.988340 
# 
# From -- ./inp_files/26110.got.cif
#   From: 2010.05.17/outbox.cif.g08.bks.cpg/sg14_14_cif.got.tgz:26110.got - 2010.06.03 17:49:19.
