data_PCOD9239369
_publ_section_title
;
Structure prediction by ZEFSAII (Michael W. Deem and Ramdas Pophale) SiO2 
 PCOD9239369
Probable space group: P 21/C
;
_chemical_formula_sum "Si O2"
_cell_formula_units_Z 28
_cell_length_a 12.852770
_cell_length_b 13.685441
_cell_length_c 11.250445
_cell_angle_alpha 90.000000
_cell_angle_beta 148.260614
_cell_angle_gamma 90.000000
_cell_volume 1041.016305
_symmetry_space_group_name_H-M "P 21/C"
_symmetry_group_IT_number 14
_symmetry_cell_setting 'monoclinic'
loop_
_space_group_symop_operation_xyz
x,y,z
-x,1/2+y,1/2-z
-x,-y,-z
x,1/2-y,1/2+z
loop_
_atom_site_type_symbol
_atom_site_label
_atom_site_fract_x
_atom_site_fract_y
_atom_site_fract_z
Si Si1 0.273314 0.329723 0.991273
Si Si2 0.702902 0.330742 0.953676
Si Si3 0.767222 0.241817 0.773723
Si Si4 0.945739 0.075413 0.326965
Si Si5 0.171577 0.116183 0.907706
Si Si6 0.131322 0.096760 0.129026
Si Si7 0.617889 0.520647 0.732728
O O1 0.274091 0.215262 0.962935
O O2 0.052943 0.356290 0.829827
O O3 0.283784 0.394156 0.883741
O O4 0.413940 0.377087 0.228179
O O5 0.677355 0.252458 0.819493
O O6 0.602073 0.430466 0.808486
O O7 0.663496 0.301795 0.053412
O O8 0.936702 0.358838 0.180418
O O9 0.826201 0.350933 0.792028
O O10 0.973001 0.183940 0.986936
O O11 0.849764 0.967088 0.420990
O O12 0.822201 0.989511 0.146011
O O13 0.234853 0.106348 0.104601
O O14 0.000000 0.000000 0.000000
O O15 0.500000 0.500000 0.500000
#
# Coordination Sequence:
#
# PCOD9239369 Si02
#       7
#     4   4   4   4   4   4   4
#     4  10  17  31  46  77 105 146 178 221 274 332
#     4  10  19  32  56  81 112 145 180 225 284 334
#     4  11  19  34  54  87 120 141 177 231 299 340
#     4   9  18  31  51  80 110 138 177 225 280 334
#     4  10  18  29  45  82 109 137 167 220 289 326
#     4  11  16  25  48  73 110 137 170 215 277 341
#     4   9  19  36  55  74 108 149 200 225 261 332
#
# _framework density 26.896791
#
# number of rings (size 3 to 8) (size 9 to 14) (size 15 to 20)
#    0.857    1.143    5.714    0.857    0.000    2.286 
#    2.571    0.000    6.286    0.000    0.000    2.000 
#    0.000    0.000    0.000    0.000    0.000    0.000 
#
# Total GULP energy -156695.431881 kJ/mol
# GULP energy per Si atom -5596.265424 kJ/mol
# Density = 2.683557 g / cm^3
# Si number density = 26.896791 Si / 1000 Ang^3
#
#
#
# Elastic Constant Matrix: (Units=GPa)
#
#
# Indices 1 2 3 4 5 6 
#
# 1 72.7566 -7.4567 35.4557 0.0000 0.6073 0.0000
# 2 -7.4567 151.3234 47.1552 0.0000 12.8984 0.0000
# 3 35.4557 47.1552 157.8469 0.0000 -22.8315 0.0000
# 4 0.0000 0.0000 0.0000 51.8416 0.0000 -7.8924
# 5 0.6073 12.8984 -22.8315 0.0000 36.3142 0.0000
# 6 0.0000 0.0000 0.0000 -7.8924 0.0000 37.8884
#
#
#
# Elastic Compliance Matrix: (Units=1/GPa)
#
#
# Indices 1 2 3 4 5 6 
#
# 1 0.016633 0.002847 -0.005251 0.000000 -0.004591 0.000000
# 2 0.002847 0.008458 -0.003969 0.000000 -0.005547 0.000000
# 3 -0.005251 -0.003969 0.009809 0.000000 0.007665 0.000000
# 4 0.000000 0.000000 0.000000 0.019921 0.000000 0.004150
# 5 -0.004591 -0.005547 0.007665 0.000000 0.034403 0.000000
# 6 0.000000 0.000000 0.000000 0.004150 0.000000 0.027258
#
#
# Mechanical properties :
#
#
# Convention : Reuss Voigt Hill
#
# Bulk Modulus (GPa) = 45.13469 59.13727 52.13598
# Shear Modulus (GPa) = 36.59980 45.66035 41.13008
#
# Velocity S-wave (km/s) = 3.69284 4.12468 3.91472
# Velocity P-wave (km/s) = 5.91607 6.68719 6.31341
#
# Compressibility (1/GPa) = 0.02215591
#
# Stress axis : x y z
#
# Youngs Moduli (GPa) = 60.12005 118.22842 101.94801
#
# Poissons Ratio (x) = -0.33662 0.53531
# Poissons Ratio (y) = -0.17117 0.40460
# Poissons Ratio (z) = 0.31568 0.46921
#
# Static dielectric constant tensor:
#      x y z
#    x 2.187240 0.000000 0.027980 
#    y 0.000000 0.695790 0.000000 
#    z 0.027980 0.000000 2.127890 
# 
# From -- ./inp_files/34110.got.cif
#   From: 2010.05.17/outbox.cif.g08.bks.cpg/sg14_18_cif.got.tgz:34110.got - 2010.06.03 17:49:19.
