data_PCOD9239984
_publ_section_title
;
Structure prediction by ZEFSAII (Michael W. Deem and Ramdas Pophale) SiO2 
 PCOD9239984
Probable space group: P 21/C
;
_chemical_formula_sum "Si O2"
_cell_formula_units_Z 28
_cell_length_a 14.964251
_cell_length_b 10.431241
_cell_length_c 9.235833
_cell_angle_alpha 90.000000
_cell_angle_beta 86.584565
_cell_angle_gamma 90.000000
_cell_volume 1439.113217
_symmetry_space_group_name_H-M "P 21/C"
_symmetry_group_IT_number 14
_symmetry_cell_setting 'monoclinic'
loop_
_space_group_symop_operation_xyz
x,y,z
-x,1/2+y,1/2-z
-x,-y,-z
x,1/2-y,1/2+z
loop_
_atom_site_type_symbol
_atom_site_label
_atom_site_fract_x
_atom_site_fract_y
_atom_site_fract_z
Si Si1 0.625877 0.015594 0.724009
Si Si2 0.457930 0.643733 0.003486
Si Si3 0.274691 0.298600 0.927989
Si Si4 0.542469 0.122474 0.169605
Si Si5 0.850051 0.781561 0.317230
Si Si6 0.285540 0.499371 0.491864
Si Si7 0.909660 0.571819 0.545990
O O1 0.645129 0.883555 0.636369
O O2 0.529343 0.993338 0.808833
O O3 0.624086 0.122169 0.600273
O O4 0.697673 0.032407 0.842297
O O5 0.502778 0.765856 0.922658
O O6 0.500000 0.500000 0.000000
O O7 0.439365 0.673552 0.170447
O O8 0.205968 0.293527 0.800107
O O9 0.300438 0.153116 0.963333
O O10 0.223783 0.352320 0.074536
O O11 0.636499 0.073410 0.099275
O O12 0.896211 0.685317 0.426946
O O13 0.910179 0.871381 0.209627
O O14 0.181508 0.512822 0.457796
O O15 0.000000 0.500000 0.500000
#
# Coordination Sequence:
#
# PCOD9239984 Si02
#       7
#     4   4   4   4   4   4   4
#     4  11  22  34  62  85 122 160 209 240 303 356
#     4  10  25  39  57  83 124 166 210 244 296 363
#     4  10  18  33  60  90 118 151 203 253 296 352
#     4  11  24  39  55  84 128 160 209 249 303 357
#     4   8  18  36  59  91 116 146 201 250 293 369
#     4  10  22  37  61  87 121 158 200 260 312 354
#     4  10  20  40  65  89 123 155 200 255 318 367
#
# _framework density 19.456426
#
# number of rings (size 3 to 8) (size 9 to 14) (size 15 to 20)
#    0.000    2.286    2.857    1.286   12.000    0.000 
#    0.000    5.714    0.000    0.000    0.000    0.000 
#    0.000    0.000    0.000    0.000    0.000    0.000 
#
# Total GULP energy -155932.906853 kJ/mol
# GULP energy per Si atom -5569.032388 kJ/mol
# Density = 1.941214 g / cm^3
# Si number density = 19.456426 Si / 1000 Ang^3
#
#
#
# Elastic Constant Matrix: (Units=GPa)
#
#
# Indices 1 2 3 4 5 6 
#
# 1 94.4958 25.9845 34.4311 0.0000 -17.5316 0.0000
# 2 25.9845 44.8132 31.4782 0.0000 -9.3487 0.0000
# 3 34.4311 31.4782 151.6127 0.0000 -5.3019 0.0000
# 4 0.0000 0.0000 0.0000 41.4146 0.0000 -6.4200
# 5 -17.5316 -9.3487 -5.3019 0.0000 30.3893 0.0000
# 6 0.0000 0.0000 0.0000 -6.4200 0.0000 33.8231
#
#
#
# Elastic Compliance Matrix: (Units=1/GPa)
#
#
# Indices 1 2 3 4 5 6 
#
# 1 0.013867 -0.005534 -0.001791 0.000000 0.005985 0.000000
# 2 -0.005534 0.029967 -0.004783 0.000000 0.005191 0.000000
# 3 -0.001791 -0.004783 0.007957 0.000000 -0.001117 0.000000
# 4 0.000000 0.000000 0.000000 0.024878 0.000000 0.004722
# 5 0.005985 0.005191 -0.001117 0.000000 0.037761 0.000000
# 6 0.000000 0.000000 0.000000 0.004722 0.000000 0.030462
#
#
# Mechanical properties :
#
#
# Convention : Reuss Voigt Hill
#
# Bulk Modulus (GPa) = 36.26665 52.74549 44.50607
# Shear Modulus (GPa) = 28.04258 34.39392 31.21825
#
# Velocity S-wave (km/s) = 3.80057 4.20901 4.00999
# Velocity P-wave (km/s) = 6.15950 7.12667 6.66067
#
# Compressibility (1/GPa) = 0.02757354
#
# Stress axis : x y z
#
# Youngs Moduli (GPa) = 72.11252 33.37021 125.68235
#
# Poissons Ratio (x) = 0.18468 0.22509
# Poissons Ratio (y) = 0.39909 0.60119
# Poissons Ratio (z) = 0.12915 0.15962
#
# Static dielectric constant tensor:
#      x y z
#    x 1.719240 0.000000 0.020760 
#    y 0.000000 1.744400 0.000000 
#    z 0.020760 0.000000 1.741370 
# 
# From -- ./inp_files/15324.got.cif
#   From: 2010.05.17/outbox.cif.g08.bks.cpg/sg14_8_cif.got.tgz:15324.got - 2010.06.03 17:49:19.
