data_PCOD9239221
_publ_section_title
;
Structure prediction by ZEFSAII (Michael W. Deem and Ramdas Pophale) SiO2 
 PCOD9239221
Probable space group: P 21/C
;
_chemical_formula_sum "Si O2"
_cell_formula_units_Z 28
_cell_length_a 12.166119
_cell_length_b 6.628282
_cell_length_c 19.376483
_cell_angle_alpha 90.000000
_cell_angle_beta 51.393133
_cell_angle_gamma 90.000000
_cell_volume 1221.031284
_symmetry_space_group_name_H-M "P 21/C"
_symmetry_group_IT_number 14
_symmetry_cell_setting 'monoclinic'
loop_
_space_group_symop_operation_xyz
x,y,z
-x,1/2+y,1/2-z
-x,-y,-z
x,1/2-y,1/2+z
loop_
_atom_site_type_symbol
_atom_site_label
_atom_site_fract_x
_atom_site_fract_y
_atom_site_fract_z
Si Si1 0.818220 0.660777 0.506003
Si Si2 0.850023 0.632609 0.848748
Si Si3 0.068842 0.769397 0.516351
Si Si4 0.381637 0.123546 0.804120
Si Si5 0.155579 0.245763 0.790324
Si Si6 0.704937 0.335032 0.177737
Si Si7 0.848427 0.294596 0.755508
O O1 0.816211 0.786897 0.437016
O O2 0.846668 0.421931 0.486211
O O3 0.669347 0.697044 0.601733
O O4 0.948826 0.713859 0.506386
O O5 0.802067 0.781102 0.805348
O O6 0.797614 0.410272 0.845198
O O7 0.018229 0.661620 0.777313
O O8 0.182091 0.892677 0.425957
O O9 0.974792 0.845888 0.617853
O O10 0.294657 0.254658 0.782905
O O11 0.545737 0.094642 0.729178
O O12 0.312872 0.904831 0.825885
O O13 0.112455 0.003687 0.801394
O O14 0.757887 0.335166 0.236725
#
# Coordination Sequence:
#
# PCOD9239221 Si02
#       7
#     4   4   4   4   4   4   4
#     4   9  14  28  55  79  92 139 173 214 248 308
#     4  10  16  32  52  79 108 126 166 216 267 304
#     4   9  14  29  57  76  95 129 193 209 241 295
#     4   9  19  33  53  72 106 135 179 209 255 297
#     4   8  17  30  53  80  96 130 168 221 253 297
#     4  10  18  35  53  78  99 138 175 218 248 307
#     4   9  18  30  53  77 104 131 167 211 267 300
#
# _framework density 22.931436000000001
#
# number of rings (size 3 to 8) (size 9 to 14) (size 15 to 20)
#    0.857    2.000    2.857    1.714    0.000    0.000 
#    2.571    2.143    3.143    5.143    0.000    0.000 
#    0.000    0.000    0.000    0.000    0.000    0.000 
#
# Total GULP energy -155906.329414 kJ/mol
# GULP energy per Si atom -5568.083193 kJ/mol
# Density = 2.287924 g / cm^3
# Si number density = 22.931436 Si / 1000 Ang^3
#
#
#
# Elastic Constant Matrix: (Units=GPa)
#
#
# Indices 1 2 3 4 5 6 
#
# 1 96.1531 13.4616 52.4664 0.0000 12.7688 0.0000
# 2 13.4616 68.9809 17.5198 0.0000 8.6885 0.0000
# 3 52.4664 17.5198 102.7138 0.0000 9.2784 0.0000
# 4 0.0000 0.0000 0.0000 23.7917 0.0000 2.3656
# 5 12.7688 8.6885 9.2784 0.0000 43.0915 0.0000
# 6 0.0000 0.0000 0.0000 2.3656 0.0000 31.8862
#
#
#
# Elastic Compliance Matrix: (Units=1/GPa)
#
#
# Indices 1 2 3 4 5 6 
#
# 1 0.014777 -0.000721 -0.007182 0.000000 -0.002687 0.000000
# 2 -0.000721 0.015468 -0.002047 0.000000 -0.002464 0.000000
# 3 -0.007182 -0.002047 0.013793 0.000000 -0.000429 0.000000
# 4 0.000000 0.000000 0.000000 0.042344 0.000000 -0.003141
# 5 -0.002687 -0.002464 -0.000429 0.000000 0.024592 0.000000
# 6 0.000000 0.000000 0.000000 -0.003141 0.000000 0.031595
#
#
# Mechanical properties :
#
#
# Convention : Reuss Voigt Hill
#
# Bulk Modulus (GPa) = 41.43266 48.30481 44.86874
# Shear Modulus (GPa) = 29.32303 32.04722 30.68512
#
# Velocity S-wave (km/s) = 3.57981 3.74240 3.66201
# Velocity P-wave (km/s) = 5.93245 6.30751 6.12285
#
# Compressibility (1/GPa) = 0.02413555
#
# Stress axis : x y z
#
# Youngs Moduli (GPa) = 67.67302 64.65012 72.50312
#
# Poissons Ratio (x) = 0.04662 0.52075
# Poissons Ratio (y) = 0.04880 0.14844
# Poissons Ratio (z) = 0.48605 0.13236
#
# Static dielectric constant tensor:
#      x y z
#    x 1.877320 0.000000 0.055940 
#    y 0.000000 2.053560 0.000000 
#    z 0.055940 0.000000 1.872730 
# 
# From -- ./inp_files/66812.got.cif
#   From: 2010.05.17/outbox.cif.g08.bks.cpg/sg14_34_cif.got.tgz:66812.got - 2010.06.03 17:49:19.
