data_PCOD9239784
_publ_section_title
;
Structure prediction by ZEFSAII (Michael W. Deem and Ramdas Pophale) SiO2 
 PCOD9239784
Probable space group: P 21/C
;
_chemical_formula_sum "Si O2"
_cell_formula_units_Z 20
_cell_length_a 9.361462
_cell_length_b 7.013378
_cell_length_c 15.177422
_cell_angle_alpha 90.000000
_cell_angle_beta 83.700011
_cell_angle_gamma 90.000000
_cell_volume 990.463029
_symmetry_space_group_name_H-M "P 21/C"
_symmetry_group_IT_number 14
_symmetry_cell_setting 'monoclinic'
loop_
_space_group_symop_operation_xyz
x,y,z
-x,1/2+y,1/2-z
-x,-y,-z
x,1/2-y,1/2+z
loop_
_atom_site_type_symbol
_atom_site_label
_atom_site_fract_x
_atom_site_fract_y
_atom_site_fract_z
Si Si1 0.713647 0.989518 0.227269
Si Si2 0.576424 0.208690 0.997955
Si Si3 0.834879 0.970124 0.031918
Si Si4 0.396223 0.855981 0.196053
Si Si5 0.692919 0.751141 0.885737
O O1 0.804378 0.928849 0.136289
O O2 0.551707 0.909279 0.223465
O O3 0.764505 0.899348 0.315670
O O4 0.695593 0.217462 0.236377
O O5 0.466764 0.312581 0.070355
O O6 0.735826 0.157836 0.019142
O O7 0.579590 0.263171 0.896003
O O8 0.500000 0.000000 0.000000
O O9 0.777174 0.807565 0.968821
O O10 0.000000 0.000000 0.000000
O O11 0.323375 0.053161 0.170124
#
# Coordination Sequence:
#
# PCOD9239784 Si02
#       5
#     4   4   4   4   4
#     4  12  19  34  61  89 110 151 193 230 293 333
#     4   8  15  35  54  77 111 143 183 228 284 319
#     4  10  20  39  56  78 124 155 176 239 289 329
#     4  10  18  31  59  87 113 143 186 240 279 332
#     4  10  20  38  59  85 114 145 195 237 280 338
#
# _framework density 20.192578000000001
#
# number of rings (size 3 to 8) (size 9 to 14) (size 15 to 20)
#    0.000    2.400    8.000    0.000    0.000    0.800 
#    7.200    2.000    0.000    6.000    0.000    0.000 
#    0.000    0.000    0.000    0.000    0.000    0.000 
#
# Total GULP energy -111402.869668 kJ/mol
# GULP energy per Si atom -5570.143483 kJ/mol
# Density = 2.014662 g / cm^3
# Si number density = 20.192578 Si / 1000 Ang^3
#
#
#
# Elastic Constant Matrix: (Units=GPa)
#
#
# Indices 1 2 3 4 5 6 
#
# 1 86.8749 -3.4014 9.7048 0.0000 -10.0176 0.0000
# 2 -3.4014 52.7245 -3.9286 0.0000 -2.4653 0.0000
# 3 9.7048 -3.9286 85.4851 0.0000 -5.4043 0.0000
# 4 0.0000 0.0000 0.0000 24.4760 0.0000 -2.6507
# 5 -10.0176 -2.4653 -5.4043 0.0000 12.9991 0.0000
# 6 0.0000 0.0000 0.0000 -2.6507 0.0000 3.9656
#
#
#
# Elastic Compliance Matrix: (Units=1/GPa)
#
#
# Indices 1 2 3 4 5 6 
#
# 1 0.012770 0.001222 -0.000777 0.000000 0.009749 0.000000
# 2 0.001222 0.019362 0.001071 0.000000 0.005059 0.000000
# 3 -0.000777 0.001071 0.012129 0.000000 0.004647 0.000000
# 4 0.000000 0.000000 0.000000 0.044045 0.000000 0.029441
# 5 0.009749 0.005059 0.004647 0.000000 0.087333 0.000000
# 6 0.000000 0.000000 0.000000 0.029441 0.000000 0.271849
#
#
# Mechanical properties :
#
#
# Convention : Reuss Voigt Hill
#
# Bulk Modulus (GPa) = 21.14551 25.53713 23.34132
# Shear Modulus (GPa) = 10.86437 23.13544 16.99991
#
# Velocity S-wave (km/s) = 2.32208 3.38855 2.90468
# Velocity P-wave (km/s) = 4.20524 5.28999 4.77849
#
# Compressibility (1/GPa) = 0.04729136
#
# Stress axis : x y z
#
# Youngs Moduli (GPa) = 78.31061 51.64849 82.44598
#
# Poissons Ratio (x) = -0.06310 0.06408
# Poissons Ratio (y) = -0.09568 -0.08829
# Poissons Ratio (z) = 0.06086 -0.05531
#
# Static dielectric constant tensor:
#      x y z
#    x 1.730260 0.000000 0.030380 
#    y 0.000000 1.878850 0.000000 
#    z 0.030380 0.000000 1.820790 
# 
# From -- ./inp_files/38643.got.cif
#   From: 2010.05.17/outbox.cif.g08.bks.cpg/sg14_20_cif.got.tgz:38643.got - 2010.06.03 17:49:19.
