data_PCOD9239143
_publ_section_title
;
Structure prediction by ZEFSAII (Michael W. Deem and Ramdas Pophale) SiO2 
 PCOD9239143
Probable space group: P 21/C
;
_chemical_formula_sum "Si O2"
_cell_formula_units_Z 32
_cell_length_a 5.440617
_cell_length_b 32.649942
_cell_length_c 6.540250
_cell_angle_alpha 90.000000
_cell_angle_beta 102.066296
_cell_angle_gamma 90.000000
_cell_volume 1136.114742
_symmetry_space_group_name_H-M "P 21/C"
_symmetry_group_IT_number 14
_symmetry_cell_setting 'monoclinic'
loop_
_space_group_symop_operation_xyz
x,y,z
-x,1/2+y,1/2-z
-x,-y,-z
x,1/2-y,1/2+z
loop_
_atom_site_type_symbol
_atom_site_label
_atom_site_fract_x
_atom_site_fract_y
_atom_site_fract_z
Si Si1 0.488630 0.212826 0.017096
Si Si2 0.982639 0.323190 0.451176
Si Si3 0.367209 0.461763 0.817559
Si Si4 0.781133 0.911156 0.085257
Si Si5 0.110469 0.559769 0.108075
Si Si6 0.428703 0.691746 0.002144
Si Si7 0.052302 0.346040 0.940800
Si Si8 0.285939 0.548486 0.614413
O O1 0.191957 0.209782 0.919142
O O2 0.548686 0.260539 0.047300
O O3 0.688755 0.190992 0.899191
O O4 0.524304 0.191718 0.242530
O O5 0.101067 0.366271 0.395196
O O6 0.011251 0.329155 0.704615
O O7 0.302201 0.423275 0.660106
O O8 0.636287 0.453320 0.962027
O O9 0.355507 0.501888 0.675987
O O10 0.149654 0.464293 0.946353
O O11 0.528315 0.921361 0.166538
O O12 0.023901 0.939036 0.177706
O O13 0.037271 0.607056 0.069217
O O14 0.202074 0.551789 0.360011
O O15 0.141463 0.676593 0.940510
O O16 0.656501 0.663344 0.962318
#
# Coordination Sequence:
#
# PCOD9239143 Si02
#       8
#     4   4   4   4   4   4   4   4
#     4  10  21  34  50  69  91 116 153 195 241 284
#     4  10  18  29  46  64  85 116 153 200 219 272
#     4  10  17  23  34  53  85 118 157 186 214 258
#     4  10  16  24  36  53  79 110 158 187 211 253
#     4  10  16  24  36  53  79 110 158 187 211 253
#     4  10  21  34  50  69  91 116 153 195 241 284
#     4  10  18  29  46  64  85 116 153 200 219 272
#     4  10  17  23  34  53  85 118 157 186 214 258
#
# _framework density 28.166170999999999
#
# number of rings (size 3 to 8) (size 9 to 14) (size 15 to 20)
#    0.000    2.000    2.500    6.000    7.000    0.000 
#    0.000    0.000    0.000    0.000    0.000    0.000 
#    0.000    0.000    0.000    0.000    0.000  145.000 
#
# Total GULP energy -179377.105469 kJ/mol
# GULP energy per Si atom -5605.534546 kJ/mol
# Density = 2.810206 g / cm^3
# Si number density = 28.166171 Si / 1000 Ang^3
#
#
#
# Elastic Constant Matrix: (Units=GPa)
#
#
# Indices 1 2 3 4 5 6 
#
# 1 296.2551 90.1876 35.3058 0.0000 -9.2037 0.0000
# 2 90.1876 147.8609 17.3723 0.0000 -4.4998 0.0000
# 3 35.3058 17.3723 48.2039 0.0000 -11.6877 0.0000
# 4 0.0000 0.0000 0.0000 46.2347 0.0000 1.9687
# 5 -9.2037 -4.4998 -11.6877 0.0000 69.3939 0.0000
# 6 0.0000 0.0000 0.0000 1.9687 0.0000 59.7726
#
#
#
# Elastic Compliance Matrix: (Units=1/GPa)
#
#
# Indices 1 2 3 4 5 6 
#
# 1 0.004386 -0.002399 -0.002340 0.000000 0.000032 0.000000
# 2 -0.002399 0.008375 -0.001258 0.000000 0.000013 0.000000
# 3 -0.002340 -0.001258 0.023789 0.000000 0.003615 0.000000
# 4 0.000000 0.000000 0.000000 0.021659 0.000000 -0.000713
# 5 0.000032 0.000013 0.003615 0.000000 0.015024 0.000000
# 6 0.000000 0.000000 0.000000 -0.000713 0.000000 0.016754
#
#
# Mechanical properties :
#
#
# Convention : Reuss Voigt Hill
#
# Bulk Modulus (GPa) = 40.72405 86.45013 63.58709
# Shear Modulus (GPa) = 45.38658 58.37718 51.88188
#
# Velocity S-wave (km/s) = 4.01856 4.55752 4.29650
# Velocity P-wave (km/s) = 6.00181 7.64553 6.87299
#
# Compressibility (1/GPa) = 0.02455551
#
# Stress axis : x y z
#
# Youngs Moduli (GPa) = 228.01545 119.40796 42.03684
#
# Poissons Ratio (x) = 0.28648 0.09836
# Poissons Ratio (y) = 0.54704 0.05287
# Poissons Ratio (z) = 0.53350 0.15019
#
# Static dielectric constant tensor:
#      x y z
#    x 2.202630 0.000000 -0.028430 
#    y 0.000000 2.057360 0.000000 
#    z -0.028430 0.000000 2.483740 
# 
# From -- ./inp_files/22266.got.cif
#   From: 2010.05.17/outbox.cif.g08.bks.cpg/sg14_12_cif.got.tgz:22266.got - 2010.06.03 17:49:19.
