data_PCOD9239036
_publ_section_title
;
Structure prediction by ZEFSAII (Michael W. Deem and Ramdas Pophale) SiO2 
 PCOD9239036
Probable space group: P 2/C
;
_chemical_formula_sum "Si O2"
_cell_formula_units_Z 20
_cell_length_a 12.000000
_cell_length_b 12.000000
_cell_length_c 15.000000
_cell_angle_alpha 90.000000
_cell_angle_beta 30.000000
_cell_angle_gamma 90.000000
_cell_volume 1080.000000
_symmetry_space_group_name_H-M "P 2/C"
_symmetry_group_IT_number 13
_symmetry_cell_setting 'monoclinic'
loop_
_space_group_symop_operation_xyz
x,y,z
-x,y,1/2-z
-x,-y,-z
x,-y,1/2+z
loop_
_atom_site_type_symbol
_atom_site_label
_atom_site_fract_x
_atom_site_fract_y
_atom_site_fract_z
Si Si1 0.283565 0.717170 0.694440
Si Si2 0.102226 0.816722 0.007219
Si Si3 0.500000 0.995405 0.750000
Si Si4 0.660634 0.389040 0.057005
Si Si5 0.000000 0.427017 0.250000
Si Si6 0.421438 0.105426 0.614946
O O1 0.153619 0.777749 0.868242
O O2 0.485865 0.649897 0.602205
O O3 0.417487 0.799107 0.535372
O O4 0.114414 0.645730 0.750011
O O5 0.182917 0.713459 0.014870
O O6 0.280511 0.915539 0.903972
O O7 0.844151 0.857013 0.202609
O O8 0.477425 0.069786 0.677240
O O9 0.500000 0.421386 0.250000
O O10 0.812378 0.490742 0.920348
O O11 0.500000 0.000000 0.500000
#
# Coordination Sequence:
#
# PCOD9239036 Si02
#       6
#     4   4   2   4   2   4
#     4  11  25  44  64 101 135 175 229 274 344 402
#     4  11  23  47  68  96 134 178 231 278 329 416
#     4  12  24  44  70 100 130 180 230 276 338 404
#     4  10  22  45  70  93 131 179 230 274 341 406
#     4  12  26  38  70 100 136 176 220 290 338 398
#     4  12  26  41  69  99 137 182 224 281 340 400
#
# _framework density 18.518519000000001
#
# number of rings (size 3 to 8) (size 9 to 14) (size 15 to 20)
#    0.000    0.800    5.000    2.400    2.800    7.200 
#    0.000    0.000    0.000    0.000    0.000    0.000 
#    0.000    0.000    0.000    0.000    0.000    0.000 
#
# Total GULP energy -111688.510387 kJ/mol
# GULP energy per Si atom -5584.425519 kJ/mol
# Density = 1.847637 g / cm^3
# Si number density = 18.518519 Si / 1000 Ang^3
#
#
#
# Elastic Constant Matrix: (Units=GPa)
#
#
# Indices 1 2 3 4 5 6 
#
# 1 172.2516 72.6088 66.9112 0.0000 -4.0997 0.0000
# 2 72.6088 100.3165 74.8587 0.0000 -8.6356 0.0000
# 3 66.9112 74.8587 154.4687 0.0000 -16.2906 0.0000
# 4 0.0000 0.0000 0.0000 42.2998 0.0000 3.8276
# 5 -4.0997 -8.6356 -16.2906 0.0000 29.7345 0.0000
# 6 0.0000 0.0000 0.0000 3.8276 0.0000 38.2850
#
#
#
# Elastic Compliance Matrix: (Units=1/GPa)
#
#
# Indices 1 2 3 4 5 6 
#
# 1 0.008501 -0.005346 -0.001201 0.000000 -0.001039 0.000000
# 2 -0.005346 0.018982 -0.006771 0.000000 0.001066 0.000000
# 3 -0.001201 -0.006771 0.010667 0.000000 0.003712 0.000000
# 4 0.000000 0.000000 0.000000 0.023857 0.000000 -0.002385
# 5 -0.001039 0.001066 0.003712 0.000000 0.035831 0.000000
# 6 0.000000 0.000000 0.000000 -0.002385 0.000000 0.026358
#
#
# Mechanical properties :
#
#
# Convention : Reuss Voigt Hill
#
# Bulk Modulus (GPa) = 86.85172 95.08825 90.96999
# Shear Modulus (GPa) = 32.32681 36.24106 34.28394
#
# Velocity S-wave (km/s) = 4.18263 4.42862 4.30738
# Velocity P-wave (km/s) = 8.38615 8.80962 8.60049
#
# Compressibility (1/GPa) = 0.01151388
#
# Stress axis : x y z
#
# Youngs Moduli (GPa) = 117.63637 52.68030 93.74755
#
# Poissons Ratio (x) = 0.28163 0.11259
# Poissons Ratio (y) = 0.62888 0.63477
# Poissons Ratio (z) = 0.14128 0.35670
#
# Static dielectric constant tensor:
#      x y z
#    x 1.638250 0.000000 0.014090 
#    y 0.000000 1.664010 0.000000 
#    z 0.014090 0.000000 1.628620 
# 
# From -- ./inp_files/33652.got.cif
#   From: 2010.05.17/outbox.ucp.g08.bks.cvg/sg13_17_cif.got.tgz:33652.got - 2010.06.11 12:23:55.
