data_PCOD9239046
_publ_section_title
;
Structure prediction by ZEFSAII (Michael W. Deem and Ramdas Pophale) SiO2 
 PCOD9239046
Probable space group: P 2/C
;
_chemical_formula_sum "Si O2"
_cell_formula_units_Z 22
_cell_length_a 21.000000
_cell_length_b 9.000000
_cell_length_c 9.000000
_cell_angle_alpha 90.000000
_cell_angle_beta 140.000000
_cell_angle_gamma 90.000000
_cell_volume 1093.381724
_symmetry_space_group_name_H-M "P 2/C"
_symmetry_group_IT_number 13
_symmetry_cell_setting 'monoclinic'
loop_
_space_group_symop_operation_xyz
x,y,z
-x,y,1/2-z
-x,-y,-z
x,-y,1/2+z
loop_
_atom_site_type_symbol
_atom_site_label
_atom_site_fract_x
_atom_site_fract_y
_atom_site_fract_z
Si Si1 0.760000 0.232158 0.028484
Si Si2 0.260354 0.991628 0.254359
Si Si3 0.150980 0.564608 0.273402
Si Si4 0.662844 0.796382 0.866704
Si Si5 0.000000 0.491643 0.750000
Si Si6 0.526706 0.660903 0.120449
O O1 0.640968 0.278892 0.810557
O O2 0.790854 0.142524 0.933034
O O3 0.781070 0.111300 0.198100
O O4 0.814930 0.390422 0.151748
O O5 0.298128 0.098680 0.194026
O O6 0.339173 0.896693 0.489938
O O7 0.252009 0.665961 0.458015
O O8 0.076438 0.595841 0.278378
O O9 0.077856 0.576732 0.999161
O O10 0.553993 0.754018 0.616484
O O11 0.500000 0.659026 0.250000
O O12 0.500000 0.500000 0.000000
#
# Coordination Sequence:
#
# PCOD9239046 Si02
#       6
#     4   4   4   4   2   4
#     4  11  23  42  66  92 136 169 217 260 320 372
#     4  10  24  39  62  97 130 178 210 261 314 385
#     4  11  22  43  70  92 124 165 212 279 310 396
#     4  11  23  42  66  92 136 169 217 260 320 372
#     4  10  24  38  68 102 116 154 224 268 340 364
#     4  12  26  39  63 102 130 174 217 260 306 378
#
# _framework density 20.121061000000001
#
# number of rings (size 3 to 8) (size 9 to 14) (size 15 to 20)
#    0.000    1.091    3.636    2.182    2.545    4.364 
#    0.000    0.000    0.000   76.364    0.000    0.000 
#    0.000    0.000    0.000    0.000    0.000    0.000 
#
# Total GULP energy -122504.296664 kJ/mol
# GULP energy per Si atom -5568.377121 kJ/mol
# Density = 2.007526 g / cm^3
# Si number density = 20.121061 Si / 1000 Ang^3
#
#
#
# Elastic Constant Matrix: (Units=GPa)
#
#
# Indices 1 2 3 4 5 6 
#
# 1 50.9670 13.6479 31.1093 0.0000 -8.6416 0.0000
# 2 13.6479 124.6095 39.4275 0.0000 -6.4363 0.0000
# 3 31.1093 39.4275 131.6065 0.0000 -11.7734 0.0000
# 4 0.0000 0.0000 0.0000 34.9621 0.0000 -9.1174
# 5 -8.6416 -6.4363 -11.7734 0.0000 50.2556 0.0000
# 6 0.0000 0.0000 0.0000 -9.1174 0.0000 27.6728
#
#
#
# Elastic Compliance Matrix: (Units=1/GPa)
#
#
# Indices 1 2 3 4 5 6 
#
# 1 0.023378 -0.000826 -0.005034 0.000000 0.002735 0.000000
# 2 -0.000826 0.008908 -0.002435 0.000000 0.000428 0.000000
# 3 -0.005034 -0.002435 0.009614 0.000000 0.001075 0.000000
# 4 0.000000 0.000000 0.000000 0.031291 0.000000 0.010309
# 5 0.002735 0.000428 0.001075 0.000000 0.020675 0.000000
# 6 0.000000 0.000000 0.000000 0.010309 0.000000 0.039533
#
#
# Mechanical properties :
#
#
# Convention : Reuss Voigt Hill
#
# Bulk Modulus (GPa) = 39.51101 52.83915 46.17508
# Shear Modulus (GPa) = 31.56029 37.44467 34.50248
#
# Velocity S-wave (km/s) = 3.96475 4.31858 4.14544
# Velocity P-wave (km/s) = 6.37482 7.15433 6.77579
#
# Compressibility (1/GPa) = 0.02530940
#
# Stress axis : x y z
#
# Youngs Moduli (GPa) = 42.77504 112.25617 104.01496
#
# Poissons Ratio (x) = 0.09278 0.52360
# Poissons Ratio (y) = 0.03535 0.25329
# Poissons Ratio (z) = 0.21532 0.27335
#
# Static dielectric constant tensor:
#      x y z
#    x 1.755650 0.000000 -0.034700 
#    y 0.000000 1.765610 0.000000 
#    z -0.034700 0.000000 1.731100 
# 
# From -- ./inp_files/20980.got.cif
#   From: 2010.05.17/outbox.ucp.g08.bks.cvg/sg13_11_cif.got.tgz:20980.got - 2010.06.11 12:23:55.
