data_PCOD9239979
_publ_section_title
;
Structure prediction by ZEFSAII (Michael W. Deem and Ramdas Pophale) SiO2 
 PCOD9239979
Probable space group: P 21/C
;
_chemical_formula_sum "Si O2"
_cell_formula_units_Z 16
_cell_length_a 7.237627
_cell_length_b 7.317630
_cell_length_c 12.016227
_cell_angle_alpha 90.000000
_cell_angle_beta 70.773223
_cell_angle_gamma 90.000000
_cell_volume 600.909606
_symmetry_space_group_name_H-M "P 21/C"
_symmetry_group_IT_number 14
_symmetry_cell_setting 'monoclinic'
loop_
_space_group_symop_operation_xyz
x,y,z
-x,1/2+y,1/2-z
-x,-y,-z
x,1/2-y,1/2+z
loop_
_atom_site_type_symbol
_atom_site_label
_atom_site_fract_x
_atom_site_fract_y
_atom_site_fract_z
Si Si1 0.942960 0.594878 0.125732
Si Si2 0.336296 0.008786 0.624960
Si Si3 0.819295 0.579584 0.379513
Si Si4 0.244543 0.016409 0.875446
O O1 0.160167 0.629199 0.131331
O O2 0.836786 0.497397 0.251579
O O3 0.816550 0.771138 0.121333
O O4 0.000000 0.500000 0.000000
O O5 0.250720 0.214079 0.628790
O O6 0.389935 0.978718 0.744083
O O7 0.500000 0.000000 0.500000
O O8 0.704064 0.487668 0.505898
O O9 0.041532 0.583764 0.384002
#
# Coordination Sequence:
#
# PCOD9239979 Si02
#       4
#     4   4   4   4
#     4  10  18  33  60  84 110 154 196 231 284 355
#     4  10  20  35  56  86 119 150 184 244 299 337
#     4   9  18  34  59  82 114 147 197 236 278 347
#     4   9  18  35  59  83 113 153 200 237 273 358
#
# _framework density 26.626301000000002
#
# number of rings (size 3 to 8) (size 9 to 14) (size 15 to 20)
#    0.000    2.500    2.500    0.000    0.000    0.000 
#    0.000    8.750    0.000    0.000    0.000    0.000 
#    0.000    0.000    0.000    0.000    0.000    0.000 
#
# Total GULP energy -89331.497336 kJ/mol
# GULP energy per Si atom -5583.218583 kJ/mol
# Density = 2.656570 g / cm^3
# Si number density = 26.626301 Si / 1000 Ang^3
#
#
#
# Elastic Constant Matrix: (Units=GPa)
#
#
# Indices 1 2 3 4 5 6 
#
# 1 73.0245 1.0115 36.8975 0.0000 2.6256 0.0000
# 2 1.0115 73.1188 37.7950 0.0000 9.8052 0.0000
# 3 36.8975 37.7950 356.1555 0.0000 33.3417 0.0000
# 4 0.0000 0.0000 0.0000 40.1539 0.0000 4.4112
# 5 2.6256 9.8052 33.3417 0.0000 27.8484 0.0000
# 6 0.0000 0.0000 0.0000 4.4112 0.0000 15.3088
#
#
#
# Elastic Compliance Matrix: (Units=1/GPa)
#
#
# Indices 1 2 3 4 5 6 
#
# 1 0.014479 0.000578 -0.001593 0.000000 0.000339 0.000000
# 2 0.000578 0.014834 -0.001284 0.000000 -0.003740 0.000000
# 3 -0.001593 -0.001284 0.003438 0.000000 -0.003514 0.000000
# 4 0.000000 0.000000 0.000000 0.025718 0.000000 -0.007411
# 5 0.000339 -0.003740 -0.003514 0.000000 0.041401 0.000000
# 6 0.000000 0.000000 0.000000 -0.007411 0.000000 0.067457
#
#
# Mechanical properties :
#
#
# Convention : Reuss Voigt Hill
#
# Bulk Modulus (GPa) = 35.52140 72.63407 54.07773
# Shear Modulus (GPa) = 27.57724 45.10188 36.33956
#
# Velocity S-wave (km/s) = 3.22174 4.12015 3.69833
# Velocity P-wave (km/s) = 5.21624 7.06912 6.21215
#
# Compressibility (1/GPa) = 0.02815204
#
# Stress axis : x y z
#
# Youngs Moduli (GPa) = 69.06666 67.41471 290.86707
#
# Poissons Ratio (x) = -0.03895 0.46335
# Poissons Ratio (y) = -0.03990 0.37343
# Poissons Ratio (z) = 0.11002 0.08655
#
# Static dielectric constant tensor:
#      x y z
#    x 2.111630 0.000000 0.003660 
#    y 0.000000 1.919310 0.000000 
#    z 0.003660 0.000000 2.197860 
# 
# From -- ./inp_files/22652.got.cif
#   From: 2010.05.17/outbox.cif.g08.bks.cpg/sg14_12_cif.got.tgz:22652.got - 2010.06.03 17:49:19.
