data_PCOD9239366
_publ_section_title
;
Structure prediction by ZEFSAII (Michael W. Deem and Ramdas Pophale) SiO2 
 PCOD9239366
Probable space group: P 21/C
;
_chemical_formula_sum "Si O2"
_cell_formula_units_Z 32
_cell_length_a 11.567948
_cell_length_b 15.478544
_cell_length_c 10.360446
_cell_angle_alpha 90.000000
_cell_angle_beta 129.693480
_cell_angle_gamma 90.000000
_cell_volume 1427.439930
_symmetry_space_group_name_H-M "P 21/C"
_symmetry_group_IT_number 14
_symmetry_cell_setting 'monoclinic'
loop_
_space_group_symop_operation_xyz
x,y,z
-x,1/2+y,1/2-z
-x,-y,-z
x,1/2-y,1/2+z
loop_
_atom_site_type_symbol
_atom_site_label
_atom_site_fract_x
_atom_site_fract_y
_atom_site_fract_z
Si Si1 0.534956 0.643512 0.541387
Si Si2 0.319302 0.785403 0.672382
Si Si3 0.601644 0.006060 0.880249
Si Si4 0.804202 0.134049 0.784905
Si Si5 0.238474 0.205292 0.247031
Si Si6 0.969185 0.307186 0.163600
Si Si7 0.481016 0.892141 0.574653
Si Si8 0.111088 0.078553 0.947713
O O1 0.410238 0.694105 0.367439
O O2 0.462490 0.592895 0.608137
O O3 0.587223 0.568591 0.479544
O O4 0.668120 0.705692 0.683056
O O5 0.125586 0.795858 0.270241
O O6 0.428635 0.814036 0.634270
O O7 0.159089 0.831637 0.531083
O O8 0.512336 0.970538 0.693430
O O9 0.777019 0.001018 0.971956
O O10 0.661115 0.091413 0.615848
O O11 0.740563 0.188044 0.857964
O O12 0.947746 0.073078 0.895344
O O13 0.366530 0.138035 0.388274
O O14 0.081208 0.229828 0.204240
O O15 0.193883 0.158982 0.080346
O O16 0.071056 0.388983 0.275365
#
# Coordination Sequence:
#
# PCOD9239366 Si02
#       8
#     4   4   4   4   4   4   4   4
#     4  10  18  29  49  67 104 131 158 198 246 295
#     4  10  17  31  45  74  98 123 158 200 243 286
#     4   9  18  32  43  71 102 134 156 194 250 293
#     4   9  16  29  47  68  97 122 157 200 237 283
#     4  11  17  29  48  74  95 127 160 203 237 283
#     4   9  17  29  45  70 102 117 157 199 241 284
#     4   9  19  28  48  70 100 123 162 198 237 290
#     4   9  18  29  47  68  98 126 161 193 239 288
#
# _framework density 22.417755
#
# number of rings (size 3 to 8) (size 9 to 14) (size 15 to 20)
#    0.750    1.750    3.750    0.000    0.000    0.000 
#    0.000    1.875    0.000    0.000    0.000   15.750 
#    0.000    0.000    0.000    0.000    0.000    0.000 
#
# Total GULP energy -178199.748430 kJ/mol
# GULP energy per Si atom -5568.742138 kJ/mol
# Density = 2.236673 g / cm^3
# Si number density = 22.417755 Si / 1000 Ang^3
#
#
#
# Elastic Constant Matrix: (Units=GPa)
#
#
# Indices 1 2 3 4 5 6 
#
# 1 116.5308 67.1583 37.6257 0.0000 32.0639 0.0000
# 2 67.1583 -114.7632 -33.4179 0.0000 -66.1352 0.0000
# 3 37.6257 -33.4179 84.1821 0.0000 15.6956 0.0000
# 4 0.0000 0.0000 0.0000 2.8437 0.0000 -14.0755
# 5 32.0639 -66.1352 15.6956 0.0000 7.5457 0.0000
# 6 0.0000 0.0000 0.0000 -14.0755 0.0000 41.7864
#
#
#
# Elastic Compliance Matrix: (Units=1/GPa)
#
#
# Indices 1 2 3 4 5 6 
#
# 1 0.006808 0.003062 -0.002347 0.000000 0.002787 0.000000
# 2 0.003062 0.000272 0.001178 0.000000 -0.013078 0.000000
# 3 -0.002347 0.001178 0.015700 0.000000 -0.012361 0.000000
# 4 0.000000 0.000000 0.000000 -0.527002 0.000000 -0.177517
# 5 0.002787 -0.013078 -0.012361 0.000000 0.031770 0.000000
# 6 0.000000 0.000000 0.000000 -0.177517 0.000000 -0.035864
#
#
# Mechanical properties :
#
#
# Convention : Reuss Voigt Hill
#
# Bulk Modulus (GPa) = 37.64368 25.40914 31.52641
# Shear Modulus (GPa) = -9.93551 11.40739 0.73594
#
# Velocity S-wave (km/s) = -2.10751 2.25823 0.57358
# Velocity P-wave (km/s) = 3.30246 4.26127 3.81213
#
# Compressibility (1/GPa) = 0.02656489
#
# Stress axis : x y z
#
# Youngs Moduli (GPa) = 146.88479 3680.07837 63.69325
#
# Poissons Ratio (x) = -11.26700 0.14949
# Poissons Ratio (y) = -0.44971 -0.07502
# Poissons Ratio (z) = 0.34475 -4.33470
#
# Static dielectric constant tensor:
#      x y z
#    x 1.890940 0.000000 0.000230 
#    y 0.000000 1.873960 0.000000 
#    z 0.000230 0.000000 1.835780 
# 
# From -- ./inp_files/32881.got.cif
#   From: 2010.05.17/outbox.cif.g08.bks.cpg/sg14_17_cif.got.tgz:32881.got - 2010.06.03 17:49:19.
