data_PCOD9239736
_publ_section_title
;
Structure prediction by ZEFSAII (Michael W. Deem and Ramdas Pophale) SiO2 
 PCOD9239736
Probable space group: P 21/C
;
_chemical_formula_sum "Si O2"
_cell_formula_units_Z 24
_cell_length_a 16.813265
_cell_length_b 9.336045
_cell_length_c 32.503368
_cell_angle_alpha 90.000000
_cell_angle_beta 14.849787
_cell_angle_gamma 90.000000
_cell_volume 1307.578795
_symmetry_space_group_name_H-M "P 21/C"
_symmetry_group_IT_number 14
_symmetry_cell_setting 'monoclinic'
loop_
_space_group_symop_operation_xyz
x,y,z
-x,1/2+y,1/2-z
-x,-y,-z
x,1/2-y,1/2+z
loop_
_atom_site_type_symbol
_atom_site_label
_atom_site_fract_x
_atom_site_fract_y
_atom_site_fract_z
Si Si1 0.371583 0.589095 0.854893
Si Si2 0.628353 0.589052 0.226511
Si Si3 0.629377 0.586971 0.811208
Si Si4 0.628600 0.587910 0.397276
Si Si5 0.629419 0.413046 0.559393
Si Si6 0.628591 0.412096 0.974128
O O1 0.449446 0.500027 0.775275
O O2 0.499935 0.750026 0.786076
O O3 0.514655 0.524062 0.825252
O O4 0.999970 0.594974 0.045283
O O5 0.485325 0.524027 0.339923
O O6 0.499961 0.750004 0.875028
O O7 0.999977 0.589266 0.627734
O O8 0.492364 0.524634 0.921902
O O9 0.500000 0.500000 0.500000
O O10 0.507617 0.524635 0.414278
O O11 0.500009 0.750002 0.464395
O O12 0.000002 0.590748 0.211540
O O13 0.500000 0.500000 0.000000
#
# Coordination Sequence:
#
# PCOD9239736 Si02
#       6
#     4   4   4   4   4   4
#     4  10  20  34  53  77 104 135 172 213 258 307
#     4  10  20  34  53  77 104 135 172 213 258 307
#     4  10  18  31  52  76 102 136 175 212 255 308
#     4  11  21  36  56  80 108 139 176 217 262 311
#     4  10  18  31  52  76 102 136 175 212 255 308
#     4  11  21  36  56  80 108 139 176 217 262 311
#
# _framework density 18.354534999999998
#
# number of rings (size 3 to 8) (size 9 to 14) (size 15 to 20)
#    0.000    1.667    0.000   11.000    0.000    2.667 
#    0.000    1.667    0.000    4.000    0.000    0.000 
#    0.000    0.000    0.000    0.000    0.000    0.000 
#
# Total GULP energy -133960.979198 kJ/mol
# GULP energy per Si atom -5581.707467 kJ/mol
# Density = 1.831276 g / cm^3
# Si number density = 18.354535 Si / 1000 Ang^3
#
#
#
# Elastic Constant Matrix: (Units=GPa)
#
#
# Indices 1 2 3 4 5 6 
#
# 1 223.8718 52.1731 106.5828 0.0002 15.1499 -0.0001
# 2 52.1731 32.8144 29.7658 0.0005 6.1347 0.0000
# 3 106.5828 29.7658 174.3856 -0.0008 -1.5653 0.0024
# 4 0.0002 0.0005 -0.0008 21.2987 -0.0005 2.3187
# 5 15.1499 6.1347 -1.5653 -0.0005 35.5668 -0.0003
# 6 -0.0001 0.0000 0.0024 2.3187 -0.0003 29.7825
#
#
#
# Elastic Compliance Matrix: (Units=1/GPa)
#
#
# Indices 1 2 3 4 5 6 
#
# 1 0.008689 -0.010159 -0.003595 0.000000 -0.002107 0.000000
# 2 -0.010159 0.049500 -0.002278 -0.000001 -0.004311 0.000000
# 3 -0.003595 -0.002278 0.008341 0.000001 0.002292 -0.000001
# 4 0.000000 -0.000001 0.000001 0.047353 0.000001 -0.003687
# 5 -0.002107 -0.004311 0.002292 0.000001 0.029858 0.000000
# 6 0.000000 0.000000 -0.000001 -0.003687 0.000000 0.033864
#
#
# Mechanical properties :
#
#
# Convention : Reuss Voigt Hill
#
# Bulk Modulus (GPa) = 29.01608 89.79060 59.40334
# Shear Modulus (GPa) = 22.60821 33.49961 28.05391
#
# Velocity S-wave (km/s) = 3.51344 4.27680 3.91378
# Velocity P-wave (km/s) = 5.68348 8.56822 7.27036
#
# Compressibility (1/GPa) = 0.03446365
#
# Stress axis : x y z
#
# Youngs Moduli (GPa) = 115.09152 20.20202 119.88545
#
# Poissons Ratio (x) = 0.20524 0.43102
# Poissons Ratio (y) = 1.16927 0.27316
# Poissons Ratio (z) = 0.41379 0.04603
#
# Static dielectric constant tensor:
#      x y z
#    x 1.689270 0.000000 0.022020 
#    y 0.000000 1.637300 0.000000 
#    z 0.022020 0.000000 1.608590 
# 
# From -- ./inp_files/17745.got.cif
#   From: 2010.05.17/outbox.cif.g08.bks.cpg/sg14_9_cif.got.tgz:17745.got - 2010.06.03 17:49:19.
