data_PCOD9239100
_publ_section_title
;
Structure prediction by ZEFSAII (Michael W. Deem and Ramdas Pophale) SiO2 
 PCOD9239100
Probable space group: P 21/C
;
_chemical_formula_sum "Si O2"
_cell_formula_units_Z 28
_cell_length_a 14.993896
_cell_length_b 12.200786
_cell_length_c 8.780087
_cell_angle_alpha 90.000000
_cell_angle_beta 75.635671
_cell_angle_gamma 90.000000
_cell_volume 1555.992037
_symmetry_space_group_name_H-M "P 21/C"
_symmetry_group_IT_number 14
_symmetry_cell_setting 'monoclinic'
loop_
_space_group_symop_operation_xyz
x,y,z
-x,1/2+y,1/2-z
-x,-y,-z
x,1/2-y,1/2+z
loop_
_atom_site_type_symbol
_atom_site_label
_atom_site_fract_x
_atom_site_fract_y
_atom_site_fract_z
Si Si1 0.094529 0.216770 0.126282
Si Si2 0.274122 0.400891 0.811324
Si Si3 0.777366 0.838316 0.177269
Si Si4 0.544907 0.611196 0.422572
Si Si5 0.491508 0.664018 0.095380
Si Si6 0.352272 0.489700 0.084963
Si Si7 0.055986 0.099253 0.410532
O O1 0.160411 0.289885 0.209562
O O2 0.027396 0.146475 0.259294
O O3 0.156478 0.139823 0.992534
O O4 0.048311 0.302383 0.033654
O O5 0.279457 0.270385 0.849415
O O6 0.344669 0.408059 0.640566
O O7 0.165513 0.424260 0.840406
O O8 0.308273 0.475297 0.936310
O O9 0.717323 0.937817 0.263253
O O10 0.500000 0.500000 0.500000
O O11 0.513806 0.639704 0.262631
O O12 0.511435 0.710906 0.542837
O O13 0.392220 0.609619 0.102704
O O14 0.561693 0.594238 0.960189
O O15 0.000000 0.000000 0.500000
#
# Coordination Sequence:
#
# PCOD9239100 Si02
#       7
#     4   4   4   4   4   4   4
#     4   8  18  30  54  88 106 138 193 237 277 345
#     4   9  19  33  58  82 109 148 190 236 291 348
#     4  10  14  30  55  84 106 139 186 234 287 338
#     4  11  24  38  57  80 118 157 198 236 279 344
#     4  10  24  33  54  84 110 150 195 239 286 330
#     4  10  18  33  53  81 115 141 182 245 291 328
#     4  10  19  35  59  84 111 144 187 241 293 336
#
# _framework density 17.994951
#
# number of rings (size 3 to 8) (size 9 to 14) (size 15 to 20)
#    0.000    2.571    4.286    0.000    6.000    2.286 
#    0.000    2.857    3.143    0.000    0.000    0.000 
#    0.000    0.000    0.000    0.000    0.000    0.000 
#
# Total GULP energy -155922.108781 kJ/mol
# GULP energy per Si atom -5568.646742 kJ/mol
# Density = 1.795399 g / cm^3
# Si number density = 17.994951 Si / 1000 Ang^3
#
#
#
# Elastic Constant Matrix: (Units=GPa)
#
#
# Indices 1 2 3 4 5 6 
#
# 1 26.5732 32.1197 20.7943 0.0000 -19.6113 0.0000
# 2 32.1197 104.2688 60.3120 0.0000 -29.1447 0.0000
# 3 20.7943 60.3120 126.8770 0.0000 -21.6144 0.0000
# 4 0.0000 0.0000 0.0000 27.8378 0.0000 -8.1399
# 5 -19.6113 -29.1447 -21.6144 0.0000 25.4319 0.0000
# 6 0.0000 0.0000 0.0000 -8.1399 0.0000 27.0998
#
#
#
# Elastic Compliance Matrix: (Units=1/GPa)
#
#
# Indices 1 2 3 4 5 6 
#
# 1 0.098697 -0.013820 0.000773 0.000000 0.060927 0.000000
# 2 -0.013820 0.018819 -0.005639 0.000000 0.006117 0.000000
# 3 0.000773 -0.005639 0.011034 0.000000 0.003512 0.000000
# 4 0.000000 0.000000 0.000000 0.039381 0.000000 0.011829
# 5 0.060927 0.006117 0.003512 0.000000 0.096299 0.000000
# 6 0.000000 0.000000 0.000000 0.011829 0.000000 0.040454
#
#
# Mechanical properties :
#
#
# Convention : Reuss Voigt Hill
#
# Bulk Modulus (GPa) = 10.96753 53.79678 32.38216
# Shear Modulus (GPa) = 13.42469 25.70675 19.56572
#
# Velocity S-wave (km/s) = 2.73431 3.78372 3.30098
# Velocity P-wave (km/s) = 4.00956 7.00351 5.70639
#
# Compressibility (1/GPa) = 0.09117824
#
# Stress axis : x y z
#
# Youngs Moduli (GPa) = 10.13201 53.13666 90.63227
#
# Poissons Ratio (x) = 0.73437 -0.07009
# Poissons Ratio (y) = 0.14003 0.51106
# Poissons Ratio (z) = -0.00784 0.29963
#
# Static dielectric constant tensor:
#      x y z
#    x 1.684170 0.000000 0.021340 
#    y 0.000000 1.611510 0.000000 
#    z 0.021340 0.000000 1.663930 
# 
# From -- ./inp_files/15319.got.cif
#   From: 2010.05.17/outbox.cif.g08.bks.cpg/sg14_8_cif.got.tgz:15319.got - 2010.06.03 17:49:19.
