data_PCOD9239144
_publ_section_title
;
Structure prediction by ZEFSAII (Michael W. Deem and Ramdas Pophale) SiO2 
 PCOD9239144
Probable space group: P 21/C
;
_chemical_formula_sum "Si O2"
_cell_formula_units_Z 32
_cell_length_a 11.287186
_cell_length_b 13.969685
_cell_length_c 13.363978
_cell_angle_alpha 90.000000
_cell_angle_beta 145.844025
_cell_angle_gamma 90.000000
_cell_volume 1183.088828
_symmetry_space_group_name_H-M "P 21/C"
_symmetry_group_IT_number 14
_symmetry_cell_setting 'monoclinic'
loop_
_space_group_symop_operation_xyz
x,y,z
-x,1/2+y,1/2-z
-x,-y,-z
x,1/2-y,1/2+z
loop_
_atom_site_type_symbol
_atom_site_label
_atom_site_fract_x
_atom_site_fract_y
_atom_site_fract_z
Si Si1 0.149221 0.107265 0.721440
Si Si2 0.693080 0.628502 0.095219
Si Si3 0.222082 0.936804 0.230740
Si Si4 0.531135 0.799878 0.682546
Si Si5 0.845821 0.925106 0.499480
Si Si6 0.895500 0.204533 0.712276
Si Si7 0.383796 0.475831 0.649786
Si Si8 0.617902 0.378378 0.499351
O O1 0.063046 0.182403 0.742839
O O2 0.109968 0.128658 0.574833
O O3 0.404050 0.103884 0.909604
O O4 0.026074 0.005416 0.642111
O O5 0.774829 0.525851 0.191410
O O6 0.682992 0.689268 0.191634
O O7 0.449903 0.615152 0.894718
O O8 0.809382 0.643115 0.070665
O O9 0.063474 0.857026 0.159956
O O10 0.228103 0.982892 0.125966
O O11 0.311507 0.844000 0.487258
O O12 0.461028 0.691119 0.648175
O O13 0.599217 0.862792 0.822828
O O14 0.625069 0.984699 0.330227
O O15 0.789326 0.307158 0.665607
O O16 0.303417 0.524770 0.493791
#
# Coordination Sequence:
#
# PCOD9239144 Si02
#       8
#     4   4   4   4   4   4   4   4
#     4  10  16  24  40  62  94 111 137 174 229 267
#     4   8  11  21  39  63  84 106 133 159 224 275
#     4   8  12  20  42  61  81 115 130 163 218 268
#     4   8  15  26  42  62  91 115 138 173 218 258
#     4   9  14  21  40  68  84 108 129 180 233 268
#     4   9  15  28  40  62  92 114 135 177 220 261
#     4   9  14  26  44  67  88 111 146 177 223 264
#     4   9  19  26  41  68  89 115 144 178 221 267
#
# _framework density 27.047843
#
# number of rings (size 3 to 8) (size 9 to 14) (size 15 to 20)
#    0.750    2.500    2.500    1.500    0.000    0.000 
#    0.000    0.000    2.750    0.750    0.000    0.875 
#    0.000    0.000    0.000    0.000    0.000    0.000 
#
# Total GULP energy -178524.142906 kJ/mol
# GULP energy per Si atom -5578.879466 kJ/mol
# Density = 2.698628 g / cm^3
# Si number density = 27.047843 Si / 1000 Ang^3
#
#
#
# Elastic Constant Matrix: (Units=GPa)
#
#
# Indices 1 2 3 4 5 6 
#
# 1 166.3342 35.7594 30.0687 0.0000 7.7454 0.0000
# 2 35.7594 78.5997 9.3422 0.0000 -23.0568 0.0000
# 3 30.0687 9.3422 104.0068 0.0000 15.9214 0.0000
# 4 0.0000 0.0000 0.0000 20.7540 0.0000 -6.1353
# 5 7.7454 -23.0568 15.9214 0.0000 37.0211 0.0000
# 6 0.0000 0.0000 0.0000 -6.1353 0.0000 50.4293
#
#
#
# Elastic Compliance Matrix: (Units=1/GPa)
#
#
# Indices 1 2 3 4 5 6 
#
# 1 0.007313 -0.004270 -0.001166 0.000000 -0.003688 0.000000
# 2 -0.004270 0.019044 -0.002600 0.000000 0.013872 0.000000
# 3 -0.001166 -0.002600 0.011128 0.000000 -0.006161 0.000000
# 4 0.000000 0.000000 0.000000 0.049981 0.000000 0.006081
# 5 -0.003688 0.013872 -0.006161 0.000000 0.039072 0.000000
# 6 0.000000 0.000000 0.000000 0.006081 0.000000 0.020570
#
#
# Mechanical properties :
#
#
# Convention : Reuss Voigt Hill
#
# Bulk Modulus (GPa) = 46.69991 55.47569 51.08780
# Shear Modulus (GPa) = 29.35718 39.89223 34.62470
#
# Velocity S-wave (km/s) = 3.29808 3.84458 3.58177
# Velocity P-wave (km/s) = 5.63971 6.34527 6.00286
#
# Compressibility (1/GPa) = 0.02141332
#
# Stress axis : x y z
#
# Youngs Moduli (GPa) = 136.75197 52.51126 89.85969
#
# Poissons Ratio (x) = 0.22423 0.10477
# Poissons Ratio (y) = 0.58395 0.23359
# Poissons Ratio (z) = 0.15945 0.13650
#
# Static dielectric constant tensor:
#      x y z
#    x 2.140820 0.000000 -0.019730 
#    y 0.000000 2.152330 0.000000 
#    z -0.019730 0.000000 2.194020 
# 
# From -- ./inp_files/67453.got.cif
#   From: 2010.05.17/outbox.cif.g08.bks.cpg/sg14_34_cif.got.tgz:67453.got - 2010.06.03 17:49:19.
