data_PCOD9239778
_publ_section_title
;
Structure prediction by ZEFSAII (Michael W. Deem and Ramdas Pophale) SiO2 
 PCOD9239778
Probable space group: P 21/C
;
_chemical_formula_sum "Si O2"
_cell_formula_units_Z 32
_cell_length_a 19.627848
_cell_length_b 20.040567
_cell_length_c 22.242652
_cell_angle_alpha 90.000000
_cell_angle_beta 11.816612
_cell_angle_gamma 90.000000
_cell_volume 1791.663635
_symmetry_space_group_name_H-M "P 21/C"
_symmetry_group_IT_number 14
_symmetry_cell_setting 'monoclinic'
loop_
_space_group_symop_operation_xyz
x,y,z
-x,1/2+y,1/2-z
-x,-y,-z
x,1/2-y,1/2+z
loop_
_atom_site_type_symbol
_atom_site_label
_atom_site_fract_x
_atom_site_fract_y
_atom_site_fract_z
Si Si1 0.918881 0.504240 0.293508
Si Si2 0.331081 0.822837 0.800011
Si Si3 0.494068 0.110361 0.136831
Si Si4 0.326938 0.243729 0.599789
Si Si5 0.890968 0.188671 0.692044
Si Si6 0.615211 0.435021 0.658285
Si Si7 0.718869 0.724825 0.555636
Si Si8 0.056759 0.658052 0.158417
O O1 0.397818 0.532876 0.464185
O O2 0.854068 0.489651 0.420630
O O3 0.954522 0.581295 0.248553
O O4 0.251202 0.466183 0.984327
O O5 0.529380 0.814587 0.567067
O O6 0.284501 0.895746 0.868741
O O7 0.547093 0.781667 0.662689
O O8 0.978906 0.785775 0.098481
O O9 0.599295 0.117880 0.116244
O O10 0.115644 0.134852 0.462119
O O11 0.710501 0.152720 0.903902
O O12 0.615782 0.276188 0.389336
O O13 0.173962 0.300503 0.688319
O O14 0.137268 0.242988 0.508488
O O15 0.002364 0.691626 0.270258
O O16 0.435039 0.670304 0.812646
#
# Coordination Sequence:
#
# PCOD9239778 Si02
#       8
#     4   4   4   4   4   4   4   4
#     4  10  18  33  51  80 101 132 178 224 242 303
#     4  10  18  35  51  79  98 133 177 215 266 296
#     4  10  19  31  54  75 102 134 175 219 242 298
#     4  10  23  33  51  77 116 137 161 215 269 315
#     4  12  20  35  52  81 106 138 175 210 260 314
#     4  10  18  31  57  78  96 133 176 231 239 292
#     4  10  19  31  55  73  99 140 170 215 257 311
#     4  10  21  35  51  77 110 136 170 213 265 304
#
# _framework density 17.860496000000001
#
# number of rings (size 3 to 8) (size 9 to 14) (size 15 to 20)
#    0.750    1.000    2.500    3.000    3.500    0.000 
#    0.000    1.250    0.000    0.000    0.000   17.500 
#    0.000    0.000    0.000    0.000    0.000    0.000 
#
# Total GULP energy -178233.263780 kJ/mol
# GULP energy per Si atom -5569.789493 kJ/mol
# Density = 1.781984 g / cm^3
# Si number density = 17.860496 Si / 1000 Ang^3
#
#
#
# Elastic Constant Matrix: (Units=GPa)
#
#
# Indices 1 2 3 4 5 6 
#
# 1 11.5467 51.4927 5.7122 0.0000 22.1251 0.0000
# 2 51.4927 -142.4080 42.2439 0.0000 -96.3753 0.0000
# 3 5.7122 42.2439 63.0952 0.0000 29.1326 0.0000
# 4 0.0000 0.0000 0.0000 15.6222 0.0000 4.2851
# 5 22.1251 -96.3753 29.1326 0.0000 -21.9384 0.0000
# 6 0.0000 0.0000 0.0000 4.2851 0.0000 13.7125
#
#
#
# Elastic Compliance Matrix: (Units=1/GPa)
#
#
# Indices 1 2 3 4 5 6 
#
# 1 0.048751 0.003770 -0.013633 0.000000 0.014501 0.000000
# 2 0.003770 0.005082 0.002981 0.000000 -0.014565 0.000000
# 3 -0.013633 0.002981 0.017037 0.000000 -0.004221 0.000000
# 4 0.000000 0.000000 0.000000 0.070012 0.000000 -0.021878
# 5 0.014501 -0.014565 -0.004221 0.000000 0.027419 0.000000
# 6 0.000000 0.000000 0.000000 -0.021878 0.000000 0.079763
#
#
# Mechanical properties :
#
#
# Convention : Reuss Voigt Hill
#
# Bulk Modulus (GPa) = 17.51153 14.57015 16.04084
# Shear Modulus (GPa) = 17.80224 -9.66840 4.06692
#
# Velocity S-wave (km/s) = 3.16054 -2.32917 1.51063
# Velocity P-wave (km/s) = 4.81088 0.97061 3.47035
#
# Compressibility (1/GPa) = 0.05710522
#
# Stress axis : x y z
#
# Youngs Moduli (GPa) = 20.51231 196.77418 58.69731
#
# Poissons Ratio (x) = -0.74182 0.80023
# Poissons Ratio (y) = -0.07733 -0.17498
# Poissons Ratio (z) = 0.27965 -0.58658
#
# Static dielectric constant tensor:
#      x y z
#    x 1.605990 0.000000 0.022450 
#    y 0.000000 1.628470 0.000000 
#    z 0.022450 0.000000 1.623800 
# 
# From -- ./inp_files/74739.got.cif
#   From: 2010.05.17/outbox.cif.g08.bks.cpg/sg14_38_cif.got.tgz:74739.got - 2010.06.03 17:49:19.
