data_PCOD9239222
_publ_section_title
;
Structure prediction by ZEFSAII (Michael W. Deem and Ramdas Pophale) SiO2 
 PCOD9239222
Probable space group: P 21/C
;
_chemical_formula_sum "Si O2"
_cell_formula_units_Z 30
_cell_length_a 29.263491
_cell_length_b 4.951301
_cell_length_c 27.814914
_cell_angle_alpha 90.000000
_cell_angle_beta 21.578561
_cell_angle_gamma 90.000000
_cell_volume 1482.201690
_symmetry_space_group_name_H-M "P 21/C"
_symmetry_group_IT_number 14
_symmetry_cell_setting 'monoclinic'
loop_
_space_group_symop_operation_xyz
x,y,z
-x,1/2+y,1/2-z
-x,-y,-z
x,1/2-y,1/2+z
loop_
_atom_site_type_symbol
_atom_site_label
_atom_site_fract_x
_atom_site_fract_y
_atom_site_fract_z
Si Si1 0.142671 0.466192 0.982129
Si Si2 0.202449 0.267768 0.657045
Si Si3 0.897819 0.271251 0.689419
Si Si4 0.979758 0.526665 0.237490
Si Si5 0.455264 0.261820 0.457791
Si Si6 0.298399 0.543853 0.193202
Si Si7 0.285462 0.998865 0.812117
Si Si8 0.500000 0.500000 0.500000
O O1 0.192665 0.749690 0.913987
O O2 0.252698 0.249754 0.877785
O O3 0.040184 0.318730 0.048326
O O4 0.071223 0.507588 0.102241
O O5 0.169989 0.498517 0.727748
O O6 0.150682 0.372845 0.657327
O O7 0.348252 0.234879 0.523111
O O8 0.127891 0.998019 0.744774
O O9 0.825754 0.389559 0.714334
O O10 0.971613 0.243037 0.271978
O O11 0.575523 0.113579 0.320826
O O12 0.490292 0.545392 0.448231
O O13 0.393278 0.145946 0.569467
O O14 0.269562 0.412730 0.272211
O O15 0.375204 0.813669 0.129050
#
# Coordination Sequence:
#
# PCOD9239222 Si02
#       8
#     4   4   4   4   4   4   4   2
#     4  11  24  40  56  91 122 153 196 246 320 367
#     4  10  20  37  63  94 116 146 202 263 296 339
#     4  10  20  37  57  82 126 160 200 254 285 344
#     4  11  22  42  72  91 111 145 196 258 319 386
#     4  10  22  35  59  87 125 169 215 244 275 338
#     4  10  22  33  57  83 120 175 219 247 268 329
#     4  11  24  35  58  85 132 167 196 242 291 353
#     4  10  16  32  52  80 116 160 214 244 264 316
#
# _framework density 20.240162000000002
#
# number of rings (size 3 to 8) (size 9 to 14) (size 15 to 20)
#    0.000    1.600    1.333    5.600    7.467    1.067 
#    0.000    0.000    0.000    3.200    0.000    1.867 
#    0.000    0.000    0.000    0.000    0.000    0.000 
#
# Total GULP energy -167062.962786 kJ/mol
# GULP energy per Si atom -5568.765426 kJ/mol
# Density = 2.019409 g / cm^3
# Si number density = 20.240162 Si / 1000 Ang^3
#
#
#
# Elastic Constant Matrix: (Units=GPa)
#
#
# Indices 1 2 3 4 5 6 
#
# 1 77.0085 -7.4766 37.9987 0.0000 -5.2740 0.0000
# 2 -7.4766 74.2287 23.9490 0.0000 12.8926 0.0000
# 3 37.9987 23.9490 83.6079 0.0000 4.2983 0.0000
# 4 0.0000 0.0000 0.0000 32.9373 0.0000 3.7867
# 5 -5.2740 12.8926 4.2983 0.0000 13.9664 0.0000
# 6 0.0000 0.0000 0.0000 3.7867 0.0000 22.7552
#
#
#
# Elastic Compliance Matrix: (Units=1/GPa)
#
#
# Indices 1 2 3 4 5 6 
#
# 1 0.018749 0.003989 -0.009997 0.000000 0.006474 0.000000
# 2 0.003989 0.018248 -0.006352 0.000000 -0.013383 0.000000
# 3 -0.009997 -0.006352 0.018509 0.000000 -0.003608 0.000000
# 4 0.000000 0.000000 0.000000 0.030953 0.000000 -0.005151
# 5 0.006474 -0.013383 -0.003608 0.000000 0.087509 0.000000
# 6 0.000000 0.000000 0.000000 -0.005151 0.000000 0.044803
#
#
# Mechanical properties :
#
#
# Convention : Reuss Voigt Hill
#
# Bulk Modulus (GPa) = 32.48151 38.19860 35.34005
# Shear Modulus (GPa) = 19.70429 25.95673 22.83051
#
# Velocity S-wave (km/s) = 3.12352 3.58500 3.36219
# Velocity P-wave (km/s) = 5.39364 6.00416 5.70707
#
# Compressibility (1/GPa) = 0.03078675
#
# Stress axis : x y z
#
# Youngs Moduli (GPa) = 53.33618 54.80188 54.02798
#
# Poissons Ratio (x) = -0.21862 0.54010
# Poissons Ratio (y) = -0.21278 0.34318
# Poissons Ratio (z) = 0.53319 0.34810
#
# Static dielectric constant tensor:
#      x y z
#    x 1.724530 0.000000 -0.001190 
#    y 0.000000 1.557750 0.000000 
#    z -0.001190 0.000000 1.706750 
# 
# From -- ./inp_files/78421.got.cif
#   From: 2010.05.17/outbox.cif.g08.bks.cpg/sg14_40_cif.got.tgz:78421.got - 2010.06.03 17:49:19.
