data_PCOD9239683
_publ_section_title
;
Structure prediction by ZEFSAII (Michael W. Deem and Ramdas Pophale) SiO2 
 PCOD9239683
Probable space group: P 21/C
;
_chemical_formula_sum "Si O2"
_cell_formula_units_Z 24
_cell_length_a 25.427224
_cell_length_b 8.194377
_cell_length_c 18.074404
_cell_angle_alpha 90.000000
_cell_angle_beta 17.419419
_cell_angle_gamma 90.000000
_cell_volume 1127.401805
_symmetry_space_group_name_H-M "P 21/C"
_symmetry_group_IT_number 14
_symmetry_cell_setting 'monoclinic'
loop_
_space_group_symop_operation_xyz
x,y,z
-x,1/2+y,1/2-z
-x,-y,-z
x,1/2-y,1/2+z
loop_
_atom_site_type_symbol
_atom_site_label
_atom_site_fract_x
_atom_site_fract_y
_atom_site_fract_z
Si Si1 0.165879 0.787320 0.811965
Si Si2 0.554459 0.609017 0.766890
Si Si3 0.699441 0.585835 0.144551
Si Si4 0.881064 0.016841 0.261679
Si Si5 0.294419 0.457463 0.693423
Si Si6 0.407261 0.201904 0.432778
O O1 0.365628 0.848042 0.555104
O O2 0.171187 0.597501 0.825010
O O3 0.108905 0.823131 0.803411
O O4 0.046789 0.901108 0.023526
O O5 0.691065 0.727218 0.625289
O O6 0.544281 0.669078 0.695352
O O7 0.564393 0.412741 0.751827
O O8 0.498346 0.518873 0.411256
O O9 0.750319 0.573154 0.161466
O O10 0.823061 0.479706 0.924522
O O11 0.722733 0.918689 0.435077
O O12 0.300788 0.291388 0.639301
#
# Coordination Sequence:
#
# PCOD9239683 Si02
#       6
#     4   4   4   4   4   4
#     4   9  17  32  52  72 100 135 174 209 257 311
#     4   9  17  31  51  75 100 134 175 217 259 310
#     4   9  19  34  51  73 104 136 172 216 264 310
#     4   9  18  33  52  73 101 139 176 215 256 310
#     4  10  19  32  52  77 103 133 170 217 265 313
#     4  10  18  30  52  76 100 131 175 219 259 310
#
# _framework density 21.287883000000001
#
# number of rings (size 3 to 8) (size 9 to 14) (size 15 to 20)
#    0.000    2.667    0.000    4.000    0.000    1.333 
#    0.000    5.000    0.000    4.000    0.000    0.000 
#    0.000    0.000    0.000    0.000    0.000    0.000 
#
# Total GULP energy -133795.099670 kJ/mol
# GULP energy per Si atom -5574.795820 kJ/mol
# Density = 2.123943 g / cm^3
# Si number density = 21.287883 Si / 1000 Ang^3
#
#
#
# Elastic Constant Matrix: (Units=GPa)
#
#
# Indices 1 2 3 4 5 6 
#
# 1 86.3646 65.0741 47.0485 0.0000 47.0576 0.0000
# 2 65.0741 107.7506 10.8019 0.0000 24.1589 0.0000
# 3 47.0485 10.8019 71.3750 0.0000 31.6859 0.0000
# 4 0.0000 0.0000 0.0000 23.6040 0.0000 0.6478
# 5 47.0576 24.1589 31.6859 0.0000 38.9894 0.0000
# 6 0.0000 0.0000 0.0000 0.6478 0.0000 11.5539
#
#
#
# Elastic Compliance Matrix: (Units=1/GPa)
#
#
# Indices 1 2 3 4 5 6 
#
# 1 0.081109 -0.033505 -0.022140 0.000000 -0.059140 0.000000
# 2 -0.033505 0.024821 0.011271 0.000000 0.015899 0.000000
# 3 -0.022140 0.011271 0.028373 0.000000 -0.003321 0.000000
# 4 0.000000 0.000000 0.000000 0.042431 0.000000 -0.002379
# 5 -0.059140 0.015899 -0.003321 0.000000 0.089873 0.000000
# 6 0.000000 0.000000 0.000000 -0.002379 0.000000 0.086685
#
#
# Mechanical properties :
#
#
# Convention : Reuss Voigt Hill
#
# Bulk Modulus (GPa) = 21.95139 56.81545 39.38342
# Shear Modulus (GPa) = 10.93556 24.33381 17.63469
#
# Velocity S-wave (km/s) = 2.26895 3.38462 2.88130
# Velocity P-wave (km/s) = 4.14708 6.48238 5.44148
#
# Compressibility (1/GPa) = 0.04555521
#
# Stress axis : x y z
#
# Youngs Moduli (GPa) = 12.32912 40.28873 35.24481
#
# Poissons Ratio (x) = 1.34987 0.78032
# Poissons Ratio (y) = 0.41309 -0.39725
# Poissons Ratio (z) = 0.27297 -0.45410
#
# Static dielectric constant tensor:
#      x y z
#    x 1.765730 0.000000 0.004730 
#    y 0.000000 1.881030 0.000000 
#    z 0.004730 0.000000 1.832090 
# 
# From -- ./inp_files/56982.got.cif
#   From: 2010.05.17/outbox.cif.g08.bks.cpg/sg14_29_cif.got.tgz:56982.got - 2010.06.03 17:49:19.
