data_PCOD9239196
_publ_section_title
;
Structure prediction by ZEFSAII (Michael W. Deem and Ramdas Pophale) SiO2 
 PCOD9239196
Probable space group: P 21/C
;
_chemical_formula_sum "Si O2"
_cell_formula_units_Z 32
_cell_length_a 11.326217
_cell_length_b 7.442285
_cell_length_c 24.163185
_cell_angle_alpha 90.000000
_cell_angle_beta 141.464778
_cell_angle_gamma 90.000000
_cell_volume 1268.908619
_symmetry_space_group_name_H-M "P 21/C"
_symmetry_group_IT_number 14
_symmetry_cell_setting 'monoclinic'
loop_
_space_group_symop_operation_xyz
x,y,z
-x,1/2+y,1/2-z
-x,-y,-z
x,1/2-y,1/2+z
loop_
_atom_site_type_symbol
_atom_site_label
_atom_site_fract_x
_atom_site_fract_y
_atom_site_fract_z
Si Si1 0.787396 0.034131 0.068615
Si Si2 0.691510 0.614751 0.850638
Si Si3 0.686949 0.411542 0.412690
Si Si4 0.930700 0.700834 0.840391
Si Si5 0.743895 0.215322 0.824523
Si Si6 0.498127 0.756540 0.471633
Si Si7 0.301093 0.599157 0.292347
Si Si8 0.304802 0.533034 0.031756
O O1 0.985089 0.121710 0.157120
O O2 0.630451 0.190615 0.024313
O O3 0.797095 0.016433 0.005979
O O4 0.695018 0.849908 0.054265
O O5 0.750175 0.419226 0.849387
O O6 0.469918 0.644512 0.761305
O O7 0.731604 0.609884 0.931213
O O8 0.797862 0.739842 0.844777
O O9 0.808602 0.393674 0.401943
O O10 0.499917 0.532274 0.337769
O O11 0.622123 0.209285 0.407860
O O12 0.828610 0.575758 0.758482
O O13 0.107051 0.590436 0.931527
O O14 0.802274 0.247896 0.782407
O O15 0.369082 0.665655 0.376204
O O16 0.558794 0.943781 0.464817
#
# Coordination Sequence:
#
# PCOD9239196 Si02
#       8
#     4   4   4   4   4   4   4   4
#     4   9  21  39  60  78 113 148 191 234 283 333
#     4  10  19  32  55  82 114 145 181 232 285 340
#     4   9  18  33  54  81 108 154 185 223 277 350
#     4  10  20  36  53  83 119 145 176 244 296 323
#     4  10  16  30  53  83 107 148 187 223 279 352
#     4  10  20  40  61  82 106 157 199 229 271 351
#     4  10  19  35  58  79 115 148 188 238 288 332
#     4  10  20  34  59  83 113 146 194 226 278 342
#
# _framework density 25.218523000000001
#
# number of rings (size 3 to 8) (size 9 to 14) (size 15 to 20)
#    0.000    2.250    3.750    0.375    0.000    3.000 
#    0.000    9.375    0.000    0.000    0.000    0.000 
#    0.000    0.000    0.000    0.000    0.000    0.000 
#
# Total GULP energy -178344.393385 kJ/mol
# GULP energy per Si atom -5573.262293 kJ/mol
# Density = 2.516112 g / cm^3
# Si number density = 25.218523 Si / 1000 Ang^3
#
#
#
# Elastic Constant Matrix: (Units=GPa)
#
#
# Indices 1 2 3 4 5 6 
#
# 1 68.0793 2.5863 6.0644 0.0000 -14.0618 0.0000
# 2 2.5863 69.1430 -3.5394 0.0000 3.2634 0.0000
# 3 6.0644 -3.5394 45.7722 0.0000 -13.9126 0.0000
# 4 0.0000 0.0000 0.0000 40.6079 0.0000 6.5321
# 5 -14.0618 3.2634 -13.9126 0.0000 26.9403 0.0000
# 6 0.0000 0.0000 0.0000 6.5321 0.0000 30.4047
#
#
#
# Elastic Compliance Matrix: (Units=1/GPa)
#
#
# Indices 1 2 3 4 5 6 
#
# 1 0.016545 -0.001020 0.000464 0.000000 0.008999 0.000000
# 2 -0.001020 0.014628 0.000671 0.000000 -0.001958 0.000000
# 3 0.000464 0.000671 0.025962 0.000000 0.013568 0.000000
# 4 0.000000 0.000000 0.000000 0.025507 0.000000 -0.005480
# 5 0.008999 -0.001958 0.013568 0.000000 0.049060 0.000000
# 6 0.000000 0.000000 0.000000 -0.005480 0.000000 0.034067
#
#
# Mechanical properties :
#
#
# Convention : Reuss Voigt Hill
#
# Bulk Modulus (GPa) = 17.43190 21.46855 19.45023
# Shear Modulus (GPa) = 27.07685 31.44947 29.26316
#
# Velocity S-wave (km/s) = 3.28027 3.53523 3.41014
# Velocity P-wave (km/s) = 4.61240 5.01949 4.82025
#
# Compressibility (1/GPa) = 0.05736611
#
# Stress axis : x y z
#
# Youngs Moduli (GPa) = 60.44156 68.36360 38.51799
#
# Poissons Ratio (x) = 0.06972 -0.01789
# Poissons Ratio (y) = 0.06164 -0.02585
# Poissons Ratio (z) = -0.02807 -0.04589
#
# Static dielectric constant tensor:
#      x y z
#    x 2.064280 0.000000 -0.031020 
#    y 0.000000 2.188900 0.000000 
#    z -0.031020 0.000000 2.007750 
# 
# From -- ./inp_files/77042.got.cif
#   From: 2010.05.17/outbox.cif.g08.bks.cpg/sg14_39_cif.got.tgz:77042.got - 2010.06.03 17:49:19.
