data_PCOD9239057
_publ_section_title
;
Structure prediction by ZEFSAII (Michael W. Deem and Ramdas Pophale) SiO2 
 PCOD9239057
Probable space group: P 2/C
;
_chemical_formula_sum "Si O2"
_cell_formula_units_Z 20
_cell_length_a 21.000000
_cell_length_b 9.000000
_cell_length_c 15.000000
_cell_angle_alpha 90.000000
_cell_angle_beta 160.000000
_cell_angle_gamma 90.000000
_cell_volume 969.627106
_symmetry_space_group_name_H-M "P 2/C"
_symmetry_group_IT_number 13
_symmetry_cell_setting 'monoclinic'
loop_
_space_group_symop_operation_xyz
x,y,z
-x,y,1/2-z
-x,-y,-z
x,-y,1/2+z
loop_
_atom_site_type_symbol
_atom_site_label
_atom_site_fract_x
_atom_site_fract_y
_atom_site_fract_z
Si Si1 0.209534 0.186943 0.827000
Si Si2 0.510646 0.167726 0.974849
Si Si3 0.400025 0.328028 0.237739
Si Si4 0.788545 0.354349 0.003701
Si Si5 0.806445 0.169485 0.208931
O O1 0.005861 0.213339 0.516252
O O2 0.209569 0.007370 0.832697
O O3 0.246129 0.250577 0.973079
O O4 0.391110 0.266083 0.016876
O O5 0.307432 0.237162 0.690249
O O6 0.616001 0.268584 0.184486
O O7 0.631590 0.185059 0.044909
O O8 0.500000 0.000000 0.000000
O O9 0.348200 0.502332 0.168283
O O10 0.792546 0.270244 0.103400
O O11 0.000000 0.391304 0.250000
#
# Coordination Sequence:
#
# PCOD9239057 Si02
#       5
#     4   4   4   4   4
#     4  10  24  46  74 100 143 184 246 290 357 427
#     4  12  25  46  74 105 144 189 245 296 355 428
#     4  11  25  47  69 103 147 189 233 295 362 432
#     4  12  29  47  71 105 150 192 239 294 366 435
#     4  11  25  46  75 107 136 193 242 301 355 422
#
# _framework density 20.626486
#
# number of rings (size 3 to 8) (size 9 to 14) (size 15 to 20)
#    0.000    0.800    2.000    3.600   14.000    0.800 
#    0.000    0.000    0.000    0.000    0.000    0.000 
#    0.000    0.000    0.000    0.000    0.000    0.000 
#
# Total GULP energy -111652.807095 kJ/mol
# GULP energy per Si atom -5582.640355 kJ/mol
# Density = 2.057954 g / cm^3
# Si number density = 20.626486 Si / 1000 Ang^3
#
#
#
# Elastic Constant Matrix: (Units=GPa)
#
#
# Indices 1 2 3 4 5 6 
#
# 1 88.4937 31.9323 24.3793 0.0000 -8.6018 0.0000
# 2 31.9323 87.9199 94.0134 0.0000 5.1770 0.0000
# 3 24.3793 94.0134 116.2959 0.0000 -12.2882 0.0000
# 4 0.0000 0.0000 0.0000 42.6380 0.0000 1.8562
# 5 -8.6018 5.1770 -12.2882 0.0000 42.4290 0.0000
# 6 0.0000 0.0000 0.0000 1.8562 0.0000 32.4440
#
#
#
# Elastic Compliance Matrix: (Units=1/GPa)
#
#
# Indices 1 2 3 4 5 6 
#
# 1 0.020094 -0.045557 0.034695 0.000000 0.019681 0.000000
# 2 -0.045557 0.260319 -0.211702 0.000000 -0.102311 0.000000
# 3 0.034695 -0.211702 0.181491 0.000000 0.085428 0.000000
# 4 0.000000 0.000000 0.000000 0.023512 0.000000 -0.001345
# 5 0.019681 -0.102311 0.085428 0.000000 0.064784 0.000000
# 6 0.000000 0.000000 0.000000 -0.001345 0.000000 0.030899
#
#
# Mechanical properties :
#
#
# Convention : Reuss Voigt Hill
#
# Bulk Modulus (GPa) = 59.60339 65.92884 62.76612
# Shear Modulus (GPa) = 4.84581 32.99450 18.92016
#
# Velocity S-wave (km/s) = 1.53441 4.00386 3.03194
# Velocity P-wave (km/s) = 5.66555 7.30802 6.53856
#
# Compressibility (1/GPa) = 0.01677757
#
# Stress axis : x y z
#
# Youngs Moduli (GPa) = 49.76637 3.84144 5.50990
#
# Poissons Ratio (x) = 0.17500 -0.19117
# Poissons Ratio (y) = 2.26721 1.16646
# Poissons Ratio (z) = -1.72667 0.81324
#
# Static dielectric constant tensor:
#      x y z
#    x 1.824900 0.000000 -0.007760 
#    y 0.000000 1.745130 0.000000 
#    z -0.007760 0.000000 1.726230 
# 
# From -- ./inp_files/57124.got.cif
#   From: 2010.05.17/outbox.ucp.g08.bks.cvg/sg13_29_cif.got.tgz:57124.got - 2010.06.11 12:23:55.
