data_PCOD9239423
_publ_section_title
;
Structure prediction by ZEFSAII (Michael W. Deem and Ramdas Pophale) SiO2 
 PCOD9239423
Probable space group: P 21/C
;
_chemical_formula_sum "Si O2"
_cell_formula_units_Z 28
_cell_length_a 9.920220
_cell_length_b 14.906578
_cell_length_c 12.041882
_cell_angle_alpha 90.000000
_cell_angle_beta 146.202439
_cell_angle_gamma 90.000000
_cell_volume 990.539155
_symmetry_space_group_name_H-M "P 21/C"
_symmetry_group_IT_number 14
_symmetry_cell_setting 'monoclinic'
loop_
_space_group_symop_operation_xyz
x,y,z
-x,1/2+y,1/2-z
-x,-y,-z
x,1/2-y,1/2+z
loop_
_atom_site_type_symbol
_atom_site_label
_atom_site_fract_x
_atom_site_fract_y
_atom_site_fract_z
Si Si1 0.263155 0.194041 0.203466
Si Si2 0.611234 0.502117 0.759648
Si Si3 0.776950 0.641686 0.713148
Si Si4 0.387200 0.676712 0.691998
Si Si5 0.244288 0.672217 0.243003
Si Si6 0.916853 0.569864 0.607344
Si Si7 0.928269 0.885961 0.731758
O O1 0.121370 0.286101 0.131776
O O2 0.473374 0.241604 0.275259
O O3 0.142078 0.113978 0.050566
O O4 0.292133 0.158787 0.349746
O O5 0.765022 0.548661 0.768701
O O6 0.554451 0.584520 0.809023
O O7 0.727381 0.402576 0.837836
O O8 0.338408 0.477757 0.537948
O O9 0.494719 0.657904 0.488091
O O10 0.933543 0.647075 0.709684
O O11 0.289692 0.725236 0.735269
O O12 0.155716 0.645457 0.464087
O O13 0.026480 0.645784 0.178994
O O14 0.102727 0.492442 0.766028
#
# Coordination Sequence:
#
# PCOD9239423 Si02
#       7
#     4   4   4   4   4   4   4
#     4  11  21  32  56  87 113 137 181 241 279 323
#     4   9  16  31  57  82 103 140 192 222 268 332
#     4  10  17  32  57  82 106 142 187 226 280 332
#     4  10  21  34  57  84 112 148 186 235 275 326
#     4  11  17  35  61  79 110 150 182 229 280 327
#     4  10  17  34  58  83 107 145 187 236 272 325
#     4  11  22  36  55  89 112 143 194 229 273 337
#
# _framework density 28.267431999999999
#
# number of rings (size 3 to 8) (size 9 to 14) (size 15 to 20)
#    0.000    1.714    8.571    1.286    0.000    1.143 
#    0.000    0.000    0.000   12.857    0.000    0.000 
#    0.000    0.000    0.000    0.000    0.000    0.000 
#
# Total GULP energy -156021.128568 kJ/mol
# GULP energy per Si atom -5572.183163 kJ/mol
# Density = 2.820309 g / cm^3
# Si number density = 28.267432 Si / 1000 Ang^3
#
#
#
# Elastic Constant Matrix: (Units=GPa)
#
#
# Indices 1 2 3 4 5 6 
#
# 1 105.0832 51.7220 21.2854 0.0000 -33.2492 0.0000
# 2 51.7220 138.6081 23.0427 0.0000 -23.2869 0.0000
# 3 21.2854 23.0427 69.8249 0.0000 3.2462 0.0000
# 4 0.0000 0.0000 0.0000 42.9682 0.0000 -7.4097
# 5 -33.2492 -23.2869 3.2462 0.0000 43.5406 0.0000
# 6 0.0000 0.0000 0.0000 -7.4097 0.0000 56.0708
#
#
#
# Elastic Compliance Matrix: (Units=1/GPa)
#
#
# Indices 1 2 3 4 5 6 
#
# 1 0.015141 -0.003288 -0.004000 0.000000 0.010102 0.000000
# 2 -0.003288 0.009237 -0.002166 0.000000 0.002591 0.000000
# 3 -0.004000 -0.002166 0.016509 0.000000 -0.005444 0.000000
# 4 0.000000 0.000000 0.000000 0.023816 0.000000 0.003147
# 5 0.010102 0.002591 -0.005444 0.000000 0.032473 0.000000
# 6 0.000000 0.000000 0.000000 0.003147 0.000000 0.018250
#
#
# Mechanical properties :
#
#
# Convention : Reuss Voigt Hill
#
# Bulk Modulus (GPa) = 45.49982 56.17961 50.83972
# Shear Modulus (GPa) = 35.29536 43.01366 39.15451
#
# Velocity S-wave (km/s) = 3.53742 3.90509 3.72579
# Velocity P-wave (km/s) = 5.72849 6.34432 6.04425
#
# Compressibility (1/GPa) = 0.02197811
#
# Stress axis : x y z
#
# Youngs Moduli (GPa) = 66.04488 108.26166 60.57285
#
# Poissons Ratio (x) = 0.35594 0.24231
# Poissons Ratio (y) = 0.21714 0.13123
# Poissons Ratio (z) = 0.26420 0.23454
#
# Static dielectric constant tensor:
#      x y z
#    x 2.229590 0.000000 0.052840 
#    y 0.000000 2.329970 0.000000 
#    z 0.052840 0.000000 2.377900 
# 
# From -- ./inp_files/44814.got.cif
#   From: 2010.05.17/outbox.cif.g08.bks.cpg/sg14_23_cif.got.tgz:44814.got - 2010.06.03 17:49:19.
