data_PCOD9239537
_publ_section_title
;
Structure prediction by ZEFSAII (Michael W. Deem and Ramdas Pophale) SiO2 
 PCOD9239537
Probable space group: P 21/C
;
_chemical_formula_sum "Si O2"
_cell_formula_units_Z 32
_cell_length_a 11.322402
_cell_length_b 11.070302
_cell_length_c 15.614111
_cell_angle_alpha 90.000000
_cell_angle_beta 132.834412
_cell_angle_gamma 90.000000
_cell_volume 1435.191366
_symmetry_space_group_name_H-M "P 21/C"
_symmetry_group_IT_number 14
_symmetry_cell_setting 'monoclinic'
loop_
_space_group_symop_operation_xyz
x,y,z
-x,1/2+y,1/2-z
-x,-y,-z
x,1/2-y,1/2+z
loop_
_atom_site_type_symbol
_atom_site_label
_atom_site_fract_x
_atom_site_fract_y
_atom_site_fract_z
Si Si1 0.474317 0.537896 0.084397
Si Si2 0.176161 0.447101 0.713480
Si Si3 0.870535 0.662179 0.490247
Si Si4 0.607601 0.609635 0.590108
Si Si5 0.330494 0.783407 0.041485
Si Si6 0.449247 0.264543 0.103541
Si Si7 0.208473 0.719030 0.671945
Si Si8 0.877030 0.472031 0.651663
O O1 0.642877 0.598541 0.193342
O O2 0.342884 0.641069 0.030521
O O3 0.445619 0.409023 0.114185
O O4 0.500000 0.500000 0.000000
O O5 0.101114 0.391480 0.590302
O O6 0.201748 0.589927 0.714913
O O7 0.063407 0.432247 0.741077
O O8 0.691613 0.713957 0.406706
O O9 0.867414 0.557050 0.561371
O O10 0.019189 0.754065 0.583544
O O11 0.500000 0.500000 0.500000
O O12 0.507004 0.654339 0.621971
O O13 0.596009 0.717238 0.514011
O O14 0.787858 0.553304 0.679418
O O15 0.253741 0.801561 0.095747
O O16 0.224396 0.851967 0.918213
O O17 0.631286 0.217296 0.212043
#
# Coordination Sequence:
#
# PCOD9239537 Si02
#       8
#     4   4   4   4   4   4   4   4
#     4  11  23  37  53  76 116 168 187 218 296 367
#     4  10  18  35  60  85 110 145 198 238 288 346
#     4  10  17  35  62  87 110 141 195 246 288 332
#     4   9  19  33  58  82 107 143 186 246 289 330
#     4  11  18  35  56  80 114 144 189 235 281 344
#     4  10  21  37  55  83 116 152 194 236 294 351
#     4  10  19  33  62  88 112 147 190 247 293 337
#     4   9  17  33  59  87 105 133 189 253 284 325
#
# _framework density 22.296679000000001
#
# number of rings (size 3 to 8) (size 9 to 14) (size 15 to 20)
#    0.000    2.000    3.750    1.500    0.000    0.000 
#    0.000    4.375    0.000    0.000    0.000    0.000 
#    0.000    0.000    0.000    0.000    0.000    0.000 
#
# Total GULP energy -178262.969450 kJ/mol
# GULP energy per Si atom -5570.717795 kJ/mol
# Density = 2.224593 g / cm^3
# Si number density = 22.296679 Si / 1000 Ang^3
#
#
#
# Elastic Constant Matrix: (Units=GPa)
#
#
# Indices 1 2 3 4 5 6 
#
# 1 105.3565 19.6679 15.1016 0.0000 25.8465 0.0000
# 2 19.6679 59.5877 11.9157 0.0000 24.8516 0.0000
# 3 15.1016 11.9157 39.9730 0.0000 17.4957 0.0000
# 4 0.0000 0.0000 0.0000 13.0262 0.0000 13.0524
# 5 25.8465 24.8516 17.4957 0.0000 28.4631 0.0000
# 6 0.0000 0.0000 0.0000 13.0524 0.0000 28.1780
#
#
#
# Elastic Compliance Matrix: (Units=1/GPa)
#
#
# Indices 1 2 3 4 5 6 
#
# 1 0.012251 0.000977 0.000442 0.000000 -0.012249 0.000000
# 2 0.000977 0.026742 0.003102 0.000000 -0.026142 0.000000
# 3 0.000442 0.003102 0.034593 0.000000 -0.024373 0.000000
# 4 0.000000 0.000000 0.000000 0.143262 0.000000 -0.066360
# 5 -0.012249 -0.026142 -0.024373 0.000000 0.084063 0.000000
# 6 0.000000 0.000000 0.000000 -0.066360 0.000000 0.066228
#
#
# Mechanical properties :
#
#
# Convention : Reuss Voigt Hill
#
# Bulk Modulus (GPa) = 12.10271 33.14306 22.62289
# Shear Modulus (GPa) = 12.96542 24.48226 18.72384
#
# Velocity S-wave (km/s) = 2.41404 3.31724 2.90100
# Velocity P-wave (km/s) = 3.63455 5.43773 4.62487
#
# Compressibility (1/GPa) = 0.08262609
#
# Stress axis : x y z
#
# Youngs Moduli (GPa) = 81.62671 37.39381 28.90744
#
# Poissons Ratio (x) = -0.03652 -0.01277
# Poissons Ratio (y) = -0.07971 -0.08966
# Poissons Ratio (z) = -0.03606 -0.11598
#
# Static dielectric constant tensor:
#      x y z
#    x 1.881280 0.000000 0.074000 
#    y 0.000000 1.837400 0.000000 
#    z 0.074000 0.000000 1.960430 
# 
# From -- ./inp_files/57579.got.cif
#   From: 2010.05.17/outbox.cif.g08.bks.cpg/sg14_29_cif.got.tgz:57579.got - 2010.06.03 17:49:19.
