data_PCOD9239826
_publ_section_title
;
Structure prediction by ZEFSAII (Michael W. Deem and Ramdas Pophale) SiO2 
 PCOD9239826
Probable space group: P 21/C
;
_chemical_formula_sum "Si O2"
_cell_formula_units_Z 24
_cell_length_a 18.167217
_cell_length_b 7.304598
_cell_length_c 18.379571
_cell_angle_alpha 90.000000
_cell_angle_beta 23.057270
_cell_angle_gamma 90.000000
_cell_volume 955.255089
_symmetry_space_group_name_H-M "P 21/C"
_symmetry_group_IT_number 14
_symmetry_cell_setting 'monoclinic'
loop_
_space_group_symop_operation_xyz
x,y,z
-x,1/2+y,1/2-z
-x,-y,-z
x,1/2-y,1/2+z
loop_
_atom_site_type_symbol
_atom_site_label
_atom_site_fract_x
_atom_site_fract_y
_atom_site_fract_z
Si Si1 0.326974 0.980428 0.260100
Si Si2 0.584827 0.247940 0.946619
Si Si3 0.037461 0.937862 0.331390
Si Si4 0.549826 0.151042 0.190989
Si Si5 0.918477 0.567819 0.365605
Si Si6 0.332706 0.009854 0.509432
O O1 0.386503 0.795710 0.164264
O O2 0.107663 0.978892 0.479312
O O3 0.437322 0.034298 0.232998
O O4 0.395171 0.145028 0.144664
O O5 0.597381 0.443929 0.975029
O O6 0.765618 0.135597 0.816219
O O7 0.071214 0.066564 0.231423
O O8 0.930604 0.761391 0.394432
O O9 0.419575 0.167502 0.380404
O O10 0.619262 0.330599 0.084956
O O11 0.734127 0.046022 0.051290
O O12 0.110327 0.472097 0.216696
#
# Coordination Sequence:
#
# PCOD9239826 Si02
#       6
#     4   4   4   4   4   4
#     4  10  18  32  54  77 105 137 177 222 268 304
#     4   9  19  34  49  80 107 134 178 222 263 313
#     4  11  20  33  53  81 107 144 172 221 267 314
#     4  11  20  34  55  82 105 139 177 221 270 313
#     4  11  19  33  49  80 112 134 180 215 265 312
#     4  10  21  34  53  81 107 137 177 219 269 314
#
# _framework density 25.124179000000002
#
# number of rings (size 3 to 8) (size 9 to 14) (size 15 to 20)
#    0.000    1.667    6.667    2.500    0.000    0.000 
#    0.000    0.000    0.000    1.000    0.000   16.333 
#    0.000    0.000    0.000    0.000    0.000    0.000 
#
# Total GULP energy -134247.220097 kJ/mol
# GULP energy per Si atom -5593.634171 kJ/mol
# Density = 2.506700 g / cm^3
# Si number density = 25.124179 Si / 1000 Ang^3
#
#
#
# Elastic Constant Matrix: (Units=GPa)
#
#
# Indices 1 2 3 4 5 6 
#
# 1 107.3180 -9.5282 -0.1703 0.0000 -1.1620 0.0000
# 2 -9.5282 53.7221 -8.4973 0.0000 -11.0693 0.0000
# 3 -0.1703 -8.4973 139.7496 0.0000 7.7685 0.0000
# 4 0.0000 0.0000 0.0000 29.0074 0.0000 2.0775
# 5 -1.1620 -11.0693 7.7685 0.0000 34.9754 0.0000
# 6 0.0000 0.0000 0.0000 2.0775 0.0000 38.3284
#
#
#
# Elastic Compliance Matrix: (Units=1/GPa)
#
#
# Indices 1 2 3 4 5 6 
#
# 1 0.009495 0.001880 0.000076 0.000000 0.000894 0.000000
# 2 0.001880 0.020391 0.000891 0.000000 0.006318 0.000000
# 3 0.000076 0.000891 0.007284 0.000000 -0.001333 0.000000
# 4 0.000000 0.000000 0.000000 0.034608 0.000000 -0.001876
# 5 0.000894 0.006318 -0.001333 0.000000 0.030917 0.000000
# 6 0.000000 0.000000 0.000000 -0.001876 0.000000 0.026192
#
#
# Mechanical properties :
#
#
# Convention : Reuss Voigt Hill
#
# Bulk Modulus (GPa) = 23.32960 29.37757 26.35358
# Shear Modulus (GPa) = 36.36893 41.72794 39.04843
#
# Velocity S-wave (km/s) = 3.80882 4.07980 3.94663
# Velocity P-wave (km/s) = 5.35244 5.82334 5.59285
#
# Compressibility (1/GPa) = 0.04286400
#
# Stress axis : x y z
#
# Youngs Moduli (GPa) = 105.32049 49.04244 137.28647
#
# Poissons Ratio (x) = -0.09221 -0.01046
# Poissons Ratio (y) = -0.19802 -0.12231
# Poissons Ratio (z) = -0.00803 -0.04369
#
# Static dielectric constant tensor:
#      x y z
#    x 2.008790 0.000000 -0.006180 
#    y 0.000000 2.035230 0.000000 
#    z -0.006180 0.000000 1.950610 
# 
# From -- ./inp_files/64380.got.cif
#   From: 2010.05.17/outbox.cif.g08.bks.cpg/sg14_33_cif.got.tgz:64380.got - 2010.06.03 17:49:19.
