data_PCOD9239058
_publ_section_title
;
Structure prediction by ZEFSAII (Michael W. Deem and Ramdas Pophale) SiO2 
 PCOD9239058
Probable space group: P 2/C
;
_chemical_formula_sum "Si O2"
_cell_formula_units_Z 22
_cell_length_a 12.000000
_cell_length_b 12.000000
_cell_length_c 12.000000
_cell_angle_alpha 90.000000
_cell_angle_beta 140.000000
_cell_angle_gamma 90.000000
_cell_volume 1110.736990
_symmetry_space_group_name_H-M "P 2/C"
_symmetry_group_IT_number 13
_symmetry_cell_setting 'monoclinic'
loop_
_space_group_symop_operation_xyz
x,y,z
-x,y,1/2-z
-x,-y,-z
x,-y,1/2+z
loop_
_atom_site_type_symbol
_atom_site_label
_atom_site_fract_x
_atom_site_fract_y
_atom_site_fract_z
Si Si1 0.591151 0.030106 0.191678
Si Si2 0.702411 0.663330 0.432915
Si Si3 0.236544 0.753209 0.763414
Si Si4 0.118869 0.834836 0.096974
Si Si5 0.288507 0.598942 0.598297
Si Si6 0.000000 0.745820 0.250000
O O1 0.500000 0.021133 0.250000
O O2 0.629558 0.160531 0.193889
O O3 0.758333 0.944725 0.323259
O O4 0.500000 0.000000 0.000000
O O5 0.500000 0.669204 0.250000
O O6 0.737950 0.715676 0.586115
O O7 0.784300 0.733962 0.393713
O O8 0.751375 0.531811 0.458805
O O9 0.238373 0.643777 0.684473
O O10 0.061503 0.826183 0.610389
O O11 0.069050 0.811962 0.190505
O O12 0.500000 0.612417 0.750000
O O13 0.164368 0.672816 0.421462
#
# Coordination Sequence:
#
# PCOD9239058 Si02
#       6
#     4   4   4   4   4   2
#     4  12  27  46  76 104 144 190 243 304 364 442
#     4  11  25  43  71 105 141 188 241 297 358 435
#     4  11  25  45  70 103 144 188 239 295 365 435
#     4  11  25  45  68 104 138 188 235 299 358 430
#     4  10  25  42  70 103 143 190 237 296 359 426
#     4  10  26  42  72 100 146 184 240 294 350 442
#
# _framework density 19.806668999999999
#
# number of rings (size 3 to 8) (size 9 to 14) (size 15 to 20)
#    0.000    1.091    0.000    4.364   15.273    2.909 
#    3.273    0.000    0.000    0.000    0.000    0.000 
#    0.000    0.000    0.000    0.000    0.000    0.000 
#
# Total GULP energy -122494.427239 kJ/mol
# GULP energy per Si atom -5567.928511 kJ/mol
# Density = 1.976159 g / cm^3
# Si number density = 19.806669 Si / 1000 Ang^3
#
#
#
# Elastic Constant Matrix: (Units=GPa)
#
#
# Indices 1 2 3 4 5 6 
#
# 1 148.0375 59.1750 36.4967 0.0000 -31.2865 0.0000
# 2 59.1750 129.1786 34.7187 0.0000 -13.7652 0.0000
# 3 36.4967 34.7187 123.8694 0.0000 -24.7307 0.0000
# 4 0.0000 0.0000 0.0000 34.1781 0.0000 0.2443
# 5 -31.2865 -13.7652 -24.7307 0.0000 47.9442 0.0000
# 6 0.0000 0.0000 0.0000 0.2443 0.0000 45.6298
#
#
#
# Elastic Compliance Matrix: (Units=1/GPa)
#
#
# Indices 1 2 3 4 5 6 
#
# 1 0.009374 -0.003574 -0.000829 0.000000 0.004663 0.000000
# 2 -0.003574 0.009812 -0.001784 0.000000 -0.000436 0.000000
# 3 -0.000829 -0.001784 0.009595 0.000000 0.003896 0.000000
# 4 0.000000 0.000000 0.000000 0.029260 0.000000 -0.000157
# 5 0.004663 -0.000436 0.003896 0.000000 0.025785 0.000000
# 6 0.000000 0.000000 0.000000 -0.000157 0.000000 0.021916
#
#
# Mechanical properties :
#
#
# Convention : Reuss Voigt Hill
#
# Bulk Modulus (GPa) = 60.95317 73.54070 67.24693
# Shear Modulus (GPa) = 40.45810 43.59675 42.02743
#
# Velocity S-wave (km/s) = 4.52447 4.69669 4.61139
# Velocity P-wave (km/s) = 7.62465 8.16222 7.89801
#
# Compressibility (1/GPa) = 0.01640604
#
# Stress axis : x y z
#
# Youngs Moduli (GPa) = 106.68179 101.92055 104.21906
#
# Poissons Ratio (x) = 0.36429 0.08640
# Poissons Ratio (y) = 0.38131 0.18592
# Poissons Ratio (z) = 0.08844 0.18182
#
# Static dielectric constant tensor:
#      x y z
#    x 1.764620 0.000000 0.066300 
#    y 0.000000 1.742790 0.000000 
#    z 0.066300 0.000000 1.754420 
# 
# From -- ./inp_files/34046.got.cif
#   From: 2010.05.17/outbox.ucp.g08.bks.cvg/sg13_18_cif.got.tgz:34046.got - 2010.06.11 12:23:55.
