data_PCOD9239146
_publ_section_title
;
Structure prediction by ZEFSAII (Michael W. Deem and Ramdas Pophale) SiO2 
 PCOD9239146
Probable space group: P 21/C
;
_chemical_formula_sum "Si O2"
_cell_formula_units_Z 28
_cell_length_a 10.939065
_cell_length_b 5.435031
_cell_length_c 31.459326
_cell_angle_alpha 90.000000
_cell_angle_beta 52.606215
_cell_angle_gamma 90.000000
_cell_volume 1485.986569
_symmetry_space_group_name_H-M "P 21/C"
_symmetry_group_IT_number 14
_symmetry_cell_setting 'monoclinic'
loop_
_space_group_symop_operation_xyz
x,y,z
-x,1/2+y,1/2-z
-x,-y,-z
x,1/2-y,1/2+z
loop_
_atom_site_type_symbol
_atom_site_label
_atom_site_fract_x
_atom_site_fract_y
_atom_site_fract_z
Si Si1 0.835856 0.749999 0.004242
Si Si2 0.984500 0.750001 0.059092
Si Si3 0.729459 0.750000 0.871126
Si Si4 0.405479 0.250000 0.512575
Si Si5 0.091042 0.750000 0.281097
Si Si6 0.746518 0.250000 0.344164
Si Si7 0.057254 0.250000 0.332448
O O1 0.671247 0.750000 0.017039
O O2 0.919562 0.499941 0.970385
O O3 0.849672 0.750000 0.052276
O O4 0.919563 0.000056 0.970385
O O5 0.937729 0.750000 0.118035
O O6 0.725117 0.750000 0.922968
O O7 0.655531 0.500611 0.869964
O O8 0.904433 0.750000 0.816561
O O9 0.655531 0.999388 0.869964
O O10 0.500000 0.500000 0.500000
O O11 0.500000 0.000000 0.500000
O O12 0.167452 0.750000 0.218941
O O13 0.128201 0.499236 0.298133
O O14 0.128201 0.000764 0.298133
O O15 0.879220 0.250000 0.353026
#
# Coordination Sequence:
#
# PCOD9239146 Si02
#       7
#     4   4   4   4   4   4   4
#     4  10  20  35  51  73 100 132 180 224 256 300
#     4  10  19  32  54  75  99 136 171 214 271 315
#     4  10  18  30  46  64  95 132 163 200 248 296
#     4  12  24  37  52  74 106 146 186 214 244 295
#     4  10  18  27  45  71 103 127 154 201 260 326
#     4  10  17  28  46  71 101 127 155 201 263 324
#     4  10  16  25  40  66  98 126 151 182 244 314
#
# _framework density 18.842701999999999
#
# number of rings (size 3 to 8) (size 9 to 14) (size 15 to 20)
#    0.000    1.714    0.000   10.286    0.000    0.000 
#    0.000    0.000    0.000    0.000    0.000    0.000 
#    0.000   38.857    0.000    0.000    0.000    0.000 
#
# Total GULP energy -156201.012334 kJ/mol
# GULP energy per Si atom -5578.607583 kJ/mol
# Density = 1.879982 g / cm^3
# Si number density = 18.842702 Si / 1000 Ang^3
#
#
#
# Elastic Constant Matrix: (Units=GPa)
#
#
# Indices 1 2 3 4 5 6 
#
# 1 102.1879 46.2918 35.2572 0.0000 31.6415 0.0000
# 2 46.2918 204.3751 38.3903 0.0000 21.7936 0.0000
# 3 35.2572 38.3903 94.4727 0.0000 38.2114 0.0000
# 4 0.0000 0.0000 0.0000 31.3640 0.0000 7.4500
# 5 31.6415 21.7936 38.2114 0.0000 30.8405 0.0000
# 6 0.0000 0.0000 0.0000 7.4500 0.0000 13.1702
#
#
#
# Elastic Compliance Matrix: (Units=1/GPa)
#
#
# Indices 1 2 3 4 5 6 
#
# 1 0.015136 -0.002023 0.001756 0.000000 -0.016276 0.000000
# 2 -0.002023 0.005640 -0.001532 0.000000 -0.000012 0.000000
# 3 0.001756 -0.001532 0.021736 0.000000 -0.027650 0.000000
# 4 0.000000 0.000000 0.000000 0.036833 0.000000 -0.020835
# 5 -0.016276 -0.000012 -0.027650 0.000000 0.083390 0.000000
# 6 0.000000 0.000000 0.000000 -0.020835 0.000000 0.087715
#
#
# Mechanical properties :
#
#
# Convention : Reuss Voigt Hill
#
# Bulk Modulus (GPa) = 25.69741 71.21271 48.45506
# Shear Modulus (GPa) = 18.72533 33.81470 26.27002
#
# Velocity S-wave (km/s) = 3.15583 4.24084 3.73792
# Velocity P-wave (km/s) = 5.19100 7.86479 6.66339
#
# Compressibility (1/GPa) = 0.03891443
#
# Stress axis : x y z
#
# Youngs Moduli (GPa) = 66.06861 177.29830 46.00701
#
# Poissons Ratio (x) = 0.35862 -0.08080
# Poissons Ratio (y) = 0.13363 0.07049
# Poissons Ratio (z) = -0.11603 0.27167
#
# Static dielectric constant tensor:
#      x y z
#    x 1.624060 0.000000 0.004650 
#    y 0.000000 1.764020 0.000000 
#    z 0.004650 0.000000 1.650540 
# 
# From -- ./inp_files/60918.got.cif
#   From: 2010.05.17/outbox.cif.g08.bks.cpg/sg14_31_cif.got.tgz:60918.got - 2010.06.03 17:49:19.
