data_PCOD9239575
_publ_section_title
;
Structure prediction by ZEFSAII (Michael W. Deem and Ramdas Pophale) SiO2 
 PCOD9239575
Probable space group: P 21/C
;
_chemical_formula_sum "Si O2"
_cell_formula_units_Z 20
_cell_length_a 7.293590
_cell_length_b 12.807537
_cell_length_c 9.055287
_cell_angle_alpha 90.000000
_cell_angle_beta 126.898146
_cell_angle_gamma 90.000000
_cell_volume 676.454360
_symmetry_space_group_name_H-M "P 21/C"
_symmetry_group_IT_number 14
_symmetry_cell_setting 'monoclinic'
loop_
_space_group_symop_operation_xyz
x,y,z
-x,1/2+y,1/2-z
-x,-y,-z
x,1/2-y,1/2+z
loop_
_atom_site_type_symbol
_atom_site_label
_atom_site_fract_x
_atom_site_fract_y
_atom_site_fract_z
Si Si1 0.341541 0.364241 0.891447
Si Si2 0.847550 0.243071 0.840267
Si Si3 0.134260 0.152198 0.727500
Si Si4 0.441622 0.500313 0.227423
Si Si5 0.805769 0.095391 0.084232
O O1 0.308402 0.240334 0.870201
O O2 0.521825 0.397697 0.853630
O O3 0.084577 0.409410 0.728058
O O4 0.422939 0.415728 0.083151
O O5 0.942474 0.162645 0.761564
O O6 0.735664 0.337039 0.693964
O O7 0.044614 0.301973 0.029156
O O8 0.744730 0.175963 0.920622
O O9 0.230677 0.038866 0.729712
O O10 0.660438 0.498166 0.442543
#
# Coordination Sequence:
#
# PCOD9239575 Si02
#       5
#     4   4   4   4   4
#     4   9  21  37  51  87 113 141 181 225 277 320
#     4   8  18  33  53  77 117 136 178 223 279 306
#     4  10  17  37  56  79 111 149 170 232 274 319
#     4  11  20  33  64  78 108 148 188 219 267 335
#     4  10  19  34  55  83 107 144 182 227 265 331
#
# _framework density 29.565926000000001
#
# number of rings (size 3 to 8) (size 9 to 14) (size 15 to 20)
#    0.000    2.800    4.000    0.600    2.800    0.000 
#    0.000    4.000    0.000    4.800    0.000    0.000 
#    0.000    0.000    0.000    0.000    0.000    0.000 
#
# Total GULP energy -111839.901402 kJ/mol
# GULP energy per Si atom -5591.995070 kJ/mol
# Density = 2.949863 g / cm^3
# Si number density = 29.565926 Si / 1000 Ang^3
#
#
#
# Elastic Constant Matrix: (Units=GPa)
#
#
# Indices 1 2 3 4 5 6 
#
# 1 83.6275 -34.5325 41.3281 0.0000 -12.3740 0.0000
# 2 -34.5325 57.3038 18.0627 0.0000 30.6215 0.0000
# 3 41.3281 18.0627 202.1646 0.0000 -11.7455 0.0000
# 4 0.0000 0.0000 0.0000 47.0645 0.0000 10.7509
# 5 -12.3740 30.6215 -11.7455 0.0000 56.3211 0.0000
# 6 0.0000 0.0000 0.0000 10.7509 0.0000 24.2628
#
#
#
# Elastic Compliance Matrix: (Units=1/GPa)
#
#
# Indices 1 2 3 4 5 6 
#
# 1 0.022093 0.019093 -0.006624 0.000000 -0.006908 0.000000
# 2 0.019093 0.043053 -0.008975 0.000000 -0.021084 0.000000
# 3 -0.006624 -0.008975 0.007391 0.000000 0.004966 0.000000
# 4 0.000000 0.000000 0.000000 0.023640 0.000000 -0.010475
# 5 -0.006908 -0.021084 0.004966 0.000000 0.028737 0.000000
# 6 0.000000 0.000000 0.000000 -0.010475 0.000000 0.045857
#
#
# Mechanical properties :
#
#
# Convention : Reuss Voigt Hill
#
# Bulk Modulus (GPa) = 12.57439 43.64583 28.11011
# Shear Modulus (GPa) = 26.27569 46.74552 36.51061
#
# Velocity S-wave (km/s) = 2.98437 3.98057 3.51791
# Velocity P-wave (km/s) = 4.01715 5.99340 5.10188
#
# Compressibility (1/GPa) = 0.07952673
#
# Stress axis : x y z
#
# Youngs Moduli (GPa) = 45.26257 23.22726 135.30119
#
# Poissons Ratio (x) = -0.44349 0.89621
# Poissons Ratio (y) = -0.86422 1.21430
# Poissons Ratio (z) = 0.29981 0.20846
#
# Static dielectric constant tensor:
#      x y z
#    x 2.526230 0.000000 -0.022230 
#    y 0.000000 2.547350 0.000000 
#    z -0.022230 0.000000 2.150290 
# 
# From -- ./inp_files/8261.got.cif
#   From: 2010.05.17/outbox.cif.g08.bks.cpg/sg14_5_cif.got.tgz:8261.got - 2010.06.03 17:49:19.
