data_PCOD9239086
_publ_section_title
;
Structure prediction by ZEFSAII (Michael W. Deem and Ramdas Pophale) SiO2 
 PCOD9239086
Probable space group: P 2/C
;
_chemical_formula_sum "Si O2"
_cell_formula_units_Z 20
_cell_length_a 9.000000
_cell_length_b 12.000000
_cell_length_c 9.000000
_cell_angle_alpha 90.000000
_cell_angle_beta 80.000000
_cell_angle_gamma 90.000000
_cell_volume 957.233136
_symmetry_space_group_name_H-M "P 2/C"
_symmetry_group_IT_number 13
_symmetry_cell_setting 'monoclinic'
loop_
_space_group_symop_operation_xyz
x,y,z
-x,y,1/2-z
-x,-y,-z
x,-y,1/2+z
loop_
_atom_site_type_symbol
_atom_site_label
_atom_site_fract_x
_atom_site_fract_y
_atom_site_fract_z
Si Si1 0.675233 0.353744 0.488415
Si Si2 0.183958 0.170880 0.217721
Si Si3 0.182461 0.550159 0.222915
Si Si4 0.324543 0.728178 0.996052
Si Si5 0.384098 0.953655 0.141114
O O1 0.763115 0.239175 0.437143
O O2 0.728775 0.441942 0.353511
O O3 0.736803 0.404842 0.636809
O O4 0.495886 0.323227 0.492645
O O5 0.265946 0.236148 0.341922
O O6 0.261838 0.048628 0.202036
O O7 0.000000 0.167748 0.250000
O O8 0.212596 0.641131 0.090230
O O9 0.000000 0.529198 0.250000
O O10 0.313382 0.841955 0.090534
O O11 0.500000 0.923623 0.250000
O O12 0.500000 0.000000 0.000000
#
# Coordination Sequence:
#
# PCOD9239086 Si02
#       5
#     4   4   4   4   4
#     4  12  24  46  70 100 139 185 231 279 343 413
#     4  12  26  45  71 101 139 182 227 291 348 399
#     4  12  26  44  70 106 143 177 228 290 342 405
#     4  12  26  45  72  99 138 184 236 277 343 419
#     4  12  23  46  70 101 138 182 229 279 337 414
#
# _framework density 20.893552
#
# number of rings (size 3 to 8) (size 9 to 14) (size 15 to 20)
#    0.000    0.000    4.000    6.600    0.000    3.200 
#    0.000    0.000    0.000    0.000    0.000    0.000 
#    0.000    0.000    0.000    0.000    0.000    0.000 
#
# Total GULP energy -111746.031487 kJ/mol
# GULP energy per Si atom -5587.301574 kJ/mol
# Density = 2.084600 g / cm^3
# Si number density = 20.893552 Si / 1000 Ang^3
#
#
#
# Elastic Constant Matrix: (Units=GPa)
#
#
# Indices 1 2 3 4 5 6 
#
# 1 150.9767 28.8235 41.5691 0.0000 0.8229 0.0000
# 2 28.8235 138.6370 31.5705 0.0000 -3.4880 0.0000
# 3 41.5691 31.5705 87.0249 0.0000 16.6951 0.0000
# 4 0.0000 0.0000 0.0000 54.7203 0.0000 -7.4766
# 5 0.8229 -3.4880 16.6951 0.0000 44.9535 0.0000
# 6 0.0000 0.0000 0.0000 -7.4766 0.0000 33.6882
#
#
#
# Elastic Compliance Matrix: (Units=1/GPa)
#
#
# Indices 1 2 3 4 5 6 
#
# 1 0.007769 -0.000753 -0.003660 0.000000 0.001159 0.000000
# 2 -0.000753 0.008073 -0.002898 0.000000 0.001717 0.000000
# 3 -0.003660 -0.002898 0.015420 0.000000 -0.005885 0.000000
# 4 0.000000 0.000000 0.000000 0.018846 0.000000 0.004183
# 5 0.001159 0.001717 -0.005885 0.000000 0.024543 0.000000
# 6 0.000000 0.000000 0.000000 0.004183 0.000000 0.030612
#
#
# Mechanical properties :
#
#
# Convention : Reuss Voigt Hill
#
# Bulk Modulus (GPa) = 60.10024 64.50721 62.30373
# Shear Modulus (GPa) = 39.86263 44.98409 42.42336
#
# Velocity S-wave (km/s) = 4.37268 4.64509 4.51094
# Velocity P-wave (km/s) = 7.37029 7.72725 7.55088
#
# Compressibility (1/GPa) = 0.01663887
#
# Stress axis : x y z
#
# Youngs Moduli (GPa) = 128.72245 123.87339 64.85217
#
# Poissons Ratio (x) = 0.09322 0.23737
# Poissons Ratio (y) = 0.09687 0.18797
# Poissons Ratio (z) = 0.47114 0.35904
#
# Static dielectric constant tensor:
#      x y z
#    x 1.704670 0.000000 -0.011270 
#    y 0.000000 1.743050 0.000000 
#    z -0.011270 0.000000 1.859530 
# 
# From -- ./inp_files/11669.got.cif
#   From: 2010.05.17/outbox.ucp.g08.bks.cvg/sg13_6_cif.got.tgz:11669.got - 2010.06.11 12:23:55.
