data_PCOD9239105
_publ_section_title
;
Structure prediction by ZEFSAII (Michael W. Deem and Ramdas Pophale) SiO2 
 PCOD9239105
Probable space group: P 21/C
;
_chemical_formula_sum "Si O2"
_cell_formula_units_Z 32
_cell_length_a 13.904883
_cell_length_b 8.013969
_cell_length_c 13.622771
_cell_angle_alpha 90.000000
_cell_angle_beta 132.958315
_cell_angle_gamma 90.000000
_cell_volume 1110.970037
_symmetry_space_group_name_H-M "P 21/C"
_symmetry_group_IT_number 14
_symmetry_cell_setting 'monoclinic'
loop_
_space_group_symop_operation_xyz
x,y,z
-x,1/2+y,1/2-z
-x,-y,-z
x,1/2-y,1/2+z
loop_
_atom_site_type_symbol
_atom_site_label
_atom_site_fract_x
_atom_site_fract_y
_atom_site_fract_z
Si Si1 0.472476 0.827986 0.535148
Si Si2 0.244339 0.538345 0.177802
Si Si3 0.750044 0.381887 0.586803
Si Si4 0.208798 0.328280 0.899061
Si Si5 0.459637 0.356109 0.610914
Si Si6 0.886222 0.134217 0.904235
Si Si7 0.949529 0.150276 0.719505
Si Si8 0.271183 0.330681 0.709275
O O1 0.324285 0.799082 0.459274
O O2 0.506627 0.687341 0.479362
O O3 0.572848 0.812960 0.693798
O O4 0.500000 0.000000 0.500000
O O5 0.243134 0.548755 0.296853
O O6 0.392588 0.598576 0.248807
O O7 0.139671 0.680054 0.074525
O O8 0.210061 0.344460 0.131591
O O9 0.638965 0.488269 0.454699
O O10 0.886818 0.323257 0.633835
O O11 0.118942 0.484129 0.869762
O O12 0.240244 0.341452 0.804614
O O13 0.107157 0.171590 0.831329
O O14 0.348119 0.291417 0.049826
O O15 0.906346 0.161273 0.802593
O O16 0.765218 0.015348 0.849489
O O17 0.000000 0.000000 0.000000
#
# Coordination Sequence:
#
# PCOD9239105 Si02
#       8
#     4   4   4   4   4   4   4   4
#     4  10  15  23  41  69 104 131 157 204 254 312
#     4  10  17  31  53  74 103 138 170 218 265 304
#     4  10  15  26  43  70 105 132 157 197 260 319
#     4  10  19  30  47  77 109 132 166 201 271 332
#     4  10  16  27  45  75 106 129 160 206 264 328
#     4  10  23  37  51  76 103 141 187 222 257 300
#     4  10  21  32  50  74 107 145 166 212 260 327
#     4  10  18  32  51  77 104 133 172 215 265 320
#
# _framework density 28.803656
#
# number of rings (size 3 to 8) (size 9 to 14) (size 15 to 20)
#    0.000    2.000    3.750    5.250    1.750    0.500 
#    0.000    0.000    0.000    0.000    3.250    0.000 
#    0.000    0.000    0.000    0.000    0.000    0.000 
#
# Total GULP energy -178700.142906 kJ/mol
# GULP energy per Si atom -5584.379466 kJ/mol
# Density = 2.873810 g / cm^3
# Si number density = 28.803656 Si / 1000 Ang^3
#
#
#
# Elastic Constant Matrix: (Units=GPa)
#
#
# Indices 1 2 3 4 5 6 
#
# 1 102.7845 15.7666 24.7205 0.0000 2.2334 0.0000
# 2 15.7666 143.3671 -9.5406 0.0000 -6.3069 0.0000
# 3 24.7205 -9.5406 35.4854 0.0000 18.6580 0.0000
# 4 0.0000 0.0000 0.0000 56.5083 0.0000 18.4204
# 5 2.2334 -6.3069 18.6580 0.0000 41.2639 0.0000
# 6 0.0000 0.0000 0.0000 18.4204 0.0000 31.5711
#
#
#
# Elastic Compliance Matrix: (Units=1/GPa)
#
#
# Indices 1 2 3 4 5 6 
#
# 1 0.012747 -0.001990 -0.011666 0.000000 0.004281 0.000000
# 2 -0.001990 0.007415 0.003578 0.000000 -0.000377 0.000000
# 3 -0.011666 0.003578 0.048081 0.000000 -0.020562 0.000000
# 4 0.000000 0.000000 0.000000 0.021853 0.000000 -0.012750
# 5 0.004281 -0.000377 -0.020562 0.000000 0.033242 0.000000
# 6 0.000000 0.000000 0.000000 -0.012750 0.000000 0.039114
#
#
# Mechanical properties :
#
#
# Convention : Reuss Voigt Hill
#
# Bulk Modulus (GPa) = 20.79525 38.17001 29.48263
# Shear Modulus (GPa) = 25.17153 42.58136 33.87644
#
# Velocity S-wave (km/s) = 2.95939 3.84908 3.43318
# Velocity P-wave (km/s) = 4.34887 5.74756 5.09642
#
# Compressibility (1/GPa) = 0.04808791
#
# Stress axis : x y z
#
# Youngs Moduli (GPa) = 78.44941 134.85326 20.79829
#
# Poissons Ratio (x) = 0.26834 0.24263
# Poissons Ratio (y) = 0.15610 -0.07442
# Poissons Ratio (z) = 0.91518 -0.48251
#
# Static dielectric constant tensor:
#      x y z
#    x 2.085620 0.000000 -0.454760 
#    y 0.000000 2.200120 0.000000 
#    z -0.454760 0.000000 0.927510 
# 
# From -- ./inp_files/74600.got.cif
#   From: 2010.05.17/outbox.cif.g08.bks.cpg/sg14_38_cif.got.tgz:74600.got - 2010.06.03 17:49:19.
