data_PCOD9239730
_publ_section_title
;
Structure prediction by ZEFSAII (Michael W. Deem and Ramdas Pophale) SiO2 
 PCOD9239730
Probable space group: P 21/C
;
_chemical_formula_sum "Si O2"
_cell_formula_units_Z 28
_cell_length_a 8.446683
_cell_length_b 17.580379
_cell_length_c 8.223793
_cell_angle_alpha 90.000000
_cell_angle_beta 94.613031
_cell_angle_gamma 90.000000
_cell_volume 1217.243510
_symmetry_space_group_name_H-M "P 21/C"
_symmetry_group_IT_number 14
_symmetry_cell_setting 'monoclinic'
loop_
_space_group_symop_operation_xyz
x,y,z
-x,1/2+y,1/2-z
-x,-y,-z
x,1/2-y,1/2+z
loop_
_atom_site_type_symbol
_atom_site_label
_atom_site_fract_x
_atom_site_fract_y
_atom_site_fract_z
Si Si1 0.771227 0.402022 0.233992
Si Si2 0.607457 0.643590 0.201752
Si Si3 0.533692 0.987432 0.311692
Si Si4 0.854229 0.458064 0.898294
Si Si5 0.716753 0.716570 0.910764
Si Si6 0.910876 0.565080 0.333371
Si Si7 0.074159 0.170396 0.866233
O O1 0.586713 0.422378 0.260544
O O2 0.858418 0.477939 0.311910
O O3 0.886028 0.334656 0.306785
O O4 0.786329 0.405666 0.037920
O O5 0.507133 0.572379 0.259260
O O6 0.614470 0.717112 0.315583
O O7 0.784324 0.609674 0.215219
O O8 0.594968 0.670973 0.015228
O O9 0.721747 0.983394 0.325147
O O10 0.500000 0.000000 0.500000
O O11 0.922895 0.420435 0.741560
O O12 0.000000 0.500000 0.000000
O O13 0.816988 0.671584 0.784675
O O14 0.854299 0.757863 0.029393
O O15 0.895091 0.600130 0.509391
#
# Coordination Sequence:
#
# PCOD9239730 Si02
#       7
#     4   4   4   4   4   4   4
#     4   9  17  30  51  80 109 138 170 223 277 316
#     4   9  17  33  55  80 108 140 181 220 267 323
#     4   9  18  32  54  82 112 138 172 227 283 327
#     4   9  17  31  53  81 110 139 171 211 275 342
#     4   9  19  32  53  80 107 150 187 218 259 319
#     4   9  17  29  51  83 109 137 175 219 267 319
#     4  10  18  31  51  78 110 142 186 224 257 314
#
# _framework density 23.002790999999998
#
# number of rings (size 3 to 8) (size 9 to 14) (size 15 to 20)
#    0.000    2.857    0.000    2.143    0.000    2.286 
#    0.000    0.714    0.000   36.000    0.000    3.000 
#    0.000    0.000    0.000    0.000    0.000    0.000 
#
# Total GULP energy -155941.770605 kJ/mol
# GULP energy per Si atom -5569.348950 kJ/mol
# Density = 2.295044 g / cm^3
# Si number density = 23.002791 Si / 1000 Ang^3
#
#
#
# Elastic Constant Matrix: (Units=GPa)
#
#
# Indices 1 2 3 4 5 6 
#
# 1 93.7308 19.9026 21.5776 0.0000 16.0008 0.0000
# 2 19.9026 60.4585 40.0439 0.0000 6.7516 0.0000
# 3 21.5776 40.0439 70.7331 0.0000 0.3214 0.0000
# 4 0.0000 0.0000 0.0000 27.6865 0.0000 1.0888
# 5 16.0008 6.7516 0.3214 0.0000 18.9974 0.0000
# 6 0.0000 0.0000 0.0000 1.0888 0.0000 26.0198
#
#
#
# Elastic Compliance Matrix: (Units=1/GPa)
#
#
# Indices 1 2 3 4 5 6 
#
# 1 0.013568 -0.000836 -0.003616 0.000000 -0.011070 0.000000
# 2 -0.000836 0.028207 -0.015673 0.000000 -0.009056 0.000000
# 3 -0.003616 -0.015673 0.024076 0.000000 0.008208 0.000000
# 4 0.000000 0.000000 0.000000 0.036178 0.000000 -0.001514
# 5 -0.011070 -0.009056 0.008208 0.000000 0.065042 0.000000
# 6 0.000000 0.000000 0.000000 -0.001514 0.000000 0.038496
#
#
# Mechanical properties :
#
#
# Convention : Reuss Voigt Hill
#
# Bulk Modulus (GPa) = 39.05714 43.10784 41.08249
# Shear Modulus (GPa) = 19.65784 24.10062 21.87923
#
# Velocity S-wave (km/s) = 2.92650 3.24037 3.08743
# Velocity P-wave (km/s) = 5.33248 5.72547 5.53246
#
# Compressibility (1/GPa) = 0.02560351
#
# Stress axis : x y z
#
# Youngs Moduli (GPa) = 73.70044 35.45167 41.53470
#
# Poissons Ratio (x) = 0.02962 0.15018
# Poissons Ratio (y) = 0.06158 0.65097
# Poissons Ratio (z) = 0.26649 0.55563
#
# Static dielectric constant tensor:
#      x y z
#    x 1.962450 0.000000 0.027630 
#    y 0.000000 1.957760 0.000000 
#    z 0.027630 0.000000 1.913310 
# 
# From -- ./inp_files/9925.got.cif
#   From: 2010.05.17/outbox.cif.g08.bks.cpg/sg14_5_cif.got.tgz:9925.got - 2010.06.03 17:49:19.
