data_PCOD9239752
_publ_section_title
;
Structure prediction by ZEFSAII (Michael W. Deem and Ramdas Pophale) SiO2 
 PCOD9239752
Probable space group: P 21/C
;
_chemical_formula_sum "Si O2"
_cell_formula_units_Z 20
_cell_length_a 11.113542
_cell_length_b 14.672145
_cell_length_c 14.346070
_cell_angle_alpha 90.000000
_cell_angle_beta 159.781727
_cell_angle_gamma 90.000000
_cell_volume 808.443419
_symmetry_space_group_name_H-M "P 21/C"
_symmetry_group_IT_number 14
_symmetry_cell_setting 'monoclinic'
loop_
_space_group_symop_operation_xyz
x,y,z
-x,1/2+y,1/2-z
-x,-y,-z
x,1/2-y,1/2+z
loop_
_atom_site_type_symbol
_atom_site_label
_atom_site_fract_x
_atom_site_fract_y
_atom_site_fract_z
Si Si1 0.910577 0.200162 0.337864
Si Si2 0.540381 0.146805 0.679364
Si Si3 0.679196 0.590866 0.708221
Si Si4 0.821548 0.037844 0.594127
Si Si5 0.264434 0.485155 0.565849
O O1 0.275038 0.207756 0.547358
O O2 0.043164 0.146086 0.526821
O O3 0.726922 0.289106 0.243520
O O4 0.622508 0.150536 0.061873
O O5 0.802433 0.081398 0.929545
O O6 0.283594 0.066304 0.458434
O O7 0.893352 0.545092 0.779959
O O8 0.511526 0.521146 0.661128
O O9 0.477226 0.074532 0.294540
O O10 0.967451 0.069611 0.797759
#
# Coordination Sequence:
#
# PCOD9239752 Si02
#       5
#     4   4   4   4   4
#     4  11  23  34  56  78 113 138 176 216 265 317
#     4   9  23  35  54  79 108 144 173 213 269 314
#     4  11  19  32  54  83 106 133 179 228 264 296
#     4  10  18  31  54  80 107 132 175 227 266 301
#     4   9  17  30  51  77 105 131 169 219 265 304
#
# _framework density 24.738897999999999
#
# number of rings (size 3 to 8) (size 9 to 14) (size 15 to 20)
#    1.200    0.800    2.000    2.400    2.800    0.000 
#    0.000    0.000    0.000    2.400    0.000    0.000 
#    0.000    0.000    0.000    0.000    0.000    0.000 
#
# Total GULP energy -111489.962470 kJ/mol
# GULP energy per Si atom -5574.498123 kJ/mol
# Density = 2.468259 g / cm^3
# Si number density = 24.738898 Si / 1000 Ang^3
#
#
#
# Elastic Constant Matrix: (Units=GPa)
#
#
# Indices 1 2 3 4 5 6 
#
# 1 65.6227 55.4479 91.3215 0.0000 12.7463 0.0000
# 2 55.4479 47.7143 39.5084 0.0000 4.7157 0.0000
# 3 91.3215 39.5084 158.1551 0.0000 -51.2492 0.0000
# 4 0.0000 0.0000 0.0000 13.1030 0.0000 2.6148
# 5 12.7463 4.7157 -51.2492 0.0000 48.2425 0.0000
# 6 0.0000 0.0000 0.0000 2.6148 0.0000 50.2528
#
#
#
# Elastic Compliance Matrix: (Units=1/GPa)
#
#
# Indices 1 2 3 4 5 6 
#
# 1 -0.021381 0.006982 0.018621 0.000000 0.024748 0.000000
# 2 0.006982 0.033252 -0.021332 0.000000 -0.027757 0.000000
# 3 0.018621 -0.021332 -0.000029 0.000000 -0.002865 0.000000
# 4 0.000000 0.000000 0.000000 0.077119 0.000000 -0.004013
# 5 0.024748 -0.027757 -0.002865 0.000000 0.013859 0.000000
# 6 0.000000 0.000000 0.000000 -0.004013 0.000000 0.020108
#
#
# Mechanical properties :
#
#
# Convention : Reuss Voigt Hill
#
# Bulk Modulus (GPa) = 49.06029 71.56088 60.31058
# Shear Modulus (GPa) = 41.25992 28.00061 34.63027
#
# Velocity S-wave (km/s) = 4.08832 3.36794 3.74549
# Velocity P-wave (km/s) = 6.49308 6.64178 6.56785
#
# Compressibility (1/GPa) = 0.02038309
#
# Stress axis : x y z
#
# Youngs Moduli (GPa) = -46.77117 30.07370 -34941.00739
#
# Poissons Ratio (x) = -0.20996 650.63585
# Poissons Ratio (y) = 0.32654 -745.36938
# Poissons Ratio (z) = 0.87093 0.64154
#
# Static dielectric constant tensor:
#      x y z
#    x 1.948260 0.000000 -0.023620 
#    y 0.000000 1.931440 0.000000 
#    z -0.023620 0.000000 2.109270 
# 
# From -- ./inp_files/20971.got.cif
#   From: 2010.05.17/outbox.cif.g08.bks.cpg/sg14_11_cif.got.tgz:20971.got - 2010.06.03 17:49:19.
