data_PCOD9239280
_publ_section_title
;
Structure prediction by ZEFSAII (Michael W. Deem and Ramdas Pophale) SiO2 
 PCOD9239280
Probable space group: P 21/C
;
_chemical_formula_sum "Si O2"
_cell_formula_units_Z 30
_cell_length_a 14.701068
_cell_length_b 8.423216
_cell_length_c 11.123022
_cell_angle_alpha 90.000000
_cell_angle_beta 64.958398
_cell_angle_gamma 90.000000
_cell_volume 1247.895297
_symmetry_space_group_name_H-M "P 21/C"
_symmetry_group_IT_number 14
_symmetry_cell_setting 'monoclinic'
loop_
_space_group_symop_operation_xyz
x,y,z
-x,1/2+y,1/2-z
-x,-y,-z
x,1/2-y,1/2+z
loop_
_atom_site_type_symbol
_atom_site_label
_atom_site_fract_x
_atom_site_fract_y
_atom_site_fract_z
Si Si1 0.299168 0.518169 0.595286
Si Si2 0.437186 0.465031 0.305187
Si Si3 0.268215 0.273948 0.819788
Si Si4 0.000000 0.500000 0.000000
Si Si5 0.201097 0.925732 0.511628
Si Si6 0.638638 0.283531 0.225482
Si Si7 0.084397 0.432757 0.685838
Si Si8 0.109807 0.409992 0.271209
O O1 0.396413 0.515994 0.458270
O O2 0.296154 0.359702 0.679640
O O3 0.306453 0.660646 0.685247
O O4 0.192184 0.502612 0.589542
O O5 0.362615 0.325477 0.308792
O O6 0.550562 0.408729 0.245900
O O7 0.414319 0.614928 0.234457
O O8 0.241032 0.410909 0.928654
O O9 0.169723 0.166755 0.848106
O O10 0.092301 0.598392 0.013019
O O11 0.063303 0.489495 0.835299
O O12 0.181735 0.967668 0.660635
O O13 0.280589 0.794805 0.427158
O O14 0.087634 0.240871 0.694199
O O15 0.994938 0.499912 0.654416
#
# Coordination Sequence:
#
# PCOD9239280 Si02
#       8
#     4   4   4   2   4   4   4   4
#     4  10  22  45  64  91 131 172 209 272 323 382
#     4  12  26  42  69  96 129 170 220 267 323 387
#     4  10  20  41  60  91 130 167 215 264 320 374
#     4  10  16  36  64  84 118 172 196 248 316 382
#     4  10  20  39  64  85 126 170 212 256 328 373
#     4  11  24  44  66  96 126 169 217 267 323 385
#     4  10  20  36  60  90 126 166 216 257 329 376
#     4  10  21  36  59  91 125 168 209 266 312 389
#
# _framework density 24.040479999999999
#
# number of rings (size 3 to 8) (size 9 to 14) (size 15 to 20)
#    0.000    1.600    4.000    3.600    0.000    4.267 
#    0.000    3.333    0.000    0.000    0.000    0.000 
#    0.000    0.000    0.000    0.000    0.000    0.000 
#
# Total GULP energy -167390.052257 kJ/mol
# GULP energy per Si atom -5579.668409 kJ/mol
# Density = 2.398576 g / cm^3
# Si number density = 24.040480 Si / 1000 Ang^3
#
#
#
# Elastic Constant Matrix: (Units=GPa)
#
#
# Indices 1 2 3 4 5 6 
#
# 1 102.9379 30.1712 3.6430 0.0000 -25.1641 0.0000
# 2 30.1712 45.0861 5.1902 0.0000 -2.0199 0.0000
# 3 3.6430 5.1902 47.7308 0.0000 -9.5486 0.0000
# 4 0.0000 0.0000 0.0000 24.4262 0.0000 -0.8257
# 5 -25.1641 -2.0199 -9.5486 0.0000 34.2149 0.0000
# 6 0.0000 0.0000 0.0000 -0.8257 0.0000 23.9255
#
#
#
# Elastic Compliance Matrix: (Units=1/GPa)
#
#
# Indices 1 2 3 4 5 6 
#
# 1 0.015330 -0.010003 0.002177 0.000000 0.011292 0.000000
# 2 -0.010003 0.029004 -0.003728 0.000000 -0.006685 0.000000
# 3 0.002177 -0.003728 0.022736 0.000000 0.007726 0.000000
# 4 0.000000 0.000000 0.000000 0.040987 0.000000 0.001414
# 5 0.011292 -0.006685 0.007726 0.000000 0.039293 0.000000
# 6 0.000000 0.000000 0.000000 0.001414 0.000000 0.041845
#
#
# Mechanical properties :
#
#
# Convention : Reuss Voigt Hill
#
# Bulk Modulus (GPa) = 22.74783 30.41816 26.58299
# Shear Modulus (GPa) = 22.03059 26.96336 24.49697
#
# Velocity S-wave (km/s) = 3.03049 3.35264 3.19562
# Velocity P-wave (km/s) = 4.66133 5.25997 4.96967
#
# Compressibility (1/GPa) = 0.04396024
#
# Stress axis : x y z
#
# Youngs Moduli (GPa) = 65.23201 34.47853 43.98387
#
# Poissons Ratio (x) = 0.34490 -0.09574
# Poissons Ratio (y) = 0.65254 0.16396
# Poissons Ratio (z) = -0.14199 0.12853
#
# Static dielectric constant tensor:
#      x y z
#    x 1.882610 0.000000 0.017600 
#    y 0.000000 1.939860 0.000000 
#    z 0.017600 0.000000 1.928900 
# 
# From -- ./inp_files/31755.got.cif
#   From: 2010.05.17/outbox.cif.g08.bks.cpg/sg14_16_cif.got.tgz:31755.got - 2010.06.03 17:49:19.
