data_PCOD9239278
_publ_section_title
;
Structure prediction by ZEFSAII (Michael W. Deem and Ramdas Pophale) SiO2 
 PCOD9239278
Probable space group: P 21/C
;
_chemical_formula_sum "Si O2"
_cell_formula_units_Z 22
_cell_length_a 9.867088
_cell_length_b 14.922692
_cell_length_c 9.732984
_cell_angle_alpha 90.000000
_cell_angle_beta 43.916499
_cell_angle_gamma 90.000000
_cell_volume 994.024499
_symmetry_space_group_name_H-M "P 21/C"
_symmetry_group_IT_number 14
_symmetry_cell_setting 'monoclinic'
loop_
_space_group_symop_operation_xyz
x,y,z
-x,1/2+y,1/2-z
-x,-y,-z
x,1/2-y,1/2+z
loop_
_atom_site_type_symbol
_atom_site_label
_atom_site_fract_x
_atom_site_fract_y
_atom_site_fract_z
Si Si1 0.811747 0.618096 0.380811
Si Si2 0.163496 0.674544 0.261865
Si Si3 0.298343 0.553018 0.395398
Si Si4 0.287348 0.521831 0.961823
Si Si5 0.635477 0.135794 0.857276
Si Si6 0.000000 0.500000 0.000000
O O1 0.814200 0.538334 0.491845
O O2 0.586046 0.643356 0.531699
O O3 0.954886 0.690188 0.343074
O O4 0.890482 0.580388 0.179453
O O5 0.177002 0.622933 0.396020
O O6 0.270265 0.767830 0.204084
O O7 0.265132 0.603238 0.082717
O O8 0.506302 0.525469 0.175255
O O9 0.358742 0.591190 0.499067
O O10 0.255929 0.567012 0.828457
O O11 0.102495 0.458792 0.074088
#
# Coordination Sequence:
#
# PCOD9239278 Si02
#       6
#     4   4   4   4   4   2
#     4  10  21  40  66  88 123 169 212 246 308 385
#     4  11  24  37  60  99 128 152 206 271 313 356
#     4  11  20  41  64  89 121 169 204 261 306 369
#     4  10  20  38  62  87 120 165 211 242 303 384
#     4  11  21  42  61  89 126 167 200 258 320 369
#     4  10  16  36  62  92 102 158 224 236 276 384
#
# _framework density 22.132251
#
# number of rings (size 3 to 8) (size 9 to 14) (size 15 to 20)
#    0.000    1.455    3.636    3.273    0.000    0.000 
#    3.273   12.727    0.000    0.000    0.000    0.000 
#    0.000    0.000    0.000    0.000    0.000    0.000 
#
# Total GULP energy -122486.996893 kJ/mol
# GULP energy per Si atom -5567.590768 kJ/mol
# Density = 2.208188 g / cm^3
# Si number density = 22.132251 Si / 1000 Ang^3
#
#
#
# Elastic Constant Matrix: (Units=GPa)
#
#
# Indices 1 2 3 4 5 6 
#
# 1 83.3517 22.8357 26.1669 0.0000 -13.3641 0.0000
# 2 22.8357 59.5870 -1.6603 0.0000 -6.9798 0.0000
# 3 26.1669 -1.6603 39.5619 0.0000 -13.1203 0.0000
# 4 0.0000 0.0000 0.0000 -5.4006 0.0000 -4.4315
# 5 -13.3641 -6.9798 -13.1203 0.0000 38.0783 0.0000
# 6 0.0000 0.0000 0.0000 -4.4315 0.0000 34.3776
#
#
#
# Elastic Compliance Matrix: (Units=1/GPa)
#
#
# Indices 1 2 3 4 5 6 
#
# 1 0.017751 -0.007024 -0.011738 0.000000 0.000898 0.000000
# 2 -0.007024 0.020070 0.006651 0.000000 0.003505 0.000000
# 3 -0.011738 0.006651 0.036532 0.000000 0.009687 0.000000
# 4 0.000000 0.000000 0.000000 -0.167453 0.000000 -0.021586
# 5 0.000898 0.003505 0.009687 0.000000 0.030557 0.000000
# 6 0.000000 0.000000 0.000000 -0.021586 0.000000 0.026306
#
#
# Mechanical properties :
#
#
# Convention : Reuss Voigt Hill
#
# Bulk Modulus (GPa) = 19.94802 30.79836 25.37319
# Shear Modulus (GPa) = 1064.85147 22.42162 543.63654
#
# Velocity S-wave (km/s) = 21.95850 3.18634 15.68962
# Velocity P-wave (km/s) = 25.53299 5.24240 18.43117
#
# Compressibility (1/GPa) = 0.05013030
#
# Stress axis : x y z
#
# Youngs Moduli (GPa) = 56.33613 49.82538 27.37326
#
# Poissons Ratio (x) = 0.35000 0.32129
# Poissons Ratio (y) = 0.39573 -0.18205
# Poissons Ratio (z) = 0.66125 -0.33138
#
# Static dielectric constant tensor:
#      x y z
#    x 2.791150 0.000000 -0.765070 
#    y 0.000000 -2.941010 0.000000 
#    z -0.765070 0.000000 2.463900 
# 
# From -- ./inp_files/9336.got.cif
#   From: 2010.05.17/outbox.cif.g08.bks.cpg/sg14_5_cif.got.tgz:9336.got - 2010.06.03 17:49:19.
