data_PCOD9239874
_publ_section_title
;
Structure prediction by ZEFSAII (Michael W. Deem and Ramdas Pophale) SiO2 
 PCOD9239874
Probable space group: P 21/C
;
_chemical_formula_sum "Si O2"
_cell_formula_units_Z 22
_cell_length_a 7.023081
_cell_length_b 20.505917
_cell_length_c 5.562391
_cell_angle_alpha 90.000000
_cell_angle_beta 78.576162
_cell_angle_gamma 90.000000
_cell_volume 785.196122
_symmetry_space_group_name_H-M "P 21/C"
_symmetry_group_IT_number 14
_symmetry_cell_setting 'monoclinic'
loop_
_space_group_symop_operation_xyz
x,y,z
-x,1/2+y,1/2-z
-x,-y,-z
x,1/2-y,1/2+z
loop_
_atom_site_type_symbol
_atom_site_label
_atom_site_fract_x
_atom_site_fract_y
_atom_site_fract_z
Si Si1 0.751783 0.482880 0.643303
Si Si2 0.004851 0.760515 0.792385
Si Si3 0.000000 0.500000 0.000000
Si Si4 0.183175 0.399450 0.689112
Si Si5 0.565136 0.785574 0.399382
Si Si6 0.550512 0.088024 0.818335
O O1 0.864398 0.545267 0.500235
O O2 0.543267 0.518145 0.728975
O O3 0.740487 0.432265 0.421944
O O4 0.841702 0.460604 0.868764
O O5 0.111804 0.749919 0.515558
O O6 0.932261 0.834169 0.807784
O O7 0.806080 0.716048 0.840123
O O8 0.852122 0.562467 0.056909
O O9 0.405883 0.385501 0.566313
O O10 0.516391 0.755442 0.670435
O O11 0.472439 0.856834 0.375520
#
# Coordination Sequence:
#
# PCOD9239874 Si02
#       6
#     4   4   2   4   4   4
#     4   9  21  40  53  90 118 165 196 258 306 370
#     4  10  19  33  59  93 118 151 204 268 305 360
#     4  12  24  34  62  82 128 168 204 252 314 370
#     4  10  21  37  59  88 122 153 207 253 309 372
#     4  10  18  32  57  94 115 152 198 271 309 358
#     4   9  19  38  61  84 125 147 213 253 312 364
#
# _framework density 28.01848
#
# number of rings (size 3 to 8) (size 9 to 14) (size 15 to 20)
#    1.091    1.091    3.636    0.545    7.636    0.727 
#    3.273    0.000    0.000    2.182    0.000    0.000 
#    0.000    0.000    0.000    0.000    0.000    0.000 
#
# Total GULP energy -122505.263333 kJ/mol
# GULP energy per Si atom -5568.421061 kJ/mol
# Density = 2.795471 g / cm^3
# Si number density = 28.018480 Si / 1000 Ang^3
#
#
#
# Elastic Constant Matrix: (Units=GPa)
#
#
# Indices 1 2 3 4 5 6 
#
# 1 74.7328 5.5508 34.6207 0.0000 21.4977 0.0000
# 2 5.5508 93.9302 34.2515 0.0000 3.7471 0.0000
# 3 34.6207 34.2515 183.6166 0.0000 20.7321 0.0000
# 4 0.0000 0.0000 0.0000 50.0134 0.0000 6.4244
# 5 21.4977 3.7471 20.7321 0.0000 52.9535 0.0000
# 6 0.0000 0.0000 0.0000 6.4244 0.0000 20.8175
#
#
#
# Elastic Compliance Matrix: (Units=1/GPa)
#
#
# Indices 1 2 3 4 5 6 
#
# 1 0.016107 0.000159 -0.002435 0.000000 -0.005597 0.000000
# 2 0.000159 0.011425 -0.002158 0.000000 -0.000028 0.000000
# 3 -0.002435 -0.002158 0.006465 0.000000 -0.001390 0.000000
# 4 0.000000 0.000000 0.000000 0.020820 0.000000 -0.006425
# 5 -0.005597 -0.000028 -0.001390 0.000000 0.021703 0.000000
# 6 0.000000 0.000000 0.000000 -0.006425 0.000000 0.050019
#
#
# Mechanical properties :
#
#
# Convention : Reuss Voigt Hill
#
# Bulk Modulus (GPa) = 39.79353 55.68061 47.73707
# Shear Modulus (GPa) = 34.77476 43.28066 39.02771
#
# Velocity S-wave (km/s) = 3.52680 3.93455 3.73624
# Velocity P-wave (km/s) = 5.55138 6.36843 5.97389
#
# Compressibility (1/GPa) = 0.02512972
#
# Stress axis : x y z
#
# Youngs Moduli (GPa) = 62.08415 87.52869 154.68673
#
# Poissons Ratio (x) = -0.01394 0.37662
# Poissons Ratio (y) = -0.00989 0.33382
# Poissons Ratio (z) = 0.15116 0.18889
#
# Static dielectric constant tensor:
#      x y z
#    x 2.564210 0.000000 -0.215720 
#    y 0.000000 2.003200 0.000000 
#    z -0.215720 0.000000 2.280440 
# 
# From -- ./inp_files/1447.got.cif
#   From: 2010.05.17/outbox.cif.g08.bks.cpg/sg14_1_cif.got.tgz:1447.got - 2010.06.03 17:49:19.
