data_PCOD9239807
_publ_section_title
;
Structure prediction by ZEFSAII (Michael W. Deem and Ramdas Pophale) SiO2 
 PCOD9239807
Probable space group: P 21/C
;
_chemical_formula_sum "Si O2"
_cell_formula_units_Z 28
_cell_length_a 9.819954
_cell_length_b 10.181041
_cell_length_c 23.145131
_cell_angle_alpha 90.000000
_cell_angle_beta 42.013509
_cell_angle_gamma 90.000000
_cell_volume 1548.766242
_symmetry_space_group_name_H-M "P 21/C"
_symmetry_group_IT_number 14
_symmetry_cell_setting 'monoclinic'
loop_
_space_group_symop_operation_xyz
x,y,z
-x,1/2+y,1/2-z
-x,-y,-z
x,1/2-y,1/2+z
loop_
_atom_site_type_symbol
_atom_site_label
_atom_site_fract_x
_atom_site_fract_y
_atom_site_fract_z
Si Si1 0.378377 0.588953 0.210455
Si Si2 0.256841 0.870862 0.283037
Si Si3 0.208435 0.394924 0.061875
Si Si4 0.195498 0.205235 0.439253
Si Si5 0.675677 0.513384 0.647570
Si Si6 0.251106 0.768150 0.414811
Si Si7 0.470019 0.398950 0.084292
O O1 0.285787 0.735267 0.238181
O O2 0.623304 0.611988 0.139900
O O3 0.299121 0.514195 0.292028
O O4 0.351565 0.506504 0.160677
O O5 0.433512 0.972820 0.212030
O O6 0.296582 0.824504 0.336735
O O7 0.027480 0.920797 0.350894
O O8 0.325704 0.340315 0.080780
O O9 0.212114 0.302550 0.003862
O O10 0.339941 0.523460 0.004293
O O11 0.235711 0.348762 0.401114
O O12 0.963574 0.169050 0.498026
O O13 0.768862 0.387981 0.586373
O O14 0.430085 0.800071 0.402104
#
# Coordination Sequence:
#
# PCOD9239807 Si02
#       7
#     4   4   4   4   4   4   4
#     4   9  18  31  54  76 104 129 170 218 253 298
#     4   9  18  33  52  75 101 136 168 207 267 296
#     4   9  20  35  54  70 103 141 171 208 247 310
#     4   9  19  33  54  75 102 137 172 204 258 303
#     4  10  18  32  52  79 107 128 168 219 259 291
#     4  10  19  31  54  79 100 133 172 214 245 304
#     4  10  19  35  52  77 101 133 179 210 244 299
#
# _framework density 18.078906
#
# number of rings (size 3 to 8) (size 9 to 14) (size 15 to 20)
#    0.000    2.571    1.429    0.429    2.000    1.714 
#    2.571    0.714    9.429    0.000    0.000    0.000 
#    0.000    0.000    0.000    0.000    0.000    0.000 
#
# Total GULP energy -156052.738852 kJ/mol
# GULP energy per Si atom -5573.312102 kJ/mol
# Density = 1.803776 g / cm^3
# Si number density = 18.078906 Si / 1000 Ang^3
#
#
#
# Elastic Constant Matrix: (Units=GPa)
#
#
# Indices 1 2 3 4 5 6 
#
# 1 86.8729 0.5344 15.5398 0.0000 7.8137 0.0000
# 2 0.5344 30.6750 0.3481 0.0000 6.4452 0.0000
# 3 15.5398 0.3481 56.3092 0.0000 -8.0152 0.0000
# 4 0.0000 0.0000 0.0000 21.4249 0.0000 5.6912
# 5 7.8137 6.4452 -8.0152 0.0000 19.7961 0.0000
# 6 0.0000 0.0000 0.0000 5.6912 0.0000 14.4571
#
#
#
# Elastic Compliance Matrix: (Units=1/GPa)
#
#
# Indices 1 2 3 4 5 6 
#
# 1 0.013009 0.001397 -0.004663 0.000000 -0.007478 0.000000
# 2 0.001397 0.035347 -0.002463 0.000000 -0.013057 0.000000
# 3 -0.004663 -0.002463 0.020626 0.000000 0.010994 0.000000
# 4 0.000000 0.000000 0.000000 0.052125 0.000000 -0.020520
# 5 -0.007478 -0.013057 0.010994 0.000000 0.062169 0.000000
# 6 0.000000 0.000000 0.000000 -0.020520 0.000000 0.077248
#
#
# Mechanical properties :
#
#
# Convention : Reuss Voigt Hill
#
# Bulk Modulus (GPa) = 17.38369 22.96685 20.17527
# Shear Modulus (GPa) = 17.17292 21.63128 19.40210
#
# Velocity S-wave (km/s) = 3.08537 3.46279 3.27951
# Velocity P-wave (km/s) = 4.72536 5.35902 5.05213
#
# Compressibility (1/GPa) = 0.05752518
#
# Stress axis : x y z
#
# Youngs Moduli (GPa) = 76.86849 28.29108 48.48223
#
# Poissons Ratio (x) = -0.03954 0.22609
# Poissons Ratio (y) = -0.10742 0.11940
# Poissons Ratio (z) = 0.35846 0.06967
#
# Static dielectric constant tensor:
#      x y z
#    x 1.607990 0.000000 -0.003800 
#    y 0.000000 1.618770 0.000000 
#    z -0.003800 0.000000 1.655540 
# 
# From -- ./inp_files/39647.got.cif
#   From: 2010.05.17/outbox.cif.g08.bks.cpg/sg14_20_cif.got.tgz:39647.got - 2010.06.03 17:49:19.
