data_PCOD9239155
_publ_section_title
;
Structure prediction by ZEFSAII (Michael W. Deem and Ramdas Pophale) SiO2 
 PCOD9239155
Probable space group: P 21/C
;
_chemical_formula_sum "Si O2"
_cell_formula_units_Z 24
_cell_length_a 14.424689
_cell_length_b 5.290873
_cell_length_c 24.664086
_cell_angle_alpha 90.000000
_cell_angle_beta 26.751869
_cell_angle_gamma 90.000000
_cell_volume 847.294594
_symmetry_space_group_name_H-M "P 21/C"
_symmetry_group_IT_number 14
_symmetry_cell_setting 'monoclinic'
loop_
_space_group_symop_operation_xyz
x,y,z
-x,1/2+y,1/2-z
-x,-y,-z
x,1/2-y,1/2+z
loop_
_atom_site_type_symbol
_atom_site_label
_atom_site_fract_x
_atom_site_fract_y
_atom_site_fract_z
Si Si1 0.873501 0.461248 0.200085
Si Si2 0.994858 0.286099 0.455269
Si Si3 0.572164 0.999099 0.687334
Si Si4 0.628876 0.605591 0.040902
Si Si5 0.632382 0.098042 0.979918
Si Si6 0.058480 0.458259 0.302504
O O1 0.801734 0.201894 0.264300
O O2 0.123373 0.419705 0.076540
O O3 0.817757 0.699420 0.265984
O O4 0.846086 0.569182 0.153167
O O5 0.797582 0.118411 0.571698
O O6 0.000000 0.500000 0.500000
O O7 0.966282 0.431329 0.412580
O O8 0.434939 0.212701 0.787663
O O9 0.511648 0.982114 0.655980
O O10 0.580399 0.898206 0.055307
O O11 0.604664 0.392400 0.007863
O O12 0.881285 0.048823 0.850181
O O13 0.500000 0.000000 0.000000
#
# Coordination Sequence:
#
# PCOD9239155 Si02
#       6
#     4   4   4   4   4   4
#     4   7  14  25  41  57  86 122 148 193 245 285
#     4   9  19  32  50  69  97 136 174 213 261 307
#     4  11  22  34  51  71 103 147 181 212 270 326
#     4   9  17  30  42  64  99 127 166 211 250 306
#     4  10  16  26  46  68  95 130 163 206 269 312
#     4   8  15  27  40  62  93 122 151 205 251 297
#
# _framework density 28.32545
#
# number of rings (size 3 to 8) (size 9 to 14) (size 15 to 20)
#    1.000    2.000    1.667    1.500    4.667    0.667 
#    0.000    0.000    0.000    0.000    0.000    0.000 
#    0.000    5.333    0.000    0.333    0.000    0.000 
#
# Total GULP energy -134012.800748 kJ/mol
# GULP energy per Si atom -5583.866698 kJ/mol
# Density = 2.826098 g / cm^3
# Si number density = 28.325450 Si / 1000 Ang^3
#
#
#
# Elastic Constant Matrix: (Units=GPa)
#
#
# Indices 1 2 3 4 5 6 
#
# 1 123.0428 30.4652 -1.8030 0.0000 11.6100 0.0000
# 2 30.4652 214.4033 11.1703 0.0000 8.1216 0.0000
# 3 -1.8030 11.1703 64.9985 0.0000 1.7804 0.0000
# 4 0.0000 0.0000 0.0000 47.4339 0.0000 6.3462
# 5 11.6100 8.1216 1.7804 0.0000 22.2432 0.0000
# 6 0.0000 0.0000 0.0000 6.3462 0.0000 51.9171
#
#
#
# Elastic Compliance Matrix: (Units=1/GPa)
#
#
# Indices 1 2 3 4 5 6 
#
# 1 0.008812 -0.001121 0.000553 0.000000 -0.004235 0.000000
# 2 -0.001121 0.004910 -0.000844 0.000000 -0.001141 0.000000
# 3 0.000553 -0.000844 0.015579 0.000000 -0.001228 0.000000
# 4 0.000000 0.000000 0.000000 0.021432 0.000000 -0.002620
# 5 -0.004235 -0.001141 -0.001228 0.000000 0.047683 0.000000
# 6 0.000000 0.000000 0.000000 -0.002620 0.000000 0.019582
#
#
# Mechanical properties :
#
#
# Convention : Reuss Voigt Hill
#
# Bulk Modulus (GPa) = 37.76541 53.56771 45.66656
# Shear Modulus (GPa) = 38.56604 48.49298 43.52951
#
# Velocity S-wave (km/s) = 3.69390 4.14211 3.92441
# Velocity P-wave (km/s) = 5.61737 6.46751 6.05737
#
# Compressibility (1/GPa) = 0.02647926
#
# Stress axis : x y z
#
# Youngs Moduli (GPa) = 113.47650 203.64547 64.18924
#
# Poissons Ratio (x) = 0.22820 -0.03550
# Poissons Ratio (y) = 0.12716 0.05416
# Poissons Ratio (z) = -0.06276 0.17182
#
# Static dielectric constant tensor:
#      x y z
#    x 2.249220 0.000000 -0.085660 
#    y 0.000000 2.386920 0.000000 
#    z -0.085660 0.000000 2.262760 
# 
# From -- ./inp_files/77391.got.cif
#   From: 2010.05.17/outbox.cif.g08.bks.cpg/sg14_39_cif.got.tgz:77391.got - 2010.06.03 17:49:19.
