data_PCOD9239872
_publ_section_title
;
Structure prediction by ZEFSAII (Michael W. Deem and Ramdas Pophale) SiO2 
 PCOD9239872
Probable space group: P 21/C
;
_chemical_formula_sum "Si O2"
_cell_formula_units_Z 32
_cell_length_a 11.880689
_cell_length_b 8.391954
_cell_length_c 20.856623
_cell_angle_alpha 90.000000
_cell_angle_beta 39.633180
_cell_angle_gamma 90.000000
_cell_volume 1326.419658
_symmetry_space_group_name_H-M "P 21/C"
_symmetry_group_IT_number 14
_symmetry_cell_setting 'monoclinic'
loop_
_space_group_symop_operation_xyz
x,y,z
-x,1/2+y,1/2-z
-x,-y,-z
x,1/2-y,1/2+z
loop_
_atom_site_type_symbol
_atom_site_label
_atom_site_fract_x
_atom_site_fract_y
_atom_site_fract_z
Si Si1 0.789324 0.477075 0.662900
Si Si2 0.646954 0.687424 0.958006
Si Si3 0.020953 0.506603 0.785971
Si Si4 0.137733 0.301161 0.930257
Si Si5 0.165779 0.878765 0.350342
Si Si6 0.154968 0.033660 0.082444
Si Si7 0.471188 0.069461 0.611992
Si Si8 0.833265 0.206070 0.461749
O O1 0.742834 0.289796 0.670997
O O2 0.659737 0.545642 0.773184
O O3 0.788473 0.619193 0.609189
O O4 0.980491 0.458403 0.614287
O O5 0.700909 0.829520 0.980179
O O6 0.585653 0.708930 0.911765
O O7 0.834861 0.598922 0.865715
O O8 0.489277 0.589069 0.060555
O O9 0.151767 0.591360 0.779816
O O10 0.093394 0.480067 0.683575
O O11 0.958689 0.344023 0.847648
O O12 0.963301 0.283877 0.963326
O O13 0.230798 0.456801 0.856710
O O14 0.042413 0.357013 0.037396
O O15 0.246674 0.874287 0.019731
O O16 0.670864 0.092800 0.546019
#
# Coordination Sequence:
#
# PCOD9239872 Si02
#       8
#     4   4   4   4   4   4   4   4
#     4  11  21  37  64  90 112 156 202 251 291 356
#     4  10  20  35  53  82 125 155 185 235 296 365
#     4  10  18  32  57  87 113 147 194 248 288 348
#     4   9  21  40  62  89 113 148 209 253 286 348
#     4  10  20  36  64  89 113 151 199 254 300 335
#     4  11  20  33  59  90 113 152 210 240 287 362
#     4  10  22  37  53  81 127 161 181 233 313 353
#     4   9  21  36  55  79 122 157 180 248 298 342
#
# _framework density 24.125094000000001
#
# number of rings (size 3 to 8) (size 9 to 14) (size 15 to 20)
#    0.000    2.000    2.500    1.125    3.500    0.500 
#    2.250    0.000   11.000    0.000    0.000    0.000 
#    0.000    0.000    0.000    0.000    0.000    0.000 
#
# Total GULP energy -178438.983856 kJ/mol
# GULP energy per Si atom -5576.218245 kJ/mol
# Density = 2.407018 g / cm^3
# Si number density = 24.125094 Si / 1000 Ang^3
#
#
#
# Elastic Constant Matrix: (Units=GPa)
#
#
# Indices 1 2 3 4 5 6 
#
# 1 36.0736 6.7954 -3.3509 0.0000 6.4609 0.0000
# 2 6.7954 104.8386 -7.1710 0.0000 -2.2702 0.0000
# 3 -3.3509 -7.1710 41.7364 0.0000 9.4383 0.0000
# 4 0.0000 0.0000 0.0000 18.0944 0.0000 3.1468
# 5 6.4609 -2.2702 9.4383 0.0000 22.6554 0.0000
# 6 0.0000 0.0000 0.0000 3.1468 0.0000 26.9027
#
#
#
# Elastic Compliance Matrix: (Units=1/GPa)
#
#
# Indices 1 2 3 4 5 6 
#
# 1 0.030429 -0.001894 0.004552 0.000000 -0.010764 0.000000
# 2 -0.001894 0.009772 0.001306 0.000000 0.000975 0.000000
# 3 0.004552 0.001306 0.027395 0.000000 -0.012580 0.000000
# 4 0.000000 0.000000 0.000000 0.056413 0.000000 -0.006599
# 5 -0.010764 0.000975 -0.012580 0.000000 0.052548 0.000000
# 6 0.000000 0.000000 0.000000 -0.006599 0.000000 0.037943
#
#
# Mechanical properties :
#
#
# Convention : Reuss Voigt Hill
#
# Bulk Modulus (GPa) = 13.24098 19.46616 16.35357
# Shear Modulus (GPa) = 21.57543 25.95551 23.76547
#
# Velocity S-wave (km/s) = 2.99375 3.28361 3.14202
# Velocity P-wave (km/s) = 4.17738 4.73946 4.46727
#
# Compressibility (1/GPa) = 0.07552308
#
# Stress axis : x y z
#
# Youngs Moduli (GPa) = 32.86381 102.33618 36.50353
#
# Poissons Ratio (x) = 0.19383 -0.16616
# Poissons Ratio (y) = 0.06225 -0.04769
# Poissons Ratio (z) = -0.14959 -0.13369
#
# Static dielectric constant tensor:
#      x y z
#    x 1.934720 0.000000 0.072160 
#    y 0.000000 2.102900 0.000000 
#    z 0.072160 0.000000 1.889840 
# 
# From -- ./inp_files/73836.got.cif
#   From: 2010.05.17/outbox.cif.g08.bks.cpg/sg14_37_cif.got.tgz:73836.got - 2010.06.03 17:49:19.
