data_PCOD9239040
_publ_section_title
;
Structure prediction by ZEFSAII (Michael W. Deem and Ramdas Pophale) SiO2 
 PCOD9239040
Probable space group: P 2/C
;
_chemical_formula_sum "Si O2"
_cell_formula_units_Z 20
_cell_length_a 18.000000
_cell_length_b 6.000000
_cell_length_c 18.000000
_cell_angle_alpha 90.000000
_cell_angle_beta 30.000000
_cell_angle_gamma 90.000000
_cell_volume 972.000000
_symmetry_space_group_name_H-M "P 2/C"
_symmetry_group_IT_number 13
_symmetry_cell_setting 'monoclinic'
loop_
_space_group_symop_operation_xyz
x,y,z
-x,y,1/2-z
-x,-y,-z
x,-y,1/2+z
loop_
_atom_site_type_symbol
_atom_site_label
_atom_site_fract_x
_atom_site_fract_y
_atom_site_fract_z
Si Si1 0.334711 0.538430 0.548212
Si Si2 0.157740 0.121812 0.421918
Si Si3 0.394312 0.812478 0.128038
Si Si4 0.140248 0.407233 0.575517
Si Si5 0.056577 0.261172 0.358347
O O1 0.498334 0.649736 0.415412
O O2 0.331341 0.338678 0.613648
O O3 0.270291 0.470922 0.522487
O O4 0.212261 0.717641 0.681317
O O5 0.207317 0.241008 0.455059
O O6 0.104546 0.296321 0.403937
O O7 0.272590 0.946921 0.283287
O O8 0.015272 0.981471 0.572345
O O9 0.500000 0.000000 0.000000
O O10 0.000000 0.330168 0.750000
O O11 0.059272 0.592385 0.591146
#
# Coordination Sequence:
#
# PCOD9239040 Si02
#       5
#     4   4   4   4   4
#     4  10  24  45  68  96 140 174 222 277 337 387
#     4  11  24  40  73  98 132 173 227 268 330 404
#     4  11  24  44  71  96 131 185 223 266 331 409
#     4  10  24  41  65 101 137 170 216 287 332 384
#     4  10  23  40  69  99 128 170 221 273 331 394
#
# _framework density 20.576132000000001
#
# number of rings (size 3 to 8) (size 9 to 14) (size 15 to 20)
#    0.000    1.600    2.000    0.600   14.000    4.000 
#    0.000    6.000    0.000    0.000    0.000    0.000 
#    0.000    0.000    0.000    0.000    0.000    0.000 
#
# Total GULP energy -111484.919041 kJ/mol
# GULP energy per Si atom -5574.245952 kJ/mol
# Density = 2.052930 g / cm^3
# Si number density = 20.576132 Si / 1000 Ang^3
#
#
#
# Elastic Constant Matrix: (Units=GPa)
#
#
# Indices 1 2 3 4 5 6 
#
# 1 227.2381 51.1737 56.0532 0.0000 11.3487 0.0000
# 2 51.1737 58.6540 49.3304 0.0000 8.6788 0.0000
# 3 56.0532 49.3304 79.1521 0.0000 4.1317 0.0000
# 4 0.0000 0.0000 0.0000 46.2055 0.0000 8.9191
# 5 11.3487 8.6788 4.1317 0.0000 41.3651 0.0000
# 6 0.0000 0.0000 0.0000 8.9191 0.0000 38.6014
#
#
#
# Elastic Compliance Matrix: (Units=1/GPa)
#
#
# Indices 1 2 3 4 5 6 
#
# 1 0.005634 -0.003127 -0.002005 0.000000 -0.000689 0.000000
# 2 -0.003127 0.038767 -0.021680 0.000000 -0.005110 0.000000
# 3 -0.002005 -0.021680 0.027442 0.000000 0.002358 0.000000
# 4 0.000000 0.000000 0.000000 0.022653 0.000000 -0.005234
# 5 -0.000689 -0.005110 0.002358 0.000000 0.025201 0.000000
# 6 0.000000 0.000000 0.000000 -0.005234 0.000000 0.027115
#
#
# Mechanical properties :
#
#
# Convention : Reuss Voigt Hill
#
# Bulk Modulus (GPa) = 54.88545 75.35096 65.11820
# Shear Modulus (GPa) = 24.21204 39.13355 31.67279
#
# Velocity S-wave (km/s) = 3.43404 4.36580 3.92764
# Velocity P-wave (km/s) = 6.51580 7.88122 7.23081
#
# Compressibility (1/GPa) = 0.01821976
#
# Stress axis : x y z
#
# Youngs Moduli (GPa) = 177.49788 25.79488 36.44038
#
# Poissons Ratio (x) = 0.08067 0.07305
# Poissons Ratio (y) = 0.55510 0.79002
# Poissons Ratio (z) = 0.35583 0.55923
#
# Static dielectric constant tensor:
#      x y z
#    x 1.764950 0.000000 -0.011480 
#    y 0.000000 1.786990 0.000000 
#    z -0.011480 0.000000 1.739610 
# 
# From -- ./inp_files/69131.got.cif
#   From: 2010.05.17/outbox.ucp.g08.bks.cvg/sg13_35_cif.got.tgz:69131.got - 2010.06.11 12:23:55.
