data_PCOD9239556
_publ_section_title
;
Structure prediction by ZEFSAII (Michael W. Deem and Ramdas Pophale) SiO2 
 PCOD9239556
Probable space group: P 21/C
;
_chemical_formula_sum "Si O2"
_cell_formula_units_Z 28
_cell_length_a 9.487861
_cell_length_b 14.351986
_cell_length_c 12.584965
_cell_angle_alpha 90.000000
_cell_angle_beta 131.311378
_cell_angle_gamma 90.000000
_cell_volume 1287.209395
_symmetry_space_group_name_H-M "P 21/C"
_symmetry_group_IT_number 14
_symmetry_cell_setting 'monoclinic'
loop_
_space_group_symop_operation_xyz
x,y,z
-x,1/2+y,1/2-z
-x,-y,-z
x,1/2-y,1/2+z
loop_
_atom_site_type_symbol
_atom_site_label
_atom_site_fract_x
_atom_site_fract_y
_atom_site_fract_z
Si Si1 0.013600 0.340721 0.527318
Si Si2 0.761466 0.421005 0.568069
Si Si3 0.693165 0.385190 0.196009
Si Si4 0.952644 0.639964 0.003479
Si Si5 0.073601 0.521714 0.863049
Si Si6 0.371550 0.677168 0.300409
Si Si7 0.372939 0.459031 0.692644
O O1 0.879587 0.341259 0.564065
O O2 0.878536 0.369848 0.362926
O O3 0.117068 0.243434 0.555624
O O4 0.170660 0.417892 0.621668
O O5 0.624073 0.377247 0.586009
O O6 0.652686 0.478730 0.425283
O O7 0.913309 0.486692 0.701945
O O8 0.771730 0.418345 0.121939
O O9 0.593008 0.285474 0.157128
O O10 0.576480 0.469516 0.189388
O O11 0.159049 0.661973 0.153883
O O12 0.857600 0.571860 0.041684
O O13 0.977591 0.583491 0.907002
O O14 0.495963 0.626274 0.274282
#
# Coordination Sequence:
#
# PCOD9239556 Si02
#       7
#     4   4   4   4   4   4   4
#     4  10  18  36  62  88 107 147 203 239 275 340
#     4  10  18  35  63  86 108 149 193 243 280 338
#     4  10  19  37  62  81 117 156 190 237 289 341
#     4   9  21  34  57  81 122 148 192 234 286 346
#     4  10  17  36  59  85 106 157 192 234 278 341
#     4  10  22  36  56  86 121 151 185 232 306 337
#     4  11  20  37  60  89 115 145 197 247 283 340
#
# _framework density 21.752481
#
# number of rings (size 3 to 8) (size 9 to 14) (size 15 to 20)
#    0.000    2.000    2.857    2.143    0.000    0.000 
#    7.714    0.714    9.429    0.000    0.000    0.000 
#    0.000    0.000    0.000    0.000    0.000    0.000 
#
# Total GULP energy -156324.265316 kJ/mol
# GULP energy per Si atom -5583.009476 kJ/mol
# Density = 2.170297 g / cm^3
# Si number density = 21.752481 Si / 1000 Ang^3
#
#
#
# Elastic Constant Matrix: (Units=GPa)
#
#
# Indices 1 2 3 4 5 6 
#
# 1 72.2928 32.1081 1.7195 0.0000 -16.0298 0.0000
# 2 32.1081 130.5603 -0.6518 0.0000 -9.4999 0.0000
# 3 1.7195 -0.6518 36.0306 0.0000 -17.6076 0.0000
# 4 0.0000 0.0000 0.0000 11.3909 0.0000 -7.8600
# 5 -16.0298 -9.4999 -17.6076 0.0000 28.6443 0.0000
# 6 0.0000 0.0000 0.0000 -7.8600 0.0000 33.8642
#
#
#
# Elastic Compliance Matrix: (Units=1/GPa)
#
#
# Indices 1 2 3 4 5 6 
#
# 1 0.017906 -0.003517 0.004872 0.000000 0.011849 0.000000
# 2 -0.003517 0.008644 0.001091 0.000000 0.001569 0.000000
# 3 0.004872 0.001091 0.041524 0.000000 0.028613 0.000000
# 4 0.000000 0.000000 0.000000 0.104531 0.000000 0.024262
# 5 0.011849 0.001569 0.028613 0.000000 0.059651 0.000000
# 6 0.000000 0.000000 0.000000 0.024262 0.000000 0.035161
#
#
# Mechanical properties :
#
#
# Convention : Reuss Voigt Hill
#
# Bulk Modulus (GPa) = 13.70483 33.91503 23.80993
# Shear Modulus (GPa) = 17.43091 28.49375 22.96233
#
# Velocity S-wave (km/s) = 2.83385 3.62319 3.25255
# Velocity P-wave (km/s) = 4.12573 5.75574 5.00750
#
# Compressibility (1/GPa) = 0.07296699
#
# Stress axis : x y z
#
# Youngs Moduli (GPa) = 55.84669 115.68906 24.08226
#
# Poissons Ratio (x) = 0.40689 -0.11734
# Poissons Ratio (y) = 0.19642 -0.02628
# Poissons Ratio (z) = -0.27210 -0.12623
#
# Static dielectric constant tensor:
#      x y z
#    x 1.797000 0.000000 -0.004240 
#    y 0.000000 1.836850 0.000000 
#    z -0.004240 0.000000 1.793150 
# 
# From -- ./inp_files/25114.got.cif
#   From: 2010.05.17/outbox.cif.g08.bks.cpg/sg14_13_cif.got.tgz:25114.got - 2010.06.03 17:49:19.
