data_PCOD9239672
_publ_section_title
;
Structure prediction by ZEFSAII (Michael W. Deem and Ramdas Pophale) SiO2 
 PCOD9239672
Probable space group: P 21/C
;
_chemical_formula_sum "Si O2"
_cell_formula_units_Z 24
_cell_length_a 9.206479
_cell_length_b 12.793184
_cell_length_c 14.963788
_cell_angle_alpha 90.000000
_cell_angle_beta 28.148077
_cell_angle_gamma 90.000000
_cell_volume 831.433323
_symmetry_space_group_name_H-M "P 21/C"
_symmetry_group_IT_number 14
_symmetry_cell_setting 'monoclinic'
loop_
_space_group_symop_operation_xyz
x,y,z
-x,1/2+y,1/2-z
-x,-y,-z
x,1/2-y,1/2+z
loop_
_atom_site_type_symbol
_atom_site_label
_atom_site_fract_x
_atom_site_fract_y
_atom_site_fract_z
Si Si1 0.831017 0.963608 0.352828
Si Si2 0.780631 0.790939 0.880770
Si Si3 0.385504 0.704907 0.762177
Si Si4 0.185077 0.545970 0.485262
Si Si5 0.323944 0.759716 0.481570
Si Si6 0.738860 0.907001 0.584754
O O1 0.834789 0.835117 0.358420
O O2 0.851272 0.985069 0.447463
O O3 0.500000 0.000000 0.500000
O O4 0.066974 0.992629 0.146553
O O5 0.114294 0.824912 0.663640
O O6 0.610658 0.832571 0.060819
O O7 0.556699 0.802310 0.918158
O O8 0.458588 0.829047 0.707669
O O9 0.035439 0.665069 0.943981
O O10 0.479820 0.682647 0.813560
O O11 0.000000 0.500000 0.500000
O O12 0.134882 0.670943 0.530507
O O13 0.551635 0.534680 0.264742
#
# Coordination Sequence:
#
# PCOD9239672 Si02
#       6
#     4   4   4   4   4   4
#     4  10  19  33  54  80 110 141 186 230 275 331
#     4  10  20  34  54  83 112 143 184 236 281 326
#     4  10  19  33  53  81 112 140 183 226 282 330
#     4  10  18  30  50  77 109 136 177 222 271 320
#     4  10  20  33  53  83 111 140 182 233 280 326
#     4  10  20  33  54  83 107 142 178 232 279 330
#
# _framework density 28.865812999999999
#
# number of rings (size 3 to 8) (size 9 to 14) (size 15 to 20)
#    0.000    2.000    1.667    5.000    0.000    0.000 
#    0.000    0.000    0.000    1.000    8.667   14.000 
#    0.000    0.000    0.000    0.000    0.000    0.000 
#
# Total GULP energy -134029.404173 kJ/mol
# GULP energy per Si atom -5584.558507 kJ/mol
# Density = 2.880011 g / cm^3
# Si number density = 28.865813 Si / 1000 Ang^3
#
#
#
# Elastic Constant Matrix: (Units=GPa)
#
#
# Indices 1 2 3 4 5 6 
#
# 1 89.4949 6.0861 87.4970 0.0000 29.3942 0.0000
# 2 6.0861 95.9741 54.7647 0.0000 7.1973 0.0000
# 3 87.4970 54.7647 276.8984 0.0000 60.0773 0.0000
# 4 0.0000 0.0000 0.0000 68.6027 0.0000 1.3597
# 5 29.3942 7.1973 60.0773 0.0000 78.8617 0.0000
# 6 0.0000 0.0000 0.0000 1.3597 0.0000 46.0058
#
#
#
# Elastic Compliance Matrix: (Units=1/GPa)
#
#
# Indices 1 2 3 4 5 6 
#
# 1 0.016976 0.002097 -0.005229 0.000000 -0.002535 0.000000
# 2 0.002097 0.012050 -0.003160 0.000000 0.000526 0.000000
# 3 -0.005229 -0.003160 0.006473 0.000000 -0.002694 0.000000
# 4 0.000000 0.000000 0.000000 0.014585 0.000000 -0.000431
# 5 -0.002535 0.000526 -0.002694 0.000000 0.015630 0.000000
# 6 0.000000 0.000000 0.000000 -0.000431 0.000000 0.021749
#
#
# Mechanical properties :
#
#
# Convention : Reuss Voigt Hill
#
# Bulk Modulus (GPa) = 43.63718 84.34032 63.98875
# Shear Modulus (GPa) = 46.43124 59.62869 53.02996
#
# Velocity S-wave (km/s) = 4.01499 4.54995 4.29081
# Velocity P-wave (km/s) = 6.05339 7.54216 6.83841
#
# Compressibility (1/GPa) = 0.02291624
#
# Stress axis : x y z
#
# Youngs Moduli (GPa) = 58.90586 82.98561 154.48207
#
# Poissons Ratio (x) = -0.17405 0.80779
# Poissons Ratio (y) = -0.12355 0.48819
# Poissons Ratio (z) = 0.30802 0.26225
#
# Static dielectric constant tensor:
#      x y z
#    x 2.405780 0.000000 0.121070 
#    y 0.000000 2.488770 0.000000 
#    z 0.121070 0.000000 2.314610 
# 
# From -- ./inp_files/9770.got.cif
#   From: 2010.05.17/outbox.cif.g08.bks.cpg/sg14_5_cif.got.tgz:9770.got - 2010.06.03 17:49:19.
