data_PCOD9239198
_publ_section_title
;
Structure prediction by ZEFSAII (Michael W. Deem and Ramdas Pophale) SiO2 
 PCOD9239198
Probable space group: P 21/C
;
_chemical_formula_sum "Si O2"
_cell_formula_units_Z 28
_cell_length_a 19.272665
_cell_length_b 13.572233
_cell_length_c 5.467653
_cell_angle_alpha 90.000000
_cell_angle_beta 123.242394
_cell_angle_gamma 90.000000
_cell_volume 1196.152974
_symmetry_space_group_name_H-M "P 21/C"
_symmetry_group_IT_number 14
_symmetry_cell_setting 'monoclinic'
loop_
_space_group_symop_operation_xyz
x,y,z
-x,1/2+y,1/2-z
-x,-y,-z
x,1/2-y,1/2+z
loop_
_atom_site_type_symbol
_atom_site_label
_atom_site_fract_x
_atom_site_fract_y
_atom_site_fract_z
Si Si1 0.915148 0.541769 0.229529
Si Si2 0.446609 0.730714 0.366092
Si Si3 0.401215 0.509854 0.283545
Si Si4 0.987818 0.745076 0.828362
Si Si5 0.731977 0.194249 0.970069
Si Si6 0.692260 0.973240 0.895586
Si Si7 0.140436 0.435073 0.381160
O O1 0.929033 0.658655 0.218295
O O2 0.851853 0.521449 0.328525
O O3 0.000000 0.500000 0.500000
O O4 0.895686 0.503854 0.920243
O O5 0.494933 0.749713 0.709682
O O6 0.397519 0.628087 0.270782
O O7 0.369568 0.805083 0.219925
O O8 0.500000 0.500000 0.500000
O O9 0.356255 0.470059 0.440921
O O10 0.365273 0.469663 0.957546
O O11 0.038067 0.750497 0.675634
O O12 0.927872 0.651059 0.714084
O O13 0.757926 0.251199 0.771901
O O14 0.743890 0.077105 0.986576
O O15 0.768960 0.897770 0.024834
#
# Coordination Sequence:
#
# PCOD9239198 Si02
#       7
#     4   4   4   4   4   4   4
#     4  10  19  36  62  90 113 150 203 232 269 342
#     4  10  16  32  54  74  93 140 192 222 281 363
#     4  12  23  35  55  85 113 149 198 248 298 341
#     4   8  16  32  55  82 103 155 195 215 270 343
#     4  10  16  30  54  76  93 141 189 224 278 350
#     4  12  21  36  57  83 115 151 193 244 286 362
#     4  10  21  35  58  90 116 154 194 228 296 345
#
# _framework density 23.408379
#
# number of rings (size 3 to 8) (size 9 to 14) (size 15 to 20)
#    0.000    1.714    5.714    1.714    0.000    0.000 
#    0.000    0.000    0.000   30.857    0.000    0.000 
#    0.000    0.000    0.000    0.000    0.000    0.000 
#
# Total GULP energy -155958.641922 kJ/mol
# GULP energy per Si atom -5569.951497 kJ/mol
# Density = 2.335510 g / cm^3
# Si number density = 23.408379 Si / 1000 Ang^3
#
#
#
# Elastic Constant Matrix: (Units=GPa)
#
#
# Indices 1 2 3 4 5 6 
#
# 1 62.2091 2.3436 53.5966 0.0000 -24.6871 0.0000
# 2 2.3436 15.0798 11.7554 0.0000 1.6998 0.0000
# 3 53.5966 11.7554 150.5335 0.0000 -50.3235 0.0000
# 4 0.0000 0.0000 0.0000 13.4997 0.0000 -6.9657
# 5 -24.6871 1.6998 -50.3235 0.0000 61.4888 0.0000
# 6 0.0000 0.0000 0.0000 -6.9657 0.0000 5.2630
#
#
#
# Elastic Compliance Matrix: (Units=1/GPa)
#
#
# Indices 1 2 3 4 5 6 
#
# 1 0.023794 0.001749 -0.007476 0.000000 0.003386 0.000000
# 2 0.001749 0.074466 -0.009487 0.000000 -0.009121 0.000000
# 3 -0.007476 -0.009487 0.012569 0.000000 0.007547 0.000000
# 4 0.000000 0.000000 0.000000 0.233624 0.000000 0.309208
# 5 0.003386 -0.009121 0.007547 0.000000 0.024051 0.000000
# 6 0.000000 0.000000 0.000000 0.309208 0.000000 0.599253
#
#
# Mechanical properties :
#
#
# Convention : Reuss Voigt Hill
#
# Bulk Modulus (GPa) = 12.43792 40.35705 26.39749
# Shear Modulus (GPa) = 4.87812 26.72541 15.80177
#
# Velocity S-wave (km/s) = 1.44515 3.38257 2.60099
# Velocity P-wave (km/s) = 2.84773 5.70382 4.50795
#
# Compressibility (1/GPa) = 0.08039927
#
# Stress axis : x y z
#
# Youngs Moduli (GPa) = 42.02763 13.42903 79.56226
#
# Poissons Ratio (x) = -0.02348 0.59483
# Poissons Ratio (y) = -0.07349 0.75479
# Poissons Ratio (z) = 0.31421 0.12740
#
# Static dielectric constant tensor:
#      x y z
#    x 2.157190 0.000000 -0.030670 
#    y 0.000000 3.628570 0.000000 
#    z -0.030670 0.000000 2.052350 
# 
# From -- ./inp_files/4157.got.cif
#   From: 2010.05.17/outbox.cif.g08.bks.cpg/sg14_3_cif.got.tgz:4157.got - 2010.06.03 17:49:19.
