data_PCOD9239650
_publ_section_title
;
Structure prediction by ZEFSAII (Michael W. Deem and Ramdas Pophale) SiO2 
 PCOD9239650
Probable space group: P 21/C
;
_chemical_formula_sum "Si O2"
_cell_formula_units_Z 32
_cell_length_a 15.027780
_cell_length_b 13.852969
_cell_length_c 9.594396
_cell_angle_alpha 90.000000
_cell_angle_beta 144.305995
_cell_angle_gamma 90.000000
_cell_volume 1165.369420
_symmetry_space_group_name_H-M "P 21/C"
_symmetry_group_IT_number 14
_symmetry_cell_setting 'monoclinic'
loop_
_space_group_symop_operation_xyz
x,y,z
-x,1/2+y,1/2-z
-x,-y,-z
x,1/2-y,1/2+z
loop_
_atom_site_type_symbol
_atom_site_label
_atom_site_fract_x
_atom_site_fract_y
_atom_site_fract_z
Si Si1 0.057934 0.150718 0.311514
Si Si2 0.114899 0.622238 0.686571
Si Si3 0.842703 0.495499 0.883224
Si Si4 0.185240 0.433528 0.605992
Si Si5 0.431543 0.530562 0.762675
Si Si6 0.756745 0.316772 0.613572
Si Si7 0.636598 0.762837 0.733079
Si Si8 0.437058 0.123515 0.080799
O O1 0.205992 0.214137 0.521353
O O2 0.917374 0.172442 0.235443
O O3 0.116055 0.042283 0.416335
O O4 0.987736 0.162863 0.071182
O O5 0.170178 0.519336 0.698193
O O6 0.246118 0.701262 0.872600
O O7 0.981104 0.611656 0.630213
O O8 0.776210 0.388213 0.772274
O O9 0.720771 0.573645 0.671521
O O10 0.000000 0.500000 0.000000
O O11 0.260625 0.485127 0.569361
O O12 0.303698 0.348468 0.793825
O O13 0.382185 0.636891 0.651989
O O14 0.516170 0.473354 0.745011
O O15 0.500000 0.500000 0.000000
O O16 0.528661 0.690622 0.509402
O O17 0.577287 0.811509 0.798810
#
# Coordination Sequence:
#
# PCOD9239650 Si02
#       8
#     4   4   4   4   4   4   4   4
#     4  10  18  29  51  83 121 156 183 240 308 373
#     4  11  21  33  53  87 123 154 191 251 322 370
#     4   8  17  29  48  78 114 154 193 237 294 370
#     4  10  21  35  51  84 117 153 195 244 309 361
#     4  10  21  42  65  83 114 163 217 255 295 365
#     4  10  19  36  54  84 116 157 204 249 306 363
#     4  10  18  31  53  84 123 153 195 243 308 379
#     4   9  19  33  55  85 114 154 204 250 302 360
#
# _framework density 27.459104
#
# number of rings (size 3 to 8) (size 9 to 14) (size 15 to 20)
#    0.000    2.250    2.500    0.750    5.250    0.000 
#    0.000    2.500    0.000    0.000    0.000   22.750 
#    0.000    0.000    0.000    0.000    0.000    0.000 
#
# Total GULP energy -178645.739880 kJ/mol
# GULP energy per Si atom -5582.679371 kJ/mol
# Density = 2.739661 g / cm^3
# Si number density = 27.459104 Si / 1000 Ang^3
#
#
#
# Elastic Constant Matrix: (Units=GPa)
#
#
# Indices 1 2 3 4 5 6 
#
# 1 31.1523 44.6621 10.3553 0.0000 3.5297 0.0000
# 2 44.6621 149.1137 63.8355 0.0000 13.3897 0.0000
# 3 10.3553 63.8355 120.5229 0.0000 0.9353 0.0000
# 4 0.0000 0.0000 0.0000 40.8389 0.0000 -2.5503
# 5 3.5297 13.3897 0.9353 0.0000 39.1235 0.0000
# 6 0.0000 0.0000 0.0000 -2.5503 0.0000 36.4416
#
#
#
# Elastic Compliance Matrix: (Units=1/GPa)
#
#
# Indices 1 2 3 4 5 6 
#
# 1 0.059074 -0.020235 0.005631 0.000000 0.001461 0.000000
# 2 -0.020235 0.015936 -0.006675 0.000000 -0.003469 0.000000
# 3 0.005631 -0.006675 0.011337 0.000000 0.001505 0.000000
# 4 0.000000 0.000000 0.000000 0.024594 0.000000 0.001721
# 5 0.001461 -0.003469 0.001505 0.000000 0.026579 0.000000
# 6 0.000000 0.000000 0.000000 0.001721 0.000000 0.027562
#
#
# Mechanical properties :
#
#
# Convention : Reuss Voigt Hill
#
# Bulk Modulus (GPa) = 22.83735 59.83275 41.33505
# Shear Modulus (GPa) = 22.49841 35.40987 28.95414
#
# Velocity S-wave (km/s) = 2.86552 3.59493 3.25075
# Velocity P-wave (km/s) = 4.39126 6.25047 5.40146
#
# Compressibility (1/GPa) = 0.04378791
#
# Stress axis : x y z
#
# Youngs Moduli (GPa) = 16.92794 62.74988 88.20492
#
# Poissons Ratio (x) = 1.26977 -0.49667
# Poissons Ratio (y) = 0.34254 0.58878
# Poissons Ratio (z) = -0.09532 0.41887
#
# Static dielectric constant tensor:
#      x y z
#    x 2.193520 0.000000 -0.016890 
#    y 0.000000 2.289030 0.000000 
#    z -0.016890 0.000000 2.206150 
# 
# From -- ./inp_files/35339.got.cif
#   From: 2010.05.17/outbox.cif.g08.bks.cpg/sg14_18_cif.got.tgz:35339.got - 2010.06.03 17:49:19.
