data_PCOD9239085
_publ_section_title
;
Structure prediction by ZEFSAII (Michael W. Deem and Ramdas Pophale) SiO2 
 PCOD9239085
Probable space group: P 2/C
;
_chemical_formula_sum "Si O2"
_cell_formula_units_Z 28
_cell_length_a 30.000000
_cell_length_b 9.000000
_cell_length_c 30.000000
_cell_angle_alpha 90.000000
_cell_angle_beta 170.000000
_cell_angle_gamma 90.000000
_cell_volume 1406.550239
_symmetry_space_group_name_H-M "P 2/C"
_symmetry_group_IT_number 13
_symmetry_cell_setting 'monoclinic'
loop_
_space_group_symop_operation_xyz
x,y,z
-x,y,1/2-z
-x,-y,-z
x,-y,1/2+z
loop_
_atom_site_type_symbol
_atom_site_label
_atom_site_fract_x
_atom_site_fract_y
_atom_site_fract_z
Si Si1 0.304565 0.740901 0.735864
Si Si2 0.812863 0.244925 0.274977
Si Si3 0.336922 0.387782 0.753384
Si Si4 0.395558 0.722078 0.209808
Si Si5 0.500000 0.563025 0.750000
Si Si6 0.820177 0.062111 0.732401
Si Si7 0.106405 0.927108 0.792578
Si Si8 0.000000 0.787131 0.250000
O O1 0.242915 0.737976 0.727769
O O2 0.327614 0.568381 0.743199
O O3 0.066458 0.830299 0.479704
O O4 0.564507 0.835924 0.983160
O O5 0.081193 0.321237 0.524824
O O6 0.816022 0.069666 0.265174
O O7 0.584381 0.329183 0.023980
O O8 0.359766 0.318611 0.726535
O O9 0.440952 0.560779 0.230742
O O10 0.642782 0.830526 0.445764
O O11 0.141628 0.818105 0.946197
O O12 0.250124 0.675159 0.499964
O O13 0.844182 0.971277 0.710018
O O14 0.056953 0.088523 0.767310
#
# Coordination Sequence:
#
# PCOD9239085 Si02
#       8
#     4   4   4   4   2   4   4   2
#     4  12  26  40  67  98 141 178 227 292 338 377
#     4  12  23  46  64  98 134 185 233 277 333 404
#     4  12  24  42  68  97 133 180 230 277 335 402
#     4  12  24  47  70  99 134 182 222 267 333 414
#     4  12  28  46  76 108 138 164 220 284 340 402
#     4  12  24  42  66  99 133 181 228 278 334 402
#     4  12  25  47  72  97 139 180 226 263 341 411
#     4  12  28  46  74 108 134 168 212 288 336 406
#
# _framework density 19.906860999999999
#
# number of rings (size 3 to 8) (size 9 to 14) (size 15 to 20)
#    0.000    0.000    2.857    7.714    4.000    0.000 
#    0.000    0.000    0.000    0.000    0.000    0.000 
#    0.000    0.000    0.000    0.000    0.000    0.000 
#
# Total GULP energy -156606.621291 kJ/mol
# GULP energy per Si atom -5593.093618 kJ/mol
# Density = 1.986155 g / cm^3
# Si number density = 19.906861 Si / 1000 Ang^3
#
#
#
# Elastic Constant Matrix: (Units=GPa)
#
#
# Indices 1 2 3 4 5 6 
#
# 1 96.7226 14.2939 12.2564 0.0000 13.6941 0.0000
# 2 14.2939 186.8382 81.7547 0.0000 8.0317 0.0000
# 3 12.2564 81.7547 177.5478 0.0000 20.7961 0.0000
# 4 0.0000 0.0000 0.0000 58.7958 0.0000 5.8304
# 5 13.6941 8.0317 20.7961 0.0000 25.5509 0.0000
# 6 0.0000 0.0000 0.0000 5.8304 0.0000 50.3824
#
#
#
# Elastic Compliance Matrix: (Units=1/GPa)
#
#
# Indices 1 2 3 4 5 6 
#
# 1 0.011265 -0.000715 0.000257 0.000000 -0.006022 0.000000
# 2 -0.000715 0.006753 -0.003157 0.000000 0.000831 0.000000
# 3 0.000257 -0.003157 0.007703 0.000000 -0.005415 0.000000
# 4 0.000000 0.000000 0.000000 0.017205 0.000000 -0.001991
# 5 -0.006022 0.000831 -0.005415 0.000000 0.046511 0.000000
# 6 0.000000 0.000000 0.000000 -0.001991 0.000000 0.020079
#
#
# Mechanical properties :
#
#
# Convention : Reuss Voigt Hill
#
# Bulk Modulus (GPa) = 54.08722 75.30209 64.69465
# Shear Modulus (GPa) = 40.68056 50.46606 45.57331
#
# Velocity S-wave (km/s) = 4.52546 5.04045 4.78988
# Velocity P-wave (km/s) = 7.38482 8.47255 7.94732
#
# Compressibility (1/GPa) = 0.01848866
#
# Stress axis : x y z
#
# Youngs Moduli (GPa) = 88.77416 148.08650 129.82668
#
# Poissons Ratio (x) = 0.10595 -0.03338
# Poissons Ratio (y) = 0.06351 0.40991
# Poissons Ratio (z) = -0.02283 0.46756
#
# Static dielectric constant tensor:
#      x y z
#    x 1.747330 0.000000 -0.022510 
#    y 0.000000 1.656610 0.000000 
#    z -0.022510 0.000000 1.698340 
# 
# From -- ./inp_files/98135.got.cif
#   From: 2010.05.17/outbox.ucp.g08.bks.cvg/sg13_50_cif.got.tgz:98135.got - 2010.06.11 12:23:55.
