data_PCOD9239408
_publ_section_title
;
Structure prediction by ZEFSAII (Michael W. Deem and Ramdas Pophale) SiO2 
 PCOD9239408
Probable space group: P 21/C
;
_chemical_formula_sum "Si O2"
_cell_formula_units_Z 28
_cell_length_a 7.725790
_cell_length_b 12.681054
_cell_length_c 12.798406
_cell_angle_alpha 90.000000
_cell_angle_beta 69.772983
_cell_angle_gamma 90.000000
_cell_volume 1176.548355
_symmetry_space_group_name_H-M "P 21/C"
_symmetry_group_IT_number 14
_symmetry_cell_setting 'monoclinic'
loop_
_space_group_symop_operation_xyz
x,y,z
-x,1/2+y,1/2-z
-x,-y,-z
x,1/2-y,1/2+z
loop_
_atom_site_type_symbol
_atom_site_label
_atom_site_fract_x
_atom_site_fract_y
_atom_site_fract_z
Si Si1 0.398314 0.821456 0.971513
Si Si2 0.895029 0.322488 0.064639
Si Si3 0.949575 0.598213 0.385184
Si Si4 0.697866 0.514981 0.625624
Si Si5 0.469487 0.268445 0.351531
Si Si6 0.145559 0.672598 0.708680
Si Si7 0.866865 0.837084 0.679209
O O1 0.298440 0.722096 0.939448
O O2 0.426237 0.917021 0.887093
O O3 0.554128 0.779449 0.017233
O O4 0.252089 0.871968 0.086308
O O5 0.004916 0.371653 0.944871
O O6 0.994787 0.214440 0.083219
O O7 0.884799 0.385627 0.175623
O O8 0.138620 0.530274 0.336832
O O9 0.864771 0.601051 0.287818
O O10 0.816900 0.556198 0.502476
O O11 0.577264 0.615182 0.684355
O O12 0.687287 0.244972 0.294825
O O13 0.330447 0.189113 0.327988
O O14 0.967413 0.728332 0.698016
#
# Coordination Sequence:
#
# PCOD9239408 Si02
#       7
#     4   4   4   4   4   4   4
#     4   8  18  30  49  77 106 133 168 218 264 301
#     4   9  15  34  51  70 111 136 169 219 266 298
#     4   9  19  29  54  82 103 140 173 222 262 311
#     4  10  17  32  53  80 109 134 173 218 271 308
#     4  10  19  31  52  80 102 140 176 215 263 320
#     4   8  19  31  47  75 104 138 168 216 261 300
#     4  10  18  34  50  78 107 137 178 219 261 310
#
# _framework density 23.798425999999999
#
# number of rings (size 3 to 8) (size 9 to 14) (size 15 to 20)
#    0.857    2.000    1.429    0.429    2.000    1.143 
#    0.000    1.429    0.000    1.714    0.000    0.000 
#    0.000    0.000    0.000    0.000    0.000    0.000 
#
# Total GULP energy -155981.146729 kJ/mol
# GULP energy per Si atom -5570.755240 kJ/mol
# Density = 2.374426 g / cm^3
# Si number density = 23.798426 Si / 1000 Ang^3
#
#
#
# Elastic Constant Matrix: (Units=GPa)
#
#
# Indices 1 2 3 4 5 6 
#
# 1 114.8084 14.9275 18.1996 0.0000 24.7171 0.0000
# 2 14.9275 40.8062 14.4128 0.0000 1.3653 0.0000
# 3 18.1996 14.4128 90.4722 0.0000 17.8516 0.0000
# 4 0.0000 0.0000 0.0000 26.7933 0.0000 3.0042
# 5 24.7171 1.3653 17.8516 0.0000 29.9071 0.0000
# 6 0.0000 0.0000 0.0000 3.0042 0.0000 19.4163
#
#
#
# Elastic Compliance Matrix: (Units=1/GPa)
#
#
# Indices 1 2 3 4 5 6 
#
# 1 0.011150 -0.003833 0.000172 0.000000 -0.009142 0.000000
# 2 -0.003833 0.027341 -0.004492 0.000000 0.004602 0.000000
# 3 0.000172 -0.004492 0.013287 0.000000 -0.007868 0.000000
# 4 0.000000 0.000000 0.000000 0.037982 0.000000 -0.005877
# 5 -0.009142 0.004602 -0.007868 0.000000 0.045479 0.000000
# 6 0.000000 0.000000 0.000000 -0.005877 0.000000 0.052413
#
#
# Mechanical properties :
#
#
# Convention : Reuss Voigt Hill
#
# Bulk Modulus (GPa) = 28.19353 37.90739 33.05046
# Shear Modulus (GPa) = 23.17155 28.45979 25.81567
#
# Velocity S-wave (km/s) = 3.12374 3.46188 3.29715
# Velocity P-wave (km/s) = 4.98827 5.65178 5.33036
#
# Compressibility (1/GPa) = 0.03546914
#
# Stress axis : x y z
#
# Youngs Moduli (GPa) = 89.68932 36.57483 75.26342
#
# Poissons Ratio (x) = 0.14021 -0.01292
# Poissons Ratio (y) = 0.34382 0.33812
# Poissons Ratio (z) = -0.01540 0.16431
#
# Static dielectric constant tensor:
#      x y z
#    x 1.937740 0.000000 -0.028710 
#    y 0.000000 1.962900 0.000000 
#    z -0.028710 0.000000 2.051670 
# 
# From -- ./inp_files/40713.got.cif
#   From: 2010.05.17/outbox.cif.g08.bks.cpg/sg14_21_cif.got.tgz:40713.got - 2010.06.03 17:49:19.
