data_PCOD9239176
_publ_section_title
;
Structure prediction by ZEFSAII (Michael W. Deem and Ramdas Pophale) SiO2 
 PCOD9239176
Probable space group: P 21/C
;
_chemical_formula_sum "Si O2"
_cell_formula_units_Z 32
_cell_length_a 9.205350
_cell_length_b 25.319389
_cell_length_c 6.901677
_cell_angle_alpha 90.000000
_cell_angle_beta 124.658551
_cell_angle_gamma 90.000000
_cell_volume 1323.163309
_symmetry_space_group_name_H-M "P 21/C"
_symmetry_group_IT_number 14
_symmetry_cell_setting 'monoclinic'
loop_
_space_group_symop_operation_xyz
x,y,z
-x,1/2+y,1/2-z
-x,-y,-z
x,1/2-y,1/2+z
loop_
_atom_site_type_symbol
_atom_site_label
_atom_site_fract_x
_atom_site_fract_y
_atom_site_fract_z
Si Si1 0.240264 0.139231 0.024164
Si Si2 0.144385 0.371343 0.902586
Si Si3 0.855614 0.128656 0.597411
Si Si4 0.458415 0.439905 0.199256
Si Si5 0.858400 0.253382 0.018234
Si Si6 0.541584 0.060095 0.300742
Si Si7 0.759735 0.139231 0.975833
Si Si8 0.858401 0.753382 0.518236
O O1 0.185280 0.127366 0.203958
O O2 0.403300 0.101570 0.107096
O O3 0.268095 0.202413 0.054592
O O4 0.068710 0.128301 0.759452
O O5 0.205156 0.314225 0.029887
O O6 0.931289 0.371699 0.740545
O O7 0.260239 0.418502 0.073723
O O8 0.794843 0.185775 0.470110
O O9 0.739760 0.081498 0.426274
O O10 0.814719 0.127366 0.796039
O O11 0.480761 0.500000 0.279453
O O12 0.596698 0.398430 0.392901
O O13 0.500000 0.439470 0.999999
O O14 0.731904 0.202413 0.945405
O O15 0.087513 0.246504 0.188925
O O16 0.912487 0.253496 0.311072
#
# Coordination Sequence:
#
# PCOD9239176 Si02
#       8
#     4   4   4   4   4   4   4   4
#     4   9  16  29  47  69  99 124 153 197 241 279
#     4   9  17  29  47  69  98 124 155 196 239 282
#     4   9  17  29  47  69  98 124 155 196 239 282
#     4   9  18  30  45  69  96 125 164 199 233 281
#     4  10  16  29  50  73  99 127 157 193 240 294
#     4   9  18  30  45  69  96 125 164 199 233 281
#     4   9  16  29  47  69  99 124 153 197 241 279
#     4  10  16  29  50  73  99 127 157 193 240 294
#
# _framework density 24.184464999999999
#
# number of rings (size 3 to 8) (size 9 to 14) (size 15 to 20)
#    0.000    2.750    5.000    0.000    0.000    2.000 
#    0.000    5.000    0.000    0.750    0.000    7.000 
#    0.000    0.000    0.000    0.000    0.000    0.000 
#
# Total GULP energy -178486.162112 kJ/mol
# GULP energy per Si atom -5577.692566 kJ/mol
# Density = 2.412942 g / cm^3
# Si number density = 24.184465 Si / 1000 Ang^3
#
#
#
# Elastic Constant Matrix: (Units=GPa)
#
#
# Indices 1 2 3 4 5 6 
#
# 1 107.8561 52.8405 35.4148 0.0000 -16.6074 0.0000
# 2 52.8405 205.4026 70.4448 0.0000 33.4490 0.0000
# 3 35.4148 70.4448 91.9229 0.0000 -3.4364 0.0000
# 4 0.0000 0.0000 0.0000 -908.1453 0.0000 777.1515
# 5 -16.6074 33.4490 -3.4364 0.0000 40.8229 0.0000
# 6 0.0000 0.0000 0.0000 777.1515 0.0000 -597.2724
#
#
#
# Elastic Compliance Matrix: (Units=1/GPa)
#
#
# Indices 1 2 3 4 5 6 
#
# 1 0.013233 -0.004349 -0.001435 0.000000 0.008826 0.000000
# 2 -0.004349 0.009803 -0.006223 0.000000 -0.010325 0.000000
# 3 -0.001435 -0.006223 0.016421 0.000000 0.005897 0.000000
# 4 0.000000 0.000000 0.000000 0.009703 0.000000 0.012625
# 5 0.008826 -0.010325 0.005897 0.000000 0.037043 0.000000
# 6 0.000000 0.000000 0.000000 0.012625 0.000000 0.014754
#
#
# Mechanical properties :
#
#
# Convention : Reuss Voigt Hill
#
# Bulk Modulus (GPa) = 64.75807 80.28688 72.52247
# Shear Modulus (GPa) = 38.42648 -276.48686 -119.03019
#
# Velocity S-wave (km/s) = 3.99041 -10.70385 -7.02314
# Velocity P-wave (km/s) = 6.93297 10.93130 5.97609
#
# Compressibility (1/GPa) = 0.01544209
#
# Stress axis : x y z
#
# Youngs Moduli (GPa) = 75.57083 102.00943 60.89783
#
# Poissons Ratio (x) = 0.44366 0.08739
# Poissons Ratio (y) = 0.32868 0.37896
# Poissons Ratio (z) = 0.10845 0.63479
#
# Static dielectric constant tensor:
#      x y z
#    x 2.055360 0.000000 -0.171070 
#    y 0.000000 1.781700 0.000000 
#    z -0.171070 0.000000 2.058050 
# 
# From -- ./inp_files/33168.got.cif
#   From: 2010.05.17/outbox.cif.g08.bks.cpg/sg14_17_cif.got.tgz:33168.got - 2010.06.03 17:49:19.
