data_PCOD9239377
_publ_section_title
;
Structure prediction by ZEFSAII (Michael W. Deem and Ramdas Pophale) SiO2 
 PCOD9239377
Probable space group: P 21/C
;
_chemical_formula_sum "Si O2"
_cell_formula_units_Z 20
_cell_length_a 13.309096
_cell_length_b 18.882648
_cell_length_c 8.332401
_cell_angle_alpha 90.000000
_cell_angle_beta 27.254251
_cell_angle_gamma 90.000000
_cell_volume 958.937003
_symmetry_space_group_name_H-M "P 21/C"
_symmetry_group_IT_number 14
_symmetry_cell_setting 'monoclinic'
loop_
_space_group_symop_operation_xyz
x,y,z
-x,1/2+y,1/2-z
-x,-y,-z
x,1/2-y,1/2+z
loop_
_atom_site_type_symbol
_atom_site_label
_atom_site_fract_x
_atom_site_fract_y
_atom_site_fract_z
Si Si1 0.750000 0.288127 0.750000
Si Si2 0.594217 0.158151 0.164137
Si Si3 0.047944 0.083440 0.422745
Si Si4 0.094217 0.841849 0.664137
Si Si5 0.547944 0.583440 0.422746
O O1 0.590572 0.331836 0.859544
O O2 0.894836 0.235810 0.432870
O O3 0.605164 0.235810 0.067131
O O4 0.909428 0.331836 0.640456
O O5 0.430544 0.110356 0.291738
O O6 0.832859 0.123287 0.793321
O O7 0.250000 0.100542 0.250000
O O8 0.069456 0.110356 0.208262
O O9 0.000000 0.000000 0.500000
O O10 0.332859 0.876713 0.293321
O O11 0.500000 0.500000 0.500000
#
# Coordination Sequence:
#
# PCOD9239377 Si02
#       5
#     4   4   4   4   4
#     4   8  16  36  50  72  98 130 156 196 250 266
#     4   9  18  32  54  70 100 126 159 202 231 295
#     4  10  17  31  51  72  95 130 164 190 242 286
#     4   9  18  32  54  70 100 126 159 202 231 295
#     4  10  17  31  51  72  95 130 164 190 242 286
#
# _framework density 20.856427
#
# number of rings (size 3 to 8) (size 9 to 14) (size 15 to 20)
#    0.000    3.200    4.000    0.000    0.000    0.000 
#    0.000   36.000    0.000    0.000    0.000    0.000 
#    0.000    0.000    0.000    0.000    0.000    0.000 
#
# Total GULP energy -111417.947495 kJ/mol
# GULP energy per Si atom -5570.897375 kJ/mol
# Density = 2.080896 g / cm^3
# Si number density = 20.856427 Si / 1000 Ang^3
#
#
#
# Elastic Constant Matrix: (Units=GPa)
#
#
# Indices 1 2 3 4 5 6 
#
# 1 260.3132 75.0702 25.8134 0.0000 -14.7569 0.0000
# 2 75.0702 98.7375 11.0488 0.0000 0.8999 0.0000
# 3 25.8134 11.0488 30.1799 0.0000 -15.3360 0.0000
# 4 0.0000 0.0000 0.0000 2.9809 0.0000 -8.2439
# 5 -14.7569 0.8999 -15.3360 0.0000 33.9179 0.0000
# 6 0.0000 0.0000 0.0000 -8.2439 0.0000 44.8706
#
#
#
# Elastic Compliance Matrix: (Units=1/GPa)
#
#
# Indices 1 2 3 4 5 6 
#
# 1 0.005228 -0.003709 -0.002477 0.000000 0.001253 0.000000
# 2 -0.003709 0.013376 -0.003538 0.000000 -0.003568 0.000000
# 3 -0.002477 -0.003538 0.046802 0.000000 0.020178 0.000000
# 4 0.000000 0.000000 0.000000 0.682020 0.000000 0.125306
# 5 0.001253 -0.003568 0.020178 0.000000 0.039246 0.000000
# 6 0.000000 0.000000 0.000000 0.125306 0.000000 0.045308
#
#
# Mechanical properties :
#
#
# Convention : Reuss Voigt Hill
#
# Bulk Modulus (GPa) = 21.75889 68.12172 44.94030
# Shear Modulus (GPa) = 5.76870 34.84043 20.30456
#
# Velocity S-wave (km/s) = 1.66491 4.09160 3.12354
# Velocity P-wave (km/s) = 3.76181 7.41988 5.88243
#
# Compressibility (1/GPa) = 0.04595823
#
# Stress axis : x y z
#
# Youngs Moduli (GPa) = 191.28637 74.75985 21.36679
#
# Poissons Ratio (x) = 0.27728 0.05292
# Poissons Ratio (y) = 0.70947 0.07559
# Poissons Ratio (z) = 0.47379 0.26449
#
# Static dielectric constant tensor:
#      x y z
#    x 1.861000 0.000000 0.043750 
#    y 0.000000 1.761500 0.000000 
#    z 0.043750 0.000000 1.796400 
# 
# From -- ./inp_files/13492.got.cif
#   From: 2010.05.17/outbox.cif.g08.bks.cpg/sg14_7_cif.got.tgz:13492.got - 2010.06.03 17:49:19.
