data_PCOD9239646
_publ_section_title
;
Structure prediction by ZEFSAII (Michael W. Deem and Ramdas Pophale) SiO2 
 PCOD9239646
Probable space group: P 21/C
;
_chemical_formula_sum "Si O2"
_cell_formula_units_Z 32
_cell_length_a 15.133265
_cell_length_b 6.234342
_cell_length_c 32.962055
_cell_angle_alpha 90.000000
_cell_angle_beta 39.079128
_cell_angle_gamma 90.000000
_cell_volume 1960.419282
_symmetry_space_group_name_H-M "P 21/C"
_symmetry_group_IT_number 14
_symmetry_cell_setting 'monoclinic'
loop_
_space_group_symop_operation_xyz
x,y,z
-x,1/2+y,1/2-z
-x,-y,-z
x,1/2-y,1/2+z
loop_
_atom_site_type_symbol
_atom_site_label
_atom_site_fract_x
_atom_site_fract_y
_atom_site_fract_z
Si Si1 0.944823 0.114840 0.560653
Si Si2 0.643943 0.070769 0.996185
Si Si3 0.244373 0.976933 0.902646
Si Si4 0.503402 0.667689 0.811872
Si Si5 0.782176 0.763755 0.005045
Si Si6 0.427709 0.808844 0.551160
Si Si7 0.490660 0.956436 0.404665
Si Si8 0.668856 0.640793 0.183520
O O1 0.887640 0.345669 0.566718
O O2 0.072747 0.135402 0.546314
O O3 0.811943 0.992933 0.627276
O O4 0.000000 0.000000 0.500000
O O5 0.680371 0.201428 0.942045
O O6 0.563506 0.237386 0.054616
O O7 0.765211 0.947669 0.977212
O O8 0.537352 0.880784 0.021802
O O9 0.363995 0.805375 0.870549
O O10 0.218937 0.120262 0.951013
O O11 0.300850 0.131662 0.847750
O O12 0.550762 0.582388 0.838553
O O13 0.449759 0.480864 0.800722
O O14 0.612367 0.814725 0.748595
O O15 0.648481 0.605779 0.050052
O O16 0.500000 0.000000 0.500000
O O17 0.401411 0.921302 0.603762
#
# Coordination Sequence:
#
# PCOD9239646 Si02
#       8
#     4   4   4   4   4   4   4   4
#     4  11  23  33  46  69  99 140 181 213 251 302
#     4   9  17  28  48  71 100 138 151 203 260 313
#     4  11  20  33  50  67  97 142 177 212 250 293
#     4  11  20  33  48  70  96 138 183 207 257 302
#     4  11  19  30  49  71  97 138 178 203 254 318
#     4   8  16  30  44  71 104 131 152 198 259 317
#     4  10  18  29  50  74  98 136 167 203 253 322
#     4  11  22  33  48  67  98 141 179 220 248 289
#
# _framework density 16.323038
#
# number of rings (size 3 to 8) (size 9 to 14) (size 15 to 20)
#    0.000    1.750    5.000    1.125    0.000    0.000 
#    0.000    0.000    0.000    0.000    0.000    0.000 
#    0.000    0.000  352.750    0.000    0.000    0.000 
#
# Total GULP energy -178224.149804 kJ/mol
# GULP energy per Si atom -5569.504681 kJ/mol
# Density = 1.628589 g / cm^3
# Si number density = 16.323038 Si / 1000 Ang^3
#
#
#
# Elastic Constant Matrix: (Units=GPa)
#
#
# Indices 1 2 3 4 5 6 
#
# 1 71.9908 18.3064 40.4384 0.0000 21.7701 0.0000
# 2 18.3064 71.6668 20.0190 0.0000 9.4852 0.0000
# 3 40.4384 20.0190 70.7465 0.0000 16.0254 0.0000
# 4 0.0000 0.0000 0.0000 27.9626 0.0000 9.4090
# 5 21.7701 9.4852 16.0254 0.0000 23.3193 0.0000
# 6 0.0000 0.0000 0.0000 9.4090 0.0000 37.6614
#
#
#
# Elastic Compliance Matrix: (Units=1/GPa)
#
#
# Indices 1 2 3 4 5 6 
#
# 1 0.024637 -0.001405 -0.010191 0.000000 -0.015426 0.000000
# 2 -0.001405 0.015522 -0.002909 0.000000 -0.003003 0.000000
# 3 -0.010191 -0.002909 0.021745 0.000000 -0.004247 0.000000
# 4 0.000000 0.000000 0.000000 0.039044 0.000000 -0.009755
# 5 -0.015426 -0.003003 -0.004247 0.000000 0.061424 0.000000
# 6 0.000000 0.000000 0.000000 -0.009755 0.000000 0.028989
#
#
# Mechanical properties :
#
#
# Convention : Reuss Voigt Hill
#
# Bulk Modulus (GPa) = 30.39973 41.32575 35.86274
# Shear Modulus (GPa) = 21.61359 26.83134 24.22247
#
# Velocity S-wave (km/s) = 3.64279 4.05874 3.85638
# Velocity P-wave (km/s) = 6.02971 6.88018 6.46894
#
# Compressibility (1/GPa) = 0.03289503
#
# Stress axis : x y z
#
# Youngs Moduli (GPa) = 40.58956 64.42302 45.98761
#
# Poissons Ratio (x) = 0.09051 0.46864
# Poissons Ratio (y) = 0.05703 0.13378
# Poissons Ratio (z) = 0.41363 0.18741
#
# Static dielectric constant tensor:
#      x y z
#    x 1.579530 0.000000 0.017860 
#    y 0.000000 1.590750 0.000000 
#    z 0.017860 0.000000 1.543090 
# 
# From -- ./inp_files/80135.got.cif
#   From: 2010.05.17/outbox.cif.g08.bks.cpg/sg14_41_cif.got.tgz:80135.got - 2010.06.03 17:49:19.
