data_PCOD9239081
_publ_section_title
;
Structure prediction by ZEFSAII (Michael W. Deem and Ramdas Pophale) SiO2 
 PCOD9239081
Probable space group: P 2/C
;
_chemical_formula_sum "Si O2"
_cell_formula_units_Z 26
_cell_length_a 15.000000
_cell_length_b 9.000000
_cell_length_c 15.000000
_cell_angle_alpha 90.000000
_cell_angle_beta 140.000000
_cell_angle_gamma 90.000000
_cell_volume 1301.644910
_symmetry_space_group_name_H-M "P 2/C"
_symmetry_group_IT_number 13
_symmetry_cell_setting 'monoclinic'
loop_
_space_group_symop_operation_xyz
x,y,z
-x,y,1/2-z
-x,-y,-z
x,-y,1/2+z
loop_
_atom_site_type_symbol
_atom_site_label
_atom_site_fract_x
_atom_site_fract_y
_atom_site_fract_z
Si Si1 0.559048 0.166484 0.036258
Si Si2 0.648979 0.402305 0.355854
Si Si3 0.271655 0.410135 0.409731
Si Si4 0.200364 0.842537 0.631140
Si Si5 0.322110 0.378727 0.782749
Si Si6 0.000000 0.281021 0.250000
Si Si7 0.895465 0.170245 0.985870
O O1 0.654310 0.247837 0.033345
O O2 0.667448 0.173813 0.201740
O O3 0.422472 0.266028 0.913106
O O4 0.500000 0.000000 0.000000
O O5 0.500000 0.322133 0.250000
O O6 0.688630 0.487929 0.476298
O O7 0.766428 0.284829 0.416139
O O8 0.623872 0.527739 0.260795
O O9 0.300834 0.495137 0.340574
O O10 0.109857 0.382816 0.285695
O O11 0.051763 0.822306 0.565786
O O12 0.182130 0.011603 0.583253
O O13 0.194839 0.287766 0.640931
O O14 0.917713 0.197543 0.108353
#
# Coordination Sequence:
#
# PCOD9239081 Si02
#       7
#     4   4   4   4   4   2   4
#     4  12  23  45  74  99 137 189 231 285 360 419
#     4  12  24  44  71 104 141 180 233 298 350 420
#     4  12  26  43  71 106 140 183 240 291 351 424
#     4  11  25  48  68 100 142 186 233 290 355 422
#     4  12  24  44  74 102 141 186 234 296 353 414
#     4  12  24  44  70 102 140 186 232 298 350 418
#     4  11  25  47  71  98 142 187 236 290 353 421
#
# _framework density 19.974726
#
# number of rings (size 3 to 8) (size 9 to 14) (size 15 to 20)
#    0.000    0.308    7.692    1.385    2.154    1.231 
#   11.077    0.769    0.000    0.000    0.000    0.000 
#    0.000    0.000    0.000    0.000    0.000    0.000 
#
# Total GULP energy -144781.815389 kJ/mol
# GULP energy per Si atom -5568.531361 kJ/mol
# Density = 1.992926 g / cm^3
# Si number density = 19.974726 Si / 1000 Ang^3
#
#
#
# Elastic Constant Matrix: (Units=GPa)
#
#
# Indices 1 2 3 4 5 6 
#
# 1 55.6260 38.0210 48.1305 0.0000 -15.2046 0.0000
# 2 38.0210 99.2825 51.9035 0.0000 0.9824 0.0000
# 3 48.1305 51.9035 147.2028 0.0000 -9.0116 0.0000
# 4 0.0000 0.0000 0.0000 25.6608 0.0000 18.1988
# 5 -15.2046 0.9824 -9.0116 0.0000 36.5786 0.0000
# 6 0.0000 0.0000 0.0000 18.1988 0.0000 10.1217
#
#
#
# Elastic Compliance Matrix: (Units=1/GPa)
#
#
# Indices 1 2 3 4 5 6 
#
# 1 0.033958 -0.009477 -0.006987 0.000000 0.012648 0.000000
# 2 -0.009477 0.015067 -0.002518 0.000000 -0.004964 0.000000
# 3 -0.006987 -0.002518 0.009942 0.000000 -0.000387 0.000000
# 4 0.000000 0.000000 0.000000 -0.141628 0.000000 0.254648
# 5 0.012648 -0.004964 -0.000387 0.000000 0.032634 0.000000
# 6 0.000000 0.000000 0.000000 0.254648 0.000000 -0.359061
#
#
# Mechanical properties :
#
#
# Convention : Reuss Voigt Hill
#
# Bulk Modulus (GPa) = 47.61247 64.24682 55.92965
# Shear Modulus (GPa) = -13.73158 25.40931 5.83887
#
# Velocity S-wave (km/s) = -2.62477 3.57048 1.71157
# Velocity P-wave (km/s) = 3.83435 7.01653 5.65393
#
# Compressibility (1/GPa) = 0.02100290
#
# Stress axis : x y z
#
# Youngs Moduli (GPa) = 29.44850 66.37082 100.58296
#
# Poissons Ratio (x) = 0.62897 0.70280
# Poissons Ratio (y) = 0.27907 0.25326
# Poissons Ratio (z) = 0.20576 0.16711
#
# Static dielectric constant tensor:
#      x y z
#    x 1.833110 0.000000 0.001600 
#    y 0.000000 1.721640 0.000000 
#    z 0.001600 0.000000 1.714160 
# 
# From -- ./inp_files/53237.got.cif
#   From: 2010.05.17/outbox.ucp.g08.bks.cvg/sg13_27_cif.got.tgz:53237.got - 2010.06.11 12:23:55.
