data_PCOD9239771
_publ_section_title
;
Structure prediction by ZEFSAII (Michael W. Deem and Ramdas Pophale) SiO2 
 PCOD9239771
Probable space group: P 21/C
;
_chemical_formula_sum "Si O2"
_cell_formula_units_Z 32
_cell_length_a 14.037039
_cell_length_b 9.381004
_cell_length_c 19.833321
_cell_angle_alpha 90.000000
_cell_angle_beta 32.353213
_cell_angle_gamma 90.000000
_cell_volume 1397.607972
_symmetry_space_group_name_H-M "P 21/C"
_symmetry_group_IT_number 14
_symmetry_cell_setting 'monoclinic'
loop_
_space_group_symop_operation_xyz
x,y,z
-x,1/2+y,1/2-z
-x,-y,-z
x,1/2-y,1/2+z
loop_
_atom_site_type_symbol
_atom_site_label
_atom_site_fract_x
_atom_site_fract_y
_atom_site_fract_z
Si Si1 0.043452 0.029569 0.649489
Si Si2 0.513269 0.110971 0.723955
Si Si3 0.262018 0.756730 0.530254
Si Si4 0.348511 0.669814 0.276123
Si Si5 0.014202 0.462042 0.316870
Si Si6 0.774688 0.241978 0.297193
Si Si7 0.173368 0.419486 0.927960
Si Si8 0.966159 0.651687 0.554557
O O1 0.088021 0.078379 0.698908
O O2 0.849830 0.096759 0.750876
O O3 0.150920 0.087092 0.521973
O O4 0.089199 0.861744 0.623791
O O5 0.598757 0.185425 0.606616
O O6 0.488987 0.240029 0.790313
O O7 0.377657 0.994884 0.777020
O O8 0.651624 0.013237 0.684927
O O9 0.189250 0.596332 0.562284
O O10 0.318877 0.774725 0.574232
O O11 0.326116 0.700634 0.210522
O O12 0.166427 0.715288 0.424072
O O13 0.091550 0.382297 0.335254
O O14 0.058912 0.628889 0.299987
O O15 0.000000 0.500000 0.000000
O O16 0.164733 0.263741 0.900947
O O17 0.000000 0.500000 0.500000
#
# Coordination Sequence:
#
# PCOD9239771 Si02
#       8
#     4   4   4   4   4   4   4   4
#     4   9  17  32  54  87 115 141 181 234 287 336
#     4  11  25  40  57  84 117 158 192 240 293 345
#     4   9  19  36  58  85 116 150 186 233 294 346
#     4  12  24  40  56  84 119 156 195 238 292 341
#     4  10  18  31  56  86 114 142 186 234 284 332
#     4  10  19  35  59  87 114 148 187 240 285 345
#     4  11  19  38  62  84 112 146 195 238 291 345
#     4  12  21  34  59  90 114 147 193 244 284 342
#
# _framework density 22.896263000000001
#
# number of rings (size 3 to 8) (size 9 to 14) (size 15 to 20)
#    0.000    1.500    5.000    0.750    1.750    0.500 
#    0.000    0.000    0.000    0.750    0.000    0.000 
#    0.000    0.000    0.000    0.000    0.000    0.000 
#
# Total GULP energy -178358.369999 kJ/mol
# GULP energy per Si atom -5573.699062 kJ/mol
# Density = 2.284415 g / cm^3
# Si number density = 22.896263 Si / 1000 Ang^3
#
#
#
# Elastic Constant Matrix: (Units=GPa)
#
#
# Indices 1 2 3 4 5 6 
#
# 1 116.3181 38.8578 37.1713 0.0000 25.5953 0.0000
# 2 38.8578 88.3772 15.8670 0.0000 11.8014 0.0000
# 3 37.1713 15.8670 38.7387 0.0000 13.9780 0.0000
# 4 0.0000 0.0000 0.0000 25.4576 0.0000 -4.9536
# 5 25.5953 11.8014 13.9780 0.0000 36.7133 0.0000
# 6 0.0000 0.0000 0.0000 -4.9536 0.0000 47.2263
#
#
#
# Elastic Compliance Matrix: (Units=1/GPa)
#
#
# Indices 1 2 3 4 5 6 
#
# 1 0.014216 -0.003751 -0.010391 0.000000 -0.004749 0.000000
# 2 -0.003751 0.013379 -0.001475 0.000000 -0.001124 0.000000
# 3 -0.010391 -0.001475 0.038955 0.000000 -0.007113 0.000000
# 4 0.000000 0.000000 0.000000 0.040099 0.000000 0.004206
# 5 -0.004749 -0.001124 -0.007113 0.000000 0.033619 0.000000
# 6 0.000000 0.000000 0.000000 0.004206 0.000000 0.021616
#
#
# Mechanical properties :
#
#
# Convention : Reuss Voigt Hill
#
# Bulk Modulus (GPa) = 28.31534 47.46956 37.89245
# Shear Modulus (GPa) = 24.40342 31.98198 28.19270
#
# Velocity S-wave (km/s) = 3.26824 3.74146 3.51283
# Velocity P-wave (km/s) = 5.16096 6.28030 5.74794
#
# Compressibility (1/GPa) = 0.03531654
#
# Stress axis : x y z
#
# Youngs Moduli (GPa) = 70.34561 74.74269 25.67049
#
# Poissons Ratio (x) = 0.28033 0.26673
# Poissons Ratio (y) = 0.26384 0.03788
# Poissons Ratio (z) = 0.73093 0.11028
#
# Static dielectric constant tensor:
#      x y z
#    x 1.937400 0.000000 -0.064330 
#    y 0.000000 1.930620 0.000000 
#    z -0.064330 0.000000 1.906730 
# 
# From -- ./inp_files/68187.got.cif
#   From: 2010.05.17/outbox.cif.g08.bks.cpg/sg14_35_cif.got.tgz:68187.got - 2010.06.03 17:49:19.
