data_PCOD9239370
_publ_section_title
;
Structure prediction by ZEFSAII (Michael W. Deem and Ramdas Pophale) SiO2 
 PCOD9239370
Probable space group: P 21/C
;
_chemical_formula_sum "Si O2"
_cell_formula_units_Z 28
_cell_length_a 17.803976
_cell_length_b 11.589867
_cell_length_c 13.144902
_cell_angle_alpha 90.000000
_cell_angle_beta 22.666544
_cell_angle_gamma 90.000000
_cell_volume 1045.267999
_symmetry_space_group_name_H-M "P 21/C"
_symmetry_group_IT_number 14
_symmetry_cell_setting 'monoclinic'
loop_
_space_group_symop_operation_xyz
x,y,z
-x,1/2+y,1/2-z
-x,-y,-z
x,1/2-y,1/2+z
loop_
_atom_site_type_symbol
_atom_site_label
_atom_site_fract_x
_atom_site_fract_y
_atom_site_fract_z
Si Si1 0.108915 0.357533 0.389491
Si Si2 0.618718 0.853663 0.016741
Si Si3 0.034559 0.972815 0.130540
Si Si4 0.290440 0.755479 0.808375
Si Si5 0.410237 0.265968 0.236218
Si Si6 0.159851 0.068567 0.438887
Si Si7 0.197990 0.823849 0.220722
O O1 0.242548 0.252778 0.188204
O O2 0.168164 0.427920 0.415313
O O3 0.089182 0.434458 0.313583
O O4 0.899394 0.301741 0.679116
O O5 0.405171 0.814591 0.249182
O O6 0.639175 0.857610 0.113286
O O7 0.689483 0.948350 0.844179
O O8 0.157462 0.860308 0.008908
O O9 0.897254 0.008387 0.393392
O O10 0.177676 0.674162 0.868955
O O11 0.454423 0.807761 0.526056
O O12 0.247158 0.182377 0.391055
O O13 0.572163 0.179620 0.088462
O O14 0.951515 0.091609 0.645944
#
# Coordination Sequence:
#
# PCOD9239370 Si02
#       7
#     4   4   4   4   4   4   4
#     4   9  18  29  50  71 100 133 157 201 254 289
#     4  10  17  31  48  73  99 126 166 202 242 289
#     4  10  17  31  47  74 100 130 160 200 254 291
#     4   8  18  29  45  70  97 125 159 202 243 287
#     4   9  17  29  45  69  94 122 162 197 240 285
#     4  10  18  29  50  70  98 129 162 207 235 287
#     4   8  17  32  45  69  97 128 161 200 242 284
#
# _framework density 26.787389000000001
#
# number of rings (size 3 to 8) (size 9 to 14) (size 15 to 20)
#    0.857    2.000    1.429    0.857    0.000    0.571 
#    0.000    0.000    0.000    0.857    0.000    9.000 
#    0.000    0.000    0.000    0.000    0.000    0.000 
#
# Total GULP energy -156205.605540 kJ/mol
# GULP energy per Si atom -5578.771626 kJ/mol
# Density = 2.672642 g / cm^3
# Si number density = 26.787389 Si / 1000 Ang^3
#
#
#
# Elastic Constant Matrix: (Units=GPa)
#
#
# Indices 1 2 3 4 5 6 
#
# 1 151.6273 13.5440 55.6074 0.0000 13.8490 0.0000
# 2 13.5440 53.0307 36.7023 0.0000 6.3374 0.0000
# 3 55.6074 36.7023 107.2283 0.0000 18.9693 0.0000
# 4 0.0000 0.0000 0.0000 40.6489 0.0000 8.8070
# 5 13.8490 6.3374 18.9693 0.0000 62.7937 0.0000
# 6 0.0000 0.0000 0.0000 8.8070 0.0000 30.4598
#
#
#
# Elastic Compliance Matrix: (Units=1/GPa)
#
#
# Indices 1 2 3 4 5 6 
#
# 1 0.008212 0.001112 -0.004542 0.000000 -0.000551 0.000000
# 2 0.001112 0.024862 -0.009084 0.000000 -0.000010 0.000000
# 3 -0.004542 -0.009084 0.015267 0.000000 -0.002694 0.000000
# 4 0.000000 0.000000 0.000000 0.026245 0.000000 -0.007588
# 5 -0.000551 -0.000010 -0.002694 0.000000 0.016861 0.000000
# 6 0.000000 0.000000 0.000000 -0.007588 0.000000 0.035024
#
#
# Mechanical properties :
#
#
# Convention : Reuss Voigt Hill
#
# Bulk Modulus (GPa) = 42.89646 58.17708 50.53677
# Shear Modulus (GPa) = 31.39322 40.51598 35.95460
#
# Velocity S-wave (km/s) = 3.42708 3.89331 3.66761
# Velocity P-wave (km/s) = 5.63101 6.47887 6.06976
#
# Compressibility (1/GPa) = 0.02331195
#
# Stress axis : x y z
#
# Youngs Moduli (GPa) = 121.77727 40.22268 65.50057
#
# Poissons Ratio (x) = -0.04472 0.29747
# Poissons Ratio (y) = -0.13539 0.59504
# Poissons Ratio (z) = 0.55305 0.36540
#
# Static dielectric constant tensor:
#      x y z
#    x 2.152170 0.000000 -0.005860 
#    y 0.000000 2.337220 0.000000 
#    z -0.005860 0.000000 2.064670 
# 
# From -- ./inp_files/41475.got.cif
#   From: 2010.05.17/outbox.cif.g08.bks.cpg/sg14_21_cif.got.tgz:41475.got - 2010.06.03 17:49:19.
