data_PCOD9239299
_publ_section_title
;
Structure prediction by ZEFSAII (Michael W. Deem and Ramdas Pophale) SiO2 
 PCOD9239299
Probable space group: P 21/C
;
_chemical_formula_sum "Si O2"
_cell_formula_units_Z 28
_cell_length_a 13.240652
_cell_length_b 19.123800
_cell_length_c 8.418216
_cell_angle_alpha 90.000000
_cell_angle_beta 28.343606
_cell_angle_gamma 90.000000
_cell_volume 1011.989674
_symmetry_space_group_name_H-M "P 21/C"
_symmetry_group_IT_number 14
_symmetry_cell_setting 'monoclinic'
loop_
_space_group_symop_operation_xyz
x,y,z
-x,1/2+y,1/2-z
-x,-y,-z
x,1/2-y,1/2+z
loop_
_atom_site_type_symbol
_atom_site_label
_atom_site_fract_x
_atom_site_fract_y
_atom_site_fract_z
Si Si1 0.171935 0.192173 0.885986
Si Si2 0.203278 0.456203 0.915412
Si Si3 0.867451 0.146075 0.046834
Si Si4 0.435460 0.176005 0.021628
Si Si5 0.626414 0.483008 0.015601
Si Si6 0.406473 0.699872 0.364191
Si Si7 0.164066 0.053161 0.050753
O O1 0.379000 0.164942 0.502647
O O2 0.141718 0.136909 0.069629
O O3 0.248817 0.268923 0.832028
O O4 0.980671 0.193110 0.024671
O O5 0.041042 0.404989 0.230383
O O6 0.047891 0.520078 0.082866
O O7 0.332512 0.399107 0.633075
O O8 0.355730 0.491588 0.831103
O O9 0.762924 0.182682 0.037845
O O10 0.703606 0.094420 0.363466
O O11 0.599016 0.176405 0.945150
O O12 0.536545 0.217933 0.734474
O O13 0.799968 0.530702 0.682384
O O14 0.377863 0.486025 0.314761
#
# Coordination Sequence:
#
# PCOD9239299 Si02
#       7
#     4   4   4   4   4   4   4
#     4  10  19  36  52  77 113 144 183 217 273 330
#     4  11  19  29  50  83 111 137 181 229 276 315
#     4  11  18  32  57  81 110 144 179 227 283 330
#     4  10  22  39  54  77 117 145 183 231 267 327
#     4  10  17  27  50  81 113 134 168 231 288 318
#     4  10  22  38  54  79 113 146 185 222 272 325
#     4  10  17  28  49  78 108 144 172 224 277 326
#
# _framework density 27.668267
#
# number of rings (size 3 to 8) (size 9 to 14) (size 15 to 20)
#    0.857    0.857    5.714    0.857    4.000    1.143 
#    0.000    0.000    0.000    0.857    0.000    2.000 
#    0.000    0.000    0.000    0.000    0.000    0.000 
#
# Total GULP energy -156552.815429 kJ/mol
# GULP energy per Si atom -5591.171980 kJ/mol
# Density = 2.760529 g / cm^3
# Si number density = 27.668267 Si / 1000 Ang^3
#
#
#
# Elastic Constant Matrix: (Units=GPa)
#
#
# Indices 1 2 3 4 5 6 
#
# 1 51.7778 -25.6944 18.7848 0.0000 -8.7017 0.0000
# 2 -25.6944 125.1188 19.1952 0.0000 6.5176 0.0000
# 3 18.7848 19.1952 55.0871 0.0000 -23.1421 0.0000
# 4 0.0000 0.0000 0.0000 48.8907 0.0000 -4.3714
# 5 -8.7017 6.5176 -23.1421 0.0000 46.9799 0.0000
# 6 0.0000 0.0000 0.0000 -4.3714 0.0000 37.3546
#
#
#
# Elastic Compliance Matrix: (Units=1/GPa)
#
#
# Indices 1 2 3 4 5 6 
#
# 1 0.027538 0.007799 -0.013138 0.000000 -0.002453 0.000000
# 2 0.007799 0.011080 -0.008271 0.000000 -0.004167 0.000000
# 3 -0.013138 -0.008271 0.031492 0.000000 0.014227 0.000000
# 4 0.000000 0.000000 0.000000 0.020670 0.000000 0.002419
# 5 -0.002453 -0.004167 0.014227 0.000000 0.028417 0.000000
# 6 0.000000 0.000000 0.000000 0.002419 0.000000 0.027054
#
#
# Mechanical properties :
#
#
# Convention : Reuss Voigt Hill
#
# Bulk Modulus (GPa) = 23.31634 28.50609 25.91121
# Shear Modulus (GPa) = 26.62875 41.29157 33.96016
#
# Velocity S-wave (km/s) = 3.10567 3.86732 3.50723
# Velocity P-wave (km/s) = 4.61580 5.50152 5.07801
#
# Compressibility (1/GPa) = 0.04288839
#
# Stress axis : x y z
#
# Youngs Moduli (GPa) = 36.31401 90.25438 31.75435
#
# Poissons Ratio (x) = -0.70385 0.41720
# Poissons Ratio (y) = -0.28320 0.26262
# Poissons Ratio (z) = 0.47711 0.74645
#
# Static dielectric constant tensor:
#      x y z
#    x 2.226170 0.000000 -0.001310 
#    y 0.000000 2.143900 0.000000 
#    z -0.001310 0.000000 2.185600 
# 
# From -- ./inp_files/33090.got.cif
#   From: 2010.05.17/outbox.cif.g08.bks.cpg/sg14_17_cif.got.tgz:33090.got - 2010.06.03 17:49:19.
