data_PCOD9239630
_publ_section_title
;
Structure prediction by ZEFSAII (Michael W. Deem and Ramdas Pophale) SiO2 
 PCOD9239630
Probable space group: P 21/C
;
_chemical_formula_sum "Si O2"
_cell_formula_units_Z 32
_cell_length_a 5.394082
_cell_length_b 13.085300
_cell_length_c 24.736806
_cell_angle_alpha 90.000000
_cell_angle_beta 89.988007
_cell_angle_gamma 90.000000
_cell_volume 1746.002422
_symmetry_space_group_name_H-M "P 21/C"
_symmetry_group_IT_number 14
_symmetry_cell_setting 'monoclinic'
loop_
_space_group_symop_operation_xyz
x,y,z
-x,1/2+y,1/2-z
-x,-y,-z
x,1/2-y,1/2+z
loop_
_atom_site_type_symbol
_atom_site_label
_atom_site_fract_x
_atom_site_fract_y
_atom_site_fract_z
Si Si1 0.769265 0.269508 0.310054
Si Si2 0.749836 0.556528 0.048316
Si Si3 0.250369 0.344471 0.072508
Si Si4 0.750592 0.167566 0.423339
Si Si5 0.750090 0.192044 0.544748
Si Si6 0.233747 0.521156 0.751210
Si Si7 0.733673 0.583200 0.811564
Si Si8 0.730781 0.793106 0.750558
O O1 0.753916 0.242786 0.372934
O O2 0.763661 0.388484 0.292906
O O3 0.527780 0.219884 0.281651
O O4 0.028283 0.225646 0.287112
O O5 0.503784 0.602403 0.075458
O O6 0.748564 0.433703 0.048172
O O7 0.997144 0.600969 0.075481
O O8 0.750632 0.596923 0.985829
O O9 0.497428 0.277502 0.072736
O O10 0.254576 0.417073 0.124075
O O11 0.001751 0.278618 0.073467
O O12 0.751798 0.221263 0.482133
O O13 0.476418 0.537759 0.789021
O O14 0.249925 0.407711 0.727832
O O15 0.978845 0.533343 0.785355
O O16 0.736753 0.702172 0.793877
#
# Coordination Sequence:
#
# PCOD9239630 Si02
#       8
#     4   4   4   4   4   4   4   4
#     4  10  21  34  50  73  96 127 166 194 236 292
#     4  10  19  28  41  66  94 120 153 186 228 285
#     4  10  18  29  43  62  92 122 147 186 226 275
#     4  10  18  29  43  62  92 122 147 186 226 275
#     4  10  19  28  41  66  94 120 153 186 228 285
#     4  10  21  35  50  71  98 125 161 206 239 276
#     4  10  21  34  50  73  96 127 166 194 236 292
#     4  10  21  35  50  71  98 125 161 206 239 276
#
# _framework density 18.327582
#
# number of rings (size 3 to 8) (size 9 to 14) (size 15 to 20)
#    0.000    2.000    0.000    6.000    0.000    8.000 
#    0.000    0.000    0.000    0.000    0.000    7.000 
#    0.000    0.000    0.000    0.000    0.000    0.000 
#
# Total GULP energy -178593.085435 kJ/mol
# GULP energy per Si atom -5581.033920 kJ/mol
# Density = 1.828587 g / cm^3
# Si number density = 18.327582 Si / 1000 Ang^3
#
#
#
# Elastic Constant Matrix: (Units=GPa)
#
#
# Indices 1 2 3 4 5 6 
#
# 1 142.4594 -17.7336 7.6747 0.0000 1.1548 0.0000
# 2 -17.7336 40.3654 -2.9758 0.0000 2.1436 0.0000
# 3 7.6747 -2.9758 43.4058 0.0000 1.9663 0.0000
# 4 0.0000 0.0000 0.0000 7.6269 0.0000 0.2100
# 5 1.1548 2.1436 1.9663 0.0000 14.8005 0.0000
# 6 0.0000 0.0000 0.0000 0.2100 0.0000 0.5116
#
#
#
# Elastic Compliance Matrix: (Units=1/GPa)
#
#
# Indices 1 2 3 4 5 6 
#
# 1 0.007490 0.003261 -0.001059 0.000000 -0.000916 0.000000
# 2 0.003261 0.026540 0.001437 0.000000 -0.004289 0.000000
# 3 -0.001059 0.001437 0.023471 0.000000 -0.003244 0.000000
# 4 0.000000 0.000000 0.000000 0.132613 0.000000 -0.054428
# 5 -0.000916 -0.004289 -0.003244 0.000000 0.068689 0.000000
# 6 0.000000 0.000000 0.000000 -0.054428 0.000000 1.976917
#
#
# Mechanical properties :
#
#
# Convention : Reuss Voigt Hill
#
# Bulk Modulus (GPa) = 15.43699 22.24013 18.83856
# Shear Modulus (GPa) = 2.22219 20.53883 11.38051
#
# Velocity S-wave (km/s) = 1.10232 3.35124 2.49459
# Velocity P-wave (km/s) = 3.17195 5.20918 4.31259
#
# Compressibility (1/GPa) = 0.06477945
#
# Stress axis : x y z
#
# Youngs Moduli (GPa) = 133.51173 37.67884 42.60544
#
# Poissons Ratio (x) = -0.12287 0.04513
# Poissons Ratio (y) = -0.43539 -0.06123
# Poissons Ratio (z) = 0.14142 -0.05415
#
# Static dielectric constant tensor:
#      x y z
#    x 1.732120 0.000000 -0.001260 
#    y 0.000000 1.603480 0.000000 
#    z -0.001260 0.000000 1.631990 
# 
# From -- ./inp_files/22130.got.cif
#   From: 2010.05.17/outbox.cif.g08.bks.cpg/sg14_12_cif.got.tgz:22130.got - 2010.06.03 17:49:19.
