data_PCOD9239805
_publ_section_title
;
Structure prediction by ZEFSAII (Michael W. Deem and Ramdas Pophale) SiO2 
 PCOD9239805
Probable space group: P 21/C
;
_chemical_formula_sum "Si O2"
_cell_formula_units_Z 32
_cell_length_a 11.419645
_cell_length_b 22.794464
_cell_length_c 5.469315
_cell_angle_alpha 90.000000
_cell_angle_beta 117.247734
_cell_angle_gamma 90.000000
_cell_volume 1265.709108
_symmetry_space_group_name_H-M "P 21/C"
_symmetry_group_IT_number 14
_symmetry_cell_setting 'monoclinic'
loop_
_space_group_symop_operation_xyz
x,y,z
-x,1/2+y,1/2-z
-x,-y,-z
x,1/2-y,1/2+z
loop_
_atom_site_type_symbol
_atom_site_label
_atom_site_fract_x
_atom_site_fract_y
_atom_site_fract_z
Si Si1 0.944078 0.616380 0.387383
Si Si2 0.491337 0.581548 0.742776
Si Si3 0.116172 0.927304 0.438516
Si Si4 0.413166 0.782062 0.108148
Si Si5 0.134406 0.233380 0.067256
Si Si6 0.631023 0.958372 0.867715
Si Si7 0.845287 0.547018 0.903880
Si Si8 0.876231 0.190295 0.300273
O O1 0.886906 0.665536 0.514156
O O2 0.037493 0.570715 0.611750
O O3 0.050614 0.654226 0.339373
O O4 0.829113 0.594317 0.100236
O O5 0.445383 0.648838 0.674868
O O6 0.384140 0.528955 0.667438
O O7 0.561788 0.564514 0.553168
O O8 0.571633 0.571744 0.071983
O O9 0.163282 0.861484 0.542715
O O10 0.002012 0.943771 0.523863
O O11 0.206161 0.984271 0.546796
O O12 0.458175 0.745647 0.391051
O O13 0.253305 0.779368 0.927809
O O14 0.201733 0.237430 0.397694
O O15 0.994394 0.266299 0.991135
O O16 0.780895 0.944449 0.080183
#
# Coordination Sequence:
#
# PCOD9239805 Si02
#       8
#     4   4   4   4   4   4   4   4
#     4  10  20  34  54  85 126 166 200 251 298 374
#     4  10  23  45  69  96 126 163 218 279 332 387
#     4  10  20  37  56  89 135 162 210 252 309 376
#     4  12  25  40  67 102 133 168 210 266 343 397
#     4  10  18  32  52  74 113 158 195 231 283 348
#     4  10  22  45  70  94 124 169 220 273 328 388
#     4  10  22  36  59  93 121 169 209 256 321 372
#     4  10  21  35  55  90 126 170 203 247 312 385
#
# _framework density 25.282268999999999
#
# number of rings (size 3 to 8) (size 9 to 14) (size 15 to 20)
#    0.000    1.750    1.250    3.375    3.500    0.000 
#    6.750    0.000    0.000   13.500    0.000    0.000 
#    0.000    0.000    0.000    0.000    0.000    0.000 
#
# Total GULP energy -178516.979246 kJ/mol
# GULP energy per Si atom -5578.655601 kJ/mol
# Density = 2.522473 g / cm^3
# Si number density = 25.282269 Si / 1000 Ang^3
#
#
#
# Elastic Constant Matrix: (Units=GPa)
#
#
# Indices 1 2 3 4 5 6 
#
# 1 32.6427 10.9417 15.3139 0.0000 -8.2667 0.0000
# 2 10.9417 149.4355 78.2845 0.0000 -9.3518 0.0000
# 3 15.3139 78.2845 180.1314 0.0000 -27.4796 0.0000
# 4 0.0000 0.0000 0.0000 46.8738 0.0000 -10.3822
# 5 -8.2667 -9.3518 -27.4796 0.0000 21.6315 0.0000
# 6 0.0000 0.0000 0.0000 -10.3822 0.0000 15.8972
#
#
#
# Elastic Compliance Matrix: (Units=1/GPa)
#
#
# Indices 1 2 3 4 5 6 
#
# 1 0.034374 -0.001544 -0.000433 0.000000 0.011919 0.000000
# 2 -0.001544 0.008763 -0.003956 0.000000 -0.001827 0.000000
# 3 -0.000433 -0.003956 0.008709 0.000000 0.009188 0.000000
# 4 0.000000 0.000000 0.000000 0.024942 0.000000 0.016289
# 5 0.011919 -0.001827 0.009188 0.000000 0.061666 0.000000
# 6 0.000000 0.000000 0.000000 0.016289 0.000000 0.073542
#
#
# Mechanical properties :
#
#
# Convention : Reuss Voigt Hill
#
# Bulk Modulus (GPa) = 25.01243 63.47663 44.24453
# Shear Modulus (GPa) = 21.08027 34.05846 27.56937
#
# Velocity S-wave (km/s) = 2.89069 3.67431 3.30580
# Velocity P-wave (km/s) = 4.58870 6.56981 5.66650
#
# Compressibility (1/GPa) = 0.03998012
#
# Stress axis : x y z
#
# Youngs Moduli (GPa) = 29.09189 114.11783 114.82200
#
# Poissons Ratio (x) = 0.17622 0.04971
# Poissons Ratio (y) = 0.04492 0.45421
# Poissons Ratio (z) = 0.01259 0.45142
#
# Static dielectric constant tensor:
#      x y z
#    x 2.155740 0.000000 -0.021370 
#    y 0.000000 2.089040 0.000000 
#    z -0.021370 0.000000 2.093450 
# 
# From -- ./inp_files/3982.got.cif
#   From: 2010.05.17/outbox.cif.g08.bks.cpg/sg14_2_cif.got.tgz:3982.got - 2010.06.03 17:49:19.
