data_PCOD9239098
_publ_section_title
;
Structure prediction by ZEFSAII (Michael W. Deem and Ramdas Pophale) SiO2 
 PCOD9239098
Probable space group: P 21/C
;
_chemical_formula_sum "Si O2"
_cell_formula_units_Z 26
_cell_length_a 5.048477
_cell_length_b 18.791747
_cell_length_c 8.989169
_cell_angle_alpha 90.000000
_cell_angle_beta 95.870479
_cell_angle_gamma 90.000000
_cell_volume 848.327406
_symmetry_space_group_name_H-M "P 21/C"
_symmetry_group_IT_number 14
_symmetry_cell_setting 'monoclinic'
loop_
_space_group_symop_operation_xyz
x,y,z
-x,1/2+y,1/2-z
-x,-y,-z
x,1/2-y,1/2+z
loop_
_atom_site_type_symbol
_atom_site_label
_atom_site_fract_x
_atom_site_fract_y
_atom_site_fract_z
Si Si1 0.500000 0.000000 0.000000
Si Si2 0.144359 0.033954 0.327092
Si Si3 0.646805 0.742904 0.693729
Si Si4 0.366938 0.622317 0.102890
Si Si5 0.869175 0.248291 0.001868
Si Si6 0.039828 0.893090 0.932048
Si Si7 0.180285 0.095938 0.753410
O O1 0.310095 0.935121 0.942610
O O2 0.586966 0.954992 0.171471
O O3 0.893894 0.085933 0.345306
O O4 0.403984 0.065503 0.420748
O O5 0.025633 0.955953 0.346112
O O6 0.173528 0.050606 0.150048
O O7 0.512258 0.819803 0.721670
O O8 0.390321 0.712062 0.589078
O O9 0.737992 0.675012 0.798295
O O10 0.885221 0.759264 0.593886
O O11 0.259963 0.675721 0.968343
O O12 0.967938 0.188764 0.121607
O O13 0.958826 0.886782 0.098101
#
# Coordination Sequence:
#
# PCOD9239098 Si02
#       7
#     2   4   4   4   4   4   4
#     4  10  14  28  38  64  98 128 148 188 218 282
#     4  11  22  28  49  74 107 118 165 203 245 269
#     4   9  17  33  49  61  86 141 168 189 226 288
#     4  10  19  35  43  68  96 138 154 212 233 277
#     4   9  17  33  50  58  89 136 172 182 239 275
#     4  10  21  29  46  71  98 141 158 196 228 311
#     4  10  21  29  46  70 101 138 163 190 235 301
#
# _framework density 30.648541000000002
#
# number of rings (size 3 to 8) (size 9 to 14) (size 15 to 20)
#    0.923    1.231    3.077    1.846    8.615    0.000 
#    0.000    0.000    0.000    0.000    0.000    0.000 
#    0.000    7.385    0.000    0.000    0.000    0.000 
#
# Total GULP energy -145010.608389 kJ/mol
# GULP energy per Si atom -5577.331092 kJ/mol
# Density = 3.057878 g / cm^3
# Si number density = 30.648541 Si / 1000 Ang^3
#
#
#
# Elastic Constant Matrix: (Units=GPa)
#
#
# Indices 1 2 3 4 5 6 
#
# 1 174.3322 45.7187 33.0625 0.0000 -13.8911 0.0000
# 2 45.7187 285.9400 29.1153 0.0000 8.2080 0.0000
# 3 33.0625 29.1153 64.5900 0.0000 3.8946 0.0000
# 4 0.0000 0.0000 0.0000 37.3071 0.0000 9.2123
# 5 -13.8911 8.2080 3.8946 0.0000 51.8792 0.0000
# 6 0.0000 0.0000 0.0000 9.2123 0.0000 68.1592
#
#
#
# Elastic Compliance Matrix: (Units=1/GPa)
#
#
# Indices 1 2 3 4 5 6 
#
# 1 0.006731 -0.000812 -0.003211 0.000000 0.002172 0.000000
# 2 -0.000812 0.003774 -0.001242 0.000000 -0.000721 0.000000
# 3 -0.003211 -0.001242 0.017806 0.000000 -0.002000 0.000000
# 4 0.000000 0.000000 0.000000 0.027730 0.000000 -0.003748
# 5 0.002172 -0.000721 -0.002000 0.000000 0.020121 0.000000
# 6 0.000000 0.000000 0.000000 -0.003748 0.000000 0.015178
#
#
# Mechanical properties :
#
#
# Convention : Reuss Voigt Hill
#
# Bulk Modulus (GPa) = 56.23540 82.29501 69.26521
# Shear Modulus (GPa) = 46.38331 59.26683 52.82507
#
# Velocity S-wave (km/s) = 3.89446 4.40222 4.15610
# Velocity P-wave (km/s) = 6.21375 7.26284 6.75868
#
# Compressibility (1/GPa) = 0.01778239
#
# Stress axis : x y z
#
# Youngs Moduli (GPa) = 148.56722 264.95603 56.15990
#
# Poissons Ratio (x) = 0.21505 0.18030
# Poissons Ratio (y) = 0.12058 0.06977
# Poissons Ratio (z) = 0.47698 0.32917
#
# Static dielectric constant tensor:
#      x y z
#    x 2.362430 0.000000 0.002080 
#    y 0.000000 2.491140 0.000000 
#    z 0.002080 0.000000 2.782780 
# 
# From -- ./inp_files/37512.got.cif
#   From: 2010.05.17/outbox.cif.g08.bks.cpg/sg14_19_cif.got.tgz:37512.got - 2010.06.03 17:49:19.
