data_PCOD9239444
_publ_section_title
;
Structure prediction by ZEFSAII (Michael W. Deem and Ramdas Pophale) SiO2 
 PCOD9239444
Probable space group: P 21/C
;
_chemical_formula_sum "Si O2"
_cell_formula_units_Z 32
_cell_length_a 16.222223
_cell_length_b 18.958631
_cell_length_c 14.638881
_cell_angle_alpha 90.000000
_cell_angle_beta 21.950209
_cell_angle_gamma 90.000000
_cell_volume 1682.927269
_symmetry_space_group_name_H-M "P 21/C"
_symmetry_group_IT_number 14
_symmetry_cell_setting 'monoclinic'
loop_
_space_group_symop_operation_xyz
x,y,z
-x,1/2+y,1/2-z
-x,-y,-z
x,1/2-y,1/2+z
loop_
_atom_site_type_symbol
_atom_site_label
_atom_site_fract_x
_atom_site_fract_y
_atom_site_fract_z
Si Si1 0.649320 0.891108 0.972498
Si Si2 0.057502 0.598022 0.952589
Si Si3 0.693941 0.202875 0.103868
Si Si4 0.984469 0.832330 0.777049
Si Si5 0.334834 0.228416 0.320215
Si Si6 0.755285 0.459858 0.050242
Si Si7 0.645556 0.276498 0.326491
Si Si8 0.001439 0.899964 0.312765
O O1 0.506489 0.948765 0.173232
O O2 0.490977 0.831125 0.096126
O O3 0.821927 0.855679 0.863210
O O4 0.799333 0.916047 0.734386
O O5 0.172723 0.558907 0.918833
O O6 0.128539 0.680667 0.886832
O O7 0.118367 0.577384 0.787465
O O8 0.857044 0.268178 0.913573
O O9 0.819022 0.133674 0.939110
O O10 0.473414 0.216993 0.271561
O O11 0.665294 0.208163 0.242393
O O12 0.141041 0.900704 0.623801
O O13 0.819041 0.798159 0.020488
O O14 0.170223 0.161997 0.483324
O O15 0.511777 0.232438 0.057194
O O16 0.859579 0.534979 0.921405
#
# Coordination Sequence:
#
# PCOD9239444 Si02
#       8
#     4   4   4   4   4   4   4   4
#     4  10  17  33  54  76 109 150 180 216 273 336
#     4  10  19  34  53  80 117 152 181 216 280 347
#     4  11  21  37  55  80 114 146 192 233 281 326
#     4  10  19  36  56  78 106 152 190 226 270 340
#     4  11  22  33  57  84 112 145 192 237 279 334
#     4  10  21  34  54  79 119 157 185 221 277 344
#     4  11  19  35  55  81 115 144 184 236 273 330
#     4  11  23  34  51  87 117 151 185 230 281 340
#
# _framework density 19.014488
#
# number of rings (size 3 to 8) (size 9 to 14) (size 15 to 20)
#    0.000    1.500    7.500    0.375    0.000    2.500 
#    0.000    0.000    0.000    0.750    0.000    4.375 
#    0.000    0.000    0.000    0.000    0.000    0.000 
#
# Total GULP energy -178325.530509 kJ/mol
# GULP energy per Si atom -5572.672828 kJ/mol
# Density = 1.897121 g / cm^3
# Si number density = 19.014488 Si / 1000 Ang^3
#
#
#
# Elastic Constant Matrix: (Units=GPa)
#
#
# Indices 1 2 3 4 5 6 
#
# 1 25.5262 7.7492 4.5847 0.0000 -5.1372 0.0000
# 2 7.7492 64.8582 30.4518 0.0000 16.2311 0.0000
# 3 4.5847 30.4518 92.9462 0.0000 9.6106 0.0000
# 4 0.0000 0.0000 0.0000 24.7953 0.0000 0.6955
# 5 -5.1372 16.2311 9.6106 0.0000 28.8327 0.0000
# 6 0.0000 0.0000 0.0000 0.6955 0.0000 16.7096
#
#
#
# Elastic Compliance Matrix: (Units=1/GPa)
#
#
# Indices 1 2 3 4 5 6 
#
# 1 0.044347 -0.008084 -0.000856 0.000000 0.012738 0.000000
# 2 -0.008084 0.021994 -0.005570 0.000000 -0.011965 0.000000
# 3 -0.000856 -0.005570 0.012757 0.000000 -0.001269 0.000000
# 4 0.000000 0.000000 0.000000 0.040377 0.000000 -0.001681
# 5 0.012738 -0.011965 -0.001269 0.000000 0.044111 0.000000
# 6 0.000000 0.000000 0.000000 -0.001681 0.000000 0.059916
#
#
# Mechanical properties :
#
#
# Convention : Reuss Voigt Hill
#
# Bulk Modulus (GPa) = 19.96900 29.87801 24.92350
# Shear Modulus (GPa) = 18.57256 23.43718 21.00487
#
# Velocity S-wave (km/s) = 3.12870 3.51464 3.32727
# Velocity P-wave (km/s) = 4.85556 5.67606 5.28177
#
# Compressibility (1/GPa) = 0.05007761
#
# Stress axis : x y z
#
# Youngs Moduli (GPa) = 22.54948 45.46791 78.38724
#
# Poissons Ratio (x) = 0.36758 0.06709
# Poissons Ratio (y) = 0.18230 0.43660
# Poissons Ratio (z) = 0.01930 0.25325
#
# Static dielectric constant tensor:
#      x y z
#    x 1.687480 0.000000 -0.006870 
#    y 0.000000 1.710310 0.000000 
#    z -0.006870 0.000000 1.743530 
# 
# From -- ./inp_files/49320.got.cif
#   From: 2010.05.17/outbox.cif.g08.bks.cpg/sg14_25_cif.got.tgz:49320.got - 2010.06.03 17:49:19.
