data_PCOD9239023
_publ_section_title
;
Structure prediction by ZEFSAII (Michael W. Deem and Ramdas Pophale) SiO2 
 PCOD9239023
Probable space group: P 2/C
;
_chemical_formula_sum "Si O2"
_cell_formula_units_Z 28
_cell_length_a 9.000000
_cell_length_b 12.000000
_cell_length_c 15.000000
_cell_angle_alpha 90.000000
_cell_angle_beta 120.000000
_cell_angle_gamma 90.000000
_cell_volume 1402.961154
_symmetry_space_group_name_H-M "P 2/C"
_symmetry_group_IT_number 13
_symmetry_cell_setting 'monoclinic'
loop_
_space_group_symop_operation_xyz
x,y,z
-x,y,1/2-z
-x,-y,-z
x,-y,1/2+z
loop_
_atom_site_type_symbol
_atom_site_label
_atom_site_fract_x
_atom_site_fract_y
_atom_site_fract_z
Si Si1 0.828063 0.202762 0.556705
Si Si2 0.000000 0.658850 0.250000
Si Si3 0.690893 0.304388 0.340238
Si Si4 0.793871 0.219319 0.915764
Si Si5 0.781498 0.911594 0.765198
Si Si6 0.141858 0.459069 0.614168
Si Si7 0.500000 0.065505 0.750000
Si Si8 0.857511 0.047719 0.085138
O O1 0.716567 0.271362 0.451826
O O2 0.853786 0.260962 0.661233
O O3 0.020260 0.208338 0.574408
O O4 0.773353 0.073201 0.542693
O O5 0.932169 0.584519 0.312660
O O6 0.500000 0.292893 0.250000
O O7 0.785542 0.210036 0.310331
O O8 0.749651 0.429650 0.339822
O O9 0.763473 0.352152 0.901601
O O10 0.645870 0.149315 0.825419
O O11 0.807425 0.153339 0.011954
O O12 0.823085 0.915444 0.674734
O O13 0.937938 0.972822 0.862821
O O14 0.604728 0.978345 0.720915
O O15 0.000000 0.500000 0.500000
#
# Coordination Sequence:
#
# PCOD9239023 Si02
#       8
#     4   2   4   4   4   4   2   4
#     4  11  21  43  68  98 132 182 222 278 350 414
#     4  10  22  40  72  98 126 174 242 278 334 408
#     4  12  25  44  66  96 138 182 224 280 351 403
#     4  11  23  40  66  95 133 178 220 279 346 405
#     4  11  23  40  66  98 133 175 223 283 344 406
#     4  11  23  45  71  96 130 185 235 284 333 407
#     4  12  24  40  60 100 142 172 218 282 356 402
#     4  11  22  40  70  99 128 176 240 275 332 429
#
# _framework density 19.957787
#
# number of rings (size 3 to 8) (size 9 to 14) (size 15 to 20)
#    0.000    0.857    6.429    2.143    3.000    2.857 
#    0.000    0.714    0.000    0.000    0.000    0.000 
#    0.000    0.000    0.000    0.000    0.000    0.000 
#
# Total GULP energy -156048.624807 kJ/mol
# GULP energy per Si atom -5573.165172 kJ/mol
# Density = 1.991236 g / cm^3
# Si number density = 19.957787 Si / 1000 Ang^3
#
#
#
# Elastic Constant Matrix: (Units=GPa)
#
#
# Indices 1 2 3 4 5 6 
#
# 1 30.3074 15.4222 47.0316 0.0000 -2.9734 0.0000
# 2 15.4222 167.2920 66.9639 0.0000 -23.2794 0.0000
# 3 47.0316 66.9639 106.0114 0.0000 0.2250 0.0000
# 4 0.0000 0.0000 0.0000 313.4930 0.0000 24.9670
# 5 -2.9734 -23.2794 0.2250 0.0000 21.9618 0.0000
# 6 0.0000 0.0000 0.0000 24.9670 0.0000 42.1680
#
#
#
# Elastic Compliance Matrix: (Units=1/GPa)
#
#
# Indices 1 2 3 4 5 6 
#
# 1 0.168705 0.029627 -0.093677 0.000000 0.055205 0.000000
# 2 0.029627 0.015201 -0.022789 0.000000 0.020358 0.000000
# 3 -0.093677 -0.022789 0.065467 0.000000 -0.037510 0.000000
# 4 0.000000 0.000000 0.000000 0.003348 0.000000 -0.001982
# 5 0.055205 0.020358 -0.037510 0.000000 0.074972 0.000000
# 6 0.000000 0.000000 0.000000 -0.001982 0.000000 0.024888
#
#
# Mechanical properties :
#
#
# Convention : Reuss Voigt Hill
#
# Bulk Modulus (GPa) = 13.21095 62.49400 37.85248
# Shear Modulus (GPa) = 9.06634 87.13744 48.10189
#
# Velocity S-wave (km/s) = 2.13369 6.61481 4.91469
# Velocity P-wave (km/s) = 3.56426 9.47217 7.15632
#
# Compressibility (1/GPa) = 0.07569479
#
# Stress axis : x y z
#
# Youngs Moduli (GPa) = 5.92752 65.78350 15.27487
#
# Poissons Ratio (x) = -1.94894 1.43090
# Poissons Ratio (y) = -0.17561 0.34810
# Poissons Ratio (z) = 0.55527 1.49915
#
# Static dielectric constant tensor:
#      x y z
#    x 1.850830 0.000000 0.170880 
#    y 0.000000 1.707440 0.000000 
#    z 0.170880 0.000000 1.913460 
# 
# From -- ./inp_files/47079.got.cif
#   From: 2010.05.17/outbox.ucp.g08.bks.cvg/sg13_24_cif.got.tgz:47079.got - 2010.06.11 12:23:55.
