data_PCOD9239923
_publ_section_title
;
Structure prediction by ZEFSAII (Michael W. Deem and Ramdas Pophale) SiO2 
 PCOD9239923
Probable space group: P 21/C
;
_chemical_formula_sum "Si O2"
_cell_formula_units_Z 32
_cell_length_a 25.900574
_cell_length_b 6.898461
_cell_length_c 12.299850
_cell_angle_alpha 90.000000
_cell_angle_beta 32.671169
_cell_angle_gamma 90.000000
_cell_volume 1186.336301
_symmetry_space_group_name_H-M "P 21/C"
_symmetry_group_IT_number 14
_symmetry_cell_setting 'monoclinic'
loop_
_space_group_symop_operation_xyz
x,y,z
-x,1/2+y,1/2-z
-x,-y,-z
x,1/2-y,1/2+z
loop_
_atom_site_type_symbol
_atom_site_label
_atom_site_fract_x
_atom_site_fract_y
_atom_site_fract_z
Si Si1 0.617550 0.948154 0.922074
Si Si2 0.854570 0.729428 0.317674
Si Si3 0.627873 0.113340 0.217098
Si Si4 0.727534 0.896165 0.229506
Si Si5 0.087031 0.063466 0.968701
Si Si6 0.973389 0.495890 0.877709
Si Si7 0.542309 0.709597 0.349140
Si Si8 0.226619 0.592414 0.700596
O O1 0.639831 0.731952 0.928626
O O2 0.521458 0.072543 0.114480
O O3 0.706894 0.060872 0.813514
O O4 0.615065 0.910557 0.795826
O O5 0.791367 0.744145 0.538001
O O6 0.792008 0.601800 0.342123
O O7 0.940479 0.590238 0.204751
O O8 0.894304 0.928580 0.194181
O O9 0.682895 0.054227 0.229641
O O10 0.589046 0.912313 0.231111
O O11 0.534465 0.222670 0.422185
O O12 0.704671 0.211982 0.001943
O O13 0.806445 0.970625 0.172372
O O14 0.055224 0.289267 0.037019
O O15 0.010545 0.977683 0.188619
O O16 0.880173 0.364876 0.069006
#
# Coordination Sequence:
#
# PCOD9239923 Si02
#       8
#     4   4   4   4   4   4   4   4
#     4  10  18  34  57  77 111 136 176 220 284 315
#     4   9  18  34  57  78 108 148 184 212 267 326
#     4   9  19  36  56  77 106 139 183 215 269 331
#     4   9  17  33  56  80 105 143 180 218 268 326
#     4  10  18  35  53  78 110 147 181 223 264 316
#     4  10  20  35  55  82 108 146 184 218 270 317
#     4   9  20  36  54  79 104 143 169 229 274 321
#     4  10  18  33  54  80 104 143 177 218 262 328
#
# _framework density 26.973803
#
# number of rings (size 3 to 8) (size 9 to 14) (size 15 to 20)
#    0.000    2.500    2.500    1.500    0.000    1.000 
#    9.000    3.750    0.000    0.000    0.000    0.000 
#    0.000    0.000    0.000    0.000    0.000    0.000 
#
# Total GULP energy -178506.931429 kJ/mol
# GULP energy per Si atom -5578.341607 kJ/mol
# Density = 2.691241 g / cm^3
# Si number density = 26.973803 Si / 1000 Ang^3
#
#
#
# Elastic Constant Matrix: (Units=GPa)
#
#
# Indices 1 2 3 4 5 6 
#
# 1 126.4412 20.3635 30.6687 0.0000 -30.3930 0.0000
# 2 20.3635 48.0539 30.3506 0.0000 -1.9257 0.0000
# 3 30.6687 30.3506 150.1004 0.0000 -11.2621 0.0000
# 4 0.0000 0.0000 0.0000 43.4365 0.0000 3.7658
# 5 -30.3930 -1.9257 -11.2621 0.0000 56.3700 0.0000
# 6 0.0000 0.0000 0.0000 3.7658 0.0000 21.1933
#
#
#
# Elastic Compliance Matrix: (Units=1/GPa)
#
#
# Indices 1 2 3 4 5 6 
#
# 1 0.009895 -0.003385 -0.000960 0.000000 0.005028 0.000000
# 2 -0.003385 0.025016 -0.004507 0.000000 -0.001871 0.000000
# 3 -0.000960 -0.004507 0.007837 0.000000 0.000894 0.000000
# 4 0.000000 0.000000 0.000000 0.023382 0.000000 -0.004155
# 5 0.005028 -0.001871 0.000894 0.000000 0.020566 0.000000
# 6 0.000000 0.000000 0.000000 -0.004155 0.000000 0.047923
#
#
# Mechanical properties :
#
#
# Convention : Reuss Voigt Hill
#
# Bulk Modulus (GPa) = 39.93070 54.15122 47.04096
# Shear Modulus (GPa) = 31.11925 40.41413 35.76669
#
# Velocity S-wave (km/s) = 3.40028 3.87495 3.64535
# Velocity P-wave (km/s) = 5.50014 6.33557 5.93258
#
# Compressibility (1/GPa) = 0.02504339
#
# Stress axis : x y z
#
# Youngs Moduli (GPa) = 101.05621 39.97402 127.60345
#
# Poissons Ratio (x) = 0.13533 0.12251
# Poissons Ratio (y) = 0.34212 0.57511
# Poissons Ratio (z) = 0.09702 0.18016
#
# Static dielectric constant tensor:
#      x y z
#    x 2.162980 0.000000 0.068210 
#    y 0.000000 2.255080 0.000000 
#    z 0.068210 0.000000 2.228000 
# 
# From -- ./inp_files/51846.got.cif
#   From: 2010.05.17/outbox.cif.g08.bks.cpg/sg14_26_cif.got.tgz:51846.got - 2010.06.03 17:49:19.
