data_PCOD9239944
_publ_section_title
;
Structure prediction by ZEFSAII (Michael W. Deem and Ramdas Pophale) SiO2 
 PCOD9239944
Probable space group: P 21/C
;
_chemical_formula_sum "Si O2"
_cell_formula_units_Z 32
_cell_length_a 18.036812
_cell_length_b 17.057430
_cell_length_c 13.012967
_cell_angle_alpha 90.000000
_cell_angle_beta 21.089076
_cell_angle_gamma 90.000000
_cell_volume 1440.567811
_symmetry_space_group_name_H-M "P 21/C"
_symmetry_group_IT_number 14
_symmetry_cell_setting 'monoclinic'
loop_
_space_group_symop_operation_xyz
x,y,z
-x,1/2+y,1/2-z
-x,-y,-z
x,1/2-y,1/2+z
loop_
_atom_site_type_symbol
_atom_site_label
_atom_site_fract_x
_atom_site_fract_y
_atom_site_fract_z
Si Si1 0.598432 0.407080 0.228111
Si Si2 0.860862 0.269039 0.802336
Si Si3 0.865399 0.731286 0.890106
Si Si4 0.465502 0.127550 0.112630
Si Si5 0.619274 0.879824 0.197142
Si Si6 0.166167 0.902329 0.247987
Si Si7 0.279173 0.791925 0.734225
Si Si8 0.986307 0.460856 0.846281
O O1 0.443603 0.402367 0.525030
O O2 0.491732 0.420548 0.256765
O O3 0.705995 0.321637 0.069490
O O4 0.786556 0.458608 0.031840
O O5 0.809410 0.178513 0.845026
O O6 0.845727 0.305518 0.709729
O O7 0.084935 0.268569 0.562638
O O8 0.094084 0.714514 0.553617
O O9 0.742248 0.651916 0.064120
O O10 0.717624 0.796262 0.030221
O O11 0.607257 0.074215 0.002503
O O12 0.596415 0.209436 0.932319
O O13 0.457298 0.857611 0.495916
O O14 0.815280 0.931638 0.972186
O O15 0.049760 0.901005 0.509605
O O16 0.047921 0.960763 0.326140
#
# Coordination Sequence:
#
# PCOD9239944 Si02
#       8
#     4   4   4   4   4   4   4   4
#     4  10  19  34  57  87 111 142 195 229 283 345
#     4  10  18  33  56  81 116 143 182 242 279 332
#     4  11  19  32  54  84 113 146 183 246 286 321
#     4   9  18  32  50  81 113 143 185 229 283 341
#     4  10  20  33  56  80 109 152 183 233 287 343
#     4   9  20  36  54  84 119 151 189 235 288 348
#     4   9  19  33  50  83 112 139 191 234 285 334
#     4  10  19  39  58  79 123 155 180 241 293 336
#
# _framework density 22.213463999999998
#
# number of rings (size 3 to 8) (size 9 to 14) (size 15 to 20)
#    0.000    2.250    2.500    2.250    3.500    0.000 
#    2.250    1.875    0.000    1.500    0.000    0.000 
#    0.000    0.000    0.000    0.000    0.000    0.000 
#
# Total GULP energy -178263.464335 kJ/mol
# GULP energy per Si atom -5570.733260 kJ/mol
# Density = 2.216291 g / cm^3
# Si number density = 22.213464 Si / 1000 Ang^3
#
#
#
# Elastic Constant Matrix: (Units=GPa)
#
#
# Indices 1 2 3 4 5 6 
#
# 1 52.0211 -10.9595 -5.9601 0.0000 -15.2039 0.0000
# 2 -10.9595 32.2346 5.7530 0.0000 2.5422 0.0000
# 3 -5.9601 5.7530 103.1793 0.0000 -10.8956 0.0000
# 4 0.0000 0.0000 0.0000 16.1313 0.0000 -3.7754
# 5 -15.2039 2.5422 -10.8956 0.0000 19.4854 0.0000
# 6 0.0000 0.0000 0.0000 -3.7754 0.0000 29.8997
#
#
#
# Elastic Compliance Matrix: (Units=1/GPa)
#
#
# Indices 1 2 3 4 5 6 
#
# 1 0.027769 0.006999 0.003619 0.000000 0.022778 0.000000
# 2 0.006999 0.033639 -0.001443 0.000000 0.000265 0.000000
# 3 0.003619 -0.001443 0.010946 0.000000 0.009133 0.000000
# 4 0.000000 0.000000 0.000000 0.063879 0.000000 0.008066
# 5 0.022778 0.000265 0.009133 0.000000 0.074166 0.000000
# 6 0.000000 0.000000 0.000000 0.008066 0.000000 0.034464
#
#
# Mechanical properties :
#
#
# Convention : Reuss Voigt Hill
#
# Bulk Modulus (GPa) = 11.02488 18.34464 14.68476
# Shear Modulus (GPa) = 19.47437 26.34338 22.90887
#
# Velocity S-wave (km/s) = 2.96411 3.44745 3.21488
# Velocity P-wave (km/s) = 4.08516 4.91150 4.51727
#
# Compressibility (1/GPa) = 0.09070392
#
# Stress axis : x y z
#
# Youngs Moduli (GPa) = 36.01080 29.72753 91.35909
#
# Poissons Ratio (x) = -0.20806 -0.33065
# Poissons Ratio (y) = -0.25204 0.13186
# Poissons Ratio (z) = -0.13033 0.04291
#
# Static dielectric constant tensor:
#      x y z
#    x 1.868160 0.000000 0.004130 
#    y 0.000000 1.916760 0.000000 
#    z 0.004130 0.000000 1.886280 
# 
# From -- ./inp_files/50810.got.cif
#   From: 2010.05.17/outbox.cif.g08.bks.cpg/sg14_26_cif.got.tgz:50810.got - 2010.06.03 17:49:19.
