data_PCOD9239500
_publ_section_title
;
Structure prediction by ZEFSAII (Michael W. Deem and Ramdas Pophale) SiO2 
 PCOD9239500
Probable space group: P 21/C
;
_chemical_formula_sum "Si O2"
_cell_formula_units_Z 28
_cell_length_a 17.238547
_cell_length_b 17.787460
_cell_length_c 7.908098
_cell_angle_alpha 90.000000
_cell_angle_beta 31.171645
_cell_angle_gamma 90.000000
_cell_volume 1255.116258
_symmetry_space_group_name_H-M "P 21/C"
_symmetry_group_IT_number 14
_symmetry_cell_setting 'monoclinic'
loop_
_space_group_symop_operation_xyz
x,y,z
-x,1/2+y,1/2-z
-x,-y,-z
x,1/2-y,1/2+z
loop_
_atom_site_type_symbol
_atom_site_label
_atom_site_fract_x
_atom_site_fract_y
_atom_site_fract_z
Si Si1 0.215495 0.001119 0.954614
Si Si2 0.646473 0.460304 0.161541
Si Si3 0.915886 0.528002 0.825353
Si Si4 0.875424 0.656803 0.338211
Si Si5 0.913296 0.819822 0.163921
Si Si6 0.228690 0.647442 0.617055
Si Si7 0.735399 0.194554 0.566726
O O1 0.298650 0.995205 0.618695
O O2 0.273069 0.933143 0.961889
O O3 0.038328 0.987460 0.239783
O O4 0.220803 0.083473 0.028709
O O5 0.500000 0.500000 0.500000
O O6 0.767966 0.478990 0.082725
O O7 0.640035 0.370090 0.152790
O O8 0.878850 0.615255 0.863426
O O9 0.000000 0.500000 0.500000
O O10 0.836814 0.740627 0.349718
O O11 0.875388 0.656932 0.543288
O O12 0.046613 0.647916 0.955449
O O13 0.094905 0.812843 0.824039
O O14 0.294890 0.717021 0.387003
O O15 0.269421 0.670508 0.730161
#
# Coordination Sequence:
#
# PCOD9239500 Si02
#       7
#     4   4   4   4   4   4   4
#     4  11  20  38  59  93 121 154 199 263 306 369
#     4  11  22  38  64  84 119 169 211 250 306 366
#     4  10  17  34  60  81 116 146 199 248 305 357
#     4  10  20  31  51  86 124 147 186 243 311 355
#     4  10  18  32  52  82 115 150 187 240 302 362
#     4  10  21  33  62  95 124 150 200 252 307 364
#     4  10  19  36  56  94 121 155 198 250 299 370
#
# _framework density 22.308692000000001
#
# number of rings (size 3 to 8) (size 9 to 14) (size 15 to 20)
#    0.000    1.714    5.714    2.143    6.000    0.000 
#    0.000    0.714    6.286    0.000    0.000    0.000 
#    0.000    0.000    0.000    0.000    0.000    0.000 
#
# Total GULP energy -156336.359506 kJ/mol
# GULP energy per Si atom -5583.441411 kJ/mol
# Density = 2.225792 g / cm^3
# Si number density = 22.308692 Si / 1000 Ang^3
#
#
#
# Elastic Constant Matrix: (Units=GPa)
#
#
# Indices 1 2 3 4 5 6 
#
# 1 25.3890 22.3740 28.9730 0.0000 12.8026 0.0000
# 2 22.3740 229.1031 49.8222 0.0000 21.4318 0.0000
# 3 28.9730 49.8222 69.2176 0.0000 13.5047 0.0000
# 4 0.0000 0.0000 0.0000 23.4024 0.0000 14.5797
# 5 12.8026 21.4318 13.5047 0.0000 17.0750 0.0000
# 6 0.0000 0.0000 0.0000 14.5797 0.0000 32.3170
#
#
#
# Elastic Compliance Matrix: (Units=1/GPa)
#
#
# Indices 1 2 3 4 5 6 
#
# 1 0.103931 0.002420 -0.034823 0.000000 -0.053423 0.000000
# 2 0.002420 0.005499 -0.003867 0.000000 -0.005658 0.000000
# 3 -0.034823 -0.003867 0.030467 0.000000 0.006867 0.000000
# 4 0.000000 0.000000 0.000000 0.059436 0.000000 -0.026814
# 5 -0.053423 -0.005658 0.006867 0.000000 0.100291 0.000000
# 6 0.000000 0.000000 0.000000 -0.026814 0.000000 0.043041
#
#
# Mechanical properties :
#
#
# Convention : Reuss Voigt Hill
#
# Bulk Modulus (GPa) = 14.84598 58.44979 36.64788
# Shear Modulus (GPa) = 11.42448 29.39491 20.40970
#
# Velocity S-wave (km/s) = 2.26544 3.63387 3.02797
# Velocity P-wave (km/s) = 3.67589 6.62299 5.35613
#
# Compressibility (1/GPa) = 0.06735830
#
# Stress axis : x y z
#
# Youngs Moduli (GPa) = 9.62172 181.85989 32.82233
#
# Poissons Ratio (x) = -0.44018 1.14296
# Poissons Ratio (y) = -0.02329 0.12693
# Poissons Ratio (z) = 0.33505 0.70329
#
# Static dielectric constant tensor:
#      x y z
#    x 1.821090 0.000000 0.017770 
#    y 0.000000 1.916450 0.000000 
#    z 0.017770 0.000000 1.805520 
# 
# From -- ./inp_files/19157.got.cif
#   From: 2010.05.17/outbox.cif.g08.bks.cpg/sg14_10_cif.got.tgz:19157.got - 2010.06.03 17:49:19.
