data_PCOD9239043
_publ_section_title
;
Structure prediction by ZEFSAII (Michael W. Deem and Ramdas Pophale) SiO2 
 PCOD9239043
Probable space group: P 2/C
;
_chemical_formula_sum "Si O2"
_cell_formula_units_Z 18
_cell_length_a 9.000000
_cell_length_b 9.000000
_cell_length_c 12.000000
_cell_angle_alpha 90.000000
_cell_angle_beta 60.000000
_cell_angle_gamma 90.000000
_cell_volume 841.776692
_symmetry_space_group_name_H-M "P 2/C"
_symmetry_group_IT_number 13
_symmetry_cell_setting 'monoclinic'
loop_
_space_group_symop_operation_xyz
x,y,z
-x,y,1/2-z
-x,-y,-z
x,-y,1/2+z
loop_
_atom_site_type_symbol
_atom_site_label
_atom_site_fract_x
_atom_site_fract_y
_atom_site_fract_z
Si Si1 0.642854 0.287497 0.485386
Si Si2 0.165958 0.910058 0.392087
Si Si3 0.000000 0.723264 0.250000
Si Si4 0.701614 0.624982 0.499383
Si Si5 0.307392 0.219981 0.281119
O O1 0.730398 0.181268 0.548017
O O2 0.641864 0.454926 0.535120
O O3 0.445729 0.275273 0.509372
O O4 0.735668 0.267531 0.329117
O O5 0.093672 0.817564 0.313388
O O6 0.285071 0.043704 0.301764
O O7 0.000000 0.000000 0.500000
O O8 0.143555 0.621890 0.143284
O O9 0.781827 0.693956 0.583046
O O10 0.500000 0.260759 0.250000
#
# Coordination Sequence:
#
# PCOD9239043 Si02
#       5
#     4   4   2   4   4
#     4  10  25  45  72  93 138 179 226 278 334 407
#     4  12  25  43  65 100 138 177 223 278 339 399
#     4  12  26  40  66 100 136 168 230 274 336 408
#     4  10  24  46  67 102 130 178 226 277 341 398
#     4  10  23  43  67  97 132 173 224 271 330 405
#
# _framework density 21.383343
#
# number of rings (size 3 to 8) (size 9 to 14) (size 15 to 20)
#    0.000    1.333    2.222    1.333    6.222    4.444 
#    0.000    0.000    0.000    0.000    0.000    0.000 
#    0.000    0.000    0.000    0.000    0.000    0.000 
#
# Total GULP energy -100218.334757 kJ/mol
# GULP energy per Si atom -5567.685264 kJ/mol
# Density = 2.133467 g / cm^3
# Si number density = 21.383343 Si / 1000 Ang^3
#
#
#
# Elastic Constant Matrix: (Units=GPa)
#
#
# Indices 1 2 3 4 5 6 
#
# 1 92.6300 25.2618 27.4319 0.0000 42.7608 0.0000
# 2 25.2618 70.8760 0.9933 0.0000 25.8528 0.0000
# 3 27.4319 0.9933 65.3315 0.0000 19.9079 0.0000
# 4 0.0000 0.0000 0.0000 28.4892 0.0000 5.6497
# 5 42.7608 25.8528 19.9079 0.0000 54.0704 0.0000
# 6 0.0000 0.0000 0.0000 5.6497 0.0000 36.8828
#
#
#
# Elastic Compliance Matrix: (Units=1/GPa)
#
#
# Indices 1 2 3 4 5 6 
#
# 1 0.017949 -0.002048 -0.003918 0.000000 -0.011773 0.000000
# 2 -0.002048 0.017697 0.003014 0.000000 -0.007952 0.000000
# 3 -0.003918 0.003014 0.018473 0.000000 -0.005144 0.000000
# 4 0.000000 0.000000 0.000000 0.036201 0.000000 -0.005545
# 5 -0.011773 -0.007952 -0.005144 0.000000 0.033501 0.000000
# 6 0.000000 0.000000 0.000000 -0.005545 0.000000 0.027962
#
#
# Mechanical properties :
#
#
# Convention : Reuss Voigt Hill
#
# Bulk Modulus (GPa) = 20.74026 37.35681 29.04854
# Shear Modulus (GPa) = 28.77523 35.56518 32.17020
#
# Velocity S-wave (km/s) = 3.67234 4.08268 3.88293
# Velocity P-wave (km/s) = 5.26324 6.30336 5.80664
#
# Compressibility (1/GPa) = 0.04821540
#
# Stress axis : x y z
#
# Youngs Moduli (GPa) = 55.71230 56.50556 54.13189
#
# Poissons Ratio (x) = 0.11574 0.21209
# Poissons Ratio (y) = 0.11411 -0.16315
# Poissons Ratio (z) = 0.21828 -0.17031
#
# Static dielectric constant tensor:
#      x y z
#    x 1.769720 0.000000 -0.075550 
#    y 0.000000 1.768440 0.000000 
#    z -0.075550 0.000000 2.000450 
# 
# From -- ./inp_files/27807.got.cif
#   From: 2010.05.17/outbox.ucp.g08.bks.cvg/sg13_14_cif.got.tgz:27807.got - 2010.06.11 12:23:55.
