data_PCOD9239959
_publ_section_title
;
Structure prediction by ZEFSAII (Michael W. Deem and Ramdas Pophale) SiO2 
 PCOD9239959
Probable space group: P 21/C
;
_chemical_formula_sum "Si O2"
_cell_formula_units_Z 24
_cell_length_a 31.829136
_cell_length_b 6.700100
_cell_length_c 5.171855
_cell_angle_alpha 90.000000
_cell_angle_beta 109.283863
_cell_angle_gamma 90.000000
_cell_volume 1041.059858
_symmetry_space_group_name_H-M "P 21/C"
_symmetry_group_IT_number 14
_symmetry_cell_setting 'monoclinic'
loop_
_space_group_symop_operation_xyz
x,y,z
-x,1/2+y,1/2-z
-x,-y,-z
x,1/2-y,1/2+z
loop_
_atom_site_type_symbol
_atom_site_label
_atom_site_fract_x
_atom_site_fract_y
_atom_site_fract_z
Si Si1 0.138635 0.006452 0.405540
Si Si2 0.265284 0.891742 0.009194
Si Si3 0.637929 0.113481 0.842600
Si Si4 0.174788 0.454966 0.477042
Si Si5 0.044824 0.380372 0.537428
Si Si6 0.544578 0.380774 0.032940
O O1 0.153039 0.239220 0.480805
O O2 0.143536 0.932810 0.707085
O O3 0.089245 0.996274 0.194119
O O4 0.173550 0.946466 0.256407
O O5 0.262372 0.764042 0.740922
O O6 0.224176 0.041451 0.962332
O O7 0.314511 0.989467 0.107813
O O8 0.637557 0.294842 0.630383
O O9 0.591154 0.006366 0.689253
O O10 0.045957 0.300783 0.247246
O O11 0.000000 0.500000 0.500000
O O12 0.544863 0.198638 0.240517
O O13 0.500000 0.500000 0.000000
#
# Coordination Sequence:
#
# PCOD9239959 Si02
#       6
#     4   4   4   4   4   4
#     4  10  19  37  59  72 102 144 178 204 260 336
#     4  10  19  32  50  81 110 135 176 227 268 322
#     4   8  16  30  49  71 103 143 179 217 276 333
#     4  10  18  33  58  74 100 140 176 207 261 318
#     4  12  23  43  66  89 116 153 189 233 279 335
#     4  10  19  33  55  79 107 151 192 234 288 339
#
# _framework density 23.053429000000001
#
# number of rings (size 3 to 8) (size 9 to 14) (size 15 to 20)
#    0.000    2.000    3.333    2.000    0.000    0.000 
#    0.000    5.000    7.333    0.000    0.000    0.000 
#    0.000    0.000    0.000    0.000    0.000    0.000 
#
# Total GULP energy -133885.392325 kJ/mol
# GULP energy per Si atom -5578.558014 kJ/mol
# Density = 2.300096 g / cm^3
# Si number density = 23.053429 Si / 1000 Ang^3
#
#
#
# Elastic Constant Matrix: (Units=GPa)
#
#
# Indices 1 2 3 4 5 6 
#
# 1 160.9339 -3.3945 10.1565 0.0000 34.7344 0.0000
# 2 -3.3945 29.7095 -14.1295 0.0000 8.5047 0.0000
# 3 10.1565 -14.1295 105.7662 0.0000 -19.3964 0.0000
# 4 0.0000 0.0000 0.0000 -6.3874 0.0000 11.4052
# 5 34.7344 8.5047 -19.3964 0.0000 60.6293 0.0000
# 6 0.0000 0.0000 0.0000 11.4052 0.0000 34.5712
#
#
#
# Elastic Compliance Matrix: (Units=1/GPa)
#
#
# Indices 1 2 3 4 5 6 
#
# 1 0.007394 0.001584 -0.001398 0.000000 -0.004906 0.000000
# 2 0.001584 0.037092 0.003912 0.000000 -0.004859 0.000000
# 3 -0.001398 0.003912 0.010791 0.000000 0.003704 0.000000
# 4 0.000000 0.000000 0.000000 -0.098521 0.000000 0.032503
# 5 -0.004906 -0.004859 0.003704 0.000000 0.021171 0.000000
# 6 0.000000 0.000000 0.000000 0.032503 0.000000 0.018203
#
#
# Mechanical properties :
#
#
# Convention : Reuss Voigt Hill
#
# Bulk Modulus (GPa) = 15.75472 31.29717 23.52595
# Shear Modulus (GPa) = 550.01630 38.01442 294.01536
#
# Velocity S-wave (km/s) = 15.46290 4.06516 11.30546
# Velocity P-wave (km/s) = 18.04579 5.96987 13.44042
#
# Compressibility (1/GPa) = 0.06347304
#
# Stress axis : x y z
#
# Youngs Moduli (GPa) = 135.24199 26.96023 92.66965
#
# Poissons Ratio (x) = -0.04271 0.12956
# Poissons Ratio (y) = -0.21425 -0.36251
# Poissons Ratio (z) = 0.18907 -0.10547
#
# Static dielectric constant tensor:
#      x y z
#    x 1.895190 0.000000 0.008940 
#    y 0.000000 2.598990 0.000000 
#    z 0.008940 0.000000 1.934170 
# 
# From -- ./inp_files/4550.got.cif
#   From: 2010.05.17/outbox.cif.g08.bks.cpg/sg14_3_cif.got.tgz:4550.got - 2010.06.03 17:49:19.
