data_PCOD9239379
_publ_section_title
;
Structure prediction by ZEFSAII (Michael W. Deem and Ramdas Pophale) SiO2 
 PCOD9239379
Probable space group: P 21/C
;
_chemical_formula_sum "Si O2"
_cell_formula_units_Z 32
_cell_length_a 7.348111
_cell_length_b 16.853759
_cell_length_c 10.143304
_cell_angle_alpha 90.000000
_cell_angle_beta 72.913502
_cell_angle_gamma 90.000000
_cell_volume 1200.735230
_symmetry_space_group_name_H-M "P 21/C"
_symmetry_group_IT_number 14
_symmetry_cell_setting 'monoclinic'
loop_
_space_group_symop_operation_xyz
x,y,z
-x,1/2+y,1/2-z
-x,-y,-z
x,1/2-y,1/2+z
loop_
_atom_site_type_symbol
_atom_site_label
_atom_site_fract_x
_atom_site_fract_y
_atom_site_fract_z
Si Si1 0.708088 0.643013 0.415794
Si Si2 0.076025 0.662840 0.782768
Si Si3 0.863657 0.262280 0.967925
Si Si4 0.422073 0.187670 0.530700
Si Si5 0.095309 0.508407 0.624369
Si Si6 0.508103 0.390651 0.280300
Si Si7 0.513917 0.543409 0.136778
Si Si8 0.310199 0.892922 0.893249
O O1 0.712737 0.736276 0.443698
O O2 0.864953 0.580444 0.334251
O O3 0.641312 0.609023 0.571419
O O4 0.525635 0.637434 0.359555
O O5 0.028153 0.731847 0.685941
O O6 0.046950 0.677764 0.944615
O O7 0.014546 0.576284 0.739138
O O8 0.308926 0.662630 0.727591
O O9 0.649505 0.291684 0.975839
O O10 0.829899 0.180431 0.057988
O O11 0.404427 0.146222 0.675815
O O12 0.383778 0.124292 0.425248
O O13 0.285045 0.551848 0.526407
O O14 0.000000 0.500000 0.500000
O O15 0.590281 0.476400 0.219541
O O16 0.312710 0.564555 0.251550
O O17 0.500000 0.500000 0.000000
#
# Coordination Sequence:
#
# PCOD9239379 Si02
#       8
#     4   4   4   4   4   4   4   4
#     4  11  19  34  55  82 109 140 189 239 284 331
#     4  10  18  33  53  83 106 143 184 230 285 338
#     4   9  17  29  53  79 108 133 182 229 283 333
#     4   9  19  28  49  82 113 141 174 234 294 339
#     4  11  22  35  55  79 113 155 195 231 276 339
#     4  10  17  31  51  82 111 141 180 229 287 340
#     4  10  19  29  47  80 117 142 174 225 293 346
#     4  10  18  32  57  81 106 139 182 236 277 336
#
# _framework density 26.650338000000001
#
# number of rings (size 3 to 8) (size 9 to 14) (size 15 to 20)
#    0.000    2.000    5.000    1.875    3.500    0.000 
#    0.000    0.000    5.500    0.000    0.000   24.500 
#    0.000    0.000    0.000    0.000    0.000    0.000 
#
# Total GULP energy -178673.374354 kJ/mol
# GULP energy per Si atom -5583.542949 kJ/mol
# Density = 2.658968 g / cm^3
# Si number density = 26.650338 Si / 1000 Ang^3
#
#
#
# Elastic Constant Matrix: (Units=GPa)
#
#
# Indices 1 2 3 4 5 6 
#
# 1 61.7320 23.6786 14.5880 0.0000 -2.0924 0.0000
# 2 23.6786 169.7709 54.8859 0.0000 13.2008 0.0000
# 3 14.5880 54.8859 143.5245 0.0000 10.6707 0.0000
# 4 0.0000 0.0000 0.0000 56.3729 0.0000 13.8529
# 5 -2.0924 13.2008 10.6707 0.0000 18.9837 0.0000
# 6 0.0000 0.0000 0.0000 13.8529 0.0000 24.5620
#
#
#
# Elastic Compliance Matrix: (Units=1/GPa)
#
#
# Indices 1 2 3 4 5 6 
#
# 1 0.017542 -0.002396 -0.001184 0.000000 0.004265 0.000000
# 2 -0.002396 0.007261 -0.002232 0.000000 -0.004059 0.000000
# 3 -0.001184 -0.002232 0.008177 0.000000 -0.003175 0.000000
# 4 0.000000 0.000000 0.000000 0.020593 0.000000 -0.011614
# 5 0.004265 -0.004059 -0.003175 0.000000 0.057754 0.000000
# 6 0.000000 0.000000 0.000000 -0.011614 0.000000 0.047264
#
#
# Mechanical properties :
#
#
# Convention : Reuss Voigt Hill
#
# Bulk Modulus (GPa) = 46.81935 62.37024 54.59480
# Shear Modulus (GPa) = 28.19539 38.77539 33.48539
#
# Velocity S-wave (km/s) = 3.25618 3.81854 3.54852
# Velocity P-wave (km/s) = 5.63410 6.54948 6.10896
#
# Compressibility (1/GPa) = 0.02135869
#
# Stress axis : x y z
#
# Youngs Moduli (GPa) = 57.00524 137.71262 122.29028
#
# Poissons Ratio (x) = 0.32989 0.14479
# Poissons Ratio (y) = 0.13656 0.27291
# Poissons Ratio (z) = 0.06749 0.30732
#
# Static dielectric constant tensor:
#      x y z
#    x 2.199100 0.000000 0.034220 
#    y 0.000000 2.268640 0.000000 
#    z 0.034220 0.000000 2.114080 
# 
# From -- ./inp_files/26090.got.cif
#   From: 2010.05.17/outbox.cif.g08.bks.cpg/sg14_14_cif.got.tgz:26090.got - 2010.06.03 17:49:19.
