data_PCOD9239922
_publ_section_title
;
Structure prediction by ZEFSAII (Michael W. Deem and Ramdas Pophale) SiO2 
 PCOD9239922
Probable space group: P 21/C
;
_chemical_formula_sum "Si O2"
_cell_formula_units_Z 24
_cell_length_a 6.838004
_cell_length_b 9.043243
_cell_length_c 18.645452
_cell_angle_alpha 90.000000
_cell_angle_beta 57.851497
_cell_angle_gamma 90.000000
_cell_volume 976.206166
_symmetry_space_group_name_H-M "P 21/C"
_symmetry_group_IT_number 14
_symmetry_cell_setting 'monoclinic'
loop_
_space_group_symop_operation_xyz
x,y,z
-x,1/2+y,1/2-z
-x,-y,-z
x,1/2-y,1/2+z
loop_
_atom_site_type_symbol
_atom_site_label
_atom_site_fract_x
_atom_site_fract_y
_atom_site_fract_z
Si Si1 0.299752 0.377357 0.003878
Si Si2 0.239565 0.490633 0.763474
Si Si3 0.882712 0.026214 0.923756
Si Si4 0.023534 0.858912 0.558573
Si Si5 0.918865 0.772770 0.826153
Si Si6 0.461666 0.107172 0.901846
O O1 0.269215 0.553827 0.021831
O O2 0.280498 0.293112 0.082946
O O3 0.458502 0.282650 0.919172
O O4 0.054055 0.357319 0.008795
O O5 0.167816 0.350969 0.728557
O O6 0.485807 0.551052 0.688169
O O7 0.173839 0.440000 0.855734
O O8 0.079045 0.633449 0.779131
O O9 0.969789 0.190654 0.917605
O O10 0.669851 0.044083 0.909210
O O11 0.031176 0.900732 0.854492
O O12 0.767148 0.963193 0.018870
#
# Coordination Sequence:
#
# PCOD9239922 Si02
#       6
#     4   4   4   4   4   4
#     4   9  20  37  54  77 108 144 179 215 265 329
#     4  10  18  33  54  79 108 138 180 232 267 308
#     4   9  18  34  54  77 104 141 177 214 266 327
#     4  10  20  36  56  77 109 147 181 215 266 328
#     4   9  18  32  54  77 105 142 178 214 267 325
#     4   9  18  33  52  77 106 132 177 230 265 304
#
# _framework density 24.584969999999998
#
# number of rings (size 3 to 8) (size 9 to 14) (size 15 to 20)
#    0.000    2.667    0.000    3.000    0.000    3.333 
#    0.000   13.333    0.000    0.000    0.000    0.000 
#    0.000    0.000    0.000    0.000    0.000    0.000 
#
# Total GULP energy -133821.791097 kJ/mol
# GULP energy per Si atom -5575.907962 kJ/mol
# Density = 2.452901 g / cm^3
# Si number density = 24.584970 Si / 1000 Ang^3
#
#
#
# Elastic Constant Matrix: (Units=GPa)
#
#
# Indices 1 2 3 4 5 6 
#
# 1 14.3856 24.1293 19.2025 0.0000 -2.5512 0.0000
# 2 24.1293 150.2420 38.3290 0.0000 6.5939 0.0000
# 3 19.2025 38.3290 135.9572 0.0000 6.9303 0.0000
# 4 0.0000 0.0000 0.0000 50.8762 0.0000 1.2921
# 5 -2.5512 6.5939 6.9303 0.0000 14.0721 0.0000
# 6 0.0000 0.0000 0.0000 1.2921 0.0000 39.7519
#
#
#
# Elastic Compliance Matrix: (Units=1/GPa)
#
#
# Indices 1 2 3 4 5 6 
#
# 1 0.126745 -0.018304 -0.014719 0.000000 0.038804 0.000000
# 2 -0.018304 0.009897 0.000206 0.000000 -0.008057 0.000000
# 3 -0.014719 0.000206 0.009762 0.000000 -0.007573 0.000000
# 4 0.000000 0.000000 0.000000 0.019672 0.000000 -0.000639
# 5 0.038804 -0.008057 -0.007573 0.000000 0.085603 0.000000
# 6 0.000000 0.000000 0.000000 -0.000639 0.000000 0.025177
#
#
# Mechanical properties :
#
#
# Convention : Reuss Voigt Hill
#
# Bulk Modulus (GPa) = 12.38087 51.54513 31.96300
# Shear Modulus (GPa) = 13.53503 35.53497 24.53500
#
# Velocity S-wave (km/s) = 2.34891 3.80596 3.16249
# Velocity P-wave (km/s) = 3.52184 6.35023 5.13463
#
# Compressibility (1/GPa) = 0.08076976
#
# Stress axis : x y z
#
# Youngs Moduli (GPa) = 7.88987 101.04449 102.43623
#
# Poissons Ratio (x) = 1.84947 1.50778
# Poissons Ratio (y) = 0.14441 -0.02108
# Poissons Ratio (z) = 0.11613 -0.02080
#
# Static dielectric constant tensor:
#      x y z
#    x 2.033490 0.000000 -0.012120 
#    y 0.000000 2.062290 0.000000 
#    z -0.012120 0.000000 1.985850 
# 
# From -- ./inp_files/64486.got.cif
#   From: 2010.05.17/outbox.cif.g08.bks.cpg/sg14_33_cif.got.tgz:64486.got - 2010.06.03 17:49:19.
