data_PCOD9239295
_publ_section_title
;
Structure prediction by ZEFSAII (Michael W. Deem and Ramdas Pophale) SiO2 
 PCOD9239295
Probable space group: P 21/C
;
_chemical_formula_sum "Si O2"
_cell_formula_units_Z 30
_cell_length_a 15.775521
_cell_length_b 5.393299
_cell_length_c 12.875985
_cell_angle_alpha 90.000000
_cell_angle_beta 106.248746
_cell_angle_gamma 90.000000
_cell_volume 1051.756555
_symmetry_space_group_name_H-M "P 21/C"
_symmetry_group_IT_number 14
_symmetry_cell_setting 'monoclinic'
loop_
_space_group_symop_operation_xyz
x,y,z
-x,1/2+y,1/2-z
-x,-y,-z
x,1/2-y,1/2+z
loop_
_atom_site_type_symbol
_atom_site_label
_atom_site_fract_x
_atom_site_fract_y
_atom_site_fract_z
Si Si1 0.173398 0.124549 0.464401
Si Si2 0.500000 0.500000 0.500000
Si Si3 0.099496 0.337622 0.167987
Si Si4 0.907410 0.133722 0.050376
Si Si5 0.653411 0.911476 0.990201
Si Si6 0.475789 0.014890 0.635485
Si Si7 0.154688 0.664387 0.711465
Si Si8 0.347713 0.777387 0.212986
O O1 0.161685 0.116978 0.587965
O O2 0.105691 0.351219 0.420215
O O3 0.270253 0.217547 0.467926
O O4 0.158517 0.841018 0.426673
O O5 0.391383 0.527945 0.425023
O O6 0.480756 0.763931 0.571042
O O7 0.099123 0.598174 0.227691
O O8 0.001958 0.259996 0.099749
O O9 0.139328 0.112030 0.247034
O O10 0.884580 0.127813 0.919717
O O11 0.556431 0.778365 0.928444
O O12 0.681191 0.081879 0.904895
O O13 0.396405 0.969513 0.689145
O O14 0.571477 0.062786 0.714193
O O15 0.257392 0.728646 0.744479
#
# Coordination Sequence:
#
# PCOD9239295 Si02
#       8
#     4   2   4   4   4   4   4   4
#     4  10  17  27  45  68  99 138 180 213 263 331
#     4   8  22  38  52  72 110 140 186 236 278 328
#     4  10  17  29  43  70 108 142 169 210 283 327
#     4  10  17  27  44  70 105 142 168 214 276 328
#     4  10  20  36  49  76 103 146 186 228 284 326
#     4  10  21  36  52  77 102 145 184 242 278 346
#     4  10  19  27  45  72 101 141 171 223 258 340
#     4  12  20  33  58  75 106 142 195 226 291 338
#
# _framework density 28.523709
#
# number of rings (size 3 to 8) (size 9 to 14) (size 15 to 20)
#    0.800    1.067    4.000    5.600    0.000    0.533 
#    0.000    0.000    0.000    0.000    0.000    0.000 
#    0.000    6.400    0.000    0.267    0.000    0.000 
#
# Total GULP energy -167663.408505 kJ/mol
# GULP energy per Si atom -5588.780283 kJ/mol
# Density = 2.845879 g / cm^3
# Si number density = 28.523709 Si / 1000 Ang^3
#
#
#
# Elastic Constant Matrix: (Units=GPa)
#
#
# Indices 1 2 3 4 5 6 
#
# 1 165.4011 39.0180 24.0259 0.0000 36.0397 0.0000
# 2 39.0180 216.7921 44.2816 0.0000 11.5823 0.0000
# 3 24.0259 44.2816 63.4858 0.0000 12.9769 0.0000
# 4 0.0000 0.0000 0.0000 64.2107 0.0000 -0.5556
# 5 36.0397 11.5823 12.9769 0.0000 52.2558 0.0000
# 6 0.0000 0.0000 0.0000 -0.5556 0.0000 57.8225
#
#
#
# Elastic Compliance Matrix: (Units=1/GPa)
#
#
# Indices 1 2 3 4 5 6 
#
# 1 0.007436 -0.000827 -0.001292 0.000000 -0.004625 0.000000
# 2 -0.000827 0.005475 -0.003555 0.000000 0.000240 0.000000
# 3 -0.001292 -0.003555 0.019359 0.000000 -0.003129 0.000000
# 4 0.000000 0.000000 0.000000 0.015575 0.000000 0.000150
# 5 -0.004625 0.000240 -0.003129 0.000000 0.023050 0.000000
# 6 0.000000 0.000000 0.000000 0.000150 0.000000 0.017296
#
#
# Mechanical properties :
#
#
# Convention : Reuss Voigt Hill
#
# Bulk Modulus (GPa) = 47.79482 73.36999 60.58240
# Shear Modulus (GPa) = 46.94243 57.41470 52.17856
#
# Velocity S-wave (km/s) = 4.06117 4.49138 4.28168
# Velocity P-wave (km/s) = 6.22762 7.25775 6.76233
#
# Compressibility (1/GPa) = 0.02092277
#
# Stress axis : x y z
#
# Youngs Moduli (GPa) = 134.47353 182.65203 51.65456
#
# Poissons Ratio (x) = 0.15114 0.06673
# Poissons Ratio (y) = 0.11127 0.18361
# Poissons Ratio (z) = 0.17372 0.64927
#
# Static dielectric constant tensor:
#      x y z
#    x 2.167730 0.000000 -0.104540 
#    y 0.000000 2.390510 0.000000 
#    z -0.104540 0.000000 2.426790 
# 
# From -- ./inp_files/58485.got.cif
#   From: 2010.05.17/outbox.cif.g08.bks.cpg/sg14_30_cif.got.tgz:58485.got - 2010.06.03 17:49:19.
