data_PCOD9239192
_publ_section_title
;
Structure prediction by ZEFSAII (Michael W. Deem and Ramdas Pophale) SiO2 
 PCOD9239192
Probable space group: P 21/C
;
_chemical_formula_sum "Si O2"
_cell_formula_units_Z 24
_cell_length_a 26.127767
_cell_length_b 7.200195
_cell_length_c 5.460526
_cell_angle_alpha 90.000000
_cell_angle_beta 88.659905
_cell_angle_gamma 90.000000
_cell_volume 1026.980580
_symmetry_space_group_name_H-M "P 21/C"
_symmetry_group_IT_number 14
_symmetry_cell_setting 'monoclinic'
loop_
_space_group_symop_operation_xyz
x,y,z
-x,1/2+y,1/2-z
-x,-y,-z
x,1/2-y,1/2+z
loop_
_atom_site_type_symbol
_atom_site_label
_atom_site_fract_x
_atom_site_fract_y
_atom_site_fract_z
Si Si1 0.660371 0.130309 0.009442
Si Si2 0.548158 0.367533 0.462418
Si Si3 0.982267 0.287854 0.491390
Si Si4 0.095900 0.349906 0.962070
Si Si5 0.771307 0.476419 0.401908
Si Si6 0.188336 0.550076 0.101192
O O1 0.662903 0.275189 0.778707
O O2 0.604386 0.039747 0.986298
O O3 0.711452 0.011998 0.970286
O O4 0.500000 0.500000 0.500000
O O5 0.546139 0.223191 0.691529
O O6 0.953914 0.257958 0.242324
O O7 0.033919 0.160772 0.479796
O O8 0.000000 0.500000 0.500000
O O9 0.108797 0.208755 0.184054
O O10 0.129345 0.526962 0.031751
O O11 0.789962 0.259047 0.379560
O O12 0.801725 0.541548 0.637223
O O13 0.782029 0.545697 0.127750
#
# Coordination Sequence:
#
# PCOD9239192 Si02
#       6
#     4   4   4   4   4   4
#     4  10  16  30  51  83 104 146 192 242 279 350
#     4  10  21  35  58  84 115 157 195 251 308 360
#     4  10  21  40  70  91 121 160 201 248 296 353
#     4  10  21  37  58  78 117 157 189 223 290 347
#     4  10  17  30  53  85 109 136 192 238 279 333
#     4  10  18  30  54  79 114 144 181 236 276 334
#
# _framework density 23.369477
#
# number of rings (size 3 to 8) (size 9 to 14) (size 15 to 20)
#    0.000    2.000    3.333    2.000    0.000    0.000 
#    0.000    0.000   88.000    6.000    0.000    0.000 
#    0.000    0.000    0.000    0.000    0.000    0.000 
#
# Total GULP energy -133919.352103 kJ/mol
# GULP energy per Si atom -5579.973004 kJ/mol
# Density = 2.331629 g / cm^3
# Si number density = 23.369477 Si / 1000 Ang^3
#
#
#
# Elastic Constant Matrix: (Units=GPa)
#
#
# Indices 1 2 3 4 5 6 
#
# 1 145.6441 21.6973 8.0941 0.0000 -2.4507 0.0000
# 2 21.6973 47.8389 6.3572 0.0000 -1.3905 0.0000
# 3 8.0941 6.3572 198.1512 0.0000 -0.2205 0.0000
# 4 0.0000 0.0000 0.0000 18.2959 0.0000 2.6013
# 5 -2.4507 -1.3905 -0.2205 0.0000 40.5536 0.0000
# 6 0.0000 0.0000 0.0000 2.6013 0.0000 30.9705
#
#
#
# Elastic Compliance Matrix: (Units=1/GPa)
#
#
# Indices 1 2 3 4 5 6 
#
# 1 0.007376 -0.003310 -0.000195 0.000000 0.000331 0.000000
# 2 -0.003310 0.022499 -0.000586 0.000000 0.000568 0.000000
# 3 -0.000195 -0.000586 0.005073 0.000000 -0.000004 0.000000
# 4 0.000000 0.000000 0.000000 0.055318 0.000000 -0.004646
# 5 0.000331 0.000568 -0.000004 0.000000 0.024698 0.000000
# 6 0.000000 0.000000 0.000000 -0.004646 0.000000 0.032679
#
#
# Mechanical properties :
#
#
# Convention : Reuss Voigt Hill
#
# Bulk Modulus (GPa) = 37.35925 51.54792 44.45359
# Shear Modulus (GPa) = 30.34977 41.66304 36.00640
#
# Velocity S-wave (km/s) = 3.60765 4.22690 3.92949
# Velocity P-wave (km/s) = 5.77707 6.77701 6.29692
#
# Compressibility (1/GPa) = 0.02676713
#
# Stress axis : x y z
#
# Youngs Moduli (GPa) = 135.58394 44.44643 197.10645
#
# Poissons Ratio (x) = 0.14710 0.03838
# Poissons Ratio (y) = 0.44874 0.11550
# Poissons Ratio (z) = 0.02640 0.02605
#
# Static dielectric constant tensor:
#      x y z
#    x 1.875090 0.000000 -0.010000 
#    y 0.000000 1.821410 0.000000 
#    z -0.010000 0.000000 1.954970 
# 
# From -- ./inp_files/4458.got.cif
#   From: 2010.05.17/outbox.cif.g08.bks.cpg/sg14_3_cif.got.tgz:4458.got - 2010.06.03 17:49:19.
