data_PCOD9239310
_publ_section_title
;
Structure prediction by ZEFSAII (Michael W. Deem and Ramdas Pophale) SiO2 
 PCOD9239310
Probable space group: P 21/C
;
_chemical_formula_sum "Si O2"
_cell_formula_units_Z 28
_cell_length_a 10.933774
_cell_length_b 18.323729
_cell_length_c 5.573320
_cell_angle_alpha 90.000000
_cell_angle_beta 77.451019
_cell_angle_gamma 90.000000
_cell_volume 1089.925894
_symmetry_space_group_name_H-M "P 21/C"
_symmetry_group_IT_number 14
_symmetry_cell_setting 'monoclinic'
loop_
_space_group_symop_operation_xyz
x,y,z
-x,1/2+y,1/2-z
-x,-y,-z
x,1/2-y,1/2+z
loop_
_atom_site_type_symbol
_atom_site_label
_atom_site_fract_x
_atom_site_fract_y
_atom_site_fract_z
Si Si1 0.412025 0.431835 0.797191
Si Si2 0.220635 0.747951 0.495198
Si Si3 0.132513 0.918032 0.026239
Si Si4 0.831184 0.711280 0.022068
Si Si5 0.354597 0.472471 0.327735
Si Si6 0.039035 0.891561 0.564526
Si Si7 0.528934 0.784517 0.628196
O O1 0.345193 0.422604 0.568843
O O2 0.498844 0.503955 0.744084
O O3 0.510344 0.366316 0.788617
O O4 0.332261 0.439806 0.074175
O O5 0.292780 0.751298 0.714114
O O6 0.154365 0.669486 0.528168
O O7 0.126754 0.817218 0.537337
O O8 0.258576 0.962085 0.915078
O O9 0.046619 0.926681 0.825426
O O10 0.089200 0.936949 0.314961
O O11 0.868068 0.761238 0.238748
O O12 0.681929 0.707660 0.082024
O O13 0.903458 0.637175 0.049367
O O14 0.504974 0.768034 0.362035
#
# Coordination Sequence:
#
# PCOD9239310 Si02
#       7
#     4   4   4   4   4   4   4
#     4  10  21  40  60  80 107 140 186 228 268 324
#     4   8  14  23  37  60  94 128 157 198 247 292
#     4  10  18  29  47  74 103 136 180 218 257 308
#     4  10  18  30  51  78 107 144 183 216 270 333
#     4  10  21  37  60  80 103 149 189 217 261 331
#     4  10  17  28  47  73 110 142 173 219 266 322
#     4  10  21  37  60  87 110 136 176 232 283 314
#
# _framework density 25.689820000000001
#
# number of rings (size 3 to 8) (size 9 to 14) (size 15 to 20)
#    0.000    2.286    0.000    5.143    0.000    0.000 
#    0.000    4.286    0.000    5.143    0.000    0.000 
#    0.000    0.000    0.000    0.000    0.000    0.000 
#
# Total GULP energy -156367.189186 kJ/mol
# GULP energy per Si atom -5584.542471 kJ/mol
# Density = 2.563135 g / cm^3
# Si number density = 25.689820 Si / 1000 Ang^3
#
#
#
# Elastic Constant Matrix: (Units=GPa)
#
#
# Indices 1 2 3 4 5 6 
#
# 1 82.1485 0.3706 49.9700 0.0000 28.6385 0.0000
# 2 0.3706 53.8347 26.0973 0.0000 17.6639 0.0000
# 3 49.9700 26.0973 213.3157 0.0000 62.5542 0.0000
# 4 0.0000 0.0000 0.0000 39.3382 0.0000 3.8456
# 5 28.6385 17.6639 62.5542 0.0000 39.7135 0.0000
# 6 0.0000 0.0000 0.0000 3.8456 0.0000 32.1286
#
#
#
# Elastic Compliance Matrix: (Units=1/GPa)
#
#
# Indices 1 2 3 4 5 6 
#
# 1 0.017241 0.004613 -0.000661 0.000000 -0.013444 0.000000
# 2 0.004613 0.022996 0.000150 0.000000 -0.013791 0.000000
# 3 -0.000661 0.000150 0.008742 0.000000 -0.013361 0.000000
# 4 0.000000 0.000000 0.000000 0.025722 0.000000 -0.003079
# 5 -0.013444 -0.013791 -0.013361 0.000000 0.062054 0.000000
# 6 0.000000 0.000000 0.000000 -0.003079 0.000000 0.031493
#
#
# Mechanical properties :
#
#
# Convention : Reuss Voigt Hill
#
# Bulk Modulus (GPa) = 17.48747 55.79721 36.64234
# Shear Modulus (GPa) = 27.91664 40.42678 34.17171
#
# Velocity S-wave (km/s) = 3.30006 3.97123 3.65110
# Velocity P-wave (km/s) = 4.61979 6.54173 5.66289
#
# Compressibility (1/GPa) = 0.05718380
#
# Stress axis : x y z
#
# Youngs Moduli (GPa) = 58.00147 43.48611 114.38725
#
# Poissons Ratio (x) = -0.20059 0.07558
# Poissons Ratio (y) = -0.26754 -0.01720
# Poissons Ratio (z) = 0.03832 -0.00654
#
# Static dielectric constant tensor:
#      x y z
#    x 2.097910 0.000000 0.012110 
#    y 0.000000 2.069030 0.000000 
#    z 0.012110 0.000000 2.088130 
# 
# From -- ./inp_files/2897.got.cif
#   From: 2010.05.17/outbox.cif.g08.bks.cpg/sg14_2_cif.got.tgz:2897.got - 2010.06.03 17:49:19.
