data_PCOD9239080
_publ_section_title
;
Structure prediction by ZEFSAII (Michael W. Deem and Ramdas Pophale) SiO2 
 PCOD9239080
Probable space group: P 2/C
;
_chemical_formula_sum "Si O2"
_cell_formula_units_Z 20
_cell_length_a 18.000000
_cell_length_b 9.000000
_cell_length_c 12.000000
_cell_angle_alpha 90.000000
_cell_angle_beta 30.000000
_cell_angle_gamma 90.000000
_cell_volume 972.000000
_symmetry_space_group_name_H-M "P 2/C"
_symmetry_group_IT_number 13
_symmetry_cell_setting 'monoclinic'
loop_
_space_group_symop_operation_xyz
x,y,z
-x,y,1/2-z
-x,-y,-z
x,-y,1/2+z
loop_
_atom_site_type_symbol
_atom_site_label
_atom_site_fract_x
_atom_site_fract_y
_atom_site_fract_z
Si Si1 0.342147 0.382891 0.398603
Si Si2 0.550625 0.826584 0.937608
Si Si3 0.196593 0.136274 0.217198
Si Si4 0.250048 0.304690 0.917688
Si Si5 0.869485 0.212421 0.658281
O O1 0.500000 0.427823 0.250000
O O2 0.382160 0.248003 0.261188
O O3 0.264996 0.525288 0.440059
O O4 0.230586 0.319032 0.636443
O O5 0.669574 0.810919 0.880564
O O6 0.407563 0.734086 0.158011
O O7 0.500000 0.000000 0.000000
O O8 0.043163 0.205867 0.460960
O O9 0.185922 0.957432 0.247930
O O10 0.221141 0.194323 0.059544
O O11 0.140794 0.265418 0.957207
#
# Coordination Sequence:
#
# PCOD9239080 Si02
#       5
#     4   4   4   4   4
#     4  12  25  44  72 101 144 184 232 291 350 413
#     4  12  23  44  74 102 134 185 238 284 341 411
#     4  11  25  46  71 101 137 182 234 288 347 409
#     4  12  25  45  72 100 139 183 231 286 348 416
#     4  11  26  47  69 101 141 181 233 286 345 421
#
# _framework density 20.576132000000001
#
# number of rings (size 3 to 8) (size 9 to 14) (size 15 to 20)
#    0.000    0.400    4.000    4.200    2.800    1.600 
#    3.600    0.000    0.000    0.000    0.000    0.000 
#    0.000    0.000    0.000    0.000    0.000    0.000 
#
# Total GULP energy -111856.624081 kJ/mol
# GULP energy per Si atom -5592.831204 kJ/mol
# Density = 2.052930 g / cm^3
# Si number density = 20.576132 Si / 1000 Ang^3
#
#
#
# Elastic Constant Matrix: (Units=GPa)
#
#
# Indices 1 2 3 4 5 6 
#
# 1 89.4104 42.8341 25.2492 0.0000 5.7964 0.0000
# 2 42.8341 114.0091 5.8855 0.0000 14.1327 0.0000
# 3 25.2492 5.8855 49.8269 0.0000 8.4356 0.0000
# 4 0.0000 0.0000 0.0000 22.1741 0.0000 11.1044
# 5 5.7964 14.1327 8.4356 0.0000 49.6620 0.0000
# 6 0.0000 0.0000 0.0000 11.1044 0.0000 27.5705
#
#
#
# Elastic Compliance Matrix: (Units=1/GPa)
#
#
# Indices 1 2 3 4 5 6 
#
# 1 0.016027 -0.005760 -0.007621 0.000000 0.001063 0.000000
# 2 -0.005760 0.011183 0.002083 0.000000 -0.002864 0.000000
# 3 -0.007621 0.002083 0.024335 0.000000 -0.003837 0.000000
# 4 0.000000 0.000000 0.000000 0.056492 0.000000 -0.022753
# 5 0.001063 -0.002864 -0.003837 0.000000 0.021479 0.000000
# 6 0.000000 0.000000 0.000000 -0.022753 0.000000 0.045435
#
#
# Mechanical properties :
#
#
# Convention : Reuss Voigt Hill
#
# Bulk Modulus (GPa) = 34.54451 44.57599 39.56025
# Shear Modulus (GPa) = 24.13174 31.83316 27.98245
#
# Velocity S-wave (km/s) = 3.42834 3.93758 3.69175
# Velocity P-wave (km/s) = 5.70056 6.51027 6.11882
#
# Compressibility (1/GPa) = 0.02894816
#
# Stress axis : x y z
#
# Youngs Moduli (GPa) = 62.39458 89.42362 41.09314
#
# Poissons Ratio (x) = 0.51506 0.31318
# Poissons Ratio (y) = 0.35938 -0.08558
# Poissons Ratio (z) = 0.47552 -0.18624
#
# Static dielectric constant tensor:
#      x y z
#    x 1.805990 0.000000 -0.035190 
#    y 0.000000 1.734440 0.000000 
#    z -0.035190 0.000000 1.712520 
# 
# From -- ./inp_files/32419.got.cif
#   From: 2010.05.17/outbox.ucp.g08.bks.cvg/sg13_17_cif.got.tgz:32419.got - 2010.06.11 12:23:55.
