data_PCOD9239568
_publ_section_title
;
Structure prediction by ZEFSAII (Michael W. Deem and Ramdas Pophale) SiO2 
 PCOD9239568
Probable space group: P 21/C
;
_chemical_formula_sum "Si O2"
_cell_formula_units_Z 24
_cell_length_a 7.734303
_cell_length_b 17.180885
_cell_length_c 9.764203
_cell_angle_alpha 90.000000
_cell_angle_beta 114.179004
_cell_angle_gamma 90.000000
_cell_volume 1183.660173
_symmetry_space_group_name_H-M "P 21/C"
_symmetry_group_IT_number 14
_symmetry_cell_setting 'monoclinic'
loop_
_space_group_symop_operation_xyz
x,y,z
-x,1/2+y,1/2-z
-x,-y,-z
x,1/2-y,1/2+z
loop_
_atom_site_type_symbol
_atom_site_label
_atom_site_fract_x
_atom_site_fract_y
_atom_site_fract_z
Si Si1 0.534090 0.342424 0.842816
Si Si2 0.357212 0.935830 0.888666
Si Si3 0.293063 0.461319 0.902755
Si Si4 0.219045 0.425907 0.178687
Si Si5 0.845231 0.379863 0.173009
Si Si6 0.612904 0.163807 0.847021
O O1 0.556556 0.379464 0.699672
O O2 0.346240 0.382618 0.843076
O O3 0.535529 0.249856 0.848464
O O4 0.712000 0.366429 0.997295
O O5 0.218945 0.992863 0.761054
O O6 0.295932 0.879635 0.992511
O O7 0.500000 0.000000 0.000000
O O8 0.186595 0.530235 0.790655
O O9 0.500000 0.500000 0.000000
O O10 0.186671 0.443762 0.009156
O O11 0.428419 0.387901 0.249210
O O12 0.060973 0.371748 0.196242
O O13 0.760826 0.331009 0.270209
#
# Coordination Sequence:
#
# PCOD9239568 Si02
#       6
#     4   4   4   4   4   4
#     4  11  21  40  65  87 124 169 201 256 317 368
#     4  10  21  37  61  90 120 160 206 254 303 361
#     4  10  17  36  64  88 110 160 211 246 290 363
#     4  11  21  40  65  92 119 162 214 254 302 369
#     4  11  22  40  66  90 119 161 218 253 296 377
#     4  11  23  41  60  89 133 161 198 257 322 372
#
# _framework density 20.27609
#
# number of rings (size 3 to 8) (size 9 to 14) (size 15 to 20)
#    0.000    1.333    6.667    2.500    0.000    0.667 
#    3.000    1.667    0.000    0.000    0.000    0.000 
#    0.000    0.000    0.000    0.000    0.000    0.000 
#
# Total GULP energy -133782.479072 kJ/mol
# GULP energy per Si atom -5574.269961 kJ/mol
# Density = 2.022994 g / cm^3
# Si number density = 20.276090 Si / 1000 Ang^3
#
#
#
# Elastic Constant Matrix: (Units=GPa)
#
#
# Indices 1 2 3 4 5 6 
#
# 1 60.5243 -8.8268 10.4723 0.0000 -18.8756 0.0000
# 2 -8.8268 94.5814 12.5503 0.0000 -6.5401 0.0000
# 3 10.4723 12.5503 88.7670 0.0000 -20.7462 0.0000
# 4 0.0000 0.0000 0.0000 17.0172 0.0000 -8.3730
# 5 -18.8756 -6.5401 -20.7462 0.0000 18.0549 0.0000
# 6 0.0000 0.0000 0.0000 -8.3730 0.0000 17.3514
#
#
#
# Elastic Compliance Matrix: (Units=1/GPa)
#
#
# Indices 1 2 3 4 5 6 
#
# 1 0.027420 0.004418 0.004395 0.000000 0.035317 0.000000
# 2 0.004418 0.011602 -0.000137 0.000000 0.008665 0.000000
# 3 0.004395 -0.000137 0.016171 0.000000 0.023127 0.000000
# 4 0.000000 0.000000 0.000000 0.077061 0.000000 0.037186
# 5 0.035317 0.008665 0.023127 0.000000 0.122021 0.000000
# 6 0.000000 0.000000 0.000000 0.037186 0.000000 0.075576
#
#
# Mechanical properties :
#
#
# Convention : Reuss Voigt Hill
#
# Bulk Modulus (GPa) = 13.78434 30.25160 22.01797
# Shear Modulus (GPa) = 14.85078 25.79650 20.32364
#
# Velocity S-wave (km/s) = 2.70928 3.57075 3.16942
# Velocity P-wave (km/s) = 4.07431 5.65266 4.92710
#
# Compressibility (1/GPa) = 0.07254607
#
# Stress axis : x y z
#
# Youngs Moduli (GPa) = 36.46918 86.18855 61.83757
#
# Poissons Ratio (x) = -0.38078 -0.27175
# Poissons Ratio (y) = -0.16112 0.00844
# Poissons Ratio (z) = -0.16026 0.01177
#
# Static dielectric constant tensor:
#      x y z
#    x 1.739230 0.000000 0.014710 
#    y 0.000000 1.750000 0.000000 
#    z 0.014710 0.000000 1.772180 
# 
# From -- ./inp_files/9117.got.cif
#   From: 2010.05.17/outbox.cif.g08.bks.cpg/sg14_5_cif.got.tgz:9117.got - 2010.06.03 17:49:19.
