data_PCOD9239842
_publ_section_title
;
Structure prediction by ZEFSAII (Michael W. Deem and Ramdas Pophale) SiO2 
 PCOD9239842
Probable space group: P 21/C
;
_chemical_formula_sum "Si O2"
_cell_formula_units_Z 32
_cell_length_a 6.793967
_cell_length_b 24.141817
_cell_length_c 11.411455
_cell_angle_alpha 90.000000
_cell_angle_beta 107.621415
_cell_angle_gamma 90.000000
_cell_volume 1783.867795
_symmetry_space_group_name_H-M "P 21/C"
_symmetry_group_IT_number 14
_symmetry_cell_setting 'monoclinic'
loop_
_space_group_symop_operation_xyz
x,y,z
-x,1/2+y,1/2-z
-x,-y,-z
x,1/2-y,1/2+z
loop_
_atom_site_type_symbol
_atom_site_label
_atom_site_fract_x
_atom_site_fract_y
_atom_site_fract_z
Si Si1 0.576533 0.273440 0.691791
Si Si2 0.578559 0.144931 0.756009
Si Si3 0.626362 0.934740 0.604127
Si Si4 0.237636 0.555449 0.886575
Si Si5 0.198537 0.331455 0.735052
Si Si6 0.040086 0.707309 0.084510
Si Si7 0.846040 0.608448 0.907621
Si Si8 0.182796 0.683315 0.483316
O O1 0.589056 0.207368 0.707823
O O2 0.351695 0.294410 0.686021
O O3 0.737889 0.300707 0.813163
O O4 0.653382 0.290107 0.577291
O O5 0.695740 0.102962 0.691600
O O6 0.338428 0.127533 0.710626
O O7 0.692701 0.147221 0.900898
O O8 0.385296 0.938412 0.527479
O O9 0.683576 0.886539 0.703556
O O10 0.738938 0.918087 0.502557
O O11 0.709664 0.994967 0.653712
O O12 0.002540 0.565361 0.878810
O O13 0.124220 0.298473 0.838670
O O14 0.992723 0.345854 0.625533
O O15 0.064365 0.767042 0.029653
O O16 0.976385 0.661367 0.977917
#
# Coordination Sequence:
#
# PCOD9239842 Si02
#       8
#     4   4   4   4   4   4   4   4
#     4  10  20  34  53  76 105 140 173 209 257 312
#     4  10  22  33  49  79 107 135 174 209 256 315
#     4   9  20  35  55  80 101 131 176 219 265 314
#     4  10  19  35  55  77 106 133 168 223 268 305
#     4  10  20  35  55  77 103 139 176 215 262 312
#     4   9  19  33  51  78 106 131 169 215 259 308
#     4  10  18  32  55  79 102 133 169 213 265 311
#     4  10  21  35  50  75 109 141 174 213 257 313
#
# _framework density 17.938548000000001
#
# number of rings (size 3 to 8) (size 9 to 14) (size 15 to 20)
#    0.000    2.250    0.000    2.625    0.000   10.000 
#    0.000    0.625    0.000    1.500    0.000    0.000 
#    0.000    0.000    0.000    0.000    0.000    0.000 
#
# Total GULP energy -178544.543625 kJ/mol
# GULP energy per Si atom -5579.516988 kJ/mol
# Density = 1.789772 g / cm^3
# Si number density = 17.938548 Si / 1000 Ang^3
#
#
#
# Elastic Constant Matrix: (Units=GPa)
#
#
# Indices 1 2 3 4 5 6 
#
# 1 59.0168 15.8110 10.3145 0.0000 4.4700 0.0000
# 2 15.8110 66.3317 24.5070 0.0000 -4.9489 0.0000
# 3 10.3145 24.5070 64.2355 0.0000 -0.6662 0.0000
# 4 0.0000 0.0000 0.0000 17.5472 0.0000 5.0846
# 5 4.4700 -4.9489 -0.6662 0.0000 8.7031 0.0000
# 6 0.0000 0.0000 0.0000 5.0846 0.0000 22.0280
#
#
#
# Elastic Compliance Matrix: (Units=1/GPa)
#
#
# Indices 1 2 3 4 5 6 
#
# 1 0.019542 -0.005149 -0.001309 0.000000 -0.013065 0.000000
# 2 -0.005149 0.019723 -0.006559 0.000000 0.013358 0.000000
# 3 -0.001309 -0.006559 0.018263 0.000000 -0.001660 0.000000
# 4 0.000000 0.000000 0.000000 0.061074 0.000000 -0.014097
# 5 -0.013065 0.013358 -0.001660 0.000000 0.129080 0.000000
# 6 0.000000 0.000000 0.000000 -0.014097 0.000000 0.048651
#
#
# Mechanical properties :
#
#
# Convention : Reuss Voigt Hill
#
# Bulk Modulus (GPa) = 31.75267 32.31655 32.03461
# Shear Modulus (GPa) = 15.02103 18.91910 16.97006
#
# Velocity S-wave (km/s) = 2.89686 3.25108 3.07907
# Velocity P-wave (km/s) = 5.37850 5.66983 5.52608
#
# Compressibility (1/GPa) = 0.03149342
#
# Stress axis : x y z
#
# Youngs Moduli (GPa) = 51.17133 50.70182 54.75493
#
# Poissons Ratio (x) = 0.26108 0.07167
# Poissons Ratio (y) = 0.26350 0.35916
# Poissons Ratio (z) = 0.06698 0.33257
#
# Static dielectric constant tensor:
#      x y z
#    x 1.618950 0.000000 0.015710 
#    y 0.000000 1.595670 0.000000 
#    z 0.015710 0.000000 1.617500 
# 
# From -- ./inp_files/22118.got.cif
#   From: 2010.05.17/outbox.cif.g08.bks.cpg/sg14_12_cif.got.tgz:22118.got - 2010.06.03 17:49:19.
