data_PCOD9239434
_publ_section_title
;
Structure prediction by ZEFSAII (Michael W. Deem and Ramdas Pophale) SiO2 
 PCOD9239434
Probable space group: P 21/C
;
_chemical_formula_sum "Si O2"
_cell_formula_units_Z 32
_cell_length_a 21.334513
_cell_length_b 7.104869
_cell_length_c 22.641654
_cell_angle_alpha 90.000000
_cell_angle_beta 155.444771
_cell_angle_gamma 90.000000
_cell_volume 1426.235826
_symmetry_space_group_name_H-M "P 21/C"
_symmetry_group_IT_number 14
_symmetry_cell_setting 'monoclinic'
loop_
_space_group_symop_operation_xyz
x,y,z
-x,1/2+y,1/2-z
-x,-y,-z
x,1/2-y,1/2+z
loop_
_atom_site_type_symbol
_atom_site_label
_atom_site_fract_x
_atom_site_fract_y
_atom_site_fract_z
Si Si1 0.621624 0.092501 0.735398
Si Si2 0.188485 0.031016 0.479933
Si Si3 0.850658 0.077183 0.172698
Si Si4 0.580581 0.535023 0.729405
Si Si5 0.733628 0.512314 0.079583
Si Si6 0.287428 0.903208 0.059060
Si Si7 0.679962 0.037017 0.657529
Si Si8 0.593625 0.089756 0.028532
O O1 0.608298 0.321679 0.729612
O O2 0.698058 0.030355 0.861858
O O3 0.712438 0.030236 0.754697
O O4 0.447976 0.023530 0.583535
O O5 0.278724 0.112257 0.612863
O O6 0.211166 0.112433 0.433096
O O7 0.260342 0.821343 0.539424
O O8 0.010889 0.033180 0.336902
O O9 0.803928 0.299954 0.134425
O O10 0.842585 0.025790 0.096390
O O11 0.716527 0.979307 0.094797
O O12 0.441908 0.548483 0.656992
O O13 0.528107 0.645925 0.625978
O O14 0.759222 0.569703 0.170494
O O15 0.687864 0.251464 0.642783
O O16 0.500000 0.000000 0.500000
O O17 0.500000 0.000000 0.000000
#
# Coordination Sequence:
#
# PCOD9239434 Si02
#       8
#     4   4   4   4   4   4   4   4
#     4  10  17  32  60  92 115 150 203 263 301 354
#     4  10  19  37  56  84 122 159 198 247 316 365
#     4   9  20  36  56  81 120 158 192 245 308 366
#     4  10  19  33  60  92 117 154 205 259 310 354
#     4   9  18  35  56  80 116 153 202 242 302 360
#     4   9  19  35  56  86 117 151 202 256 299 357
#     4   9  18  32  56  85 114 155 193 254 307 347
#     4  10  18  35  58  88 114 147 207 252 297 365
#
# _framework density 22.436682999999999
#
# number of rings (size 3 to 8) (size 9 to 14) (size 15 to 20)
#    0.000    2.500    2.500    0.750    0.000    0.000 
#    9.000    0.625    0.000    0.750    0.000    0.000 
#    0.000    0.000    0.000    0.000    0.000    0.000 
#
# Total GULP energy -178164.654365 kJ/mol
# GULP energy per Si atom -5567.645449 kJ/mol
# Density = 2.238562 g / cm^3
# Si number density = 22.436683 Si / 1000 Ang^3
#
#
#
# Elastic Constant Matrix: (Units=GPa)
#
#
# Indices 1 2 3 4 5 6 
#
# 1 170.9803 4.7966 61.9346 0.0000 -48.8738 0.0000
# 2 4.7966 78.3278 -5.7262 0.0000 -6.7091 0.0000
# 3 61.9346 -5.7262 128.6422 0.0000 -24.8610 0.0000
# 4 0.0000 0.0000 0.0000 2.1104 0.0000 0.4339
# 5 -48.8738 -6.7091 -24.8610 0.0000 37.3224 0.0000
# 6 0.0000 0.0000 0.0000 0.4339 0.0000 11.6095
#
#
#
# Elastic Compliance Matrix: (Units=1/GPa)
#
#
# Indices 1 2 3 4 5 6 
#
# 1 0.010075 0.000174 -0.002625 0.000000 0.011476 0.000000
# 2 0.000174 0.013127 0.001148 0.000000 0.003353 0.000000
# 3 -0.002625 0.001148 0.009715 0.000000 0.003240 0.000000
# 4 0.000000 0.000000 0.000000 0.477523 0.000000 -0.017846
# 5 0.011476 0.003353 0.003240 0.000000 0.044582 0.000000
# 6 0.000000 0.000000 0.000000 -0.017846 0.000000 0.086803
#
#
# Mechanical properties :
#
#
# Convention : Reuss Voigt Hill
#
# Bulk Modulus (GPa) = 32.99034 55.55115 44.27075
# Shear Modulus (GPa) = 7.63902 31.33814 19.48858
#
# Velocity S-wave (km/s) = 1.84719 3.74135 2.95041
# Velocity P-wave (km/s) = 4.39148 6.59366 5.60185
#
# Compressibility (1/GPa) = 0.03031190
#
# Stress axis : x y z
#
# Youngs Moduli (GPa) = 99.25623 76.17698 102.93803
#
# Poissons Ratio (x) = -0.01326 0.27021
# Poissons Ratio (y) = -0.01728 -0.11822
# Poissons Ratio (z) = 0.26055 -0.08749
#
# Static dielectric constant tensor:
#      x y z
#    x 1.897660 0.000000 -0.063720 
#    y 0.000000 1.982300 0.000000 
#    z -0.063720 0.000000 1.813280 
# 
# From -- ./inp_files/74927.got.cif
#   From: 2010.05.17/outbox.cif.g08.bks.cpg/sg14_38_cif.got.tgz:74927.got - 2010.06.03 17:49:19.
