data_PCOD9239461
_publ_section_title
;
Structure prediction by ZEFSAII (Michael W. Deem and Ramdas Pophale) SiO2 
 PCOD9239461
Probable space group: P 21/C
;
_chemical_formula_sum "Si O2"
_cell_formula_units_Z 32
_cell_length_a 12.252415
_cell_length_b 12.584006
_cell_length_c 16.017289
_cell_angle_alpha 90.000000
_cell_angle_beta 36.062508
_cell_angle_gamma 90.000000
_cell_volume 1453.783374
_symmetry_space_group_name_H-M "P 21/C"
_symmetry_group_IT_number 14
_symmetry_cell_setting 'monoclinic'
loop_
_space_group_symop_operation_xyz
x,y,z
-x,1/2+y,1/2-z
-x,-y,-z
x,1/2-y,1/2+z
loop_
_atom_site_type_symbol
_atom_site_label
_atom_site_fract_x
_atom_site_fract_y
_atom_site_fract_z
Si Si1 0.071175 0.444001 0.851847
Si Si2 0.406906 0.009067 0.738984
Si Si3 0.775964 0.489985 0.822027
Si Si4 0.926386 0.844674 0.353432
Si Si5 0.838945 0.298751 0.896399
Si Si6 0.915616 0.859579 0.969143
Si Si7 0.262302 0.783553 0.861603
Si Si8 0.286833 0.566957 0.825319
O O1 0.994965 0.555217 0.864110
O O2 0.033663 0.354993 0.805929
O O3 0.267770 0.472029 0.771186
O O4 0.923933 0.411568 0.013849
O O5 0.598741 0.039857 0.663382
O O6 0.364615 0.010496 0.666734
O O7 0.383755 0.886835 0.777807
O O8 0.251690 0.081061 0.881371
O O9 0.803128 0.597135 0.858932
O O10 0.735109 0.390807 0.909134
O O11 0.966985 0.445637 0.659011
O O12 0.856138 0.744562 0.452008
O O13 0.106345 0.795733 0.197642
O O14 0.747714 0.251323 0.035642
O O15 0.064085 0.817896 0.945653
O O16 0.344022 0.683339 0.759664
#
# Coordination Sequence:
#
# PCOD9239461 Si02
#       8
#     4   4   4   4   4   4   4   4
#     4   9  19  37  58  80 109 150 196 229 273 348
#     4  11  22  36  60  89 118 144 194 246 283 329
#     4   9  19  35  55  87 115 151 189 236 288 350
#     4  10  17  33  59  85 111 148 192 230 282 346
#     4   9  18  32  61  82 111 152 191 232 287 344
#     4  10  19  33  61  87 112 151 194 238 282 338
#     4  10  19  38  57  86 114 151 195 235 285 341
#     4  10  21  38  58  83 114 150 193 237 283 334
#
# _framework density 22.011531999999999
#
# number of rings (size 3 to 8) (size 9 to 14) (size 15 to 20)
#    0.000    2.250    1.250    3.000    0.000    1.000 
#    2.250    5.625    5.500    7.500    0.000    0.000 
#    0.000    0.000    0.000    0.000    0.000    0.000 
#
# Total GULP energy -178343.682924 kJ/mol
# GULP energy per Si atom -5573.240091 kJ/mol
# Density = 2.196143 g / cm^3
# Si number density = 22.011532 Si / 1000 Ang^3
#
#
#
# Elastic Constant Matrix: (Units=GPa)
#
#
# Indices 1 2 3 4 5 6 
#
# 1 114.8780 29.2985 23.5526 0.0000 6.8890 0.0000
# 2 29.2985 107.0230 11.7486 0.0000 0.8169 0.0000
# 3 23.5526 11.7486 25.3434 0.0000 7.6941 0.0000
# 4 0.0000 0.0000 0.0000 18.1913 0.0000 12.1017
# 5 6.8890 0.8169 7.6941 0.0000 23.2118 0.0000
# 6 0.0000 0.0000 0.0000 12.1017 0.0000 34.9607
#
#
#
# Elastic Compliance Matrix: (Units=1/GPa)
#
#
# Indices 1 2 3 4 5 6 
#
# 1 0.011153 -0.002022 -0.009389 0.000000 -0.000127 0.000000
# 2 -0.002022 0.010246 -0.003273 0.000000 0.001324 0.000000
# 3 -0.009389 -0.003273 0.054283 0.000000 -0.015092 0.000000
# 4 0.000000 0.000000 0.000000 0.071417 0.000000 -0.024721
# 5 -0.000127 0.001324 -0.015092 0.000000 0.048075 0.000000
# 6 0.000000 0.000000 0.000000 -0.024721 0.000000 0.037161
#
#
# Mechanical properties :
#
#
# Convention : Reuss Voigt Hill
#
# Bulk Modulus (GPa) = 21.59172 41.82708 31.70940
# Shear Modulus (GPa) = 18.04125 27.44907 22.74516
#
# Velocity S-wave (km/s) = 2.86602 3.53516 3.21803
# Velocity P-wave (km/s) = 4.55880 5.97551 5.31458
#
# Compressibility (1/GPa) = 0.04631405
#
# Stress axis : x y z
#
# Youngs Moduli (GPa) = 89.66099 97.59497 18.42187
#
# Poissons Ratio (x) = 0.19729 0.17297
# Poissons Ratio (y) = 0.18125 0.06030
# Poissons Ratio (z) = 0.84187 0.31946
#
# Static dielectric constant tensor:
#      x y z
#    x 1.893580 0.000000 0.009210 
#    y 0.000000 1.869220 0.000000 
#    z 0.009210 0.000000 1.838330 
# 
# From -- ./inp_files/57713.got.cif
#   From: 2010.05.17/outbox.cif.g08.bks.cpg/sg14_29_cif.got.tgz:57713.got - 2010.06.03 17:49:19.
