data_PCOD9239967
_publ_section_title
;
Structure prediction by ZEFSAII (Michael W. Deem and Ramdas Pophale) SiO2 
 PCOD9239967
Probable space group: P 21/C
;
_chemical_formula_sum "Si O2"
_cell_formula_units_Z 28
_cell_length_a 19.956664
_cell_length_b 5.411587
_cell_length_c 13.246367
_cell_angle_alpha 90.000000
_cell_angle_beta 133.538282
_cell_angle_gamma 90.000000
_cell_volume 1037.041253
_symmetry_space_group_name_H-M "P 21/C"
_symmetry_group_IT_number 14
_symmetry_cell_setting 'monoclinic'
loop_
_space_group_symop_operation_xyz
x,y,z
-x,1/2+y,1/2-z
-x,-y,-z
x,1/2-y,1/2+z
loop_
_atom_site_type_symbol
_atom_site_label
_atom_site_fract_x
_atom_site_fract_y
_atom_site_fract_z
Si Si1 0.375371 0.158657 0.209630
Si Si2 0.180272 0.892306 0.324933
Si Si3 0.617872 0.473356 0.057327
Si Si4 0.137783 0.889372 0.520681
Si Si5 0.178208 0.113132 0.034716
Si Si6 0.921065 0.609307 0.770744
Si Si7 0.522668 0.522639 0.379800
O O1 0.372557 0.023658 0.314019
O O2 0.439709 0.025532 0.195331
O O3 0.415106 0.437785 0.263708
O O4 0.270567 0.132528 0.063890
O O5 0.173401 0.880577 0.440974
O O6 0.134647 0.629408 0.248127
O O7 0.284599 0.942208 0.398053
O O8 0.117306 0.128140 0.234338
O O9 0.565709 0.214638 0.982309
O O10 0.562624 0.720289 0.963865
O O11 0.171422 0.628585 0.594776
O O12 0.028012 0.909425 0.408330
O O13 0.179472 0.142417 0.602653
O O14 0.093339 0.110306 0.867184
#
# Coordination Sequence:
#
# PCOD9239967 Si02
#       7
#     4   4   4   4   4   4   4
#     4  12  28  48  76 108 144 188 245 308 365 440
#     4  10  18  33  58  91 127 173 227 278 336 415
#     4  12  27  48  74 106 148 191 240 300 371 440
#     4  10  18  33  61  94 132 184 230 280 352 422
#     4  10  20  34  58  93 129 171 228 285 344 414
#     4  10  18  33  61  94 134 183 231 280 351 423
#     4  12  27  49  74 106 144 191 241 298 374 442
#
# _framework density 26.999891000000002
#
# number of rings (size 3 to 8) (size 9 to 14) (size 15 to 20)
#    0.000    1.143    0.000   10.286    0.000    5.714 
#    0.000    0.000    0.000    9.429    0.000    0.000 
#    0.000    0.000    0.000    0.000    0.000    0.000 
#
# Total GULP energy -156994.929941 kJ/mol
# GULP energy per Si atom -5606.961784 kJ/mol
# Density = 2.693844 g / cm^3
# Si number density = 26.999891 Si / 1000 Ang^3
#
#
#
# Elastic Constant Matrix: (Units=GPa)
#
#
# Indices 1 2 3 4 5 6 
#
# 1 110.9372 44.7063 28.4698 0.0000 -0.2513 0.0000
# 2 44.7063 251.1248 34.1115 0.0000 30.1935 0.0000
# 3 28.4698 34.1115 73.5709 0.0000 28.6191 0.0000
# 4 0.0000 0.0000 0.0000 39.8862 0.0000 1.5458
# 5 -0.2513 30.1935 28.6191 0.0000 50.3968 0.0000
# 6 0.0000 0.0000 0.0000 1.5458 0.0000 49.4376
#
#
#
# Elastic Compliance Matrix: (Units=1/GPa)
#
#
# Indices 1 2 3 4 5 6 
#
# 1 0.011008 -0.001757 -0.004975 0.000000 0.003932 0.000000
# 2 -0.001757 0.004666 -0.000504 0.000000 -0.002518 0.000000
# 3 -0.004975 -0.000504 0.020079 0.000000 -0.011125 0.000000
# 4 0.000000 0.000000 0.000000 0.025102 0.000000 -0.000785
# 5 0.003932 -0.002518 -0.011125 0.000000 0.027688 0.000000
# 6 0.000000 0.000000 0.000000 -0.000785 0.000000 0.020252
#
#
# Mechanical properties :
#
#
# Convention : Reuss Voigt Hill
#
# Bulk Modulus (GPa) = 46.99002 72.24534 59.61768
# Shear Modulus (GPa) = 38.35543 49.83382 44.09463
#
# Velocity S-wave (km/s) = 3.77314 4.30083 4.04560
# Velocity P-wave (km/s) = 6.03521 7.17486 6.62956
#
# Compressibility (1/GPa) = 0.02128111
#
# Stress axis : x y z
#
# Youngs Moduli (GPa) = 90.84612 214.31457 49.80374
#
# Poissons Ratio (x) = 0.37648 0.24777
# Poissons Ratio (y) = 0.15959 0.02511
# Poissons Ratio (z) = 0.45195 0.10805
#
# Static dielectric constant tensor:
#      x y z
#    x 2.123290 0.000000 -0.064020 
#    y 0.000000 2.189700 0.000000 
#    z -0.064020 0.000000 2.131080 
# 
# From -- ./inp_files/70342.got.cif
#   From: 2010.05.17/outbox.cif.g08.bks.cpg/sg14_36_cif.got.tgz:70342.got - 2010.06.03 17:49:19.
