data_PCOD9239742
_publ_section_title
;
Structure prediction by ZEFSAII (Michael W. Deem and Ramdas Pophale) SiO2 
 PCOD9239742
Probable space group: P 21/C
;
_chemical_formula_sum "Si O2"
_cell_formula_units_Z 24
_cell_length_a 9.354946
_cell_length_b 7.990735
_cell_length_c 19.234026
_cell_angle_alpha 90.000000
_cell_angle_beta 136.689742
_cell_angle_gamma 90.000000
_cell_volume 986.256347
_symmetry_space_group_name_H-M "P 21/C"
_symmetry_group_IT_number 14
_symmetry_cell_setting 'monoclinic'
loop_
_space_group_symop_operation_xyz
x,y,z
-x,1/2+y,1/2-z
-x,-y,-z
x,1/2-y,1/2+z
loop_
_atom_site_type_symbol
_atom_site_label
_atom_site_fract_x
_atom_site_fract_y
_atom_site_fract_z
Si Si1 0.852512 0.643432 0.827327
Si Si2 0.664583 0.454993 0.499256
Si Si3 0.104459 0.445636 0.737736
Si Si4 0.203338 0.229576 0.532801
Si Si5 0.888853 0.305733 0.796380
Si Si6 0.657799 0.421935 0.998372
O O1 0.752101 0.469653 0.765705
O O2 0.770455 0.804325 0.758358
O O3 0.097264 0.609717 0.895262
O O4 0.850026 0.694052 0.906756
O O5 0.500000 0.500000 0.500000
O O6 0.885148 0.460245 0.618711
O O7 0.687073 0.595667 0.447906
O O8 0.607414 0.266544 0.457648
O O9 0.048090 0.362306 0.791469
O O10 0.198309 0.631413 0.764602
O O11 0.002336 0.228070 0.410304
O O12 0.331181 0.066941 0.554416
O O13 0.500000 0.500000 0.000000
#
# Coordination Sequence:
#
# PCOD9239742 Si02
#       6
#     4   4   4   4   4   4
#     4  10  21  35  54  88 110 137 190 241 281 325
#     4  10  20  34  53  84 111 145 192 229 273 340
#     4  10  20  32  56  82 111 145 184 230 282 340
#     4  10  21  35  56  85 111 138 186 244 282 321
#     4  10  18  33  52  82 111 141 179 230 284 333
#     4  10  18  31  53  79 110 146 178 221 277 335
#
# _framework density 24.334443
#
# number of rings (size 3 to 8) (size 9 to 14) (size 15 to 20)
#    0.000    2.000    3.333    2.000    0.000    7.333 
#    0.000    0.000    0.000    0.000   34.667    0.000 
#    0.000    0.000    0.000    0.000    0.000    0.000 
#
# Total GULP energy -133864.916573 kJ/mol
# GULP energy per Si atom -5577.704857 kJ/mol
# Density = 2.427906 g / cm^3
# Si number density = 24.334443 Si / 1000 Ang^3
#
#
#
# Elastic Constant Matrix: (Units=GPa)
#
#
# Indices 1 2 3 4 5 6 
#
# 1 42.8115 27.1878 5.1944 0.0000 -6.5770 0.0000
# 2 27.1878 222.4419 -2.4575 0.0000 -12.9027 0.0000
# 3 5.1944 -2.4575 33.9825 0.0000 -5.8291 0.0000
# 4 0.0000 0.0000 0.0000 16.4225 0.0000 -19.0641
# 5 -6.5770 -12.9027 -5.8291 0.0000 52.8916 0.0000
# 6 0.0000 0.0000 0.0000 -19.0641 0.0000 23.6983
#
#
#
# Elastic Compliance Matrix: (Units=1/GPa)
#
#
# Indices 1 2 3 4 5 6 
#
# 1 0.026123 -0.003116 -0.003865 0.000000 0.002062 0.000000
# 2 -0.003116 0.004941 0.000993 0.000000 0.000927 0.000000
# 3 -0.003865 0.000993 0.030628 0.000000 0.003137 0.000000
# 4 0.000000 0.000000 0.000000 0.920446 0.000000 0.740451
# 5 0.002062 0.000927 0.003137 0.000000 0.019735 0.000000
# 6 0.000000 0.000000 0.000000 0.740451 0.000000 0.637851
#
#
# Mechanical properties :
#
#
# Convention : Reuss Voigt Hill
#
# Bulk Modulus (GPa) = 20.11436 39.89839 30.00637
# Shear Modulus (GPa) = 2.99711 36.55654 19.77683
#
# Velocity S-wave (km/s) = 1.11099 3.88010 2.85390
# Velocity P-wave (km/s) = 3.15111 6.04194 4.81843
#
# Compressibility (1/GPa) = 0.04971573
#
# Stress axis : x y z
#
# Youngs Moduli (GPa) = 38.28085 202.38196 32.65035
#
# Poissons Ratio (x) = 0.63060 0.12618
# Poissons Ratio (y) = 0.11928 -0.03241
# Poissons Ratio (z) = 0.14794 -0.20090
#
# Static dielectric constant tensor:
#      x y z
#    x 1.914730 0.000000 0.005400 
#    y 0.000000 2.014050 0.000000 
#    z 0.005400 0.000000 2.039350 
# 
# From -- ./inp_files/54621.got.cif
#   From: 2010.05.17/outbox.cif.g08.bks.cpg/sg14_28_cif.got.tgz:54621.got - 2010.06.03 17:49:19.
