data_PCOD9239197
_publ_section_title
;
Structure prediction by ZEFSAII (Michael W. Deem and Ramdas Pophale) SiO2 
 PCOD9239197
Probable space group: P 21/C
;
_chemical_formula_sum "Si O2"
_cell_formula_units_Z 24
_cell_length_a 10.870234
_cell_length_b 9.677969
_cell_length_c 15.139278
_cell_angle_alpha 90.000000
_cell_angle_beta 42.208109
_cell_angle_gamma 90.000000
_cell_volume 1070.002324
_symmetry_space_group_name_H-M "P 21/C"
_symmetry_group_IT_number 14
_symmetry_cell_setting 'monoclinic'
loop_
_space_group_symop_operation_xyz
x,y,z
-x,1/2+y,1/2-z
-x,-y,-z
x,1/2-y,1/2+z
loop_
_atom_site_type_symbol
_atom_site_label
_atom_site_fract_x
_atom_site_fract_y
_atom_site_fract_z
Si Si1 0.726632 0.885864 0.805942
Si Si2 0.264825 0.798822 0.156403
Si Si3 0.440940 0.718873 0.873346
Si Si4 0.841438 0.847644 0.361133
Si Si5 0.109905 0.565450 0.021242
Si Si6 0.357935 0.519660 0.157263
O O1 0.595366 0.837529 0.795328
O O2 0.714287 0.779752 0.896136
O O3 0.941222 0.873450 0.667432
O O4 0.684155 0.043597 0.851151
O O5 0.333867 0.680346 0.186006
O O6 0.045288 0.797624 0.271195
O O7 0.339202 0.752160 0.021192
O O8 0.566219 0.580954 0.808971
O O9 0.263933 0.675548 0.911181
O O10 0.796829 0.943579 0.469606
O O11 0.826380 0.953128 0.286003
O O12 0.000000 0.500000 0.000000
O O13 0.500000 0.500000 0.000000
#
# Coordination Sequence:
#
# PCOD9239197 Si02
#       6
#     4   4   4   4   4   4
#     4  10  21  33  62  89 110 149 201 251 284 337
#     4  10  16  30  53  91 114 137 190 253 286 327
#     4  10  19  36  56  84 119 147 196 245 288 348
#     4  10  17  33  56  86 111 148 200 238 281 348
#     4  11  22  39  60  87 121 164 189 233 308 367
#     4   9  16  29  54  81 110 146 188 238 285 332
#
# _framework density 22.429857999999999
#
# number of rings (size 3 to 8) (size 9 to 14) (size 15 to 20)
#    0.000    2.000    5.000    1.500    0.000    0.000 
#    0.000    3.333    0.000    1.000    0.000    0.000 
#    0.000    0.000    0.000    0.000    0.000    0.000 
#
# Total GULP energy -133615.039953 kJ/mol
# GULP energy per Si atom -5567.293331 kJ/mol
# Density = 2.237881 g / cm^3
# Si number density = 22.429858 Si / 1000 Ang^3
#
#
#
# Elastic Constant Matrix: (Units=GPa)
#
#
# Indices 1 2 3 4 5 6 
#
# 1 88.7722 46.7609 14.5637 0.0000 -22.3833 0.0000
# 2 46.7609 172.3700 24.8937 0.0000 -18.3340 0.0000
# 3 14.5637 24.8937 32.5815 0.0000 -18.2336 0.0000
# 4 0.0000 0.0000 0.0000 23.1112 0.0000 -13.2760
# 5 -22.3833 -18.3340 -18.2336 0.0000 30.0291 0.0000
# 6 0.0000 0.0000 0.0000 -13.2760 0.0000 37.1947
#
#
#
# Elastic Compliance Matrix: (Units=1/GPa)
#
#
# Indices 1 2 3 4 5 6 
#
# 1 0.015355 -0.003272 0.001399 0.000000 0.010297 0.000000
# 2 -0.003272 0.007260 -0.004497 0.000000 -0.000737 0.000000
# 3 0.001399 -0.004497 0.049303 0.000000 0.028234 0.000000
# 4 0.000000 0.000000 0.000000 0.054429 0.000000 0.019427
# 5 0.010297 -0.000737 0.028234 0.000000 0.057670 0.000000
# 6 0.000000 0.000000 0.000000 0.019427 0.000000 0.033820
#
#
# Mechanical properties :
#
#
# Convention : Reuss Voigt Hill
#
# Bulk Modulus (GPa) = 16.89794 51.79559 34.34676
# Shear Modulus (GPa) = 19.97569 31.90071 25.93820
#
# Velocity S-wave (km/s) = 2.98750 3.77536 3.40430
# Velocity P-wave (km/s) = 4.41025 6.49206 5.54964
#
# Compressibility (1/GPa) = 0.05917882
#
# Stress axis : x y z
#
# Youngs Moduli (GPa) = 65.12362 137.73581 20.28263
#
# Poissons Ratio (x) = 0.45073 -0.02838
# Poissons Ratio (y) = 0.21311 0.09121
# Poissons Ratio (z) = -0.09112 0.61938
#
# Static dielectric constant tensor:
#      x y z
#    x 1.899310 0.000000 -0.012540 
#    y 0.000000 1.897720 0.000000 
#    z -0.012540 0.000000 1.936660 
# 
# From -- ./inp_files/66761.got.cif
#   From: 2010.05.17/outbox.cif.g08.bks.cpg/sg14_34_cif.got.tgz:66761.got - 2010.06.03 17:49:19.
