data_PCOD9239601
_publ_section_title
;
Structure prediction by ZEFSAII (Michael W. Deem and Ramdas Pophale) SiO2 
 PCOD9239601
Probable space group: P 21/C
;
_chemical_formula_sum "Si O2"
_cell_formula_units_Z 28
_cell_length_a 8.659779
_cell_length_b 15.615336
_cell_length_c 11.503444
_cell_angle_alpha 90.000000
_cell_angle_beta 105.700179
_cell_angle_gamma 90.000000
_cell_volume 1497.520899
_symmetry_space_group_name_H-M "P 21/C"
_symmetry_group_IT_number 14
_symmetry_cell_setting 'monoclinic'
loop_
_space_group_symop_operation_xyz
x,y,z
-x,1/2+y,1/2-z
-x,-y,-z
x,1/2-y,1/2+z
loop_
_atom_site_type_symbol
_atom_site_label
_atom_site_fract_x
_atom_site_fract_y
_atom_site_fract_z
Si Si1 0.097618 0.358287 0.098165
Si Si2 0.029393 0.676595 0.393027
Si Si3 0.359557 0.195249 0.838514
Si Si4 0.798718 0.931971 0.012974
Si Si5 0.301253 0.890909 0.096802
Si Si6 0.819148 0.632774 0.149592
Si Si7 0.913865 0.456896 0.255041
O O1 0.993367 0.272725 0.069741
O O2 0.251246 0.333075 0.207284
O O3 0.993265 0.424244 0.152340
O O4 0.151232 0.380925 0.980160
O O5 0.899416 0.619814 0.437499
O O6 0.977602 0.669772 0.248166
O O7 0.202491 0.647371 0.468741
O O8 0.298153 0.138324 0.934491
O O9 0.539454 0.163645 0.854383
O O10 0.316995 0.295152 0.854535
O O11 0.933327 0.972178 0.127687
O O12 0.691693 0.007759 0.936439
O O13 0.192873 0.890843 0.191821
O O14 0.805500 0.538929 0.203184
#
# Coordination Sequence:
#
# PCOD9239601 Si02
#       7
#     4   4   4   4   4   4   4
#     4  10  22  38  60  86 121 160 198 242 299 365
#     4  10  19  36  64  87 111 156 205 249 284 343
#     4  10  23  36  60  87 125 155 191 252 303 350
#     4  10  17  38  62  90 113 153 206 249 288 341
#     4  11  20  38  61  93 117 148 209 254 292 341
#     4  11  19  39  62  86 118 164 195 234 306 361
#     4  10  20  36  66  88 116 157 202 251 289 359
#
# _framework density 18.697568
#
# number of rings (size 3 to 8) (size 9 to 14) (size 15 to 20)
#    0.000    1.714    4.286    1.714    2.000    0.000 
#    2.571    0.714    6.286    0.000    0.000    0.000 
#    0.000    0.000    0.000    0.000    0.000    0.000 
#
# Total GULP energy -155999.177107 kJ/mol
# GULP energy per Si atom -5571.399182 kJ/mol
# Density = 1.865501 g / cm^3
# Si number density = 18.697568 Si / 1000 Ang^3
#
#
#
# Elastic Constant Matrix: (Units=GPa)
#
#
# Indices 1 2 3 4 5 6 
#
# 1 87.0647 33.4651 38.6679 0.0000 4.6809 0.0000
# 2 33.4651 81.1608 30.6170 0.0000 10.4546 0.0000
# 3 38.6679 30.6170 81.5942 0.0000 -20.3592 0.0000
# 4 0.0000 0.0000 0.0000 23.1569 0.0000 3.8890
# 5 4.6809 10.4546 -20.3592 0.0000 25.8858 0.0000
# 6 0.0000 0.0000 0.0000 3.8890 0.0000 9.3992
#
#
#
# Elastic Compliance Matrix: (Units=1/GPa)
#
#
# Indices 1 2 3 4 5 6 
#
# 1 0.017215 -0.002073 -0.009889 0.000000 -0.010054 0.000000
# 2 -0.002073 0.018790 -0.009790 0.000000 -0.014913 0.000000
# 3 -0.009889 -0.009790 0.027432 0.000000 0.027317 0.000000
# 4 0.000000 0.000000 0.000000 0.046408 0.000000 -0.019202
# 5 -0.010054 -0.014913 0.027317 0.000000 0.067957 0.000000
# 6 0.000000 0.000000 0.000000 -0.019202 0.000000 0.114337
#
#
# Mechanical properties :
#
#
# Convention : Reuss Voigt Hill
#
# Bulk Modulus (GPa) = 50.16556 50.59107 50.37832
# Shear Modulus (GPa) = 14.60765 21.49302 18.05034
#
# Velocity S-wave (km/s) = 2.79813 3.39412 3.11043
# Velocity P-wave (km/s) = 6.10964 6.51739 6.31680
#
# Compressibility (1/GPa) = 0.01993399
#
# Stress axis : x y z
#
# Youngs Moduli (GPa) = 58.08922 53.22015 36.45421
#
# Poissons Ratio (x) = 0.11031 0.36050
# Poissons Ratio (y) = 0.12040 0.35687
# Poissons Ratio (z) = 0.57445 0.52100
#
# Static dielectric constant tensor:
#      x y z
#    x 1.630630 0.000000 -0.014740 
#    y 0.000000 1.704040 0.000000 
#    z -0.014740 0.000000 1.665660 
# 
# From -- ./inp_files/25308.got.cif
#   From: 2010.05.17/outbox.cif.g08.bks.cpg/sg14_13_cif.got.tgz:25308.got - 2010.06.03 17:49:19.
