data_PCOD9239342
_publ_section_title
;
Structure prediction by ZEFSAII (Michael W. Deem and Ramdas Pophale) SiO2 
 PCOD9239342
Probable space group: P 21/C
;
_chemical_formula_sum "Si O2"
_cell_formula_units_Z 32
_cell_length_a 22.682088
_cell_length_b 6.719758
_cell_length_c 25.283084
_cell_angle_alpha 90.000000
_cell_angle_beta 149.063103
_cell_angle_gamma 90.000000
_cell_volume 1981.111906
_symmetry_space_group_name_H-M "P 21/C"
_symmetry_group_IT_number 14
_symmetry_cell_setting 'monoclinic'
loop_
_space_group_symop_operation_xyz
x,y,z
-x,1/2+y,1/2-z
-x,-y,-z
x,1/2-y,1/2+z
loop_
_atom_site_type_symbol
_atom_site_label
_atom_site_fract_x
_atom_site_fract_y
_atom_site_fract_z
Si Si1 0.186634 0.489113 0.663825
Si Si2 0.369418 0.450741 0.945680
Si Si3 0.608348 0.231432 0.630232
Si Si4 0.960600 0.830793 0.152296
Si Si5 0.069668 0.445423 0.184206
Si Si6 0.144906 0.365730 0.833115
Si Si7 0.955621 0.407995 0.548642
Si Si8 0.706605 0.636065 0.703198
O O1 0.282671 0.644451 0.755074
O O2 0.129538 0.545615 0.564588
O O3 0.248014 0.272907 0.714027
O O4 0.082759 0.479077 0.626863
O O5 0.379495 0.658438 0.921641
O O6 0.269311 0.444534 0.911650
O O7 0.334913 0.293151 0.872971
O O8 0.492261 0.375349 0.060159
O O9 0.612018 0.468238 0.639403
O O10 0.866441 0.740553 0.119230
O O11 0.920671 0.975593 0.074637
O O12 0.023562 0.647412 0.172562
O O13 0.052826 0.956101 0.257533
O O14 0.181729 0.474339 0.234528
O O15 0.107343 0.295696 0.260033
O O16 0.975240 0.323308 0.077879
#
# Coordination Sequence:
#
# PCOD9239342 Si02
#       8
#     4   4   4   4   4   4   4   4
#     4   9  18  32  46  69  98 122 157 198 234 278
#     4   9  19  30  44  71  99 121 155 196 230 289
#     4  10  17  30  48  67  95 131 152 188 245 283
#     4  11  18  30  48  68  94 125 155 191 242 284
#     4   9  17  29  45  69  96 125 150 187 230 282
#     4  10  19  30  45  70  96 121 154 193 235 285
#     4   9  19  31  46  70  96 123 158 196 235 284
#     4   9  16  28  48  69  96 123 154 186 230 282
#
# _framework density 16.152545
#
# number of rings (size 3 to 8) (size 9 to 14) (size 15 to 20)
#    0.000    2.500    1.250    4.125    0.000    1.000 
#    0.000    3.750    0.000    0.000    6.500    0.000 
#    0.000    0.000    0.000    0.000    0.000    0.000 
#
# Total GULP energy -178315.026893 kJ/mol
# GULP energy per Si atom -5572.344590 kJ/mol
# Density = 1.611578 g / cm^3
# Si number density = 16.152545 Si / 1000 Ang^3
#
#
#
# Elastic Constant Matrix: (Units=GPa)
#
#
# Indices 1 2 3 4 5 6 
#
# 1 59.4615 5.9899 18.0025 0.0000 -0.4597 0.0000
# 2 5.9899 52.3427 13.5797 0.0000 -1.7301 0.0000
# 3 18.0025 13.5797 70.7344 0.0000 0.0476 0.0000
# 4 0.0000 0.0000 0.0000 14.0271 0.0000 2.1136
# 5 -0.4597 -1.7301 0.0476 0.0000 16.7713 0.0000
# 6 0.0000 0.0000 0.0000 2.1136 0.0000 22.1380
#
#
#
# Elastic Compliance Matrix: (Units=1/GPa)
#
#
# Indices 1 2 3 4 5 6 
#
# 1 0.018268 -0.000916 -0.004474 0.000000 0.000419 0.000000
# 2 -0.000916 0.020225 -0.003651 0.000000 0.002072 0.000000
# 3 -0.004474 -0.003651 0.015977 0.000000 -0.000545 0.000000
# 4 0.000000 0.000000 0.000000 0.072331 0.000000 -0.006906
# 5 0.000419 0.002072 -0.000545 0.000000 0.059852 0.000000
# 6 0.000000 0.000000 0.000000 -0.006906 0.000000 0.045830
#
#
# Mechanical properties :
#
#
# Convention : Reuss Voigt Hill
#
# Bulk Modulus (GPa) = 27.48113 28.63143 28.05628
# Shear Modulus (GPa) = 19.03345 20.25172 19.64258
#
# Velocity S-wave (km/s) = 3.43644 3.54472 3.49100
# Velocity P-wave (km/s) = 5.72678 5.87516 5.80144
#
# Compressibility (1/GPa) = 0.03638860
#
# Stress axis : x y z
#
# Youngs Moduli (GPa) = 54.74185 49.44273 62.58878
#
# Poissons Ratio (x) = 0.04529 0.28000
# Poissons Ratio (y) = 0.05014 0.22852
# Poissons Ratio (z) = 0.24490 0.18052
#
# Static dielectric constant tensor:
#      x y z
#    x 1.539590 0.000000 0.010850 
#    y 0.000000 1.570810 0.000000 
#    z 0.010850 0.000000 1.546310 
# 
# From -- ./inp_files/74806.got.cif
#   From: 2010.05.17/outbox.cif.g08.bks.cpg/sg14_38_cif.got.tgz:74806.got - 2010.06.03 17:49:19.
