data_PCOD9239876
_publ_section_title
;
Structure prediction by ZEFSAII (Michael W. Deem and Ramdas Pophale) SiO2 
 PCOD9239876
Probable space group: P 21/C
;
_chemical_formula_sum "Si O2"
_cell_formula_units_Z 32
_cell_length_a 11.094957
_cell_length_b 20.920445
_cell_length_c 8.191013
_cell_angle_alpha 90.000000
_cell_angle_beta 136.370785
_cell_angle_gamma 90.000000
_cell_volume 1311.825715
_symmetry_space_group_name_H-M "P 21/C"
_symmetry_group_IT_number 14
_symmetry_cell_setting 'monoclinic'
loop_
_space_group_symop_operation_xyz
x,y,z
-x,1/2+y,1/2-z
-x,-y,-z
x,1/2-y,1/2+z
loop_
_atom_site_type_symbol
_atom_site_label
_atom_site_fract_x
_atom_site_fract_y
_atom_site_fract_z
Si Si1 0.766932 0.362758 0.516078
Si Si2 0.012752 0.284940 0.574322
Si Si3 0.481961 0.850029 0.752912
Si Si4 0.691575 0.019468 0.748323
Si Si5 0.872205 0.844824 0.136918
Si Si6 0.696441 0.487255 0.625235
Si Si7 0.169866 0.548035 0.935712
Si Si8 0.632815 0.254735 0.575983
O O1 0.956479 0.333488 0.663813
O O2 0.708666 0.405394 0.306688
O O3 0.743992 0.411816 0.642494
O O4 0.645053 0.303202 0.434627
O O5 0.123133 0.321205 0.546514
O O6 0.084626 0.218636 0.714844
O O7 0.829278 0.268864 0.304645
O O8 0.348204 0.908846 0.607979
O O9 0.477239 0.806168 0.585856
O O10 0.678783 0.867149 0.990798
O O11 0.423468 0.800892 0.835230
O O12 0.823600 0.008977 0.728088
O O13 0.500000 0.000000 0.500000
O O14 0.722515 0.991959 0.961344
O O15 0.016217 0.900187 0.297296
O O16 0.500000 0.500000 0.500000
O O17 0.816917 0.501197 0.900013
#
# Coordination Sequence:
#
# PCOD9239876 Si02
#       8
#     4   4   4   4   4   4   4   4
#     4  10  18  32  58  82 116 158 200 236 302 356
#     4  12  19  37  57  82 122 162 198 246 293 358
#     4  12  24  36  57  88 122 162 203 242 300 367
#     4  10  20  34  60  95 112 149 211 253 306 371
#     4  12  24  36  57  88 122 162 203 242 300 367
#     4  10  20  34  60  95 112 149 211 253 306 371
#     4  12  20  40  64  82 126 160 196 256 306 360
#     4  12  19  37  57  82 122 162 198 246 293 358
#
# _framework density 24.393481999999999
#
# number of rings (size 3 to 8) (size 9 to 14) (size 15 to 20)
#    0.750    0.000    8.750    0.750    0.000    0.000 
#    0.000    0.000    0.000    1.500    0.000    0.000 
#    0.000    0.000    0.000    0.000    0.000    0.000 
#
# Total GULP energy -178627.526001 kJ/mol
# GULP energy per Si atom -5582.110188 kJ/mol
# Density = 2.433796 g / cm^3
# Si number density = 24.393482 Si / 1000 Ang^3
#
#
#
# Elastic Constant Matrix: (Units=GPa)
#
#
# Indices 1 2 3 4 5 6 
#
# 1 72.4087 -11.7685 45.0181 0.0000 -16.7039 0.0000
# 2 -11.7685 43.4471 25.2782 0.0000 -1.2964 0.0000
# 3 45.0181 25.2782 82.4047 0.0000 -1.5958 0.0000
# 4 0.0000 0.0000 0.0000 38.8621 0.0000 -7.7741
# 5 -16.7039 -1.2964 -1.5958 0.0000 60.0570 0.0000
# 6 0.0000 0.0000 0.0000 -7.7741 0.0000 25.3931
#
#
#
# Elastic Compliance Matrix: (Units=1/GPa)
#
#
# Indices 1 2 3 4 5 6 
#
# 1 0.040004 0.028915 -0.030512 0.000000 0.010940 0.000000
# 2 0.028915 0.048925 -0.030644 0.000000 0.008284 0.000000
# 3 -0.030512 -0.030644 0.038047 0.000000 -0.008137 0.000000
# 4 0.000000 0.000000 0.000000 0.027411 0.000000 0.008392
# 5 0.010940 0.008284 -0.008137 0.000000 0.019656 0.000000
# 6 0.000000 0.000000 0.000000 0.008392 0.000000 0.041950
#
#
# Mechanical properties :
#
#
# Convention : Reuss Voigt Hill
#
# Bulk Modulus (GPa) = 16.00189 35.03512 25.51850
# Shear Modulus (GPa) = 16.59446 34.17796 25.38621
#
# Velocity S-wave (km/s) = 2.61105 3.74720 3.22948
# Velocity P-wave (km/s) = 3.95781 5.75462 4.93862
#
# Compressibility (1/GPa) = 0.06249262
#
# Stress axis : x y z
#
# Youngs Moduli (GPa) = 24.99772 20.43955 26.28346
#
# Poissons Ratio (x) = -0.59100 0.80196
# Poissons Ratio (y) = -0.72280 0.80542
# Poissons Ratio (z) = 0.76273 0.62634
#
# Static dielectric constant tensor:
#      x y z
#    x 2.026900 0.000000 -0.100490 
#    y 0.000000 1.947560 0.000000 
#    z -0.100490 0.000000 1.991240 
# 
# From -- ./inp_files/14561.got.cif
#   From: 2010.05.17/outbox.cif.g08.bks.cpg/sg14_8_cif.got.tgz:14561.got - 2010.06.03 17:49:19.
