data_PCOD9239066
_publ_section_title
;
Structure prediction by ZEFSAII (Michael W. Deem and Ramdas Pophale) SiO2 
 PCOD9239066
Probable space group: P 2/C
;
_chemical_formula_sum "Si O2"
_cell_formula_units_Z 30
_cell_length_a 21.000000
_cell_length_b 12.000000
_cell_length_c 12.000000
_cell_angle_alpha 90.000000
_cell_angle_beta 150.000000
_cell_angle_gamma 90.000000
_cell_volume 1512.000000
_symmetry_space_group_name_H-M "P 2/C"
_symmetry_group_IT_number 13
_symmetry_cell_setting 'monoclinic'
loop_
_space_group_symop_operation_xyz
x,y,z
-x,y,1/2-z
-x,-y,-z
x,-y,1/2+z
loop_
_atom_site_type_symbol
_atom_site_label
_atom_site_fract_x
_atom_site_fract_y
_atom_site_fract_z
Si Si1 0.281147 0.781741 0.112869
Si Si2 0.276424 0.619161 0.508547
Si Si3 0.095087 0.580071 0.802145
Si Si4 0.784990 0.173194 0.245580
Si Si5 0.437337 0.689387 0.968398
Si Si6 0.116259 0.941633 0.011509
Si Si7 0.043612 0.747477 0.071041
Si Si8 0.500000 0.505208 0.250000
O O1 0.429837 0.753563 0.354014
O O2 0.223657 0.874248 0.106598
O O3 0.193083 0.672477 0.998030
O O4 0.252797 0.817679 0.942162
O O5 0.181492 0.516522 0.385291
O O6 0.364526 0.646265 0.748481
O O7 0.180642 0.718447 0.330409
O O8 0.376905 0.573760 0.570972
O O9 0.000000 0.533552 0.750000
O O10 0.005061 0.645498 0.579287
O O11 0.668016 0.232625 0.131027
O O12 0.922280 0.234473 0.467696
O O13 0.817235 0.048954 0.334137
O O14 0.479061 0.587706 0.113086
O O15 0.059325 0.857773 0.018559
O O16 0.000000 0.969252 0.750000
#
# Coordination Sequence:
#
# PCOD9239066 Si02
#       8
#     4   4   4   4   4   4   4   2
#     4  11  22  47  69  95 134 182 225 274 342 409
#     4  12  29  37  72 105 136 184 226 280 332 412
#     4  11  21  41  68  98 135 179 222 274 339 398
#     4  11  25  43  71  97 134 176 227 285 344 398
#     4  12  26  47  67  99 139 183 225 280 334 412
#     4  12  24  43  76  99 131 180 226 289 348 401
#     4  11  24  45  64 106 139 170 227 291 339 401
#     4  12  24  48  68  94 142 192 226 262 346 404
#
# _framework density 19.841270000000002
#
# number of rings (size 3 to 8) (size 9 to 14) (size 15 to 20)
#    0.000    0.533    6.667    2.000    7.467    0.533 
#    0.000    1.333    0.000    0.000    0.000    0.000 
#    0.000    0.000    0.000    0.000    0.000    0.000 
#
# Total GULP energy -167702.573827 kJ/mol
# GULP energy per Si atom -5590.085794 kJ/mol
# Density = 1.979611 g / cm^3
# Si number density = 19.841270 Si / 1000 Ang^3
#
#
#
# Elastic Constant Matrix: (Units=GPa)
#
#
# Indices 1 2 3 4 5 6 
#
# 1 60.4664 5.1817 14.0127 0.0000 40.9995 0.0000
# 2 5.1817 49.6770 15.5173 0.0000 8.7314 0.0000
# 3 14.0127 15.5173 119.2071 0.0000 23.8110 0.0000
# 4 0.0000 0.0000 0.0000 16.1966 0.0000 11.2695
# 5 40.9995 8.7314 23.8110 0.0000 37.7713 0.0000
# 6 0.0000 0.0000 0.0000 11.2695 0.0000 9.1696
#
#
#
# Elastic Compliance Matrix: (Units=1/GPa)
#
#
# Indices 1 2 3 4 5 6 
#
# 1 0.069419 0.004696 0.007432 0.000000 -0.081123 0.000000
# 2 0.004696 0.021733 -0.001555 0.000000 -0.009141 0.000000
# 3 0.007432 -0.001555 0.010591 0.000000 -0.014385 0.000000
# 4 0.000000 0.000000 0.000000 0.426200 0.000000 -0.523802
# 5 -0.081123 -0.009141 -0.014385 0.000000 0.125712 0.000000
# 6 0.000000 0.000000 0.000000 -0.523802 0.000000 0.752811
#
#
# Mechanical properties :
#
#
# Convention : Reuss Voigt Hill
#
# Bulk Modulus (GPa) = 8.13746 33.19712 20.66729
# Shear Modulus (GPa) = 3.50562 25.60343 14.55453
#
# Velocity S-wave (km/s) = 1.33066 3.59613 2.71135
# Velocity P-wave (km/s) = 2.54383 5.83185 4.49898
#
# Compressibility (1/GPa) = 0.12288851
#
# Stress axis : x y z
#
# Youngs Moduli (GPa) = 14.40532 46.01384 94.42196
#
# Poissons Ratio (x) = -0.21608 -0.70178
# Poissons Ratio (y) = -0.06765 0.14684
# Poissons Ratio (z) = -0.10707 0.07156
#
# Static dielectric constant tensor:
#      x y z
#    x 1.741400 0.000000 -0.025260 
#    y 0.000000 1.702840 0.000000 
#    z -0.025260 0.000000 1.681040 
# 
# From -- ./inp_files/40892.got.cif
#   From: 2010.05.17/outbox.ucp.g08.bks.cvg/sg13_21_cif.got.tgz:40892.got - 2010.06.11 12:23:55.
