data_PCOD9239481
_publ_section_title
;
Structure prediction by ZEFSAII (Michael W. Deem and Ramdas Pophale) SiO2 
 PCOD9239481
Probable space group: P 21/C
;
_chemical_formula_sum "Si O2"
_cell_formula_units_Z 32
_cell_length_a 7.573138
_cell_length_b 17.076999
_cell_length_c 13.451996
_cell_angle_alpha 90.000000
_cell_angle_beta 135.308596
_cell_angle_gamma 90.000000
_cell_volume 1223.509637
_symmetry_space_group_name_H-M "P 21/C"
_symmetry_group_IT_number 14
_symmetry_cell_setting 'monoclinic'
loop_
_space_group_symop_operation_xyz
x,y,z
-x,1/2+y,1/2-z
-x,-y,-z
x,1/2-y,1/2+z
loop_
_atom_site_type_symbol
_atom_site_label
_atom_site_fract_x
_atom_site_fract_y
_atom_site_fract_z
Si Si1 0.243694 0.538144 0.317302
Si Si2 0.523152 0.200929 0.110289
Si Si3 0.753094 0.938401 0.516554
Si Si4 0.542900 0.596913 0.141022
Si Si5 0.039211 0.610589 0.440618
Si Si6 0.633015 0.359090 0.249267
Si Si7 0.849923 0.277132 0.061198
Si Si8 0.121038 0.368751 0.321775
O O1 0.407824 0.610357 0.343438
O O2 0.281864 0.446920 0.363414
O O3 0.146267 0.572349 0.383632
O O4 0.033262 0.534816 0.147254
O O5 0.596766 0.264948 0.222941
O O6 0.685815 0.234373 0.082161
O O7 0.244870 0.188473 0.953035
O O8 0.685596 0.891237 0.591567
O O9 0.649475 0.886117 0.386734
O O10 0.595554 0.016359 0.435494
O O11 0.746743 0.589915 0.309991
O O12 0.336859 0.664185 0.068033
O O13 0.239750 0.595560 0.607766
O O14 0.037157 0.704297 0.450152
O O15 0.835470 0.385870 0.244545
O O16 0.077304 0.322300 0.203749
#
# Coordination Sequence:
#
# PCOD9239481 Si02
#       8
#     4   4   4   4   4   4   4   4
#     4  10  21  39  63  87 112 152 197 243 284 341
#     4  10  22  35  59  86 118 151 188 236 286 347
#     4  10  18  34  60  83 112 145 197 241 282 334
#     4  10  17  34  56  83 109 149 193 238 281 333
#     4  10  23  35  56  87 121 148 192 242 290 346
#     4  11  23  37  56  92 117 154 187 239 297 341
#     4  10  19  36  56  87 112 153 194 236 287 336
#     4  11  20  37  63  87 114 150 202 238 283 344
#
# _framework density 26.15427
#
# number of rings (size 3 to 8) (size 9 to 14) (size 15 to 20)
#    0.000    1.750    3.750    2.625    5.250    3.000 
#    0.000    0.000    0.000    0.750    0.000    0.000 
#    0.000    0.000    0.000    0.000    0.000    0.000 
#
# Total GULP energy -178551.738791 kJ/mol
# GULP energy per Si atom -5579.741837 kJ/mol
# Density = 2.609474 g / cm^3
# Si number density = 26.154270 Si / 1000 Ang^3
#
#
#
# Elastic Constant Matrix: (Units=GPa)
#
#
# Indices 1 2 3 4 5 6 
#
# 1 48.8994 16.9167 19.9689 0.0000 -7.0358 0.0000
# 2 16.9167 123.1982 42.7294 0.0000 9.4587 0.0000
# 3 19.9689 42.7294 186.5431 0.0000 -0.2603 0.0000
# 4 0.0000 0.0000 0.0000 59.3657 0.0000 -13.6394
# 5 -7.0358 9.4587 -0.2603 0.0000 18.9789 0.0000
# 6 0.0000 0.0000 0.0000 -13.6394 0.0000 66.7773
#
#
#
# Elastic Compliance Matrix: (Units=1/GPa)
#
#
# Indices 1 2 3 4 5 6 
#
# 1 0.023889 -0.003487 -0.001744 0.000000 0.010570 0.000000
# 2 -0.003487 0.009714 -0.001860 0.000000 -0.006159 0.000000
# 3 -0.001744 -0.001860 0.005974 0.000000 0.000363 0.000000
# 4 0.000000 0.000000 0.000000 0.017674 0.000000 0.003610
# 5 0.010570 -0.006159 0.000363 0.000000 0.059683 0.000000
# 6 0.000000 0.000000 0.000000 0.003610 0.000000 0.015712
#
#
# Mechanical properties :
#
#
# Convention : Reuss Voigt Hill
#
# Bulk Modulus (GPa) = 39.37789 57.54116 48.45953
# Shear Modulus (GPa) = 32.19679 47.62610 39.91144
#
# Velocity S-wave (km/s) = 3.51242 4.27191 3.91064
# Velocity P-wave (km/s) = 5.61588 6.81034 6.24175
#
# Compressibility (1/GPa) = 0.02539496
#
# Stress axis : x y z
#
# Youngs Moduli (GPa) = 41.85941 102.94452 167.39187
#
# Poissons Ratio (x) = 0.35897 0.29190
# Poissons Ratio (y) = 0.14597 0.31141
# Poissons Ratio (z) = 0.07299 0.19152
#
# Static dielectric constant tensor:
#      x y z
#    x 2.151160 0.000000 -0.033090 
#    y 0.000000 2.088330 0.000000 
#    z -0.033090 0.000000 2.140810 
# 
# From -- ./inp_files/58119.got.cif
#   From: 2010.05.17/outbox.cif.g08.bks.cpg/sg14_30_cif.got.tgz:58119.got - 2010.06.03 17:49:19.
