data_PCOD9239225
_publ_section_title
;
Structure prediction by ZEFSAII (Michael W. Deem and Ramdas Pophale) SiO2 
 PCOD9239225
Probable space group: P 21/C
;
_chemical_formula_sum "Si O2"
_cell_formula_units_Z 28
_cell_length_a 20.796297
_cell_length_b 7.396042
_cell_length_c 21.403920
_cell_angle_alpha 90.000000
_cell_angle_beta 19.860766
_cell_angle_gamma 90.000000
_cell_volume 1118.458185
_symmetry_space_group_name_H-M "P 21/C"
_symmetry_group_IT_number 14
_symmetry_cell_setting 'monoclinic'
loop_
_space_group_symop_operation_xyz
x,y,z
-x,1/2+y,1/2-z
-x,-y,-z
x,1/2-y,1/2+z
loop_
_atom_site_type_symbol
_atom_site_label
_atom_site_fract_x
_atom_site_fract_y
_atom_site_fract_z
Si Si1 0.282264 0.277564 0.799526
Si Si2 0.977863 0.193072 0.986406
Si Si3 0.162898 0.684749 0.518821
Si Si4 0.716053 0.079431 0.494125
Si Si5 0.702436 0.784385 0.083737
Si Si6 0.562000 0.513498 0.014807
Si Si7 0.595290 0.351879 0.308918
O O1 0.194895 0.297057 0.947940
O O2 0.222504 0.711273 0.816947
O O3 0.371730 0.078481 0.717303
O O4 0.143744 0.301183 0.868421
O O5 0.981523 0.173733 0.907897
O O6 0.000000 0.000000 0.000000
O O7 0.125426 0.810818 0.612731
O O8 0.215973 0.487253 0.496707
O O9 0.333445 0.788196 0.324613
O O10 0.518041 0.179427 0.694705
O O11 0.712820 0.873014 0.522671
O O12 0.717930 0.078742 0.416785
O O13 0.434993 0.062624 0.156659
O O14 0.573557 0.725223 0.017216
O O15 0.500000 0.500000 0.000000
#
# Coordination Sequence:
#
# PCOD9239225 Si02
#       7
#     4   4   4   4   4   4   4
#     4  11  19  33  55  82 111 135 171 224 266 311
#     4  10  16  32  53  85 112 131 165 219 281 313
#     4  10  19  29  50  84 107 128 167 213 280 317
#     4  11  19  30  48  75 106 130 172 220 263 318
#     4  11  17  27  49  76 107 134 156 213 279 309
#     4  11  24  38  51  73 109 152 183 207 256 317
#     4  10  19  32  52  83 107 132 175 212 271 317
#
# _framework density 25.034465000000001
#
# number of rings (size 3 to 8) (size 9 to 14) (size 15 to 20)
#    0.857    0.571    8.571    0.429    0.000    0.571 
#    0.000    0.000    0.000    0.000   11.143    0.000 
#    0.000    0.000    0.000    0.000    0.000    0.000 
#
# Total GULP energy -155896.426860 kJ/mol
# GULP energy per Si atom -5567.729531 kJ/mol
# Density = 2.497749 g / cm^3
# Si number density = 25.034465 Si / 1000 Ang^3
#
#
#
# Elastic Constant Matrix: (Units=GPa)
#
#
# Indices 1 2 3 4 5 6 
#
# 1 225.4329 40.1501 6.4203 0.0000 -6.4711 0.0000
# 2 40.1501 145.8497 0.0088 0.0000 -5.7303 0.0000
# 3 6.4203 0.0088 31.7059 0.0000 -5.8852 0.0000
# 4 0.0000 0.0000 0.0000 13.3984 0.0000 -6.4814
# 5 -6.4711 -5.7303 -5.8852 0.0000 16.6503 0.0000
# 6 0.0000 0.0000 0.0000 -6.4814 0.0000 41.6581
#
#
#
# Elastic Compliance Matrix: (Units=1/GPa)
#
#
# Indices 1 2 3 4 5 6 
#
# 1 0.004713 -0.001253 -0.000743 0.000000 0.001138 0.000000
# 2 -0.001253 0.007290 0.000671 0.000000 0.002259 0.000000
# 3 -0.000743 0.000671 0.033904 0.000000 0.011926 0.000000
# 4 0.000000 0.000000 0.000000 0.080710 0.000000 0.012557
# 5 0.001138 0.002259 0.011926 0.000000 0.065494 0.000000
# 6 0.000000 0.000000 0.000000 0.012557 0.000000 0.025959
#
#
# Mechanical properties :
#
#
# Convention : Reuss Voigt Hill
#
# Bulk Modulus (GPa) = 23.11724 55.12744 39.12234
# Shear Modulus (GPa) = 21.26417 38.10198 29.68308
#
# Velocity S-wave (km/s) = 2.91760 3.90549 3.44712
# Velocity P-wave (km/s) = 4.53917 6.51196 5.61292
#
# Compressibility (1/GPa) = 0.04325776
#
# Stress axis : x y z
#
# Youngs Moduli (GPa) = 212.18702 137.17578 29.49525
#
# Poissons Ratio (x) = 0.17183 0.02191
# Poissons Ratio (y) = 0.26579 -0.01979
# Poissons Ratio (z) = 0.15760 -0.09204
#
# Static dielectric constant tensor:
#      x y z
#    x 2.111960 0.000000 -0.015680 
#    y 0.000000 1.962340 0.000000 
#    z -0.015680 0.000000 2.111360 
# 
# From -- ./inp_files/74492.got.cif
#   From: 2010.05.17/outbox.cif.g08.bks.cpg/sg14_38_cif.got.tgz:74492.got - 2010.06.03 17:49:19.
