data_PCOD9239531
_publ_section_title
;
Structure prediction by ZEFSAII (Michael W. Deem and Ramdas Pophale) SiO2 
 PCOD9239531
Probable space group: P 21/C
;
_chemical_formula_sum "Si O2"
_cell_formula_units_Z 32
_cell_length_a 11.300685
_cell_length_b 14.577718
_cell_length_c 13.820778
_cell_angle_alpha 90.000000
_cell_angle_beta 145.582923
_cell_angle_gamma 90.000000
_cell_volume 1286.882435
_symmetry_space_group_name_H-M "P 21/C"
_symmetry_group_IT_number 14
_symmetry_cell_setting 'monoclinic'
loop_
_space_group_symop_operation_xyz
x,y,z
-x,1/2+y,1/2-z
-x,-y,-z
x,1/2-y,1/2+z
loop_
_atom_site_type_symbol
_atom_site_label
_atom_site_fract_x
_atom_site_fract_y
_atom_site_fract_z
Si Si1 0.442381 0.948766 0.743288
Si Si2 0.818817 0.972441 0.762853
Si Si3 0.856399 0.255461 0.212593
Si Si4 0.188430 0.329356 0.590941
Si Si5 0.933410 0.419971 0.155894
Si Si6 0.332044 0.356314 0.172797
Si Si7 0.872804 0.424392 0.805616
Si Si8 0.487013 0.634268 0.911261
O O1 0.643524 0.890126 0.853607
O O2 0.287227 0.944293 0.544770
O O3 0.306599 0.906158 0.738496
O O4 0.471892 0.055236 0.793285
O O5 0.913818 0.901635 0.903553
O O6 0.673472 0.907140 0.599747
O O7 0.942160 0.032416 0.767363
O O8 0.667647 0.047482 0.711378
O O9 0.929498 0.311581 0.168313
O O10 0.851649 0.146713 0.203477
O O11 0.640581 0.295521 0.108383
O O12 0.019854 0.284151 0.406663
O O13 0.307200 0.238880 0.713302
O O14 0.113226 0.470463 0.217795
O O15 0.421826 0.328513 0.127333
O O16 0.099641 0.400635 0.004468
#
# Coordination Sequence:
#
# PCOD9239531 Si02
#       8
#     4   4   4   4   4   4   4   4
#     4  11  20  41  65  85 113 158 206 236 283 352
#     4  10  18  35  61  84 108 144 204 236 283 338
#     4  10  23  37  56  91 123 151 191 241 310 336
#     4  11  22  36  55  92 123 149 185 251 300 345
#     4  10  20  40  65  84 112 159 200 243 277 353
#     4  10  19  36  58  85 114 152 195 236 294 340
#     4  10  21  40  59  89 116 156 200 245 282 349
#     4  10  17  35  61  80 108 152 194 243 273 349
#
# _framework density 24.866298
#
# number of rings (size 3 to 8) (size 9 to 14) (size 15 to 20)
#    0.000    1.750    3.750    3.750    0.000    2.000 
#    6.750    3.125    0.000    0.000    0.000    0.000 
#    0.000    0.000    0.000    0.000    0.000    0.000 
#
# Total GULP energy -178841.891647 kJ/mol
# GULP energy per Si atom -5588.809114 kJ/mol
# Density = 2.480970 g / cm^3
# Si number density = 24.866298 Si / 1000 Ang^3
#
#
#
# Elastic Constant Matrix: (Units=GPa)
#
#
# Indices 1 2 3 4 5 6 
#
# 1 60.2073 16.3431 -4.0663 0.0000 -12.7359 0.0000
# 2 16.3431 116.0700 8.8846 0.0000 -7.9404 0.0000
# 3 -4.0663 8.8846 47.0253 0.0000 -5.0819 0.0000
# 4 0.0000 0.0000 0.0000 27.1750 0.0000 -7.7496
# 5 -12.7359 -7.9404 -5.0819 0.0000 10.7990 0.0000
# 6 0.0000 0.0000 0.0000 -7.7496 0.0000 27.2878
#
#
#
# Elastic Compliance Matrix: (Units=1/GPa)
#
#
# Indices 1 2 3 4 5 6 
#
# 1 0.023632 -0.001754 0.005529 0.000000 0.029182 0.000000
# 2 -0.001754 0.009251 -0.001462 0.000000 0.004045 0.000000
# 3 0.005529 -0.001462 0.023819 0.000000 0.016654 0.000000
# 4 0.000000 0.000000 0.000000 0.040041 0.000000 0.011372
# 5 0.029182 0.004045 0.016654 0.000000 0.137830 0.000000
# 6 0.000000 0.000000 0.000000 0.011372 0.000000 0.039876
#
#
# Mechanical properties :
#
#
# Convention : Reuss Voigt Hill
#
# Bulk Modulus (GPa) = 16.30628 29.51394 22.91011
# Shear Modulus (GPa) = 17.22550 26.52844 21.87697
#
# Velocity S-wave (km/s) = 2.63482 3.26980 2.96933
# Velocity P-wave (km/s) = 3.97847 5.11373 4.58140
#
# Compressibility (1/GPa) = 0.06132607
#
# Stress axis : x y z
#
# Youngs Moduli (GPa) = 42.31567 108.09448 41.98291
#
# Poissons Ratio (x) = 0.18963 -0.23210
# Poissons Ratio (y) = 0.07423 0.06139
# Poissons Ratio (z) = -0.23394 0.15807
#
# Static dielectric constant tensor:
#      x y z
#    x 1.966800 0.000000 -0.029930 
#    y 0.000000 2.030670 0.000000 
#    z -0.029930 0.000000 2.009950 
# 
# From -- ./inp_files/45133.got.cif
#   From: 2010.05.17/outbox.cif.g08.bks.cpg/sg14_23_cif.got.tgz:45133.got - 2010.06.03 17:49:19.
