data_PCOD9239169
_publ_section_title
;
Structure prediction by ZEFSAII (Michael W. Deem and Ramdas Pophale) SiO2 
 PCOD9239169
Probable space group: P 21/C
;
_chemical_formula_sum "Si O2"
_cell_formula_units_Z 26
_cell_length_a 11.910645
_cell_length_b 8.357013
_cell_length_c 18.493019
_cell_angle_alpha 90.000000
_cell_angle_beta 32.055485
_cell_angle_gamma 90.000000
_cell_volume 976.958709
_symmetry_space_group_name_H-M "P 21/C"
_symmetry_group_IT_number 14
_symmetry_cell_setting 'monoclinic'
loop_
_space_group_symop_operation_xyz
x,y,z
-x,1/2+y,1/2-z
-x,-y,-z
x,1/2-y,1/2+z
loop_
_atom_site_type_symbol
_atom_site_label
_atom_site_fract_x
_atom_site_fract_y
_atom_site_fract_z
Si Si1 0.000000 0.500000 0.000000
Si Si2 0.091673 0.958579 0.754933
Si Si3 0.778695 0.769241 0.502613
Si Si4 0.568750 0.026830 0.841898
Si Si5 0.410274 0.502767 0.205131
Si Si6 0.290395 0.684251 0.584662
Si Si7 0.295546 0.697345 0.863837
O O1 0.124538 0.351419 0.980771
O O2 0.081928 0.643780 0.017439
O O3 0.235703 0.027053 0.740359
O O4 0.239670 0.870635 0.615951
O O5 0.915154 0.080937 0.825049
O O6 0.965335 0.802488 0.853390
O O7 0.628300 0.612856 0.589750
O O8 0.607467 0.894914 0.566124
O O9 0.637842 0.125531 0.874719
O O10 0.739778 0.057661 0.683491
O O11 0.476826 0.866778 0.927397
O O12 0.509507 0.355695 0.194417
O O13 0.317545 0.633529 0.314160
#
# Coordination Sequence:
#
# PCOD9239169 Si02
#       7
#     2   4   4   4   4   4   4
#     4  10  16  28  60  90 106 154 186 234 290 346
#     4  11  20  39  58  85 113 155 198 246 282 353
#     4   9  17  32  61  80 115 151 190 230 295 338
#     4   9  18  37  58  82 114 164 190 236 292 362
#     4  10  20  37  58  84 117 152 186 242 296 347
#     4  10  20  36  63  80 115 157 202 238 295 336
#     4  10  19  36  59  84 119 151 189 237 299 349
#
# _framework density 26.613202000000001
#
# number of rings (size 3 to 8) (size 9 to 14) (size 15 to 20)
#    0.000    2.154    4.615    0.000    0.000    0.000 
#    2.769   12.308    0.000    0.000    0.000    0.000 
#    0.000    0.000    0.000    0.000    0.000    0.000 
#
# Total GULP energy -144937.551406 kJ/mol
# GULP energy per Si atom -5574.521208 kJ/mol
# Density = 2.655263 g / cm^3
# Si number density = 26.613202 Si / 1000 Ang^3
#
#
#
# Elastic Constant Matrix: (Units=GPa)
#
#
# Indices 1 2 3 4 5 6 
#
# 1 164.1250 52.8377 41.7745 0.0000 -10.5470 0.0000
# 2 52.8377 43.3746 26.7530 0.0000 14.7482 0.0000
# 3 41.7745 26.7530 85.0873 0.0000 -7.7787 0.0000
# 4 0.0000 0.0000 0.0000 44.2153 0.0000 14.6261
# 5 -10.5470 14.7482 -7.7787 0.0000 43.2204 0.0000
# 6 0.0000 0.0000 0.0000 14.6261 0.0000 36.5929
#
#
#
# Elastic Compliance Matrix: (Units=1/GPa)
#
#
# Indices 1 2 3 4 5 6 
#
# 1 0.012773 -0.019347 0.000712 0.000000 0.009847 0.000000
# 2 -0.019347 0.065009 -0.013625 0.000000 -0.029356 0.000000
# 3 0.000712 -0.013625 0.016398 0.000000 0.007774 0.000000
# 4 0.000000 0.000000 0.000000 0.026062 0.000000 -0.010417
# 5 0.009847 -0.029356 0.007774 0.000000 0.036957 0.000000
# 6 0.000000 0.000000 0.000000 -0.010417 0.000000 0.031491
#
#
# Mechanical properties :
#
#
# Convention : Reuss Voigt Hill
#
# Bulk Modulus (GPa) = 33.71600 59.47967 46.59784
# Shear Modulus (GPa) = 19.00448 36.22049 27.61248
#
# Velocity S-wave (km/s) = 2.67516 3.69317 3.22459
# Velocity P-wave (km/s) = 4.71576 6.37058 5.60458
#
# Compressibility (1/GPa) = 0.02965951
#
# Stress axis : x y z
#
# Youngs Moduli (GPa) = 78.29046 15.38258 60.98458
#
# Poissons Ratio (x) = 0.29761 -0.04344
# Poissons Ratio (y) = 1.51470 0.83091
# Poissons Ratio (z) = -0.05577 0.20959
#
# Static dielectric constant tensor:
#      x y z
#    x 2.038900 0.000000 0.040170 
#    y 0.000000 2.123300 0.000000 
#    z 0.040170 0.000000 2.389790 
# 
# From -- ./inp_files/66976.got.cif
#   From: 2010.05.17/outbox.cif.g08.bks.cpg/sg14_34_cif.got.tgz:66976.got - 2010.06.03 17:49:19.
