data_PCOD9239629
_publ_section_title
;
Structure prediction by ZEFSAII (Michael W. Deem and Ramdas Pophale) SiO2 
 PCOD9239629
Probable space group: P 21/C
;
_chemical_formula_sum "Si O2"
_cell_formula_units_Z 32
_cell_length_a 12.227863
_cell_length_b 18.141388
_cell_length_c 8.803332
_cell_angle_alpha 90.000000
_cell_angle_beta 63.613477
_cell_angle_gamma 90.000000
_cell_volume 1749.391967
_symmetry_space_group_name_H-M "P 21/C"
_symmetry_group_IT_number 14
_symmetry_cell_setting 'monoclinic'
loop_
_space_group_symop_operation_xyz
x,y,z
-x,1/2+y,1/2-z
-x,-y,-z
x,1/2-y,1/2+z
loop_
_atom_site_type_symbol
_atom_site_label
_atom_site_fract_x
_atom_site_fract_y
_atom_site_fract_z
Si Si1 0.830616 0.706707 0.312645
Si Si2 0.960011 0.601481 0.015499
Si Si3 0.632191 0.916833 0.005771
Si Si4 0.194689 0.018361 0.864470
Si Si5 0.649832 0.074728 0.826750
Si Si6 0.135397 0.617675 0.616667
Si Si7 0.822046 0.473213 0.964955
Si Si8 0.927259 0.672334 0.580147
O O1 0.712489 0.653974 0.404422
O O2 0.902189 0.700030 0.426343
O O3 0.830159 0.791070 0.257684
O O4 0.908914 0.673016 0.126536
O O5 0.045513 0.609712 0.816406
O O6 0.847445 0.551210 0.031983
O O7 0.044915 0.563591 0.091447
O O8 0.648188 0.989984 0.890942
O O9 0.686208 0.944146 0.133795
O O10 0.489148 0.900022 0.099933
O O11 0.100449 0.085263 0.907145
O O12 0.211131 0.983392 0.688980
O O13 0.148869 0.956932 0.010527
O O14 0.730575 0.124630 0.891629
O O15 0.721545 0.070463 0.623293
O O16 0.066147 0.677852 0.555827
#
# Coordination Sequence:
#
# PCOD9239629 Si02
#       8
#     4   4   4   4   4   4   4   4
#     4  11  22  36  52  79 112 144 185 228 275 343
#     4  10  19  30  51  81 112 145 176 227 291 333
#     4   9  19  35  52  75 110 146 182 226 274 333
#     4  10  20  32  52  83 115 144 182 234 282 328
#     4   9  18  33  55  79 105 146 183 222 281 326
#     4  10  19  34  55  83 113 141 183 230 282 329
#     4  10  18  28  53  79 110 138 179 228 284 326
#     4  11  22  32  52  76 110 145 182 225 282 333
#
# _framework density 18.292069999999999
#
# number of rings (size 3 to 8) (size 9 to 14) (size 15 to 20)
#    0.000    2.000    2.500    1.875    5.250    0.500 
#    0.000    0.000    0.000    9.000    0.000    0.000 
#    0.000    0.000    0.000    0.000    0.000    0.000 
#
# Total GULP energy -178233.517937 kJ/mol
# GULP energy per Si atom -5569.797436 kJ/mol
# Density = 1.825044 g / cm^3
# Si number density = 18.292070 Si / 1000 Ang^3
#
#
#
# Elastic Constant Matrix: (Units=GPa)
#
#
# Indices 1 2 3 4 5 6 
#
# 1 140.4826 25.7070 56.3132 0.0000 -0.0230 0.0000
# 2 25.7070 33.4327 23.1041 0.0000 3.3899 0.0000
# 3 56.3132 23.1041 92.0170 0.0000 8.1447 0.0000
# 4 0.0000 0.0000 0.0000 26.5944 0.0000 -3.1487
# 5 -0.0230 3.3899 8.1447 0.0000 16.9376 0.0000
# 6 0.0000 0.0000 0.0000 -3.1487 0.0000 15.5530
#
#
#
# Elastic Compliance Matrix: (Units=1/GPa)
#
#
# Indices 1 2 3 4 5 6 
#
# 1 0.010075 -0.004387 -0.005372 0.000000 0.003475 0.000000
# 2 -0.004387 0.038247 -0.006518 0.000000 -0.004527 0.000000
# 3 -0.005372 -0.006518 0.016374 0.000000 -0.006576 0.000000
# 4 0.000000 0.000000 0.000000 0.038525 0.000000 0.007800
# 5 0.003475 -0.004527 -0.006576 0.000000 0.063113 0.000000
# 6 0.000000 0.000000 0.000000 0.007800 0.000000 0.065875
#
#
# Mechanical properties :
#
#
# Convention : Reuss Voigt Hill
#
# Bulk Modulus (GPa) = 31.11131 52.90898 42.01015
# Shear Modulus (GPa) = 18.15031 22.53753 20.34392
#
# Velocity S-wave (km/s) = 3.15342 3.51393 3.33854
# Velocity P-wave (km/s) = 5.50488 6.74173 6.15446
#
# Compressibility (1/GPa) = 0.03214265
#
# Stress axis : x y z
#
# Youngs Moduli (GPa) = 99.25577 26.14562 61.07349
#
# Poissons Ratio (x) = 0.11470 0.32808
# Poissons Ratio (y) = 0.43542 0.39807
# Poissons Ratio (z) = 0.53319 0.17042
#
# Static dielectric constant tensor:
#      x y z
#    x 1.657430 0.000000 0.025490 
#    y 0.000000 1.714520 0.000000 
#    z 0.025490 0.000000 1.630890 
# 
# From -- ./inp_files/14013.got.cif
#   From: 2010.05.17/outbox.cif.g08.bks.cpg/sg14_8_cif.got.tgz:14013.got - 2010.06.03 17:49:19.
