data_PCOD9239595
_publ_section_title
;
Structure prediction by ZEFSAII (Michael W. Deem and Ramdas Pophale) SiO2 
 PCOD9239595
Probable space group: P 21/C
;
_chemical_formula_sum "Si O2"
_cell_formula_units_Z 24
_cell_length_a 10.814933
_cell_length_b 11.008088
_cell_length_c 8.352527
_cell_angle_alpha 90.000000
_cell_angle_beta 71.727383
_cell_angle_gamma 90.000000
_cell_volume 944.241501
_symmetry_space_group_name_H-M "P 21/C"
_symmetry_group_IT_number 14
_symmetry_cell_setting 'monoclinic'
loop_
_space_group_symop_operation_xyz
x,y,z
-x,1/2+y,1/2-z
-x,-y,-z
x,1/2-y,1/2+z
loop_
_atom_site_type_symbol
_atom_site_label
_atom_site_fract_x
_atom_site_fract_y
_atom_site_fract_z
Si Si1 0.076760 0.837914 0.653923
Si Si2 0.706044 0.019790 0.594922
Si Si3 0.541660 0.247366 0.202844
Si Si4 0.691722 0.141765 0.908820
Si Si5 0.714871 0.823941 0.345078
Si Si6 0.898796 0.675318 0.503665
O O1 0.153727 0.942695 0.530785
O O2 0.179349 0.726367 0.648821
O O3 0.974334 0.779441 0.572557
O O4 0.007741 0.883310 0.844624
O O5 0.614759 0.134611 0.600109
O O6 0.712288 0.024432 0.787226
O O7 0.657305 0.913753 0.501786
O O8 0.629308 0.132631 0.110258
O O9 0.573447 0.284096 0.371212
O O10 0.394234 0.253456 0.210211
O O11 0.802519 0.735826 0.415710
O O12 0.808743 0.887182 0.174236
#
# Coordination Sequence:
#
# PCOD9239595 Si02
#       6
#     4   4   4   4   4   4
#     4  10  17  38  52  84 102 141 190 206 267 309
#     4   9  20  32  62  78 102 139 185 224 249 312
#     4   9  18  33  56  81 105 136 177 216 270 315
#     4   9  17  32  60  77 100 142 174 226 255 308
#     4  11  21  37  52  82 110 143 174 213 277 318
#     4  10  22  33  57  72 117 146 167 221 264 325
#
# _framework density 25.417225999999999
#
# number of rings (size 3 to 8) (size 9 to 14) (size 15 to 20)
#    1.000    1.333    1.667    1.500    0.000    1.333 
#    0.000    0.000   14.667    2.000    0.000    0.000 
#    0.000    0.000    0.000    0.000    0.000    0.000 
#
# Total GULP energy -133771.736624 kJ/mol
# GULP energy per Si atom -5573.822359 kJ/mol
# Density = 2.535937 g / cm^3
# Si number density = 25.417226 Si / 1000 Ang^3
#
#
#
# Elastic Constant Matrix: (Units=GPa)
#
#
# Indices 1 2 3 4 5 6 
#
# 1 115.6801 14.5808 8.3529 0.0000 12.2112 0.0000
# 2 14.5808 30.6485 1.7923 0.0000 6.0658 0.0000
# 3 8.3529 1.7923 79.0246 0.0000 -21.9446 0.0000
# 4 0.0000 0.0000 0.0000 15.0401 0.0000 -3.6343
# 5 12.2112 6.0658 -21.9446 0.0000 31.7685 0.0000
# 6 0.0000 0.0000 0.0000 -3.6343 0.0000 18.5349
#
#
#
# Elastic Compliance Matrix: (Units=1/GPa)
#
#
# Indices 1 2 3 4 5 6 
#
# 1 0.009743 -0.003596 -0.002224 0.000000 -0.004595 0.000000
# 2 -0.003596 0.035893 -0.002417 0.000000 -0.007141 0.000000
# 3 -0.002224 -0.002417 0.016469 0.000000 0.012693 0.000000
# 4 0.000000 0.000000 0.000000 0.069796 0.000000 0.013686
# 5 -0.004595 -0.007141 0.012693 0.000000 0.043375 0.000000
# 6 0.000000 0.000000 0.000000 0.013686 0.000000 0.056636
#
#
# Mechanical properties :
#
#
# Convention : Reuss Voigt Hill
#
# Bulk Modulus (GPa) = 21.91476 30.53390 26.22433
# Shear Modulus (GPa) = 18.96834 26.44385 22.70609
#
# Velocity S-wave (km/s) = 2.73477 3.22901 2.99211
# Velocity P-wave (km/s) = 4.31425 5.09324 4.71984
#
# Compressibility (1/GPa) = 0.04563135
#
# Stress axis : x y z
#
# Youngs Moduli (GPa) = 102.63318 27.86037 60.72052
#
# Poissons Ratio (x) = 0.10018 0.13506
# Poissons Ratio (y) = 0.36905 0.14676
# Poissons Ratio (z) = 0.22829 0.06734
#
# Static dielectric constant tensor:
#      x y z
#    x 1.983900 0.000000 -0.052720 
#    y 0.000000 1.966270 0.000000 
#    z -0.052720 0.000000 2.120970 
# 
# From -- ./inp_files/12615.got.cif
#   From: 2010.05.17/outbox.cif.g08.bks.cpg/sg14_7_cif.got.tgz:12615.got - 2010.06.03 17:49:19.
