data_PCOD9239977
_publ_section_title
;
Structure prediction by ZEFSAII (Michael W. Deem and Ramdas Pophale) SiO2 
 PCOD9239977
Probable space group: P 21/C
;
_chemical_formula_sum "Si O2"
_cell_formula_units_Z 32
_cell_length_a 18.733703
_cell_length_b 10.277057
_cell_length_c 25.093677
_cell_angle_alpha 90.000000
_cell_angle_beta 163.672415
_cell_angle_gamma 90.000000
_cell_volume 1358.194595
_symmetry_space_group_name_H-M "P 21/C"
_symmetry_group_IT_number 14
_symmetry_cell_setting 'monoclinic'
loop_
_space_group_symop_operation_xyz
x,y,z
-x,1/2+y,1/2-z
-x,-y,-z
x,1/2-y,1/2+z
loop_
_atom_site_type_symbol
_atom_site_label
_atom_site_fract_x
_atom_site_fract_y
_atom_site_fract_z
Si Si1 0.504842 0.417119 0.057731
Si Si2 0.896099 0.326309 0.413531
Si Si3 0.239634 0.600929 0.565197
Si Si4 0.398320 0.306570 0.319669
Si Si5 0.501322 0.855066 0.744546
Si Si6 0.180327 0.293231 0.280673
Si Si7 0.272942 0.559617 0.185264
Si Si8 0.768314 0.408133 0.056243
O O1 0.779303 0.415930 0.283407
O O2 0.500000 0.500000 0.000000
O O3 0.416297 0.276012 0.976532
O O4 0.301127 0.474839 0.954222
O O5 0.824409 0.389172 0.418367
O O6 0.727857 0.196259 0.286130
O O7 0.183242 0.272336 0.629846
O O8 0.487667 0.698015 0.734870
O O9 0.269677 0.448559 0.573429
O O10 0.027727 0.679309 0.380608
O O11 0.276648 0.334417 0.290681
O O12 0.457675 0.444994 0.335287
O O13 0.649576 0.218231 0.501356
O O14 0.294849 0.898319 0.640077
O O15 0.407460 0.913414 0.622096
O O16 0.041984 0.387296 0.224459
O O17 0.000000 0.500000 0.000000
#
# Coordination Sequence:
#
# PCOD9239977 Si02
#       8
#     4   4   4   4   4   4   4   4
#     4  12  24  44  63  89 137 176 224 269 322 398
#     4   9  20  37  62  93 119 162 212 266 321 382
#     4   9  18  35  59  87 118 159 205 268 319 377
#     4  10  20  41  70  94 128 164 218 272 336 389
#     4  10  18  33  59  92 121 153 211 262 323 379
#     4  10  23  42  62  91 133 175 216 265 330 400
#     4   9  17  33  58  91 124 151 197 270 322 376
#     4  11  22  40  65  92 128 174 213 270 326 388
#
# _framework density 23.560687999999999
#
# number of rings (size 3 to 8) (size 9 to 14) (size 15 to 20)
#    0.000    2.000    2.500    3.750    0.000    1.500 
#    6.750    4.375    0.000    0.000    0.000    0.000 
#    0.000    0.000    0.000    0.000    0.000    0.000 
#
# Total GULP energy -178331.212689 kJ/mol
# GULP energy per Si atom -5572.850397 kJ/mol
# Density = 2.350706 g / cm^3
# Si number density = 23.560688 Si / 1000 Ang^3
#
#
#
# Elastic Constant Matrix: (Units=GPa)
#
#
# Indices 1 2 3 4 5 6 
#
# 1 145.4405 19.2024 40.6221 0.0000 -1.0028 0.0000
# 2 19.2024 70.5851 18.2283 0.0000 -5.7915 0.0000
# 3 40.6221 18.2283 35.7290 0.0000 -11.8559 0.0000
# 4 0.0000 0.0000 0.0000 27.4999 0.0000 1.0153
# 5 -1.0028 -5.7915 -11.8559 0.0000 30.1866 0.0000
# 6 0.0000 0.0000 0.0000 1.0153 0.0000 34.5245
#
#
#
# Elastic Compliance Matrix: (Units=1/GPa)
#
#
# Indices 1 2 3 4 5 6 
#
# 1 0.010720 0.000288 -0.014027 0.000000 -0.005098 0.000000
# 2 0.000288 0.016326 -0.008754 0.000000 -0.000297 0.000000
# 3 -0.014027 -0.008754 0.054838 0.000000 0.019392 0.000000
# 4 0.000000 0.000000 0.000000 0.036403 0.000000 -0.001071
# 5 -0.005098 -0.000297 0.019392 0.000000 0.040517 0.000000
# 6 0.000000 0.000000 0.000000 -0.001071 0.000000 0.028996
#
#
# Mechanical properties :
#
#
# Convention : Reuss Voigt Hill
#
# Bulk Modulus (GPa) = 27.10311 45.31781 36.21046
# Shear Modulus (GPa) = 20.40096 30.02230 25.21163
#
# Velocity S-wave (km/s) = 2.94579 3.57354 3.27474
# Velocity P-wave (km/s) = 4.80612 6.02521 5.44986
#
# Compressibility (1/GPa) = 0.03689613
#
# Stress axis : x y z
#
# Youngs Moduli (GPa) = 93.28112 61.25383 18.23566
#
# Poissons Ratio (x) = -0.01762 0.25579
# Poissons Ratio (y) = -0.02683 0.15964
# Poissons Ratio (z) = 1.30844 0.53625
#
# Static dielectric constant tensor:
#      x y z
#    x 1.949320 0.000000 0.081400 
#    y 0.000000 2.028270 0.000000 
#    z 0.081400 0.000000 1.961720 
# 
# From -- ./inp_files/74403.got.cif
#   From: 2010.05.17/outbox.cif.g08.bks.cpg/sg14_38_cif.got.tgz:74403.got - 2010.06.03 17:49:19.
