data_PCOD9239906
_publ_section_title
;
Structure prediction by ZEFSAII (Michael W. Deem and Ramdas Pophale) SiO2 
 PCOD9239906
Probable space group: P 21/C
;
_chemical_formula_sum "Si O2"
_cell_formula_units_Z 28
_cell_length_a 12.816099
_cell_length_b 8.270160
_cell_length_c 13.228037
_cell_angle_alpha 90.000000
_cell_angle_beta 135.474664
_cell_angle_gamma 90.000000
_cell_volume 983.155708
_symmetry_space_group_name_H-M "P 21/C"
_symmetry_group_IT_number 14
_symmetry_cell_setting 'monoclinic'
loop_
_space_group_symop_operation_xyz
x,y,z
-x,1/2+y,1/2-z
-x,-y,-z
x,1/2-y,1/2+z
loop_
_atom_site_type_symbol
_atom_site_label
_atom_site_fract_x
_atom_site_fract_y
_atom_site_fract_z
Si Si1 0.979577 0.133081 0.190418
Si Si2 0.455396 0.300127 0.844352
Si Si3 0.800848 0.657004 0.578010
Si Si4 0.854505 0.712767 0.903027
Si Si5 0.487823 0.912450 0.843749
Si Si6 0.177463 0.662393 0.104690
Si Si7 0.776436 0.361143 0.107199
O O1 0.121322 0.011409 0.294390
O O2 0.856508 0.007968 0.063711
O O3 0.081450 0.296369 0.254494
O O4 0.870779 0.202307 0.207393
O O5 0.278301 0.315388 0.739432
O O6 0.475718 0.381906 0.748384
O O7 0.473933 0.104491 0.849633
O O8 0.600254 0.365327 0.004398
O O9 0.813169 0.781043 0.494229
O O10 0.634524 0.645263 0.502775
O O11 0.849989 0.521475 0.879646
O O12 0.026551 0.767149 0.009589
O O13 0.340594 0.807367 0.762919
O O14 0.206110 0.663860 0.002902
#
# Coordination Sequence:
#
# PCOD9239906 Si02
#       7
#     4   4   4   4   4   4   4
#     4  10  20  30  52  70 100 134 166 204 224 290
#     4   9  17  29  50  74  97 122 162 208 242 280
#     4  10  18  33  50  76  98 128 168 199 242 284
#     4   9  17  31  53  76  98 123 158 207 251 288
#     4   9  17  29  50  74  97 122 162 208 242 280
#     4   9  17  31  53  76  98 123 158 207 251 288
#     4  10  18  33  50  76  98 128 168 199 242 284
#
# _framework density 28.47972
#
# number of rings (size 3 to 8) (size 9 to 14) (size 15 to 20)
#    0.000    2.571    2.857    0.000    2.000    0.000 
#    0.000    0.714    0.000   10.286    0.000    0.000 
#    0.000    0.000    0.000    0.000    0.000    0.000 
#
# Total GULP energy -156043.718312 kJ/mol
# GULP energy per Si atom -5572.989940 kJ/mol
# Density = 2.841490 g / cm^3
# Si number density = 28.479720 Si / 1000 Ang^3
#
#
#
# Elastic Constant Matrix: (Units=GPa)
#
#
# Indices 1 2 3 4 5 6 
#
# 1 113.8390 21.2369 45.5851 0.0000 39.6296 0.0000
# 2 21.2369 77.5773 18.3466 0.0000 12.0687 0.0000
# 3 45.5851 18.3466 195.8442 0.0000 73.2867 0.0000
# 4 0.0000 0.0000 0.0000 18.3825 0.0000 3.9543
# 5 39.6296 12.0687 73.2867 0.0000 71.5097 0.0000
# 6 0.0000 0.0000 0.0000 3.9543 0.0000 39.6739
#
#
#
# Elastic Compliance Matrix: (Units=1/GPa)
#
#
# Indices 1 2 3 4 5 6 
#
# 1 0.011242 -0.002137 -0.000357 0.000000 -0.005504 0.000000
# 2 -0.002137 0.013696 -0.000590 0.000000 -0.000522 0.000000
# 3 -0.000357 -0.000590 0.008326 0.000000 -0.008236 0.000000
# 4 0.000000 0.000000 0.000000 0.055591 0.000000 -0.005541
# 5 -0.005504 -0.000522 -0.008236 0.000000 0.025563 0.000000
# 6 0.000000 0.000000 0.000000 -0.005541 0.000000 0.025758
#
#
# Mechanical properties :
#
#
# Convention : Reuss Voigt Hill
#
# Bulk Modulus (GPa) = 36.90534 61.95531 49.43032
# Shear Modulus (GPa) = 32.17989 46.05270 39.11629
#
# Velocity S-wave (km/s) = 3.36508 4.02560 3.71007
# Velocity P-wave (km/s) = 5.29952 6.58853 5.97886
#
# Compressibility (1/GPa) = 0.02709635
#
# Stress axis : x y z
#
# Youngs Moduli (GPa) = 88.95363 73.01307 120.09941
#
# Poissons Ratio (x) = 0.15602 0.04288
# Poissons Ratio (y) = 0.19008 0.07088
# Poissons Ratio (z) = 0.03176 0.04309
#
# Static dielectric constant tensor:
#      x y z
#    x 2.466350 0.000000 -0.230630 
#    y 0.000000 2.450330 0.000000 
#    z -0.230630 0.000000 2.643350 
# 
# From -- ./inp_files/56836.got.cif
#   From: 2010.05.17/outbox.cif.g08.bks.cpg/sg14_29_cif.got.tgz:56836.got - 2010.06.03 17:49:19.
