data_PCOD9239680
_publ_section_title
;
Structure prediction by ZEFSAII (Michael W. Deem and Ramdas Pophale) SiO2 
 PCOD9239680
Probable space group: P 21/C
;
_chemical_formula_sum "Si O2"
_cell_formula_units_Z 28
_cell_length_a 21.401137
_cell_length_b 15.923953
_cell_length_c 9.123813
_cell_angle_alpha 90.000000
_cell_angle_beta 154.412134
_cell_angle_gamma 90.000000
_cell_volume 1342.894933
_symmetry_space_group_name_H-M "P 21/C"
_symmetry_group_IT_number 14
_symmetry_cell_setting 'monoclinic'
loop_
_space_group_symop_operation_xyz
x,y,z
-x,1/2+y,1/2-z
-x,-y,-z
x,1/2-y,1/2+z
loop_
_atom_site_type_symbol
_atom_site_label
_atom_site_fract_x
_atom_site_fract_y
_atom_site_fract_z
Si Si1 0.304865 0.503626 0.465425
Si Si2 0.012305 0.972884 0.696617
Si Si3 0.718250 0.111582 0.797732
Si Si4 0.755529 0.728837 0.918357
Si Si5 0.824973 0.634628 0.339330
Si Si6 0.544367 0.530592 0.752870
Si Si7 0.430898 0.330414 0.744021
O O1 0.272501 0.570907 0.521677
O O2 0.398782 0.544364 0.536426
O O3 0.399798 0.426330 0.728821
O O4 0.150878 0.464048 0.093504
O O5 0.085404 0.050956 0.935800
O O6 0.000000 0.000000 0.500000
O O7 0.119044 0.891926 0.922352
O O8 0.600273 0.184980 0.568769
O O9 0.632107 0.045055 0.514802
O O10 0.843339 0.797069 0.007720
O O11 0.642605 0.775055 0.787468
O O12 0.659141 0.679603 0.596327
O O13 0.849373 0.673511 0.229938
O O14 0.655418 0.607616 0.984970
O O15 0.500000 0.500000 0.500000
#
# Coordination Sequence:
#
# PCOD9239680 Si02
#       7
#     4   4   4   4   4   4   4
#     4  10  18  32  56  77  98 131 168 214 260 303
#     4   9  18  32  55  79 100 129 170 218 258 303
#     4   9  17  31  52  74  98 126 165 212 252 298
#     4  10  20  31  52  72 103 138 172 209 237 317
#     4  10  19  34  52  77 102 135 175 207 258 302
#     4  10  18  30  51  79 105 123 160 220 260 292
#     4  10  18  32  51  76  98 132 172 204 258 301
#
# _framework density 20.850477999999999
#
# number of rings (size 3 to 8) (size 9 to 14) (size 15 to 20)
#    0.000    2.286    0.000    6.857    0.000    0.000 
#    0.000    6.429    0.000   30.857    0.000    0.000 
#    0.000    0.000    0.000    0.000    0.000    0.000 
#
# Total GULP energy -156072.894064 kJ/mol
# GULP energy per Si atom -5574.031931 kJ/mol
# Density = 2.080302 g / cm^3
# Si number density = 20.850478 Si / 1000 Ang^3
#
#
#
# Elastic Constant Matrix: (Units=GPa)
#
#
# Indices 1 2 3 4 5 6 
#
# 1 81.8970 8.2526 41.0837 0.0000 -17.5885 0.0000
# 2 8.2526 26.2844 2.7882 0.0000 -7.9497 0.0000
# 3 41.0837 2.7882 79.9557 0.0000 12.1770 0.0000
# 4 0.0000 0.0000 0.0000 17.8659 0.0000 -9.8924
# 5 -17.5885 -7.9497 12.1770 0.0000 40.9689 0.0000
# 6 0.0000 0.0000 0.0000 -9.8924 0.0000 22.6506
#
#
#
# Elastic Compliance Matrix: (Units=1/GPa)
#
#
# Indices 1 2 3 4 5 6 
#
# 1 0.021678 -0.001524 -0.013049 0.000000 0.012889 0.000000
# 2 -0.001524 0.041100 -0.001849 0.000000 0.007871 0.000000
# 3 -0.013049 -0.001849 0.021141 0.000000 -0.012244 0.000000
# 4 0.000000 0.000000 0.000000 0.073825 0.000000 0.032242
# 5 0.012889 0.007871 -0.012244 0.000000 0.035109 0.000000
# 6 0.000000 0.000000 0.000000 0.032242 0.000000 0.058230
#
#
# Mechanical properties :
#
#
# Convention : Reuss Voigt Hill
#
# Bulk Modulus (GPa) = 19.57846 32.48736 26.03291
# Shear Modulus (GPa) = 16.61391 25.36459 20.98925
#
# Velocity S-wave (km/s) = 2.82585 3.49162 3.17623
# Velocity P-wave (km/s) = 4.47857 5.64536 5.09547
#
# Compressibility (1/GPa) = 0.05107653
#
# Stress axis : x y z
#
# Youngs Moduli (GPa) = 46.12952 24.33069 47.30135
#
# Poissons Ratio (x) = 0.03707 0.61722
# Poissons Ratio (y) = 0.07029 0.08746
# Poissons Ratio (z) = 0.60193 0.04499
#
# Static dielectric constant tensor:
#      x y z
#    x 1.758960 0.000000 0.039420 
#    y 0.000000 1.803290 0.000000 
#    z 0.039420 0.000000 1.795660 
# 
# From -- ./inp_files/19165.got.cif
#   From: 2010.05.17/outbox.cif.g08.bks.cpg/sg14_10_cif.got.tgz:19165.got - 2010.06.03 17:49:19.
