data_PCOD9239890
_publ_section_title
;
Structure prediction by ZEFSAII (Michael W. Deem and Ramdas Pophale) SiO2 
 PCOD9239890
Probable space group: P 21/C
;
_chemical_formula_sum "Si O2"
_cell_formula_units_Z 22
_cell_length_a 5.602101
_cell_length_b 8.540790
_cell_length_c 16.808941
_cell_angle_alpha 90.000000
_cell_angle_beta 103.808580
_cell_angle_gamma 90.000000
_cell_volume 781.002881
_symmetry_space_group_name_H-M "P 21/C"
_symmetry_group_IT_number 14
_symmetry_cell_setting 'monoclinic'
loop_
_space_group_symop_operation_xyz
x,y,z
-x,1/2+y,1/2-z
-x,-y,-z
x,1/2-y,1/2+z
loop_
_atom_site_type_symbol
_atom_site_label
_atom_site_fract_x
_atom_site_fract_y
_atom_site_fract_z
Si Si1 0.663741 0.323683 0.587659
Si Si2 0.026528 0.668542 0.096432
Si Si3 0.000000 0.500000 0.500000
Si Si4 0.915505 0.128894 0.739250
Si Si5 0.494616 0.148980 0.420991
Si Si6 0.532676 0.949707 0.198456
O O1 0.807786 0.462416 0.555696
O O2 0.851046 0.231763 0.658284
O O3 0.536250 0.220696 0.511469
O O4 0.472546 0.409952 0.632082
O O5 0.774023 0.577660 0.091569
O O6 0.061183 0.757761 0.182546
O O7 0.256579 0.564311 0.086481
O O8 0.014563 0.810878 0.031273
O O9 0.666097 0.038030 0.746961
O O10 0.181234 0.046904 0.753621
O O11 0.486873 0.291363 0.355702
#
# Coordination Sequence:
#
# PCOD9239890 Si02
#       6
#     4   4   2   4   4   4
#     4  11  21  34  62  89 119 156 190 246 306 339
#     4   9  18  31  49  78 113 139 179 233 286 344
#     4  10  18  32  60  84 110 146 190 246 294 324
#     4  10  22  35  51  86 122 153 188 236 304 350
#     4   9  18  30  53  78 103 140 181 234 286 332
#     4  10  21  38  52  79 126 145 193 242 288 360
#
# _framework density 28.168907999999998
#
# number of rings (size 3 to 8) (size 9 to 14) (size 15 to 20)
#    0.000    2.182    3.636    0.545    5.091    4.364 
#    0.000    0.000    0.000    0.000    0.000   48.364 
#    0.000    0.000    0.000    0.000    0.000    0.000 
#
# Total GULP energy -122816.434307 kJ/mol
# GULP energy per Si atom -5582.565196 kJ/mol
# Density = 2.810479 g / cm^3
# Si number density = 28.168908 Si / 1000 Ang^3
#
#
#
# Elastic Constant Matrix: (Units=GPa)
#
#
# Indices 1 2 3 4 5 6 
#
# 1 260.8684 21.2770 50.6274 0.0000 -26.6290 0.0000
# 2 21.2770 65.6910 10.8668 0.0000 -2.2341 0.0000
# 3 50.6274 10.8668 50.2371 0.0000 -10.2510 0.0000
# 4 0.0000 0.0000 0.0000 39.8517 0.0000 -4.5218
# 5 -26.6290 -2.2341 -10.2510 0.0000 23.2469 0.0000
# 6 0.0000 0.0000 0.0000 -4.5218 0.0000 9.8090
#
#
#
# Elastic Compliance Matrix: (Units=1/GPa)
#
#
# Indices 1 2 3 4 5 6 
#
# 1 0.005112 -0.000832 -0.004168 0.000000 0.003938 0.000000
# 2 -0.000832 0.015923 -0.002734 0.000000 -0.000629 0.000000
# 3 -0.004168 -0.002734 0.026010 0.000000 0.006432 0.000000
# 4 0.000000 0.000000 0.000000 0.026478 0.000000 0.012206
# 5 0.003938 -0.000629 0.006432 0.000000 0.050303 0.000000
# 6 0.000000 0.000000 0.000000 0.012206 0.000000 0.107574
#
#
# Mechanical properties :
#
#
# Convention : Reuss Voigt Hill
#
# Bulk Modulus (GPa) = 31.66910 60.25989 45.96449
# Shear Modulus (GPa) = 19.42541 34.18319 26.80430
#
# Velocity S-wave (km/s) = 2.62888 3.48732 3.08808
# Velocity P-wave (km/s) = 4.52567 6.13629 5.39146
#
# Compressibility (1/GPa) = 0.03157652
#
# Stress axis : x y z
#
# Youngs Moduli (GPa) = 195.61199 62.80130 38.44663
#
# Poissons Ratio (x) = 0.05227 0.16026
# Poissons Ratio (y) = 0.16282 0.10511
# Poissons Ratio (z) = 0.81537 0.17169
#
# Static dielectric constant tensor:
#      x y z
#    x 2.220140 0.000000 -0.041450 
#    y 0.000000 2.214920 0.000000 
#    z -0.041450 0.000000 1.831280 
# 
# From -- ./inp_files/37081.got.cif
#   From: 2010.05.17/outbox.cif.g08.bks.cpg/sg14_19_cif.got.tgz:37081.got - 2010.06.03 17:49:19.
