data_PCOD9239163
_publ_section_title
;
Structure prediction by ZEFSAII (Michael W. Deem and Ramdas Pophale) SiO2 
 PCOD9239163
Probable space group: P 21/C
;
_chemical_formula_sum "Si O2"
_cell_formula_units_Z 28
_cell_length_a 15.107512
_cell_length_b 9.141720
_cell_length_c 15.821494
_cell_angle_alpha 90.000000
_cell_angle_beta 26.239307
_cell_angle_gamma 90.000000
_cell_volume 966.072663
_symmetry_space_group_name_H-M "P 21/C"
_symmetry_group_IT_number 14
_symmetry_cell_setting 'monoclinic'
loop_
_space_group_symop_operation_xyz
x,y,z
-x,1/2+y,1/2-z
-x,-y,-z
x,1/2-y,1/2+z
loop_
_atom_site_type_symbol
_atom_site_label
_atom_site_fract_x
_atom_site_fract_y
_atom_site_fract_z
Si Si1 0.023388 0.532213 0.199390
Si Si2 0.815492 0.187055 0.676198
Si Si3 0.672838 0.309160 0.976334
Si Si4 0.249717 0.241609 0.307119
Si Si5 0.384877 0.363463 0.513520
Si Si6 0.823858 0.044061 0.038275
Si Si7 0.403127 0.101003 0.377695
O O1 0.814131 0.539853 0.330396
O O2 0.984922 0.477325 0.327500
O O3 0.145296 0.684926 0.110886
O O4 0.194774 0.433335 0.010611
O O5 0.759611 0.259875 0.813458
O O6 0.818922 0.312599 0.600691
O O7 0.048345 0.145003 0.479653
O O8 0.616743 0.085853 0.828760
O O9 0.609354 0.479963 0.034337
O O10 0.463077 0.225549 0.173923
O O11 0.327244 0.234002 0.144256
O O12 0.175507 0.400688 0.403024
O O13 0.394453 0.260435 0.423534
O O14 0.617213 0.052565 0.162394
#
# Coordination Sequence:
#
# PCOD9239163 Si02
#       7
#     4   4   4   4   4   4   4
#     4  10  19  31  44  68 100 126 150 189 227 276
#     4  10  17  28  46  72  92 121 149 189 232 289
#     4   8  17  28  46  68  97 120 148 183 234 284
#     4  10  16  28  45  67  93 124 146 183 230 283
#     4  10  20  29  45  72  98 120 156 188 227 276
#     4  10  17  27  48  67  96 122 150 180 238 283
#     4   8  17  31  44  66  97 124 148 182 230 277
#
# _framework density 28.983328
#
# number of rings (size 3 to 8) (size 9 to 14) (size 15 to 20)
#    0.857    1.714    1.429    2.143    0.000    4.571 
#    0.000    0.000    0.000    0.000    0.000    5.000 
#    0.000    0.143    0.000    0.000    0.000    0.000 
#
# Total GULP energy -156535.325537 kJ/mol
# GULP energy per Si atom -5590.547341 kJ/mol
# Density = 2.891736 g / cm^3
# Si number density = 28.983328 Si / 1000 Ang^3
#
#
#
# Elastic Constant Matrix: (Units=GPa)
#
#
# Indices 1 2 3 4 5 6 
#
# 1 108.5573 48.1166 58.8919 0.0000 -37.8449 0.0000
# 2 48.1166 95.7163 42.0294 0.0000 -9.5103 0.0000
# 3 58.8919 42.0294 300.6930 0.0000 -48.6555 0.0000
# 4 0.0000 0.0000 0.0000 43.5843 0.0000 -10.3593
# 5 -37.8449 -9.5103 -48.6555 0.0000 57.9170 0.0000
# 6 0.0000 0.0000 0.0000 -10.3593 0.0000 40.6449
#
#
#
# Elastic Compliance Matrix: (Units=1/GPa)
#
#
# Indices 1 2 3 4 5 6 
#
# 1 0.015479 -0.006619 -0.000747 0.000000 0.008400 0.000000
# 2 -0.006619 0.013979 -0.001141 0.000000 -0.002988 0.000000
# 3 -0.000747 -0.001141 0.004076 0.000000 0.002749 0.000000
# 4 0.000000 0.000000 0.000000 0.024424 0.000000 0.006225
# 5 0.008400 -0.002988 0.002749 0.000000 0.024573 0.000000
# 6 0.000000 0.000000 0.000000 0.006225 0.000000 0.026190
#
#
# Mechanical properties :
#
#
# Convention : Reuss Voigt Hill
#
# Bulk Modulus (GPa) = 60.53184 89.22692 74.87938
# Shear Modulus (GPa) = 38.09753 52.15780 45.12766
#
# Velocity S-wave (km/s) = 3.62949 4.24675 3.95019
# Velocity P-wave (km/s) = 6.20440 7.40938 6.83350
#
# Compressibility (1/GPa) = 0.01652023
#
# Stress axis : x y z
#
# Youngs Moduli (GPa) = 64.60319 71.53645 245.32064
#
# Poissons Ratio (x) = 0.47347 0.18333
# Poissons Ratio (y) = 0.42758 0.27994
# Poissons Ratio (z) = 0.04828 0.08163
#
# Static dielectric constant tensor:
#      x y z
#    x 2.278640 0.000000 -0.102450 
#    y 0.000000 2.327510 0.000000 
#    z -0.102450 0.000000 2.256070 
# 
# From -- ./inp_files/69377.got.cif
#   From: 2010.05.17/outbox.cif.g08.bks.cpg/sg14_35_cif.got.tgz:69377.got - 2010.06.03 17:49:19.
