data_PCOD9239839
_publ_section_title
;
Structure prediction by ZEFSAII (Michael W. Deem and Ramdas Pophale) SiO2 
 PCOD9239839
Probable space group: P 21/C
;
_chemical_formula_sum "Si O2"
_cell_formula_units_Z 28
_cell_length_a 16.767365
_cell_length_b 8.282828
_cell_length_c 14.765866
_cell_angle_alpha 90.000000
_cell_angle_beta 32.746847
_cell_angle_gamma 90.000000
_cell_volume 1109.282081
_symmetry_space_group_name_H-M "P 21/C"
_symmetry_group_IT_number 14
_symmetry_cell_setting 'monoclinic'
loop_
_space_group_symop_operation_xyz
x,y,z
-x,1/2+y,1/2-z
-x,-y,-z
x,1/2-y,1/2+z
loop_
_atom_site_type_symbol
_atom_site_label
_atom_site_fract_x
_atom_site_fract_y
_atom_site_fract_z
Si Si1 0.704192 0.006828 0.491284
Si Si2 0.064790 0.889093 0.582037
Si Si3 0.513603 0.183874 0.222989
Si Si4 0.636686 0.173949 0.386088
Si Si5 0.801906 0.489585 0.240853
Si Si6 0.322998 0.268254 0.248254
Si Si7 0.220045 0.929915 0.935453
O O1 0.839169 0.026881 0.431021
O O2 0.583624 0.139318 0.643192
O O3 0.735033 0.064869 0.360123
O O4 0.608336 0.844001 0.582670
O O5 0.120875 0.921665 0.425457
O O6 0.085546 0.695313 0.577565
O O7 0.907291 0.975878 0.725338
O O8 0.404399 0.153156 0.243064
O O9 0.659871 0.079125 0.099557
O O10 0.675901 0.358052 0.376794
O O11 0.465422 0.144302 0.570218
O O12 0.687685 0.150701 0.235598
O O13 0.750367 0.664079 0.258094
O O14 0.210472 0.386717 0.408736
#
# Coordination Sequence:
#
# PCOD9239839 Si02
#       7
#     4   4   4   4   4   4   4
#     4  10  19  35  57  81 111 148 190 241 294 343
#     4   9  20  37  59  76 114 153 191 227 280 351
#     4  10  18  32  54  84 109 140 187 240 294 345
#     4  10  21  35  55  82 119 147 182 244 298 336
#     4  10  20  37  56  82 110 154 192 230 281 348
#     4  11  20  33  56  86 111 143 195 243 290 340
#     4  10  20  35  56  84 114 148 187 241 292 340
#
# _framework density 25.241551000000001
#
# number of rings (size 3 to 8) (size 9 to 14) (size 15 to 20)
#    0.000    2.000    4.286    0.857    0.000    0.571 
#    0.000    1.429    0.000    8.571    0.000    0.000 
#    0.000    0.000    0.000    0.000    0.000    0.000 
#
# Total GULP energy -156164.550461 kJ/mol
# GULP energy per Si atom -5577.305374 kJ/mol
# Density = 2.518410 g / cm^3
# Si number density = 25.241551 Si / 1000 Ang^3
#
#
#
# Elastic Constant Matrix: (Units=GPa)
#
#
# Indices 1 2 3 4 5 6 
#
# 1 104.4097 17.8293 10.7441 0.0000 -29.2468 0.0000
# 2 17.8293 59.2659 32.0711 0.0000 -13.5512 0.0000
# 3 10.7441 32.0711 30.3156 0.0000 -5.7169 0.0000
# 4 0.0000 0.0000 0.0000 27.9376 0.0000 0.3888
# 5 -29.2468 -13.5512 -5.7169 0.0000 37.9054 0.0000
# 6 0.0000 0.0000 0.0000 0.3888 0.0000 33.9358
#
#
#
# Elastic Compliance Matrix: (Units=1/GPa)
#
#
# Indices 1 2 3 4 5 6 
#
# 1 0.012431 -0.000479 -0.002185 0.000000 0.009090 0.000000
# 2 -0.000479 0.042020 -0.042735 0.000000 0.008207 0.000000
# 3 -0.002185 -0.042735 0.077990 0.000000 -0.005201 0.000000
# 4 0.000000 0.000000 0.000000 0.035800 0.000000 -0.000410
# 5 0.009090 0.008207 -0.005201 0.000000 0.035545 0.000000
# 6 0.000000 0.000000 0.000000 -0.000410 0.000000 0.029472
#
#
# Mechanical properties :
#
#
# Convention : Reuss Voigt Hill
#
# Bulk Modulus (GPa) = 24.01406 35.03113 29.52259
# Shear Modulus (GPa) = 14.79571 28.84555 21.82063
#
# Velocity S-wave (km/s) = 2.42371 3.38417 2.94338
# Velocity P-wave (km/s) = 4.16736 5.40173 4.82418
#
# Compressibility (1/GPa) = 0.04164227
#
# Stress axis : x y z
#
# Youngs Moduli (GPa) = 80.44660 23.79842 12.82215
#
# Poissons Ratio (x) = 0.01139 0.02801
# Poissons Ratio (y) = 0.03852 0.54796
# Poissons Ratio (z) = 0.17575 1.01704
#
# Static dielectric constant tensor:
#      x y z
#    x 2.011450 0.000000 0.039810 
#    y 0.000000 2.121340 0.000000 
#    z 0.039810 0.000000 1.985820 
# 
# From -- ./inp_files/69056.got.cif
#   From: 2010.05.17/outbox.cif.g08.bks.cpg/sg14_35_cif.got.tgz:69056.got - 2010.06.03 17:49:19.
