data_PCOD9239588
_publ_section_title
;
Structure prediction by ZEFSAII (Michael W. Deem and Ramdas Pophale) SiO2 
 PCOD9239588
Probable space group: P 21/C
;
_chemical_formula_sum "Si O2"
_cell_formula_units_Z 24
_cell_length_a 9.254617
_cell_length_b 16.603116
_cell_length_c 8.248253
_cell_angle_alpha 90.000000
_cell_angle_beta 109.590924
_cell_angle_gamma 90.000000
_cell_volume 1194.020839
_symmetry_space_group_name_H-M "P 21/C"
_symmetry_group_IT_number 14
_symmetry_cell_setting 'monoclinic'
loop_
_space_group_symop_operation_xyz
x,y,z
-x,1/2+y,1/2-z
-x,-y,-z
x,1/2-y,1/2+z
loop_
_atom_site_type_symbol
_atom_site_label
_atom_site_fract_x
_atom_site_fract_y
_atom_site_fract_z
Si Si1 0.814074 0.988421 0.773005
Si Si2 0.639348 0.934178 0.384292
Si Si3 0.342442 0.657702 0.833027
Si Si4 0.315225 0.667887 0.208337
Si Si5 0.554846 0.944264 0.873330
Si Si6 0.891321 0.487256 0.802643
O O1 0.759759 0.081269 0.756710
O O2 0.733190 0.946048 0.585310
O O3 0.732587 0.947288 0.896222
O O4 0.994549 0.986127 0.806243
O O5 0.517745 0.861853 0.343673
O O6 0.530345 0.011890 0.311720
O O7 0.763091 0.943331 0.285219
O O8 0.279965 0.741047 0.740408
O O9 0.335256 0.663182 0.023675
O O10 0.474816 0.641668 0.354405
O O11 0.194752 0.598823 0.216599
O O12 0.500000 0.000000 0.000000
O O13 0.000000 0.500000 0.000000
#
# Coordination Sequence:
#
# PCOD9239588 Si02
#       6
#     4   4   4   4   4   4
#     4  10  17  37  64  77 105 155 190 225 279 345
#     4   9  17  35  58  79 102 148 192 221 268 343
#     4  11  20  34  55  83 114 142 191 237 284 328
#     4  11  22  35  54  86 115 147 186 239 289 331
#     4  10  19  33  55  82 109 142 193 232 264 330
#     4   9  17  35  64  80 103 152 200 221 273 354
#
# _framework density 20.100152999999999
#
# number of rings (size 3 to 8) (size 9 to 14) (size 15 to 20)
#    0.000    2.000    6.667    1.000    4.667    0.000 
#    0.000    5.000    0.000    0.000    0.000    0.000 
#    0.000    0.000    0.000    0.000    0.000    0.000 
#
# Total GULP energy -133733.338406 kJ/mol
# GULP energy per Si atom -5572.222434 kJ/mol
# Density = 2.005440 g / cm^3
# Si number density = 20.100153 Si / 1000 Ang^3
#
#
#
# Elastic Constant Matrix: (Units=GPa)
#
#
# Indices 1 2 3 4 5 6 
#
# 1 172.9299 35.1587 31.1673 0.0000 -34.7386 0.0000
# 2 35.1587 102.3514 9.7486 0.0000 -6.0632 0.0000
# 3 31.1673 9.7486 49.0178 0.0000 -18.2730 0.0000
# 4 0.0000 0.0000 0.0000 25.3897 0.0000 2.7966
# 5 -34.7386 -6.0632 -18.2730 0.0000 38.3815 0.0000
# 6 0.0000 0.0000 0.0000 2.7966 0.0000 20.7246
#
#
#
# Elastic Compliance Matrix: (Units=1/GPa)
#
#
# Indices 1 2 3 4 5 6 
#
# 1 0.007763 -0.002105 -0.002458 0.000000 0.005524 0.000000
# 2 -0.002105 0.010548 -0.001031 0.000000 -0.000730 0.000000
# 3 -0.002458 -0.001031 0.025870 0.000000 0.009928 0.000000
# 4 0.000000 0.000000 0.000000 0.039980 0.000000 -0.005395
# 5 0.005524 -0.000730 0.009928 0.000000 0.035665 0.000000
# 6 0.000000 0.000000 0.000000 -0.005395 0.000000 0.048980
#
#
# Mechanical properties :
#
#
# Convention : Reuss Voigt Hill
#
# Bulk Modulus (GPa) = 30.31082 52.93870 41.62476
# Shear Modulus (GPa) = 26.17870 33.44747 29.81309
#
# Velocity S-wave (km/s) = 3.61281 4.08369 3.85545
# Velocity P-wave (km/s) = 5.70227 6.97352 6.36969
#
# Compressibility (1/GPa) = 0.03299152
#
# Stress axis : x y z
#
# Youngs Moduli (GPa) = 128.80913 94.80047 38.65451
#
# Poissons Ratio (x) = 0.19960 0.09503
# Poissons Ratio (y) = 0.27120 0.03987
# Poissons Ratio (z) = 0.31667 0.09778
#
# Static dielectric constant tensor:
#      x y z
#    x 1.805260 0.000000 -0.003500 
#    y 0.000000 1.693350 0.000000 
#    z -0.003500 0.000000 1.791670 
# 
# From -- ./inp_files/8536.got.cif
#   From: 2010.05.17/outbox.cif.g08.bks.cpg/sg14_5_cif.got.tgz:8536.got - 2010.06.03 17:49:19.
