data_PCOD9239133
_publ_section_title
;
Structure prediction by ZEFSAII (Michael W. Deem and Ramdas Pophale) SiO2 
 PCOD9239133
Probable space group: P 21/C
;
_chemical_formula_sum "Si O2"
_cell_formula_units_Z 16
_cell_length_a 6.982953
_cell_length_b 6.670259
_cell_length_c 20.272108
_cell_angle_alpha 90.000000
_cell_angle_beta 49.796549
_cell_angle_gamma 90.000000
_cell_volume 721.167285
_symmetry_space_group_name_H-M "P 21/C"
_symmetry_group_IT_number 14
_symmetry_cell_setting 'monoclinic'
loop_
_space_group_symop_operation_xyz
x,y,z
-x,1/2+y,1/2-z
-x,-y,-z
x,1/2-y,1/2+z
loop_
_atom_site_type_symbol
_atom_site_label
_atom_site_fract_x
_atom_site_fract_y
_atom_site_fract_z
Si Si1 0.969768 0.799503 0.862263
Si Si2 0.248497 0.960080 0.677323
Si Si3 0.212611 0.665622 0.939503
Si Si4 0.573734 0.243243 0.477875
O O1 0.927879 0.588428 0.832676
O O2 0.106342 0.929262 0.777022
O O3 0.129324 0.781361 0.893064
O O4 0.686255 0.852420 0.947412
O O5 0.322581 0.760010 0.619346
O O6 0.510761 0.073274 0.633309
O O7 0.237585 0.777932 0.003832
O O8 0.000000 0.500000 0.000000
O O9 0.500000 0.000000 0.500000
#
# Coordination Sequence:
#
# PCOD9239133 Si02
#       4
#     4   4   4   4
#     4  10  19  34  53  79 106 129 180 212 252 311
#     4  10  20  32  55  80 100 138 170 217 260 295
#     4  10  15  32  56  73  99 139 179 205 241 315
#     4   8  16  31  51  72  95 141 169 203 251 301
#
# _framework density 22.186254000000002
#
# number of rings (size 3 to 8) (size 9 to 14) (size 15 to 20)
#    0.000    3.000    7.500    0.000    0.000    4.000 
#    0.000    1.250    0.000    3.000    0.000    0.000 
#    0.000    0.000    0.000    0.000    0.000    0.000 
#
# Total GULP energy -89199.787527 kJ/mol
# GULP energy per Si atom -5574.986720 kJ/mol
# Density = 2.213576 g / cm^3
# Si number density = 22.186254 Si / 1000 Ang^3
#
#
#
# Elastic Constant Matrix: (Units=GPa)
#
#
# Indices 1 2 3 4 5 6 
#
# 1 161.2840 17.7333 51.2975 0.0000 30.4140 0.0000
# 2 17.7333 29.6847 21.8235 0.0000 0.8399 0.0000
# 3 51.2975 21.8235 127.0564 0.0000 10.9040 0.0000
# 4 0.0000 0.0000 0.0000 35.5720 0.0000 4.3709
# 5 30.4140 0.8399 10.9040 0.0000 43.6982 0.0000
# 6 0.0000 0.0000 0.0000 4.3709 0.0000 28.5325
#
#
#
# Elastic Compliance Matrix: (Units=1/GPa)
#
#
# Indices 1 2 3 4 5 6 
#
# 1 0.008249 -0.003040 -0.002371 0.000000 -0.005091 0.000000
# 2 -0.003040 0.039714 -0.005835 0.000000 0.002809 0.000000
# 3 -0.002371 -0.005835 0.009891 0.000000 -0.000706 0.000000
# 4 0.000000 0.000000 0.000000 0.028651 0.000000 -0.004389
# 5 -0.005091 0.002809 -0.000706 0.000000 0.026550 0.000000
# 6 0.000000 0.000000 0.000000 -0.004389 0.000000 0.035720
#
#
# Mechanical properties :
#
#
# Convention : Reuss Voigt Hill
#
# Bulk Modulus (GPa) = 28.28030 55.52598 41.90314
# Shear Modulus (GPa) = 27.31434 36.70526 32.00980
#
# Velocity S-wave (km/s) = 3.51256 4.07186 3.80251
# Velocity P-wave (km/s) = 5.40604 6.86937 6.18116
#
# Compressibility (1/GPa) = 0.03536030
#
# Stress axis : x y z
#
# Youngs Moduli (GPa) = 121.23056 25.18011 101.10585
#
# Poissons Ratio (x) = 0.07656 0.23974
# Poissons Ratio (y) = 0.36859 0.58994
# Poissons Ratio (z) = 0.28746 0.14692
#
# Static dielectric constant tensor:
#      x y z
#    x 1.770740 0.000000 -0.002230 
#    y 0.000000 2.229690 0.000000 
#    z -0.002230 0.000000 1.884630 
# 
# From -- ./inp_files/28300.got.cif
#   From: 2010.05.17/outbox.cif.g08.bks.cpg/sg14_15_cif.got.tgz:28300.got - 2010.06.03 17:49:19.
