data_PCOD9239476
_publ_section_title
;
Structure prediction by ZEFSAII (Michael W. Deem and Ramdas Pophale) SiO2 
 PCOD9239476
Probable space group: P 21/C
;
_chemical_formula_sum "Si O2"
_cell_formula_units_Z 26
_cell_length_a 8.394688
_cell_length_b 11.558238
_cell_length_c 10.998390
_cell_angle_alpha 90.000000
_cell_angle_beta 56.674141
_cell_angle_gamma 90.000000
_cell_volume 891.666979
_symmetry_space_group_name_H-M "P 21/C"
_symmetry_group_IT_number 14
_symmetry_cell_setting 'monoclinic'
loop_
_space_group_symop_operation_xyz
x,y,z
-x,1/2+y,1/2-z
-x,-y,-z
x,1/2-y,1/2+z
loop_
_atom_site_type_symbol
_atom_site_label
_atom_site_fract_x
_atom_site_fract_y
_atom_site_fract_z
Si Si1 0.729207 0.923900 0.687624
Si Si2 0.714461 0.136516 0.867464
Si Si3 0.500000 0.500000 0.000000
Si Si4 0.685031 0.049859 0.141722
Si Si5 0.097091 0.865940 0.633031
Si Si6 0.653846 0.738006 0.929297
Si Si7 0.049824 0.141340 0.056370
O O1 0.518982 0.938672 0.702858
O O2 0.676486 0.818161 0.801664
O O3 0.954416 0.890541 0.581835
O O4 0.739110 0.050059 0.746229
O O5 0.873015 0.230114 0.843598
O O6 0.655596 0.060727 0.010177
O O7 0.528875 0.214001 0.922609
O O8 0.302073 0.576781 0.041856
O O9 0.366054 0.392815 0.096733
O O10 0.830413 0.154403 0.110340
O O11 0.823006 0.937427 0.086404
O O12 0.988059 0.919604 0.796417
O O13 0.820498 0.753331 0.957351
#
# Coordination Sequence:
#
# PCOD9239476 Si02
#       7
#     4   4   2   4   4   4   4
#     4  10  18  33  59  83 109 146 197 243 277 356
#     4  10  17  34  55  82 108 145 197 238 282 348
#     4  10  22  36  56  82 120 152 196 238 292 352
#     4  10  18  34  59  86 114 139 195 248 300 341
#     4  10  22  33  57  81 114 154 195 237 294 354
#     4   9  17  33  55  82 107 148 186 239 283 346
#     4  10  19  32  58  89 112 148 186 250 299 350
#
# _framework density 29.158867999999998
#
# number of rings (size 3 to 8) (size 9 to 14) (size 15 to 20)
#    0.000    2.154    4.615    0.923    4.308    0.000 
#    0.000    3.077   10.154    9.231    0.000    0.000 
#    0.000    0.000    0.000    0.000    0.000    0.000 
#
# Total GULP energy -144787.184511 kJ/mol
# GULP energy per Si atom -5568.737866 kJ/mol
# Density = 2.909250 g / cm^3
# Si number density = 29.158868 Si / 1000 Ang^3
#
#
#
# Elastic Constant Matrix: (Units=GPa)
#
#
# Indices 1 2 3 4 5 6 
#
# 1 155.6273 26.5780 32.4395 0.0000 -63.8523 0.0000
# 2 26.5780 146.8838 27.8273 0.0000 -14.2769 0.0000
# 3 32.4395 27.8273 106.4156 0.0000 -11.0473 0.0000
# 4 0.0000 0.0000 0.0000 36.9562 0.0000 -8.3787
# 5 -63.8523 -14.2769 -11.0473 0.0000 48.8209 0.0000
# 6 0.0000 0.0000 0.0000 -8.3787 0.0000 53.9444
#
#
#
# Elastic Compliance Matrix: (Units=1/GPa)
#
#
# Indices 1 2 3 4 5 6 
#
# 1 0.014513 -0.000387 -0.002421 0.000000 0.018321 0.000000
# 2 -0.000387 0.007316 -0.001665 0.000000 0.001257 0.000000
# 3 -0.002421 -0.001665 0.010436 0.000000 -0.001292 0.000000
# 4 0.000000 0.000000 0.000000 0.028047 0.000000 0.004356
# 5 0.018321 0.001257 -0.001292 0.000000 0.044520 0.000000
# 6 0.000000 0.000000 0.000000 0.004356 0.000000 0.019214
#
#
# Mechanical properties :
#
#
# Convention : Reuss Voigt Hill
#
# Bulk Modulus (GPa) = 42.88135 64.73515 53.80825
# Shear Modulus (GPa) = 35.52052 49.41640 42.46846
#
# Velocity S-wave (km/s) = 3.49402 4.12118 3.82049
# Velocity P-wave (km/s) = 5.56916 6.70034 6.16077
#
# Compressibility (1/GPa) = 0.02332016
#
# Stress axis : x y z
#
# Youngs Moduli (GPa) = 68.90361 136.69392 95.81877
#
# Poissons Ratio (x) = 0.05285 0.23199
# Poissons Ratio (y) = 0.02664 0.15951
# Poissons Ratio (z) = 0.16682 0.22755
#
# Static dielectric constant tensor:
#      x y z
#    x 2.295830 0.000000 -0.025230 
#    y 0.000000 2.149720 0.000000 
#    z -0.025230 0.000000 2.318880 
# 
# From -- ./inp_files/46840.got.cif
#   From: 2010.05.17/outbox.cif.g08.bks.cpg/sg14_24_cif.got.tgz:46840.got - 2010.06.03 17:49:19.
