data_PCOD9239150
_publ_section_title
;
Structure prediction by ZEFSAII (Michael W. Deem and Ramdas Pophale) SiO2 
 PCOD9239150
Probable space group: P 21/C
;
_chemical_formula_sum "Si O2"
_cell_formula_units_Z 32
_cell_length_a 14.805262
_cell_length_b 16.387542
_cell_length_c 5.565189
_cell_angle_alpha 90.000000
_cell_angle_beta 111.359184
_cell_angle_gamma 90.000000
_cell_volume 1257.496161
_symmetry_space_group_name_H-M "P 21/C"
_symmetry_group_IT_number 14
_symmetry_cell_setting 'monoclinic'
loop_
_space_group_symop_operation_xyz
x,y,z
-x,1/2+y,1/2-z
-x,-y,-z
x,1/2-y,1/2+z
loop_
_atom_site_type_symbol
_atom_site_label
_atom_site_fract_x
_atom_site_fract_y
_atom_site_fract_z
Si Si1 0.300346 0.702224 0.992546
Si Si2 0.845541 0.924424 0.683357
Si Si3 0.637512 0.502141 0.904300
Si Si4 0.085611 0.085922 0.748101
Si Si5 0.500364 0.747142 0.680476
Si Si6 0.900262 0.303351 0.103191
Si Si7 0.417075 0.929236 0.150582
Si Si8 0.217527 0.246282 0.839036
O O1 0.286970 0.737074 0.710363
O O2 0.203858 0.650756 0.954930
O O3 0.415734 0.684244 0.111253
O O4 0.904860 0.954016 0.507052
O O5 0.854248 0.825071 0.720950
O O6 0.731121 0.940203 0.523734
O O7 0.881042 0.959041 0.975031
O O8 0.639169 0.462218 0.639130
O O9 0.528220 0.538914 0.787731
O O10 0.638409 0.453084 0.159179
O O11 0.984544 0.130795 0.691361
O O12 0.161866 0.160966 0.790853
O O13 0.552499 0.750956 0.480971
O O14 0.437381 0.665026 0.623631
O O15 0.907911 0.242652 0.347198
O O16 0.271288 0.248500 0.141268
#
# Coordination Sequence:
#
# PCOD9239150 Si02
#       8
#     4   4   4   4   4   4   4   4
#     4   8  16  27  44  71 104 128 156 206 256 323
#     4  10  18  29  44  65  96 133 175 216 245 294
#     4  10  21  37  55  76 103 142 191 219 250 311
#     4  10  17  26  42  66 101 136 166 207 257 307
#     4  10  19  35  57  83 111 131 165 220 281 327
#     4  10  16  25  41  65 102 136 166 200 254 324
#     4  10  21  38  58  77 104 141 177 225 269 311
#     4   8  14  23  35  55  85 121 154 193 240 281
#
# _framework density 25.447395
#
# number of rings (size 3 to 8) (size 9 to 14) (size 15 to 20)
#    0.000    2.500    0.000    4.500    0.000    0.000 
#    0.000    3.750    0.000    0.000    0.000    0.000 
#    0.000  218.000    0.000    0.000    0.000    0.000 
#
# Total GULP energy -178225.419904 kJ/mol
# GULP energy per Si atom -5569.544372 kJ/mol
# Density = 2.538948 g / cm^3
# Si number density = 25.447395 Si / 1000 Ang^3
#
#
#
# Elastic Constant Matrix: (Units=GPa)
#
#
# Indices 1 2 3 4 5 6 
#
# 1 96.3558 2.6942 68.4750 0.0000 -22.6961 0.0000
# 2 2.6942 43.9895 25.1061 0.0000 -9.8766 0.0000
# 3 68.4750 25.1061 210.4808 0.0000 -71.1163 0.0000
# 4 0.0000 0.0000 0.0000 30.0148 0.0000 5.8440
# 5 -22.6961 -9.8766 -71.1163 0.0000 54.5605 0.0000
# 6 0.0000 0.0000 0.0000 5.8440 0.0000 25.7445
#
#
#
# Elastic Compliance Matrix: (Units=1/GPa)
#
#
# Indices 1 2 3 4 5 6 
#
# 1 0.013634 0.001816 -0.004691 0.000000 -0.000114 0.000000
# 2 0.001816 0.024673 -0.003162 0.000000 0.001100 0.000000
# 3 -0.004691 -0.003162 0.010367 0.000000 0.010989 0.000000
# 4 0.000000 0.000000 0.000000 0.034857 0.000000 -0.007913
# 5 -0.000114 0.001100 0.010989 0.000000 0.032804 0.000000
# 6 0.000000 0.000000 0.000000 -0.007913 0.000000 0.040639
#
#
# Mechanical properties :
#
#
# Convention : Reuss Voigt Hill
#
# Bulk Modulus (GPa) = 27.32095 60.37521 43.84808
# Shear Modulus (GPa) = 27.58639 39.03401 33.31020
#
# Velocity S-wave (km/s) = 3.29607 3.92077 3.62191
# Velocity P-wave (km/s) = 5.02444 6.65384 5.89570
#
# Compressibility (1/GPa) = 0.03660195
#
# Stress axis : x y z
#
# Youngs Moduli (GPa) = 73.34610 40.52968 96.45771
#
# Poissons Ratio (x) = -0.07362 0.45244
# Poissons Ratio (y) = -0.13323 0.30502
# Poissons Ratio (z) = 0.34403 0.12816
#
# Static dielectric constant tensor:
#      x y z
#    x 1.978610 0.000000 -0.019700 
#    y 0.000000 2.163850 0.000000 
#    z -0.019700 0.000000 2.070070 
# 
# From -- ./inp_files/3734.got.cif
#   From: 2010.05.17/outbox.cif.g08.bks.cpg/sg14_2_cif.got.tgz:3734.got - 2010.06.03 17:49:19.
