data_PCOD9239743
_publ_section_title
;
Structure prediction by ZEFSAII (Michael W. Deem and Ramdas Pophale) SiO2 
 PCOD9239743
Probable space group: P 21/C
;
_chemical_formula_sum "Si O2"
_cell_formula_units_Z 32
_cell_length_a 11.382337
_cell_length_b 19.716569
_cell_length_c 8.849455
_cell_angle_alpha 90.000000
_cell_angle_beta 64.968819
_cell_angle_gamma 90.000000
_cell_volume 1799.470495
_symmetry_space_group_name_H-M "P 21/C"
_symmetry_group_IT_number 14
_symmetry_cell_setting 'monoclinic'
loop_
_space_group_symop_operation_xyz
x,y,z
-x,1/2+y,1/2-z
-x,-y,-z
x,1/2-y,1/2+z
loop_
_atom_site_type_symbol
_atom_site_label
_atom_site_fract_x
_atom_site_fract_y
_atom_site_fract_z
Si Si1 0.096671 0.039831 0.554408
Si Si2 0.960411 0.815439 0.488015
Si Si3 0.113534 0.959932 0.855302
Si Si4 0.621847 0.974442 0.231913
Si Si5 0.678981 0.660382 0.532595
Si Si6 0.009584 0.324539 0.676471
Si Si7 0.345911 0.294030 0.791508
Si Si8 0.615592 0.570010 0.085694
O O1 0.036321 0.114891 0.608354
O O2 0.243887 0.052455 0.418209
O O3 0.113155 0.994173 0.691380
O O4 0.000000 0.000000 0.500000
O O5 0.010813 0.826449 0.631220
O O6 0.017749 0.750459 0.372513
O O7 0.808033 0.799571 0.592119
O O8 0.075904 0.881690 0.857676
O O9 0.252223 0.977518 0.850803
O O10 0.000000 0.000000 0.000000
O O11 0.631689 0.913417 0.108028
O O12 0.624971 0.941655 0.399777
O O13 0.493640 0.019783 0.293435
O O14 0.837375 0.659645 0.439690
O O15 0.627011 0.716681 0.678889
O O16 0.633960 0.685557 0.392662
O O17 0.411091 0.351717 0.859468
#
# Coordination Sequence:
#
# PCOD9239743 Si02
#       8
#     4   4   4   4   4   4   4   4
#     4  10  19  35  56  79 105 139 180 227 269 316
#     4   9  19  31  51  76 107 137 175 220 266 319
#     4  11  21  32  54  80 112 141 178 222 269 320
#     4  10  20  35  54  77 109 145 178 219 265 319
#     4  10  18  31  53  80 105 135 176 223 266 311
#     4  10  19  32  49  79 107 139 175 218 271 316
#     4   9  18  31  52  77 105 134 178 222 260 316
#     4   9  20  35  54  78 104 144 179 215 265 318
#
# _framework density 17.783009
#
# number of rings (size 3 to 8) (size 9 to 14) (size 15 to 20)
#    0.000    2.250    2.500    0.750    1.750    3.500 
#    0.000    0.000    2.750    1.500    0.000    0.000 
#    0.000    0.000    0.000    0.000    0.000    0.000 
#
# Total GULP energy -178334.112620 kJ/mol
# GULP energy per Si atom -5572.941019 kJ/mol
# Density = 1.774253 g / cm^3
# Si number density = 17.783009 Si / 1000 Ang^3
#
#
#
# Elastic Constant Matrix: (Units=GPa)
#
#
# Indices 1 2 3 4 5 6 
#
# 1 55.8491 39.4420 13.2465 0.0000 -5.4090 0.0000
# 2 39.4420 129.4009 15.2240 0.0000 -1.6208 0.0000
# 3 13.2465 15.2240 25.6672 0.0000 -5.0867 0.0000
# 4 0.0000 0.0000 0.0000 32.7260 0.0000 0.7009
# 5 -5.4090 -1.6208 -5.0867 0.0000 12.9939 0.0000
# 6 0.0000 0.0000 0.0000 0.7009 0.0000 24.8481
#
#
#
# Elastic Compliance Matrix: (Units=1/GPa)
#
#
# Indices 1 2 3 4 5 6 
#
# 1 0.025065 -0.006654 -0.007682 0.000000 0.006597 0.000000
# 2 -0.006654 0.010085 -0.003087 0.000000 -0.002720 0.000000
# 3 -0.007682 -0.003087 0.047750 0.000000 0.015110 0.000000
# 4 0.000000 0.000000 0.000000 0.030575 0.000000 -0.000862
# 5 0.006597 -0.002720 0.015110 0.000000 0.085281 0.000000
# 6 0.000000 0.000000 0.000000 -0.000862 0.000000 0.040269
#
#
# Mechanical properties :
#
#
# Convention : Reuss Voigt Hill
#
# Bulk Modulus (GPa) = 20.80936 38.52690 29.66813
# Shear Modulus (GPa) = 17.24798 23.64726 20.44762
#
# Velocity S-wave (km/s) = 3.11772 3.65055 3.39461
# Velocity P-wave (km/s) = 4.96865 6.28337 5.66428
#
# Compressibility (1/GPa) = 0.04805529
#
# Stress axis : x y z
#
# Youngs Moduli (GPa) = 39.89582 99.15630 20.94228
#
# Poissons Ratio (x) = 0.65975 0.16088
# Poissons Ratio (y) = 0.26545 0.06465
# Poissons Ratio (z) = 0.30648 0.30610
#
# Static dielectric constant tensor:
#      x y z
#    x 1.602760 0.000000 0.010400 
#    y 0.000000 1.593560 0.000000 
#    z 0.010400 0.000000 1.611590 
# 
# From -- ./inp_files/13706.got.cif
#   From: 2010.05.17/outbox.cif.g08.bks.cpg/sg14_7_cif.got.tgz:13706.got - 2010.06.03 17:49:19.
