data_PCOD9239456
_publ_section_title
;
Structure prediction by ZEFSAII (Michael W. Deem and Ramdas Pophale) SiO2 
 PCOD9239456
Probable space group: P 21/C
;
_chemical_formula_sum "Si O2"
_cell_formula_units_Z 32
_cell_length_a 21.472613
_cell_length_b 16.800141
_cell_length_c 10.604998
_cell_angle_alpha 90.000000
_cell_angle_beta 158.825064
_cell_angle_gamma 90.000000
_cell_volume 1381.898752
_symmetry_space_group_name_H-M "P 21/C"
_symmetry_group_IT_number 14
_symmetry_cell_setting 'monoclinic'
loop_
_space_group_symop_operation_xyz
x,y,z
-x,1/2+y,1/2-z
-x,-y,-z
x,1/2-y,1/2+z
loop_
_atom_site_type_symbol
_atom_site_label
_atom_site_fract_x
_atom_site_fract_y
_atom_site_fract_z
Si Si1 0.904430 0.124849 0.324303
Si Si2 0.271376 0.487874 0.666743
Si Si3 0.511303 0.386970 0.483256
Si Si4 0.008926 0.599644 0.728628
Si Si5 0.282778 0.115070 0.955686
Si Si6 0.386047 0.637333 0.036036
Si Si7 0.770717 0.258287 0.913615
Si Si8 0.749736 0.529844 0.872250
O O1 0.893811 0.104964 0.451187
O O2 0.101653 0.148599 0.663939
O O3 0.859377 0.046419 0.157326
O O4 0.780599 0.196458 0.048197
O O5 0.181644 0.423063 0.587980
O O6 0.352130 0.438154 0.704108
O O7 0.362368 0.550865 0.928551
O O8 0.600702 0.313036 0.583924
O O9 0.596030 0.464813 0.581835
O O10 0.311463 0.406195 0.138157
O O11 0.588968 0.374087 0.770257
O O12 0.066964 0.681950 0.776098
O O13 0.083397 0.524425 0.793008
O O14 0.237614 0.068351 0.741448
O O15 0.439303 0.168538 0.201940
O O16 0.233153 0.696839 0.710692
#
# Coordination Sequence:
#
# PCOD9239456 Si02
#       8
#     4   4   4   4   4   4   4   4
#     4  10  18  32  56  78 104 139 186 211 270 321
#     4  10  18  32  56  85 100 134 182 224 269 304
#     4   9  19  34  53  76 108 140 177 208 272 320
#     4  10  17  33  58  77 103 139 187 218 262 318
#     4  10  17  33  57  81 105 135 178 227 261 315
#     4  10  21  34  53  80 114 133 174 228 269 307
#     4  10  21  34  53  74 112 147 175 216 270 321
#     4   9  16  31  56  79  98 136 179 220 253 318
#
# _framework density 23.156545000000001
#
# number of rings (size 3 to 8) (size 9 to 14) (size 15 to 20)
#    0.000    2.250    2.500    1.875    0.000    0.000 
#    0.000    7.500   19.250    0.000    0.000    0.000 
#    0.000    0.000    0.000    0.000    0.000    0.000 
#
# Total GULP energy -178267.365773 kJ/mol
# GULP energy per Si atom -5570.855180 kJ/mol
# Density = 2.310384 g / cm^3
# Si number density = 23.156545 Si / 1000 Ang^3
#
#
#
# Elastic Constant Matrix: (Units=GPa)
#
#
# Indices 1 2 3 4 5 6 
#
# 1 77.5892 18.2398 2.8073 0.0000 13.6848 0.0000
# 2 18.2398 87.9075 5.8968 0.0000 5.3179 0.0000
# 3 2.8073 5.8968 9.4118 0.0000 -0.5007 0.0000
# 4 0.0000 0.0000 0.0000 21.5108 0.0000 1.3698
# 5 13.6848 5.3179 -0.5007 0.0000 28.9449 0.0000
# 6 0.0000 0.0000 0.0000 1.3698 0.0000 14.7970
#
#
#
# Elastic Compliance Matrix: (Units=1/GPa)
#
#
# Indices 1 2 3 4 5 6 
#
# 1 0.014739 -0.002445 -0.003214 0.000000 -0.006575 0.000000
# 2 -0.002445 0.012437 -0.007129 0.000000 -0.001252 0.000000
# 3 -0.003214 -0.007129 0.111929 0.000000 0.004766 0.000000
# 4 0.000000 0.000000 0.000000 0.046764 0.000000 -0.004329
# 5 -0.006575 -0.001252 0.004766 0.000000 0.037969 0.000000
# 6 0.000000 0.000000 0.000000 -0.004329 0.000000 0.067982
#
#
# Mechanical properties :
#
#
# Convention : Reuss Voigt Hill
#
# Bulk Modulus (GPa) = 8.80843 25.42179 17.11511
# Shear Modulus (GPa) = 14.07499 22.91483 18.49491
#
# Velocity S-wave (km/s) = 2.46807 3.14914 2.82918
# Velocity P-wave (km/s) = 3.45456 4.92188 4.25199
#
# Compressibility (1/GPa) = 0.11352755
#
# Stress axis : x y z
#
# Youngs Moduli (GPa) = 67.84684 80.40607 8.93426
#
# Poissons Ratio (x) = 0.19658 0.02872
# Poissons Ratio (y) = 0.16587 0.06370
# Poissons Ratio (z) = 0.21808 0.57325
#
# Static dielectric constant tensor:
#      x y z
#    x 1.885390 0.000000 0.039420 
#    y 0.000000 1.869850 0.000000 
#    z 0.039420 0.000000 1.952130 
# 
# From -- ./inp_files/35986.got.cif
#   From: 2010.05.17/outbox.cif.g08.bks.cpg/sg14_18_cif.got.tgz:35986.got - 2010.06.03 17:49:19.
