data_PCOD9239930
_publ_section_title
;
Structure prediction by ZEFSAII (Michael W. Deem and Ramdas Pophale) SiO2 
 PCOD9239930
Probable space group: P 21/C
;
_chemical_formula_sum "Si O2"
_cell_formula_units_Z 32
_cell_length_a 19.753645
_cell_length_b 15.063903
_cell_length_c 15.160099
_cell_angle_alpha 90.000000
_cell_angle_beta 155.790770
_cell_angle_gamma 90.000000
_cell_volume 1849.885099
_symmetry_space_group_name_H-M "P 21/C"
_symmetry_group_IT_number 14
_symmetry_cell_setting 'monoclinic'
loop_
_space_group_symop_operation_xyz
x,y,z
-x,1/2+y,1/2-z
-x,-y,-z
x,1/2-y,1/2+z
loop_
_atom_site_type_symbol
_atom_site_label
_atom_site_fract_x
_atom_site_fract_y
_atom_site_fract_z
Si Si1 0.915225 0.409623 0.368220
Si Si2 0.876217 0.820275 0.026546
Si Si3 0.981444 0.481760 0.080170
Si Si4 0.180071 0.856723 0.053772
Si Si5 0.295259 0.023170 0.081126
Si Si6 0.163017 0.125623 0.460055
Si Si7 0.800816 0.339293 0.964273
Si Si8 0.646765 0.026274 0.406477
O O1 0.833099 0.368423 0.357262
O O2 0.000000 0.500000 0.500000
O O3 0.050312 0.345408 0.482127
O O4 0.781034 0.440645 0.137253
O O5 0.805025 0.722588 0.961093
O O6 0.039928 0.830901 0.282032
O O7 0.747455 0.894155 0.906168
O O8 0.155127 0.474907 0.338381
O O9 0.890384 0.561142 0.023757
O O10 0.874619 0.393033 0.969492
O O11 0.000000 0.500000 0.000000
O O12 0.252754 0.760204 0.119060
O O13 0.994305 0.863549 0.792405
O O14 0.275358 0.935309 0.117184
O O15 0.470779 0.026301 0.243160
O O16 0.300342 0.069931 0.569588
O O17 0.666508 0.401444 0.851747
#
# Coordination Sequence:
#
# PCOD9239930 Si02
#       8
#     4   4   4   4   4   4   4   4
#     4  11  18  33  56  79 103 133 178 217 252 300
#     4   9  18  33  52  75 101 135 175 210 250 309
#     4   9  18  34  55  77  95 132 183 215 244 301
#     4  10  18  33  55  78 103 135 175 214 253 303
#     4  10  20  34  53  75 108 138 163 210 267 309
#     4   9  18  34  54  75 102 137 174 211 255 303
#     4   8  18  34  52  73 102 136 173 211 253 302
#     4  10  20  35  53  75 109 142 165 209 265 312
#
# _framework density 17.298372000000001
#
# number of rings (size 3 to 8) (size 9 to 14) (size 15 to 20)
#    0.000    2.500    2.500    1.500    1.750    1.500 
#    0.000    2.500    2.750    0.000    0.000    0.000 
#    0.000    0.000    0.000    0.000    0.000    0.000 
#
# Total GULP energy -178265.068027 kJ/mol
# GULP energy per Si atom -5570.783376 kJ/mol
# Density = 1.725900 g / cm^3
# Si number density = 17.298372 Si / 1000 Ang^3
#
#
#
# Elastic Constant Matrix: (Units=GPa)
#
#
# Indices 1 2 3 4 5 6 
#
# 1 128.9040 55.8709 41.7045 0.0000 16.0022 0.0000
# 2 55.8709 147.1364 34.5546 0.0000 22.3770 0.0000
# 3 41.7045 34.5546 28.3289 0.0000 19.0361 0.0000
# 4 0.0000 0.0000 0.0000 7.2769 0.0000 -3.2478
# 5 16.0022 22.3770 19.0361 0.0000 35.4796 0.0000
# 6 0.0000 0.0000 0.0000 -3.2478 0.0000 17.8394
#
#
#
# Elastic Compliance Matrix: (Units=1/GPa)
#
#
# Indices 1 2 3 4 5 6 
#
# 1 0.016409 -0.000712 -0.029113 0.000000 0.008668 0.000000
# 2 -0.000712 0.009559 -0.010596 0.000000 -0.000022 0.000000
# 3 -0.029113 -0.010596 0.121616 0.000000 -0.045437 0.000000
# 4 0.000000 0.000000 0.000000 0.149575 0.000000 0.027231
# 5 0.008668 -0.000022 -0.045437 0.000000 0.048668 0.000000
# 6 0.000000 0.000000 0.000000 0.027231 0.000000 0.061013
#
#
# Mechanical properties :
#
#
# Convention : Reuss Voigt Hill
#
# Bulk Modulus (GPa) = 14.98329 63.18101 39.08215
# Shear Modulus (GPa) = 9.80527 23.60181 16.70354
#
# Velocity S-wave (km/s) = 2.38341 3.69778 3.11080
# Velocity P-wave (km/s) = 4.03171 7.40506 5.96195
#
# Compressibility (1/GPa) = 0.06674103
#
# Stress axis : x y z
#
# Youngs Moduli (GPa) = 60.94093 104.61740 8.22263
#
# Poissons Ratio (x) = 0.07450 0.23939
# Poissons Ratio (y) = 0.04340 0.08713
# Poissons Ratio (z) = 1.77419 1.10851
#
# Static dielectric constant tensor:
#      x y z
#    x 1.588900 0.000000 -0.009200 
#    y 0.000000 1.573670 0.000000 
#    z -0.009200 0.000000 1.574650 
# 
# From -- ./inp_files/40949.got.cif
#   From: 2010.05.17/outbox.cif.g08.bks.cpg/sg14_21_cif.got.tgz:40949.got - 2010.06.03 17:49:19.
