data_PCOD9239915
_publ_section_title
;
Structure prediction by ZEFSAII (Michael W. Deem and Ramdas Pophale) SiO2 
 PCOD9239915
Probable space group: P 21/C
;
_chemical_formula_sum "Si O2"
_cell_formula_units_Z 32
_cell_length_a 15.011132
_cell_length_b 5.946712
_cell_length_c 20.525763
_cell_angle_alpha 90.000000
_cell_angle_beta 61.715247
_cell_angle_gamma 90.000000
_cell_volume 1613.504045
_symmetry_space_group_name_H-M "P 21/C"
_symmetry_group_IT_number 14
_symmetry_cell_setting 'monoclinic'
loop_
_space_group_symop_operation_xyz
x,y,z
-x,1/2+y,1/2-z
-x,-y,-z
x,1/2-y,1/2+z
loop_
_atom_site_type_symbol
_atom_site_label
_atom_site_fract_x
_atom_site_fract_y
_atom_site_fract_z
Si Si1 0.762106 0.522582 0.794806
Si Si2 0.982671 0.153418 0.221809
Si Si3 0.189511 0.166983 0.097632
Si Si4 0.563022 0.387701 0.186497
Si Si5 0.653132 0.326453 0.417850
Si Si6 0.516900 0.382655 0.575255
Si Si7 0.325232 0.230730 0.933327
Si Si8 0.660715 0.000798 0.198529
O O1 0.787755 0.702959 0.842234
O O2 0.680035 0.358106 0.855889
O O3 0.716907 0.598031 0.741332
O O4 0.865843 0.387098 0.745126
O O5 0.068697 0.154358 0.136423
O O6 0.990433 0.410614 0.249978
O O7 0.244410 0.924875 0.085995
O O8 0.241231 0.281654 0.016770
O O9 0.522388 0.237137 0.141265
O O10 0.624115 0.575772 0.126512
O O11 0.644888 0.269366 0.204900
O O12 0.458952 0.437751 0.259616
O O13 0.576513 0.240987 0.500037
O O14 0.592570 0.535838 0.407747
O O15 0.585036 0.606407 0.559002
O O16 0.289818 0.063050 0.887645
#
# Coordination Sequence:
#
# PCOD9239915 Si02
#       8
#     4   4   4   4   4   4   4   4
#     4  11  22  35  61  88 116 153 207 256 312 363
#     4  10  21  42  65  96 124 159 207 271 329 375
#     4  10  21  38  62  86 114 156 202 257 315 367
#     4  11  20  36  53  74 117 163 200 239 292 369
#     4  10  18  33  52  86 116 143 190 252 300 367
#     4   9  20  31  53  81 115 151 192 239 301 363
#     4  10  21  38  55  82 120 163 200 241 305 368
#     4  11  23  35  55  84 118 163 204 243 300 368
#
# _framework density 19.832612999999998
#
# number of rings (size 3 to 8) (size 9 to 14) (size 15 to 20)
#    0.000    1.750    2.500    2.250    1.750    1.000 
#    0.000    5.625    0.000    0.750    0.000    0.000 
#    0.000    0.000    0.000    0.000    0.000    0.000 
#
# Total GULP energy -178138.583571 kJ/mol
# GULP energy per Si atom -5566.830737 kJ/mol
# Density = 1.978747 g / cm^3
# Si number density = 19.832613 Si / 1000 Ang^3
#
#
#
# Elastic Constant Matrix: (Units=GPa)
#
#
# Indices 1 2 3 4 5 6 
#
# 1 47.0537 1.3229 30.9880 0.0000 -3.9013 0.0000
# 2 1.3229 34.6510 9.0677 0.0000 1.0845 0.0000
# 3 30.9880 9.0677 97.6429 0.0000 -5.4223 0.0000
# 4 0.0000 0.0000 0.0000 25.3016 0.0000 2.3578
# 5 -3.9013 1.0845 -5.4223 0.0000 32.8578 0.0000
# 6 0.0000 0.0000 0.0000 2.3578 0.0000 16.7331
#
#
#
# Elastic Compliance Matrix: (Units=1/GPa)
#
#
# Indices 1 2 3 4 5 6 
#
# 1 0.027019 0.001160 -0.008585 0.000000 0.001753 0.000000
# 2 0.001160 0.029696 -0.003202 0.000000 -0.001371 0.000000
# 3 -0.008585 -0.003202 0.013335 0.000000 0.001287 0.000000
# 4 0.000000 0.000000 0.000000 0.040049 0.000000 -0.005643
# 5 0.001753 -0.001371 0.001287 0.000000 0.030900 0.000000
# 6 0.000000 0.000000 0.000000 -0.005643 0.000000 0.060557
#
#
# Mechanical properties :
#
#
# Convention : Reuss Voigt Hill
#
# Bulk Modulus (GPa) = 20.49369 29.12277 24.80823
# Shear Modulus (GPa) = 20.91396 24.17642 22.54519
#
# Velocity S-wave (km/s) = 3.25087 3.49524 3.37527
# Velocity P-wave (km/s) = 4.94435 5.56822 5.26553
#
# Compressibility (1/GPa) = 0.04879550
#
# Stress axis : x y z
#
# Youngs Moduli (GPa) = 37.01107 33.67490 74.99162
#
# Poissons Ratio (x) = -0.03907 0.64381
# Poissons Ratio (y) = -0.04294 0.24013
# Poissons Ratio (z) = 0.31775 0.10783
#
# Static dielectric constant tensor:
#      x y z
#    x 1.686390 0.000000 0.007590 
#    y 0.000000 1.863460 0.000000 
#    z 0.007590 0.000000 1.737620 
# 
# From -- ./inp_files/67838.got.cif
#   From: 2010.05.17/outbox.cif.g08.bks.cpg/sg14_34_cif.got.tgz:67838.got - 2010.06.03 17:49:19.
