data_PCOD9239686
_publ_section_title
;
Structure prediction by ZEFSAII (Michael W. Deem and Ramdas Pophale) SiO2 
 PCOD9239686
Probable space group: P 21/C
;
_chemical_formula_sum "Si O2"
_cell_formula_units_Z 24
_cell_length_a 12.011186
_cell_length_b 14.992732
_cell_length_c 9.700757
_cell_angle_alpha 90.000000
_cell_angle_beta 142.303080
_cell_angle_gamma 90.000000
_cell_volume 1068.212740
_symmetry_space_group_name_H-M "P 21/C"
_symmetry_group_IT_number 14
_symmetry_cell_setting 'monoclinic'
loop_
_space_group_symop_operation_xyz
x,y,z
-x,1/2+y,1/2-z
-x,-y,-z
x,1/2-y,1/2+z
loop_
_atom_site_type_symbol
_atom_site_label
_atom_site_fract_x
_atom_site_fract_y
_atom_site_fract_z
Si Si1 0.576595 0.356904 0.636292
Si Si2 0.467559 0.411575 0.147162
Si Si3 0.268923 0.997117 0.871242
Si Si4 0.435621 0.235330 0.256226
Si Si5 0.110861 0.405532 0.453684
Si Si6 0.744307 0.056046 0.692867
O O1 0.744918 0.421150 0.759121
O O2 0.401168 0.422915 0.453112
O O3 0.534885 0.278927 0.485124
O O4 0.570573 0.317614 0.784492
O O5 0.620082 0.440712 0.405156
O O6 0.375659 0.321544 0.107050
O O7 0.572690 0.402327 0.104463
O O8 0.332000 0.494157 0.002986
O O9 0.113871 0.047312 0.806131
O O10 0.259976 0.172914 0.107578
O O11 0.178573 0.482449 0.624384
O O12 0.908741 0.382101 0.306104
#
# Coordination Sequence:
#
# PCOD9239686 Si02
#       6
#     4   4   4   4   4   4
#     4   9  17  30  51  76 102 136 174 212 262 318
#     4   9  17  30  51  76 103 140 180 217 261 322
#     4   8  16  31  50  71  99 138 176 211 263 323
#     4  10  18  30  52  78 104 134 174 222 267 307
#     4   9  17  30  51  76 105 141 177 221 268 313
#     4   9  17  31  51  76 107 141 181 216 261 323
#
# _framework density 22.467434000000001
#
# number of rings (size 3 to 8) (size 9 to 14) (size 15 to 20)
#    0.000    3.000    0.000    1.000    0.000    1.333 
#    0.000    1.667    0.000   61.000    0.000    0.000 
#    0.000    0.000    0.000    0.000    0.000    0.000 
#
# Total GULP energy -133778.713760 kJ/mol
# GULP energy per Si atom -5574.113073 kJ/mol
# Density = 2.241630 g / cm^3
# Si number density = 22.467434 Si / 1000 Ang^3
#
#
#
# Elastic Constant Matrix: (Units=GPa)
#
#
# Indices 1 2 3 4 5 6 
#
# 1 96.3764 47.5716 30.1852 0.0000 6.9582 0.0000
# 2 47.5716 126.2757 24.1062 0.0000 -2.2013 0.0000
# 3 30.1852 24.1062 52.1890 0.0000 11.5745 0.0000
# 4 0.0000 0.0000 0.0000 18.3775 0.0000 -9.1037
# 5 6.9582 -2.2013 11.5745 0.0000 12.8017 0.0000
# 6 0.0000 0.0000 0.0000 -9.1037 0.0000 37.0878
#
#
#
# Elastic Compliance Matrix: (Units=1/GPa)
#
#
# Indices 1 2 3 4 5 6 
#
# 1 0.014605 -0.004508 -0.005544 0.000000 -0.003701 0.000000
# 2 -0.004508 0.010518 -0.003997 0.000000 0.007872 0.000000
# 3 -0.005544 -0.003997 0.029642 0.000000 -0.024474 0.000000
# 4 0.000000 0.000000 0.000000 0.061947 0.000000 0.015206
# 5 -0.003701 0.007872 -0.024474 0.000000 0.103608 0.000000
# 6 0.000000 0.000000 0.000000 0.015206 0.000000 0.030695
#
#
# Mechanical properties :
#
#
# Convention : Reuss Voigt Hill
#
# Bulk Modulus (GPa) = 37.50037 53.17412 45.33725
# Shear Modulus (GPa) = 17.36103 25.18527 21.27315
#
# Velocity S-wave (km/s) = 2.78280 3.35172 3.08042
# Velocity P-wave (km/s) = 5.20120 6.22071 5.73366
#
# Compressibility (1/GPa) = 0.02666640
#
# Stress axis : x y z
#
# Youngs Moduli (GPa) = 68.47047 95.07746 33.73627
#
# Poissons Ratio (x) = 0.42863 0.18704
# Poissons Ratio (y) = 0.30868 0.13483
# Poissons Ratio (z) = 0.37961 0.37999
#
# Static dielectric constant tensor:
#      x y z
#    x 1.954510 0.000000 -0.062020 
#    y 0.000000 1.876590 0.000000 
#    z -0.062020 0.000000 1.814940 
# 
# From -- ./inp_files/24821.got.cif
#   From: 2010.05.17/outbox.cif.g08.bks.cpg/sg14_13_cif.got.tgz:24821.got - 2010.06.03 17:49:19.
