data_PCOD9239324
_publ_section_title
;
Structure prediction by ZEFSAII (Michael W. Deem and Ramdas Pophale) SiO2 
 PCOD9239324
Probable space group: P 21/C
;
_chemical_formula_sum "Si O2"
_cell_formula_units_Z 32
_cell_length_a 6.978865
_cell_length_b 17.812924
_cell_length_c 10.771355
_cell_angle_alpha 90.000000
_cell_angle_beta 80.377270
_cell_angle_gamma 90.000000
_cell_volume 1320.189716
_symmetry_space_group_name_H-M "P 21/C"
_symmetry_group_IT_number 14
_symmetry_cell_setting 'monoclinic'
loop_
_space_group_symop_operation_xyz
x,y,z
-x,1/2+y,1/2-z
-x,-y,-z
x,1/2-y,1/2+z
loop_
_atom_site_type_symbol
_atom_site_label
_atom_site_fract_x
_atom_site_fract_y
_atom_site_fract_z
Si Si1 0.198129 0.203591 0.569239
Si Si2 0.397561 0.722180 0.456853
Si Si3 0.502467 0.442139 0.615047
Si Si4 0.646136 0.037315 0.659584
Si Si5 0.663801 0.198583 0.771926
Si Si6 0.204270 0.034237 0.592638
Si Si7 0.114357 0.483957 0.361553
Si Si8 0.803170 0.806843 0.153233
O O1 0.433703 0.215443 0.545370
O O2 0.156701 0.116898 0.548317
O O3 0.127090 0.258486 0.470111
O O4 0.124689 0.216899 0.717750
O O5 0.511366 0.643430 0.424355
O O6 0.270492 0.713520 0.594675
O O7 0.286001 0.744847 0.344061
O O8 0.500000 0.500000 0.500000
O O9 0.359861 0.471043 0.737358
O O10 0.714848 0.455257 0.647203
O O11 0.699595 0.114154 0.722880
O O12 0.421540 0.042175 0.632227
O O13 0.773230 0.020895 0.525002
O O14 0.429625 0.205027 0.813332
O O15 0.062429 0.011530 0.720864
O O16 0.167677 0.395672 0.367474
O O17 0.000000 0.500000 0.500000
#
# Coordination Sequence:
#
# PCOD9239324 Si02
#       8
#     4   4   4   4   4   4   4   4
#     4   9  16  28  45  76 108 126 172 222 270 315
#     4  10  19  26  46  71 110 138 168 207 282 319
#     4  11  19  32  52  84 106 132 178 228 271 314
#     4  10  17  29  48  75 114 131 175 224 275 316
#     4  10  17  31  44  77 114 136 165 224 273 329
#     4   9  18  30  50  78 102 145 175 223 271 324
#     4  10  20  37  55  73 107 149 186 214 261 337
#     4   9  16  30  47  77  99 133 177 219 263 315
#
# _framework density 24.238938999999998
#
# number of rings (size 3 to 8) (size 9 to 14) (size 15 to 20)
#    0.000    2.250    6.250    0.750    5.250    1.000 
#    0.000    0.000    0.000    6.750    0.000    0.000 
#    0.000    0.000    0.000    0.000    0.000    0.000 
#
# Total GULP energy -178797.846465 kJ/mol
# GULP energy per Si atom -5587.432702 kJ/mol
# Density = 2.418377 g / cm^3
# Si number density = 24.238939 Si / 1000 Ang^3
#
#
#
# Elastic Constant Matrix: (Units=GPa)
#
#
# Indices 1 2 3 4 5 6 
#
# 1 61.6000 17.3511 25.9886 0.0000 -2.2559 0.0000
# 2 17.3511 76.3405 81.2098 0.0000 10.9233 0.0000
# 3 25.9886 81.2098 239.6522 0.0000 8.2615 0.0000
# 4 0.0000 0.0000 0.0000 57.0246 0.0000 9.0372
# 5 -2.2559 10.9233 8.2615 0.0000 34.9795 0.0000
# 6 0.0000 0.0000 0.0000 9.0372 0.0000 11.8125
#
#
#
# Elastic Compliance Matrix: (Units=1/GPa)
#
#
# Indices 1 2 3 4 5 6 
#
# 1 0.017649 -0.003492 -0.000814 0.000000 0.002421 0.000000
# 2 -0.003492 0.022004 -0.006889 0.000000 -0.005469 0.000000
# 3 -0.000814 -0.006889 0.006577 0.000000 0.000546 0.000000
# 4 0.000000 0.000000 0.000000 0.019956 0.000000 -0.015267
# 5 0.002421 -0.005469 0.000546 0.000000 0.030323 0.000000
# 6 0.000000 0.000000 0.000000 -0.015267 0.000000 0.096336
#
#
# Mechanical properties :
#
#
# Convention : Reuss Voigt Hill
#
# Bulk Modulus (GPa) = 41.94643 69.63242 55.78942
# Shear Modulus (GPa) = 22.40314 37.63285 30.01799
#
# Velocity S-wave (km/s) = 3.04347 3.94455 3.52294
# Velocity P-wave (km/s) = 5.44915 7.03817 6.29401
#
# Compressibility (1/GPa) = 0.02383993
#
# Stress axis : x y z
#
# Youngs Moduli (GPa) = 56.65892 45.44609 152.05164
#
# Poissons Ratio (x) = 0.15869 0.12380
# Poissons Ratio (y) = 0.19784 1.04752
# Poissons Ratio (z) = 0.04613 0.31309
#
# Static dielectric constant tensor:
#      x y z
#    x 2.129570 0.000000 0.019910 
#    y 0.000000 1.836740 0.000000 
#    z 0.019910 0.000000 1.977420 
# 
# From -- ./inp_files/30201.got.cif
#   From: 2010.05.17/outbox.cif.g08.bks.cpg/sg14_16_cif.got.tgz:30201.got - 2010.06.03 17:49:19.
