data_PCOD9239347
_publ_section_title
;
Structure prediction by ZEFSAII (Michael W. Deem and Ramdas Pophale) SiO2 
 PCOD9239347
Probable space group: P 21/C
;
_chemical_formula_sum "Si O2"
_cell_formula_units_Z 20
_cell_length_a 6.868953
_cell_length_b 20.189549
_cell_length_c 7.990314
_cell_angle_alpha 90.000000
_cell_angle_beta 38.042811
_cell_angle_gamma 90.000000
_cell_volume 682.869965
_symmetry_space_group_name_H-M "P 21/C"
_symmetry_group_IT_number 14
_symmetry_cell_setting 'monoclinic'
loop_
_space_group_symop_operation_xyz
x,y,z
-x,1/2+y,1/2-z
-x,-y,-z
x,1/2-y,1/2+z
loop_
_atom_site_type_symbol
_atom_site_label
_atom_site_fract_x
_atom_site_fract_y
_atom_site_fract_z
Si Si1 0.862594 0.362893 0.430184
Si Si2 0.055518 0.057273 0.239896
Si Si3 0.256822 0.837888 0.341725
Si Si4 0.694023 0.776225 0.552564
Si Si5 0.487805 0.018124 0.269881
O O1 0.597759 0.309142 0.654576
O O2 0.732263 0.542082 0.237302
O O3 0.745053 0.423971 0.622510
O O4 0.196139 0.324489 0.176270
O O5 0.867939 0.124614 0.411058
O O6 0.775844 0.002406 0.418122
O O7 0.308905 0.046051 0.922498
O O8 0.584439 0.799016 0.104748
O O9 0.210321 0.884985 0.211967
O O10 0.997321 0.782662 0.464941
#
# Coordination Sequence:
#
# PCOD9239347 Si02
#       5
#     4   4   4   4   4
#     4  10  20  34  51  78 108 134 171 214 259 315
#     4  10  18  26  53  73 111 123 166 213 277 295
#     4  10  22  36  50  82 105 141 170 216 248 323
#     4  10  23  32  55  70 113 136 179 202 260 302
#     4  10  17  30  48  80 105 128 157 226 273 297
#
# _framework density 29.288150999999999
#
# number of rings (size 3 to 8) (size 9 to 14) (size 15 to 20)
#    1.200    0.800    2.000    4.800    2.800    0.000 
#    0.000    0.000    0.000    0.000    0.000    8.400 
#    0.000    0.000    0.000    0.000    0.000    0.000 
#
# Total GULP energy -111718.210352 kJ/mol
# GULP energy per Si atom -5585.910518 kJ/mol
# Density = 2.922149 g / cm^3
# Si number density = 29.288151 Si / 1000 Ang^3
#
#
#
# Elastic Constant Matrix: (Units=GPa)
#
#
# Indices 1 2 3 4 5 6 
#
# 1 67.2248 20.4162 23.1089 0.0000 -16.3873 0.0000
# 2 20.4162 117.7736 61.8231 0.0000 0.5470 0.0000
# 3 23.1089 61.8231 242.1307 0.0000 9.5796 0.0000
# 4 0.0000 0.0000 0.0000 98.4633 0.0000 -7.6366
# 5 -16.3873 0.5470 9.5796 0.0000 48.2557 0.0000
# 6 0.0000 0.0000 0.0000 -7.6366 0.0000 34.9535
#
#
#
# Elastic Compliance Matrix: (Units=1/GPa)
#
#
# Indices 1 2 3 4 5 6 
#
# 1 0.017578 -0.002385 -0.001316 0.000000 0.006258 0.000000
# 2 -0.002385 0.010136 -0.002342 0.000000 -0.000460 0.000000
# 3 -0.001316 -0.002342 0.004909 0.000000 -0.001395 0.000000
# 4 0.000000 0.000000 0.000000 0.010331 0.000000 0.002257
# 5 0.006258 -0.000460 -0.001395 0.000000 0.023130 0.000000
# 6 0.000000 0.000000 0.000000 0.002257 0.000000 0.029103
#
#
# Mechanical properties :
#
#
# Convention : Reuss Voigt Hill
#
# Bulk Modulus (GPa) = 48.69663 70.86950 59.78307
# Shear Modulus (GPa) = 43.81402 57.78654 50.80028
#
# Velocity S-wave (km/s) = 3.87197 4.44670 4.16925
# Velocity P-wave (km/s) = 6.05412 7.11436 6.60554
#
# Compressibility (1/GPa) = 0.02053530
#
# Stress axis : x y z
#
# Youngs Moduli (GPa) = 56.89019 98.65847 203.71474
#
# Poissons Ratio (x) = 0.23533 0.26812
# Poissons Ratio (y) = 0.13570 0.47713
# Poissons Ratio (z) = 0.07488 0.23107
#
# Static dielectric constant tensor:
#      x y z
#    x 2.442130 0.000000 0.034680 
#    y 0.000000 2.348680 0.000000 
#    z 0.034680 0.000000 2.155760 
# 
# From -- ./inp_files/59645.got.cif
#   From: 2010.05.17/outbox.cif.g08.bks.cpg/sg14_30_cif.got.tgz:59645.got - 2010.06.03 17:49:19.
