data_PCOD9239272
_publ_section_title
;
Structure prediction by ZEFSAII (Michael W. Deem and Ramdas Pophale) SiO2 
 PCOD9239272
Probable space group: P 21/C
;
_chemical_formula_sum "Si O2"
_cell_formula_units_Z 32
_cell_length_a 17.678191
_cell_length_b 5.757681
_cell_length_c 14.358821
_cell_angle_alpha 90.000000
_cell_angle_beta 110.627731
_cell_angle_gamma 90.000000
_cell_volume 1367.818926
_symmetry_space_group_name_H-M "P 21/C"
_symmetry_group_IT_number 14
_symmetry_cell_setting 'monoclinic'
loop_
_space_group_symop_operation_xyz
x,y,z
-x,1/2+y,1/2-z
-x,-y,-z
x,1/2-y,1/2+z
loop_
_atom_site_type_symbol
_atom_site_label
_atom_site_fract_x
_atom_site_fract_y
_atom_site_fract_z
Si Si1 0.823992 0.398851 0.198699
Si Si2 0.787340 0.803495 0.398318
Si Si3 0.094461 0.681021 0.097203
Si Si4 0.970095 0.859841 0.693696
Si Si5 0.499308 0.350260 0.806049
Si Si6 0.168227 0.917557 0.959376
Si Si7 0.671519 0.008217 0.723534
Si Si8 0.326116 0.805806 0.594566
O O1 0.858829 0.368247 0.317669
O O2 0.875493 0.599653 0.172781
O O3 0.843706 0.164859 0.149998
O O4 0.727766 0.429226 0.161113
O O5 0.839812 0.659589 0.493758
O O6 0.727842 0.672134 0.303117
O O7 0.850725 0.954635 0.368508
O O8 0.725731 0.962610 0.429459
O O9 0.007745 0.651497 0.106028
O O10 0.108767 0.758761 0.997454
O O11 0.994981 0.606612 0.747885
O O12 0.509840 0.595607 0.750373
O O13 0.416969 0.401427 0.826302
O O14 0.582539 0.325349 0.899379
O O15 0.263834 0.871323 0.021052
O O16 0.665378 0.224749 0.792999
#
# Coordination Sequence:
#
# PCOD9239272 Si02
#       8
#     4   4   4   4   4   4   4   4
#     4  11  21  41  61  92 123 160 212 251 314 372
#     4  10  16  36  59  81 117 157 200 253 306 356
#     4  10  21  40  62  85 124 164 201 260 309 363
#     4  10  23  41  65  93 126 166 208 256 310 368
#     4  10  19  31  58  92 115 159 214 247 304 372
#     4  10  22  37  61  91 121 164 209 253 306 377
#     4  10  18  33  59  83 115 159 199 252 304 367
#     4   9  18  35  53  86 121 153 200 254 305 362
#
# _framework density 23.394908999999998
#
# number of rings (size 3 to 8) (size 9 to 14) (size 15 to 20)
#    0.000    2.000    5.000    0.750    1.750    0.500 
#   13.500    1.250    0.000    0.750    0.000    0.000 
#    0.000    0.000    0.000    0.000    0.000    0.000 
#
# Total GULP energy -178355.704153 kJ/mol
# GULP energy per Si atom -5573.615755 kJ/mol
# Density = 2.334166 g / cm^3
# Si number density = 23.394909 Si / 1000 Ang^3
#
#
#
# Elastic Constant Matrix: (Units=GPa)
#
#
# Indices 1 2 3 4 5 6 
#
# 1 195.8630 42.1814 21.5608 0.0000 -12.3729 0.0000
# 2 42.1814 93.7124 9.7284 0.0000 -0.0838 0.0000
# 3 21.5608 9.7284 46.2655 0.0000 -14.8333 0.0000
# 4 0.0000 0.0000 0.0000 29.5796 0.0000 8.2153
# 5 -12.3729 -0.0838 -14.8333 0.0000 26.9396 0.0000
# 6 0.0000 0.0000 0.0000 8.2153 0.0000 16.1893
#
#
#
# Elastic Compliance Matrix: (Units=1/GPa)
#
#
# Indices 1 2 3 4 5 6 
#
# 1 0.005941 -0.002500 -0.001665 0.000000 0.001804 0.000000
# 2 -0.002500 0.012011 -0.002085 0.000000 -0.002259 0.000000
# 3 -0.001665 -0.002085 0.027422 0.000000 0.014328 0.000000
# 4 0.000000 0.000000 0.000000 0.039353 0.000000 -0.019970
# 5 0.001804 -0.002259 0.014328 0.000000 0.045831 0.000000
# 6 0.000000 0.000000 0.000000 -0.019970 0.000000 0.071903
#
#
# Mechanical properties :
#
#
# Convention : Reuss Voigt Hill
#
# Bulk Modulus (GPa) = 30.41752 53.64244 42.02998
# Shear Modulus (GPa) = 22.13196 32.03306 27.08251
#
# Velocity S-wave (km/s) = 3.07907 3.70433 3.40608
# Velocity P-wave (km/s) = 5.06665 6.42456 5.78558
#
# Compressibility (1/GPa) = 0.03287579
#
# Stress axis : x y z
#
# Youngs Moduli (GPa) = 168.31622 83.26020 36.46687
#
# Poissons Ratio (x) = 0.20813 0.06070
# Poissons Ratio (y) = 0.42076 0.07602
# Poissons Ratio (z) = 0.28018 0.17357
#
# Static dielectric constant tensor:
#      x y z
#    x 1.903530 0.000000 0.020220 
#    y 0.000000 1.984180 0.000000 
#    z 0.020220 0.000000 1.902130 
# 
# From -- ./inp_files/48160.got.cif
#   From: 2010.05.17/outbox.cif.g08.bks.cpg/sg14_25_cif.got.tgz:48160.got - 2010.06.03 17:49:19.
