data_PCOD9239669
_publ_section_title
;
Structure prediction by ZEFSAII (Michael W. Deem and Ramdas Pophale) SiO2 
 PCOD9239669
Probable space group: P 21/C
;
_chemical_formula_sum "Si O2"
_cell_formula_units_Z 32
_cell_length_a 10.322540
_cell_length_b 8.847119
_cell_length_c 18.618423
_cell_angle_alpha 90.000000
_cell_angle_beta 123.670857
_cell_angle_gamma 90.000000
_cell_volume 1415.070102
_symmetry_space_group_name_H-M "P 21/C"
_symmetry_group_IT_number 14
_symmetry_cell_setting 'monoclinic'
loop_
_space_group_symop_operation_xyz
x,y,z
-x,1/2+y,1/2-z
-x,-y,-z
x,1/2-y,1/2+z
loop_
_atom_site_type_symbol
_atom_site_label
_atom_site_fract_x
_atom_site_fract_y
_atom_site_fract_z
Si Si1 0.597281 0.222600 0.652443
Si Si2 0.846831 0.055697 0.155821
Si Si3 0.207605 0.722600 0.652443
Si Si4 0.938213 0.147387 0.520485
Si Si5 0.145788 0.128822 0.154956
Si Si6 0.664125 0.871178 0.654956
Si Si7 0.602757 0.647386 0.520485
Si Si8 0.035187 0.444303 0.844178
O O1 0.728232 0.312991 0.645666
O O2 0.645520 0.254517 0.750000
O O3 0.437011 0.281412 0.568684
O O4 0.605256 0.042751 0.644192
O O5 0.991841 0.118003 0.156949
O O6 0.913925 0.985801 0.250000
O O7 0.770541 0.925565 0.084580
O O8 0.200358 0.781413 0.568684
O O9 0.183128 0.542752 0.644191
O O10 0.063102 0.812990 0.645667
O O11 0.083578 0.262058 0.573836
O O12 0.898621 0.074435 0.584581
O O13 0.000000 0.000000 0.500000
O O14 0.285892 0.183163 0.250000
O O15 0.564096 0.762058 0.573837
O O16 0.822058 0.881997 0.656950
O O17 0.500000 0.500000 0.500000
#
# Coordination Sequence:
#
# PCOD9239669 Si02
#       8
#     4   4   4   4   4   4   4   4
#     4   9  18  30  45  68  98 130 164 200 237 283
#     4   9  17  30  49  74  99 123 156 201 248 287
#     4   9  18  30  45  68  98 130 164 200 237 283
#     4  10  19  30  46  70 101 131 157 191 241 295
#     4  10  18  30  50  74  98 124 159 204 250 289
#     4  10  18  30  50  74  98 124 159 204 250 289
#     4  10  19  30  46  70 101 131 157 191 241 295
#     4   9  17  30  49  74  99 123 156 201 248 287
#
# _framework density 22.613720000000001
#
# number of rings (size 3 to 8) (size 9 to 14) (size 15 to 20)
#    0.000    2.500    0.000    3.000    0.000    5.000 
#    0.000    0.000    0.000    1.500    0.000   14.000 
#    0.000    0.000    0.000    0.000    0.000    0.000 
#
# Total GULP energy -178438.071295 kJ/mol
# GULP energy per Si atom -5576.189728 kJ/mol
# Density = 2.256225 g / cm^3
# Si number density = 22.613720 Si / 1000 Ang^3
#
#
#
# Elastic Constant Matrix: (Units=GPa)
#
#
# Indices 1 2 3 4 5 6 
#
# 1 10.8780 -3.2532 1.8960 0.0000 -0.0993 0.0000
# 2 -3.2532 108.5073 89.4081 0.0000 -2.7990 0.0000
# 3 1.8960 89.4081 187.2502 0.0000 -5.2276 0.0000
# 4 0.0000 0.0000 0.0000 44.5309 0.0000 -0.8461
# 5 -0.0993 -2.7990 -5.2276 0.0000 6.2974 0.0000
# 6 0.0000 0.0000 0.0000 -0.8461 0.0000 16.5200
#
#
#
# Elastic Compliance Matrix: (Units=1/GPa)
#
#
# Indices 1 2 3 4 5 6 
#
# 1 0.094381 0.005968 -0.003777 0.000000 0.001005 0.000000
# 2 0.005968 0.015575 -0.007474 0.000000 0.000812 0.000000
# 3 -0.003777 -0.007474 0.009063 0.000000 0.004142 0.000000
# 4 0.000000 0.000000 0.000000 0.022478 0.000000 0.001151
# 5 0.001005 0.000812 0.004142 0.000000 0.162610 0.000000
# 6 0.000000 0.000000 0.000000 0.001151 0.000000 0.060592
#
#
# Mechanical properties :
#
#
# Convention : Reuss Voigt Hill
#
# Bulk Modulus (GPa) = 9.22070 53.63749 31.42910
# Shear Modulus (GPa) = 12.15315 28.04197 20.09756
#
# Velocity S-wave (km/s) = 2.32076 3.52524 2.98440
# Velocity P-wave (km/s) = 3.35672 6.35140 5.07976
#
# Compressibility (1/GPa) = 0.10845159
#
# Stress axis : x y z
#
# Youngs Moduli (GPa) = 10.59536 64.20746 110.33706
#
# Poissons Ratio (x) = -0.38318 0.41676
# Poissons Ratio (y) = -0.06323 0.82469
# Poissons Ratio (z) = 0.04002 0.47990
#
# Static dielectric constant tensor:
#      x y z
#    x 1.827340 0.000000 -0.005030 
#    y 0.000000 1.834680 0.000000 
#    z -0.005030 0.000000 1.993620 
# 
# From -- ./inp_files/16090.got.cif
#   From: 2010.05.17/outbox.cif.g08.bks.cpg/sg14_9_cif.got.tgz:16090.got - 2010.06.03 17:49:19.
