data_PCOD9239653
_publ_section_title
;
Structure prediction by ZEFSAII (Michael W. Deem and Ramdas Pophale) SiO2 
 PCOD9239653
Probable space group: P 21/C
;
_chemical_formula_sum "Si O2"
_cell_formula_units_Z 32
_cell_length_a 15.393286
_cell_length_b 15.106797
_cell_length_c 20.353837
_cell_angle_alpha 90.000000
_cell_angle_beta 21.905148
_cell_angle_gamma 90.000000
_cell_volume 1765.800706
_symmetry_space_group_name_H-M "P 21/C"
_symmetry_group_IT_number 14
_symmetry_cell_setting 'monoclinic'
loop_
_space_group_symop_operation_xyz
x,y,z
-x,1/2+y,1/2-z
-x,-y,-z
x,1/2-y,1/2+z
loop_
_atom_site_type_symbol
_atom_site_label
_atom_site_fract_x
_atom_site_fract_y
_atom_site_fract_z
Si Si1 0.373591 0.594869 0.577476
Si Si2 0.012161 0.737141 0.069830
Si Si3 0.583220 0.848214 0.061683
Si Si4 0.906124 0.143032 0.346345
Si Si5 0.481989 0.273783 0.634553
Si Si6 0.802965 0.060264 0.608395
Si Si7 0.509252 0.308715 0.770621
Si Si8 0.166834 0.462417 0.047051
O O1 0.500000 0.500000 0.500000
O O2 0.462408 0.659378 0.574263
O O3 0.452235 0.639262 0.453981
O O4 0.094786 0.578141 0.774808
O O5 0.091352 0.658686 0.965143
O O6 0.208715 0.812555 0.929096
O O7 0.021146 0.687071 0.133963
O O8 0.755992 0.763683 0.228820
O O9 0.857601 0.853299 0.860330
O O10 0.447207 0.935164 0.182543
O O11 0.542743 0.775198 0.146219
O O12 0.690748 0.204304 0.477685
O O13 0.837242 0.039348 0.395692
O O14 0.447500 0.293543 0.736720
O O15 0.774810 0.023048 0.556262
O O16 0.000000 0.000000 0.500000
O O17 0.361127 0.386927 0.907346
#
# Coordination Sequence:
#
# PCOD9239653 Si02
#       8
#     4   4   4   4   4   4   4   4
#     4  12  22  36  67  96 122 157 203 265 322 356
#     4   9  19  37  54  83 117 155 205 250 300 361
#     4  11  21  38  56  92 128 154 198 259 311 367
#     4  10  21  38  59  86 125 159 207 253 303 380
#     4  11  22  40  61  89 124 170 198 251 327 359
#     4  10  18  29  56  86 118 145 188 253 307 353
#     4  10  24  36  58  89 126 164 203 253 309 379
#     4  11  21  36  57  92 119 160 205 246 308 368
#
# _framework density 18.122091000000001
#
# number of rings (size 3 to 8) (size 9 to 14) (size 15 to 20)
#    0.000    1.500    3.750    3.000    3.500    0.000 
#    0.000    0.625    0.000    0.750    0.000    0.000 
#    0.000    0.000    0.000    0.000    0.000    0.000 
#
# Total GULP energy -178159.877789 kJ/mol
# GULP energy per Si atom -5567.496181 kJ/mol
# Density = 1.808084 g / cm^3
# Si number density = 18.122091 Si / 1000 Ang^3
#
#
#
# Elastic Constant Matrix: (Units=GPa)
#
#
# Indices 1 2 3 4 5 6 
#
# 1 74.4583 37.8471 43.4329 0.0000 -0.4618 0.0000
# 2 37.8471 74.9482 62.3669 0.0000 -6.3141 0.0000
# 3 43.4329 62.3669 168.4464 0.0000 -13.0907 0.0000
# 4 0.0000 0.0000 0.0000 34.3293 0.0000 3.4482
# 5 -0.4618 -6.3141 -13.0907 0.0000 36.3829 0.0000
# 6 0.0000 0.0000 0.0000 3.4482 0.0000 29.5367
#
#
#
# Elastic Compliance Matrix: (Units=1/GPa)
#
#
# Indices 1 2 3 4 5 6 
#
# 1 0.018597 -0.007859 -0.002030 0.000000 -0.001858 0.000000
# 2 -0.007859 0.022627 -0.006228 0.000000 0.001586 0.000000
# 3 -0.002030 -0.006228 0.008930 0.000000 0.002106 0.000000
# 4 0.000000 0.000000 0.000000 0.029475 0.000000 -0.003441
# 5 -0.001858 0.001586 0.002106 0.000000 0.028495 0.000000
# 6 0.000000 0.000000 0.000000 -0.003441 0.000000 0.034258
#
#
# Mechanical properties :
#
#
# Convention : Reuss Voigt Hill
#
# Bulk Modulus (GPa) = 55.80073 67.23852 61.51963
# Shear Modulus (GPa) = 27.68710 31.66353 29.67532
#
# Velocity S-wave (km/s) = 3.91296 4.18453 4.05102
# Velocity P-wave (km/s) = 7.16055 7.78014 7.47677
#
# Compressibility (1/GPa) = 0.01792091
#
# Stress axis : x y z
#
# Youngs Moduli (GPa) = 53.77074 44.19460 111.98617
#
# Poissons Ratio (x) = 0.34731 0.22734
# Poissons Ratio (y) = 0.42256 0.69746
# Poissons Ratio (z) = 0.10916 0.27525
#
# Static dielectric constant tensor:
#      x y z
#    x 1.669360 0.000000 0.040190 
#    y 0.000000 1.654820 0.000000 
#    z 0.040190 0.000000 1.674170 
# 
# From -- ./inp_files/68695.got.cif
#   From: 2010.05.17/outbox.cif.g08.bks.cpg/sg14_35_cif.got.tgz:68695.got - 2010.06.03 17:49:19.
