data_PCOD9239791
_publ_section_title
;
Structure prediction by ZEFSAII (Michael W. Deem and Ramdas Pophale) SiO2 
 PCOD9239791
Probable space group: P 21/C
;
_chemical_formula_sum "Si O2"
_cell_formula_units_Z 24
_cell_length_a 20.443330
_cell_length_b 5.388276
_cell_length_c 26.184630
_cell_angle_alpha 90.000000
_cell_angle_beta 24.937563
_cell_angle_gamma 90.000000
_cell_volume 1216.129459
_symmetry_space_group_name_H-M "P 21/C"
_symmetry_group_IT_number 14
_symmetry_cell_setting 'monoclinic'
loop_
_space_group_symop_operation_xyz
x,y,z
-x,1/2+y,1/2-z
-x,-y,-z
x,1/2-y,1/2+z
loop_
_atom_site_type_symbol
_atom_site_label
_atom_site_fract_x
_atom_site_fract_y
_atom_site_fract_z
Si Si1 0.448912 0.572727 0.759983
Si Si2 0.320216 0.467827 0.607856
Si Si3 0.848952 0.435027 0.173188
Si Si4 0.831878 0.721595 0.081396
Si Si5 0.601968 0.034241 0.479997
Si Si6 0.606860 0.105034 0.287654
O O1 0.468278 0.810059 0.784372
O O2 0.273652 0.480651 0.873062
O O3 0.494076 0.704908 0.674599
O O4 0.500000 0.500000 0.500000
O O5 0.204866 0.436606 0.736981
O O6 0.316158 0.231385 0.574404
O O7 0.288341 0.732168 0.605012
O O8 0.866586 0.630321 0.114581
O O9 0.707819 0.260296 0.256098
O O10 0.004941 0.270937 0.062943
O O11 0.725368 0.961840 0.166192
O O12 0.495022 0.074670 0.605251
O O13 0.500000 0.000000 0.500000
#
# Coordination Sequence:
#
# PCOD9239791 Si02
#       6
#     4   4   4   4   4   4
#     4  11  23  41  58  80 111 148 206 246 279 332
#     4  10  18  32  48  76 119 151 182 215 261 351
#     4  10  20  32  53  88 126 154 178 225 294 370
#     4  10  21  35  55  86 118 155 184 234 299 349
#     4  10  19  30  52  78 116 149 185 218 276 340
#     4  11  20  34  60  83 123 151 187 239 294 350
#
# _framework density 19.734739999999999
#
# number of rings (size 3 to 8) (size 9 to 14) (size 15 to 20)
#    0.000    1.667    5.000    2.500    2.333    0.000 
#    0.000    0.000    0.000    0.000    0.000    4.667 
#    0.000    0.000    0.000    0.000    0.000    0.000 
#
# Total GULP energy -133621.946125 kJ/mol
# GULP energy per Si atom -5567.581089 kJ/mol
# Density = 1.968982 g / cm^3
# Si number density = 19.734740 Si / 1000 Ang^3
#
#
#
# Elastic Constant Matrix: (Units=GPa)
#
#
# Indices 1 2 3 4 5 6 
#
# 1 37.9873 7.2550 11.3843 0.0000 0.5350 0.0000
# 2 7.2550 108.7462 -4.1513 0.0000 -1.1019 0.0000
# 3 11.3843 -4.1513 61.0195 0.0000 21.1398 0.0000
# 4 0.0000 0.0000 0.0000 17.2344 0.0000 10.1590
# 5 0.5350 -1.1019 21.1398 0.0000 7.1439 0.0000
# 6 0.0000 0.0000 0.0000 10.1590 0.0000 23.2152
#
#
#
# Elastic Compliance Matrix: (Units=1/GPa)
#
#
# Indices 1 2 3 4 5 6 
#
# 1 0.009956 -0.000151 0.063593 0.000000 -0.188951 0.000000
# 2 -0.000151 0.009169 -0.006278 0.000000 0.020005 0.000000
# 3 0.063593 -0.006278 -0.241512 0.000000 0.708942 0.000000
# 4 0.000000 0.000000 0.000000 0.078193 0.000000 -0.034217
# 5 -0.188951 0.020005 0.708942 0.000000 -1.940656 0.000000
# 6 0.000000 0.000000 0.000000 -0.034217 0.000000 0.058049
#
#
# Mechanical properties :
#
#
# Convention : Reuss Voigt Hill
#
# Bulk Modulus (GPa) = -9.25411 26.30320 8.52455
# Shear Modulus (GPa) = -2.29658 22.40302 10.05322
#
# Velocity S-wave (km/s) = -1.07993 3.37294 2.25948
# Velocity P-wave (km/s) = 2.50089 5.34100 3.33705
#
# Compressibility (1/GPa) = -0.10806014
#
# Stress axis : x y z
#
# Youngs Moduli (GPa) = 100.43704 109.06502 -4.14058
#
# Poissons Ratio (x) = 0.01650 0.26331
# Poissons Ratio (y) = 0.01519 -0.02600
# Poissons Ratio (z) = -6.38710 0.68476
#
# Static dielectric constant tensor:
#      x y z
#    x 1.742910 0.000000 0.009000 
#    y 0.000000 1.685290 0.000000 
#    z 0.009000 0.000000 1.698320 
# 
# From -- ./inp_files/80568.got.cif
#   From: 2010.05.17/outbox.cif.g08.bks.cpg/sg14_41_cif.got.tgz:80568.got - 2010.06.03 17:49:19.
