data_PCOD9239494
_publ_section_title
;
Structure prediction by ZEFSAII (Michael W. Deem and Ramdas Pophale) SiO2 
 PCOD9239494
Probable space group: P 21/C
;
_chemical_formula_sum "Si O2"
_cell_formula_units_Z 28
_cell_length_a 7.992836
_cell_length_b 14.845866
_cell_length_c 13.914653
_cell_angle_alpha 90.000000
_cell_angle_beta 134.200739
_cell_angle_gamma 90.000000
_cell_volume 1183.691088
_symmetry_space_group_name_H-M "P 21/C"
_symmetry_group_IT_number 14
_symmetry_cell_setting 'monoclinic'
loop_
_space_group_symop_operation_xyz
x,y,z
-x,1/2+y,1/2-z
-x,-y,-z
x,1/2-y,1/2+z
loop_
_atom_site_type_symbol
_atom_site_label
_atom_site_fract_x
_atom_site_fract_y
_atom_site_fract_z
Si Si1 0.755971 0.971328 0.632011
Si Si2 0.147550 0.074839 0.689372
Si Si3 0.858079 0.579352 0.391120
Si Si4 0.058084 0.218108 0.351533
Si Si5 0.898312 0.256091 0.068845
Si Si6 0.529836 0.669011 0.532013
Si Si7 0.348986 0.888832 0.768128
O O1 0.934847 0.048375 0.673309
O O2 0.500000 0.000000 0.500000
O O3 0.796808 0.952690 0.759540
O O4 0.825888 0.880171 0.604980
O O5 0.360821 0.110358 0.839398
O O6 0.034954 0.156535 0.584437
O O7 0.230349 0.979857 0.679522
O O8 0.608076 0.608045 0.332417
O O9 0.000000 0.500000 0.500000
O O10 0.022246 0.666763 0.453680
O O11 0.265148 0.288449 0.451806
O O12 0.994125 0.245003 0.216343
O O13 0.814367 0.199881 0.309996
O O14 0.621031 0.248184 0.976759
O O15 0.373060 0.610309 0.395378
#
# Coordination Sequence:
#
# PCOD9239494 Si02
#       7
#     4   4   4   4   4   4   4
#     4  10  20  37  60  83 115 161 207 246 302 377
#     4  10  19  35  59  86 116 163 211 255 311 381
#     4  11  22  39  61  93 127 160 202 261 320 369
#     4   8  18  34  54  81 114 159 205 248 303 366
#     4   9  19  34  57  85 117 157 209 261 307 365
#     4  10  17  34  59  85 116 161 217 262 301 373
#     4  10  20  35  56  87 126 159 201 263 325 379
#
# _framework density 23.654819
#
# number of rings (size 3 to 8) (size 9 to 14) (size 15 to 20)
#    0.000    2.286    0.000    3.857    0.000    0.000 
#    0.000   15.714    0.000    0.000    0.000    0.000 
#    0.000    0.000    0.000    0.000    0.000    0.000 
#
# Total GULP energy -156301.800477 kJ/mol
# GULP energy per Si atom -5582.207160 kJ/mol
# Density = 2.360098 g / cm^3
# Si number density = 23.654819 Si / 1000 Ang^3
#
#
#
# Elastic Constant Matrix: (Units=GPa)
#
#
# Indices 1 2 3 4 5 6 
#
# 1 75.8420 13.0489 24.1653 0.0000 28.4586 0.0000
# 2 13.0489 105.3383 26.3814 0.0000 3.8910 0.0000
# 3 24.1653 26.3814 82.1820 0.0000 12.6421 0.0000
# 4 0.0000 0.0000 0.0000 44.9958 0.0000 7.9826
# 5 28.4586 3.8910 12.6421 0.0000 37.4179 0.0000
# 6 0.0000 0.0000 0.0000 7.9826 0.0000 33.5234
#
#
#
# Elastic Compliance Matrix: (Units=1/GPa)
#
#
# Indices 1 2 3 4 5 6 
#
# 1 0.019540 -0.001091 -0.003298 0.000000 -0.013633 0.000000
# 2 -0.001091 0.010384 -0.003137 0.000000 0.000810 0.000000
# 3 -0.003298 -0.003137 0.014460 0.000000 -0.002051 0.000000
# 4 0.000000 0.000000 0.000000 0.023205 0.000000 -0.005525
# 5 -0.013633 0.000810 -0.002051 0.000000 0.037703 0.000000
# 6 0.000000 0.000000 0.000000 -0.005525 0.000000 0.031146
#
#
# Mechanical properties :
#
#
# Convention : Reuss Voigt Hill
#
# Bulk Modulus (GPa) = 34.09283 43.39484 38.74383
# Shear Modulus (GPa) = 31.00449 36.50522 33.75485
#
# Velocity S-wave (km/s) = 3.62429 3.93268 3.78163
# Velocity P-wave (km/s) = 5.65313 6.24549 5.95668
#
# Compressibility (1/GPa) = 0.02933168
#
# Stress axis : x y z
#
# Youngs Moduli (GPa) = 51.17824 96.30063 69.15390
#
# Poissons Ratio (x) = 0.10506 0.22808
# Poissons Ratio (y) = 0.05583 0.21695
# Poissons Ratio (z) = 0.16879 0.30212
#
# Static dielectric constant tensor:
#      x y z
#    x 2.108660 0.000000 -0.032080 
#    y 0.000000 1.886300 0.000000 
#    z -0.032080 0.000000 1.935190 
# 
# From -- ./inp_files/55958.got.cif
#   From: 2010.05.17/outbox.cif.g08.bks.cpg/sg14_28_cif.got.tgz:55958.got - 2010.06.03 17:49:19.
