data_PCOD9239154
_publ_section_title
;
Structure prediction by ZEFSAII (Michael W. Deem and Ramdas Pophale) SiO2 
 PCOD9239154
Probable space group: P 21/C
;
_chemical_formula_sum "Si O2"
_cell_formula_units_Z 32
_cell_length_a 7.240015
_cell_length_b 11.868055
_cell_length_c 15.746748
_cell_angle_alpha 90.000000
_cell_angle_beta 112.796823
_cell_angle_gamma 90.000000
_cell_volume 1247.344658
_symmetry_space_group_name_H-M "P 21/C"
_symmetry_group_IT_number 14
_symmetry_cell_setting 'monoclinic'
loop_
_space_group_symop_operation_xyz
x,y,z
-x,1/2+y,1/2-z
-x,-y,-z
x,1/2-y,1/2+z
loop_
_atom_site_type_symbol
_atom_site_label
_atom_site_fract_x
_atom_site_fract_y
_atom_site_fract_z
Si Si1 0.282503 0.392104 0.495586
Si Si2 0.096064 0.904502 0.866948
Si Si3 0.641551 0.990462 0.821140
Si Si4 0.126612 0.701828 0.630532
Si Si5 0.530873 0.527608 0.884006
Si Si6 0.891999 0.345077 0.171424
Si Si7 0.929191 0.070207 0.328198
Si Si8 0.648426 0.660375 0.048001
O O1 0.234422 0.513161 0.446598
O O2 0.393638 0.414338 0.603241
O O3 0.387995 0.292847 0.462242
O O4 0.056630 0.339462 0.460959
O O5 0.108378 0.770950 0.879532
O O6 0.863357 0.945097 0.832053
O O7 0.157700 0.923442 0.780866
O O8 0.687128 0.120375 0.852344
O O9 0.481481 0.994945 0.716889
O O10 0.062089 0.677945 0.719286
O O11 0.168442 0.834207 0.630417
O O12 0.326317 0.599303 0.860896
O O13 0.519195 0.414628 0.937415
O O14 0.683569 0.610261 0.959091
O O15 0.033136 0.438054 0.151945
O O16 0.153382 0.125440 0.365723
#
# Coordination Sequence:
#
# PCOD9239154 Si02
#       8
#     4   4   4   4   4   4   4   4
#     4  10  18  28  48  74  98 125 156 204 251 295
#     4  10  16  26  45  75 105 124 156 205 252 294
#     4  10  17  29  48  73  96 127 161 199 253 297
#     4   8  14  24  42  69  98 122 157 197 242 291
#     4   9  17  32  52  72  90 128 175 206 230 292
#     4   9  15  25  44  72 100 127 162 206 246 273
#     4   9  14  25  45  71  95 125 162 206 237 277
#     4   9  17  31  52  71  90 126 174 206 231 286
#
# _framework density 25.654496999999999
#
# number of rings (size 3 to 8) (size 9 to 14) (size 15 to 20)
#    0.000    2.750    5.000    1.500    0.000    0.000 
#    0.000    0.625    8.250   12.000    6.500    0.000 
#    0.000    0.000    0.000    0.000    0.000    0.000 
#
# Total GULP energy -178630.103203 kJ/mol
# GULP energy per Si atom -5582.190725 kJ/mol
# Density = 2.559611 g / cm^3
# Si number density = 25.654497 Si / 1000 Ang^3
#
#
#
# Elastic Constant Matrix: (Units=GPa)
#
#
# Indices 1 2 3 4 5 6 
#
# 1 48.2617 25.7305 18.8301 0.0000 -8.0064 0.0000
# 2 25.7305 234.6549 42.4249 0.0000 -7.7682 0.0000
# 3 18.8301 42.4249 150.9396 0.0000 10.3132 0.0000
# 4 0.0000 0.0000 0.0000 39.3527 0.0000 4.8627
# 5 -8.0064 -7.7682 10.3132 0.0000 23.8959 0.0000
# 6 0.0000 0.0000 0.0000 4.8627 0.0000 12.1617
#
#
#
# Elastic Compliance Matrix: (Units=1/GPa)
#
#
# Indices 1 2 3 4 5 6 
#
# 1 0.024397 -0.001810 -0.003146 0.000000 0.008943 0.000000
# 2 -0.001810 0.004725 -0.001201 0.000000 0.001448 0.000000
# 3 -0.003146 -0.001201 0.007680 0.000000 -0.004759 0.000000
# 4 0.000000 0.000000 0.000000 0.026732 0.000000 -0.010688
# 5 0.008943 0.001448 -0.004759 0.000000 0.047370 0.000000
# 6 0.000000 0.000000 0.000000 -0.010688 0.000000 0.086499
#
#
# Mechanical properties :
#
#
# Convention : Reuss Voigt Hill
#
# Bulk Modulus (GPa) = 40.83708 67.53636 54.18672
# Shear Modulus (GPa) = 22.94847 38.20678 30.57762
#
# Velocity S-wave (km/s) = 2.99410 3.86331 3.45614
# Velocity P-wave (km/s) = 5.28256 6.80314 6.09049
#
# Compressibility (1/GPa) = 0.02448755
#
# Stress axis : x y z
#
# Youngs Moduli (GPa) = 40.98940 211.63155 130.20109
#
# Poissons Ratio (x) = 0.38312 0.40958
# Poissons Ratio (y) = 0.07420 0.15640
# Poissons Ratio (z) = 0.12894 0.25421
#
# Static dielectric constant tensor:
#      x y z
#    x 2.105020 0.000000 -0.034480 
#    y 0.000000 2.033070 0.000000 
#    z -0.034480 0.000000 2.025330 
# 
# From -- ./inp_files/57450.got.cif
#   From: 2010.05.17/outbox.cif.g08.bks.cpg/sg14_29_cif.got.tgz:57450.got - 2010.06.03 17:49:19.
