data_PCOD9239518
_publ_section_title
;
Structure prediction by ZEFSAII (Michael W. Deem and Ramdas Pophale) SiO2 
 PCOD9239518
Probable space group: P 21/C
;
_chemical_formula_sum "Si O2"
_cell_formula_units_Z 32
_cell_length_a 19.488065
_cell_length_b 12.550635
_cell_length_c 23.247736
_cell_angle_alpha 90.000000
_cell_angle_beta 162.343140
_cell_angle_gamma 90.000000
_cell_volume 1724.685650
_symmetry_space_group_name_H-M "P 21/C"
_symmetry_group_IT_number 14
_symmetry_cell_setting 'monoclinic'
loop_
_space_group_symop_operation_xyz
x,y,z
-x,1/2+y,1/2-z
-x,-y,-z
x,1/2-y,1/2+z
loop_
_atom_site_type_symbol
_atom_site_label
_atom_site_fract_x
_atom_site_fract_y
_atom_site_fract_z
Si Si1 0.564312 0.239568 0.712113
Si Si2 0.141956 0.599121 0.979039
Si Si3 0.574634 0.881250 0.299533
Si Si4 0.005742 0.245786 0.849128
Si Si5 0.858414 0.327556 0.851336
Si Si6 0.246068 0.071799 0.737232
Si Si7 0.115849 0.131924 0.836139
Si Si8 0.309196 0.898843 0.969358
O O1 0.549192 0.132492 0.737895
O O2 0.731179 0.246233 0.791513
O O3 0.317833 0.281382 0.495499
O O4 0.679905 0.326945 0.846123
O O5 0.908544 0.591792 0.829947
O O6 0.076739 0.646142 0.865346
O O7 0.261820 0.484028 0.071735
O O8 0.418222 0.876782 0.118728
O O9 0.740638 0.780157 0.432786
O O10 0.878688 0.269921 0.806654
O O11 0.895597 0.324762 0.713936
O O12 0.019760 0.136676 0.824530
O O13 0.734909 0.443053 0.751974
O O14 0.097404 0.370005 0.068544
O O15 0.498081 0.111330 0.926108
O O16 0.223050 0.019058 0.905671
#
# Coordination Sequence:
#
# PCOD9239518 Si02
#       8
#     4   4   4   4   4   4   4   4
#     4  10  22  34  56  78 109 143 176 213 268 315
#     4  11  20  37  54  81 115 131 176 226 257 321
#     4  11  20  36  52  82 107 144 174 215 266 316
#     4  11  23  34  54  80 112 140 178 218 262 319
#     4  10  17  35  51  78 112 133 173 222 260 323
#     4  10  18  30  55  82 106 138 165 215 289 313
#     4  11  22  34  52  84 106 145 175 212 272 315
#     4  12  20  35  57  80 110 140 174 215 276 318
#
# _framework density 18.554105
#
# number of rings (size 3 to 8) (size 9 to 14) (size 15 to 20)
#    0.000    1.250    6.250    1.500    1.750    1.000 
#    0.000    0.000    0.000    1.500    0.000    0.000 
#    0.000    0.000    0.000    0.000    0.000    0.000 
#
# Total GULP energy -178289.929946 kJ/mol
# GULP energy per Si atom -5571.560311 kJ/mol
# Density = 1.851188 g / cm^3
# Si number density = 18.554105 Si / 1000 Ang^3
#
#
#
# Elastic Constant Matrix: (Units=GPa)
#
#
# Indices 1 2 3 4 5 6 
#
# 1 123.5406 32.0515 36.9355 0.0000 -13.0564 0.0000
# 2 32.0515 25.8002 8.3066 0.0000 2.6411 0.0000
# 3 36.9355 8.3066 63.8294 0.0000 -9.8113 0.0000
# 4 0.0000 0.0000 0.0000 16.4712 0.0000 -2.4936
# 5 -13.0564 2.6411 -9.8113 0.0000 30.1443 0.0000
# 6 0.0000 0.0000 0.0000 -2.4936 0.0000 26.7251
#
#
#
# Elastic Compliance Matrix: (Units=1/GPa)
#
#
# Indices 1 2 3 4 5 6 
#
# 1 0.014869 -0.017372 -0.005389 0.000000 0.006208 0.000000
# 2 -0.017372 0.061648 0.000045 0.000000 -0.012911 0.000000
# 3 -0.005389 0.000045 0.019390 0.000000 0.003973 0.000000
# 4 0.000000 0.000000 0.000000 0.061582 0.000000 0.005746
# 5 0.006208 -0.012911 0.003973 0.000000 0.038287 0.000000
# 6 0.000000 0.000000 0.000000 0.005746 0.000000 0.037954
#
#
# Mechanical properties :
#
#
# Convention : Reuss Voigt Hill
#
# Bulk Modulus (GPa) = 19.81176 40.86194 30.33685
# Shear Modulus (GPa) = 16.89269 23.72656 20.30962
#
# Velocity S-wave (km/s) = 3.02065 3.57988 3.31209
# Velocity P-wave (km/s) = 4.78192 6.25766 5.56889
#
# Compressibility (1/GPa) = 0.05047507
#
# Stress axis : x y z
#
# Youngs Moduli (GPa) = 67.25494 16.22117 51.57312
#
# Poissons Ratio (x) = 0.28179 0.27793
# Poissons Ratio (y) = 1.16835 -0.00233
# Poissons Ratio (z) = 0.36243 -0.00073
#
# Static dielectric constant tensor:
#      x y z
#    x 1.727840 0.000000 0.014270 
#    y 0.000000 1.627100 0.000000 
#    z 0.014270 0.000000 1.670300 
# 
# From -- ./inp_files/69432.got.cif
#   From: 2010.05.17/outbox.cif.g08.bks.cpg/sg14_35_cif.got.tgz:69432.got - 2010.06.03 17:49:19.
