data_PCOD9239207
_publ_section_title
;
Structure prediction by ZEFSAII (Michael W. Deem and Ramdas Pophale) SiO2 
 PCOD9239207
Probable space group: P 21/C
;
_chemical_formula_sum "Si O2"
_cell_formula_units_Z 24
_cell_length_a 9.125387
_cell_length_b 14.655409
_cell_length_c 8.882763
_cell_angle_alpha 90.000000
_cell_angle_beta 130.118212
_cell_angle_gamma 90.000000
_cell_volume 908.443328
_symmetry_space_group_name_H-M "P 21/C"
_symmetry_group_IT_number 14
_symmetry_cell_setting 'monoclinic'
loop_
_space_group_symop_operation_xyz
x,y,z
-x,1/2+y,1/2-z
-x,-y,-z
x,1/2-y,1/2+z
loop_
_atom_site_type_symbol
_atom_site_label
_atom_site_fract_x
_atom_site_fract_y
_atom_site_fract_z
Si Si1 0.789091 0.658649 0.302555
Si Si2 0.822151 0.103828 0.485987
Si Si3 0.567198 0.559101 0.754620
Si Si4 0.348847 0.325153 0.463441
Si Si5 0.966430 0.585535 0.155001
Si Si6 0.600378 0.340848 0.111450
O O1 0.782255 0.761330 0.231561
O O2 0.771652 0.652517 0.468735
O O3 0.959621 0.610449 0.325160
O O4 0.583572 0.622708 0.105445
O O5 0.767071 0.161035 0.597087
O O6 0.898154 0.135645 0.374237
O O7 0.634725 0.043829 0.318742
O O8 0.975365 0.024442 0.638834
O O9 0.571352 0.595097 0.588691
O O10 0.752410 0.608271 0.954337
O O11 0.389281 0.592602 0.737571
O O12 0.526679 0.257319 0.621320
#
# Coordination Sequence:
#
# PCOD9239207 Si02
#       6
#     4   4   4   4   4   4
#     4   9  17  29  50  70  90 131 165 200 237 293
#     4   9  16  31  52  74  99 126 166 198 241 293
#     4   9  16  29  51  74  93 127 165 203 233 287
#     4  10  16  31  51  70  95 125 174 196 239 288
#     4   8  17  30  52  72  93 128 165 196 240 295
#     4   9  16  28  53  69  94 128 163 200 239 284
#
# _framework density 26.418821000000001
#
# number of rings (size 3 to 8) (size 9 to 14) (size 15 to 20)
#    2.000    1.000    1.667    0.500    0.000    0.000 
#    0.000    1.667   14.667    0.000    0.000    0.000 
#    0.000    0.000    0.000    0.000    0.000    0.000 
#
# Total GULP energy -133719.539156 kJ/mol
# GULP energy per Si atom -5571.647465 kJ/mol
# Density = 2.635869 g / cm^3
# Si number density = 26.418821 Si / 1000 Ang^3
#
#
#
# Elastic Constant Matrix: (Units=GPa)
#
#
# Indices 1 2 3 4 5 6 
#
# 1 146.5286 26.4965 71.9238 0.0000 -63.3223 0.0000
# 2 26.4965 55.2484 32.2253 0.0000 -26.6875 0.0000
# 3 71.9238 32.2253 125.9010 0.0000 -61.6623 0.0000
# 4 0.0000 0.0000 0.0000 30.1554 0.0000 -21.2412
# 5 -63.3223 -26.6875 -61.6623 0.0000 81.2624 0.0000
# 6 0.0000 0.0000 0.0000 -21.2412 0.0000 23.7702
#
#
#
# Elastic Compliance Matrix: (Units=1/GPa)
#
#
# Indices 1 2 3 4 5 6 
#
# 1 0.011126 -0.000520 -0.003279 0.000000 0.006011 0.000000
# 2 -0.000520 0.022410 -0.003235 0.000000 0.004500 0.000000
# 3 -0.003279 -0.003235 0.014120 0.000000 0.007097 0.000000
# 4 0.000000 0.000000 0.000000 0.089492 0.000000 0.079971
# 5 0.006011 0.004500 0.007097 0.000000 0.023852 0.000000
# 6 0.000000 0.000000 0.000000 0.079971 0.000000 0.113532
#
#
# Mechanical properties :
#
#
# Convention : Reuss Voigt Hill
#
# Bulk Modulus (GPa) = 29.77303 65.44102 47.60702
# Shear Modulus (GPa) = 16.67807 40.17309 28.42558
#
# Velocity S-wave (km/s) = 2.51528 3.90375 3.28374
# Velocity P-wave (km/s) = 4.44181 6.71888 5.69531
#
# Compressibility (1/GPa) = 0.03358745
#
# Stress axis : x y z
#
# Youngs Moduli (GPa) = 89.88336 44.62298 70.82351
#
# Poissons Ratio (x) = 0.02319 0.23222
# Poissons Ratio (y) = 0.04672 0.22913
# Poissons Ratio (z) = 0.29471 0.14437
#
# Static dielectric constant tensor:
#      x y z
#    x 2.115080 0.000000 0.036930 
#    y 0.000000 2.157530 0.000000 
#    z 0.036930 0.000000 2.114860 
# 
# From -- ./inp_files/10469.got.cif
#   From: 2010.05.17/outbox.cif.g08.bks.cpg/sg14_6_cif.got.tgz:10469.got - 2010.06.03 17:49:19.
