data_PCOD9239490
_publ_section_title
;
Structure prediction by ZEFSAII (Michael W. Deem and Ramdas Pophale) SiO2 
 PCOD9239490
Probable space group: P 21/C
;
_chemical_formula_sum "Si O2"
_cell_formula_units_Z 24
_cell_length_a 8.206408
_cell_length_b 12.658066
_cell_length_c 9.267304
_cell_angle_alpha 90.000000
_cell_angle_beta 90.000000
_cell_angle_gamma 90.000000
_cell_volume 962.662092
_symmetry_space_group_name_H-M "P 21/C"
_symmetry_group_IT_number 14
_symmetry_cell_setting 'monoclinic'
loop_
_space_group_symop_operation_xyz
x,y,z
-x,1/2+y,1/2-z
-x,-y,-z
x,1/2-y,1/2+z
loop_
_atom_site_type_symbol
_atom_site_label
_atom_site_fract_x
_atom_site_fract_y
_atom_site_fract_z
Si Si1 0.481106 0.750000 0.750000
Si Si2 0.136030 0.194821 0.499999
Si Si3 0.512115 0.121679 0.500000
Si Si4 0.659886 0.882395 0.999999
Si Si5 0.851169 0.414010 0.499999
Si Si6 0.924908 0.250000 0.249999
O O1 0.400623 0.827744 0.636574
O O2 0.577257 0.667661 0.644158
O O3 0.400624 0.672256 0.863426
O O4 0.577258 0.832339 0.855841
O O5 0.318657 0.150860 0.499999
O O6 0.167990 0.320637 0.500000
O O7 0.036472 0.176356 0.355136
O O8 0.036471 0.176355 0.644861
O O9 0.500000 0.000000 0.500000
O O10 0.693213 0.006865 0.999999
O O11 0.846119 0.334792 0.361863
O O12 0.846118 0.334791 0.638135
O O13 0.000000 0.500000 0.500000
#
# Coordination Sequence:
#
# PCOD9239490 Si02
#       6
#     4   4   4   4   4   4
#     4   8  19  36  64  85 108 129 194 220 266 344
#     4   9  16  32  53  75 113 126 186 225 265 320
#     4  10  19  33  60  88 102 135 174 237 276 322
#     4  10  17  34  58  82 106 151 173 228 264 305
#     4  11  22  30  56  78 117 148 193 216 261 302
#     4  10  19  34  50  87 106 145 186 226 246 324
#
# _framework density 24.930866999999999
#
# number of rings (size 3 to 8) (size 9 to 14) (size 15 to 20)
#    0.000    2.667    3.333    4.000    0.000    0.000 
#    0.000   13.333    0.000    6.000    0.000    0.000 
#    0.000    0.000    0.000    0.000    0.000    0.000 
#
# Total GULP energy -133760.110654 kJ/mol
# GULP energy per Si atom -5573.337944 kJ/mol
# Density = 2.487412 g / cm^3
# Si number density = 24.930867 Si / 1000 Ang^3
#
#
#
# Elastic Constant Matrix: (Units=GPa)
#
#
# Indices 1 2 3 4 5 6 
#
# 1 77.9607 47.5263 45.0199 0.0000 0.0003 0.0000
# 2 47.5263 204.4675 75.2798 0.0000 0.0004 0.0000
# 3 45.0199 75.2798 237.7510 0.0000 0.0001 0.0000
# 4 0.0000 0.0000 0.0000 26.2895 0.0000 0.0002
# 5 0.0003 0.0004 0.0001 0.0000 31.3580 0.0000
# 6 0.0000 0.0000 0.0000 0.0002 0.0000 41.7882
#
#
#
# Elastic Compliance Matrix: (Units=1/GPa)
#
#
# Indices 1 2 3 4 5 6 
#
# 1 0.015796 -0.002910 -0.002070 0.000000 0.000000 0.000000
# 2 -0.002910 0.006072 -0.001372 0.000000 0.000000 0.000000
# 3 -0.002070 -0.001372 0.005032 0.000000 0.000000 0.000000
# 4 0.000000 0.000000 0.000000 0.038038 0.000000 0.000000
# 5 0.000000 0.000000 0.000000 0.000000 0.031890 0.000000
# 6 0.000000 0.000000 0.000000 0.000000 0.000000 0.023930
#
#
# Mechanical properties :
#
#
# Convention : Reuss Voigt Hill
#
# Bulk Modulus (GPa) = 70.43112 95.09234 82.76173
# Shear Modulus (GPa) = 36.18124 43.37735 39.77930
#
# Velocity S-wave (km/s) = 3.81368 4.17574 3.99881
# Velocity P-wave (km/s) = 6.90681 7.84056 7.38845
#
# Compressibility (1/GPa) = 0.01419827
#
# Stress axis : x y z
#
# Youngs Moduli (GPa) = 63.30739 164.68874 198.71503
#
# Poissons Ratio (x) = 0.47917 0.41130
# Poissons Ratio (y) = 0.18420 0.27257
# Poissons Ratio (z) = 0.13103 0.22590
#
# Static dielectric constant tensor:
#      x y z
#    x 2.273910 0.000000 0.000000 
#    y 0.000000 1.951600 0.000000 
#    z 0.000000 0.000000 1.952940 
# 
# From -- ./inp_files/12428.got.cif
#   From: 2010.05.17/outbox.cif.g08.bks.cpg/sg14_7_cif.got.tgz:12428.got - 2010.06.03 17:49:19.
