data_PCOD9239410
_publ_section_title
;
Structure prediction by ZEFSAII (Michael W. Deem and Ramdas Pophale) SiO2 
 PCOD9239410
Probable space group: P 21/C
;
_chemical_formula_sum "Si O2"
_cell_formula_units_Z 28
_cell_length_a 11.841467
_cell_length_b 8.093708
_cell_length_c 15.563546
_cell_angle_alpha 90.000000
_cell_angle_beta 136.252409
_cell_angle_gamma 90.000000
_cell_volume 1031.437468
_symmetry_space_group_name_H-M "P 21/C"
_symmetry_group_IT_number 14
_symmetry_cell_setting 'monoclinic'
loop_
_space_group_symop_operation_xyz
x,y,z
-x,1/2+y,1/2-z
-x,-y,-z
x,1/2-y,1/2+z
loop_
_atom_site_type_symbol
_atom_site_label
_atom_site_fract_x
_atom_site_fract_y
_atom_site_fract_z
Si Si1 0.806079 0.634959 0.469598
Si Si2 0.039375 0.742722 0.973192
Si Si3 0.917221 0.574577 0.252106
Si Si4 0.352280 0.550664 0.785962
Si Si5 0.482134 0.926096 0.862169
Si Si6 0.179878 0.426237 0.274857
Si Si7 0.334029 0.501389 0.105589
O O1 0.739923 0.544445 0.344264
O O2 0.678289 0.559568 0.470626
O O3 0.991092 0.687599 0.539067
O O4 0.749480 0.826580 0.454356
O O5 0.896436 0.619145 0.861348
O O6 0.033613 0.892087 0.899930
O O7 0.204612 0.645786 0.049015
O O8 0.771478 0.457770 0.201987
O O9 0.037669 0.526702 0.243413
O O10 0.830215 0.747159 0.187515
O O11 0.413668 0.738927 0.810893
O O12 0.526876 0.456697 0.888497
O O13 0.434888 0.019142 0.748536
O O14 0.358609 0.002514 0.863367
#
# Coordination Sequence:
#
# PCOD9239410 Si02
#       7
#     4   4   4   4   4   4   4
#     4   9  17  31  49  77 107 132 168 203 249 316
#     4   9  19  32  55  76 100 131 172 219 252 291
#     4   9  19  35  53  74  98 134 182 209 243 303
#     4   9  18  31  50  78 103 136 171 204 247 309
#     4  10  18  28  53  80 101 138 166 201 262 305
#     4  10  19  33  57  73  99 135 178 213 244 303
#     4  10  17  32  54  75 107 131 167 215 255 301
#
# _framework density 27.146581000000001
#
# number of rings (size 3 to 8) (size 9 to 14) (size 15 to 20)
#    0.857    1.714    1.429    1.286    0.000    0.000 
#    0.000    3.571    3.143    0.857    0.000    0.000 
#    0.000    0.000    0.000    0.000    0.000    0.000 
#
# Total GULP energy -156173.557824 kJ/mol
# GULP energy per Si atom -5577.627065 kJ/mol
# Density = 2.708479 g / cm^3
# Si number density = 27.146581 Si / 1000 Ang^3
#
#
#
# Elastic Constant Matrix: (Units=GPa)
#
#
# Indices 1 2 3 4 5 6 
#
# 1 206.2251 58.9883 66.5179 0.0000 66.7390 0.0000
# 2 58.9883 66.7009 10.7158 0.0000 23.8970 0.0000
# 3 66.5179 10.7158 88.4841 0.0000 30.6679 0.0000
# 4 0.0000 0.0000 0.0000 12.0339 0.0000 15.1430
# 5 66.7390 23.8970 30.6679 0.0000 62.2233 0.0000
# 6 0.0000 0.0000 0.0000 15.1430 0.0000 49.1345
#
#
#
# Elastic Compliance Matrix: (Units=1/GPa)
#
#
# Indices 1 2 3 4 5 6 
#
# 1 0.010069 -0.005926 -0.004700 0.000000 -0.006207 0.000000
# 2 -0.005926 0.020876 0.003018 0.000000 -0.003149 0.000000
# 3 -0.004700 0.003018 0.015828 0.000000 -0.003919 0.000000
# 4 0.000000 0.000000 0.000000 0.135742 0.000000 -0.041835
# 5 -0.006207 -0.003149 -0.003919 0.000000 0.025870 0.000000
# 6 0.000000 0.000000 0.000000 -0.041835 0.000000 0.033246
#
#
# Mechanical properties :
#
#
# Convention : Reuss Voigt Hill
#
# Bulk Modulus (GPa) = 31.68897 70.42822 51.05859
# Shear Modulus (GPa) = 18.70104 39.69087 29.19596
#
# Velocity S-wave (km/s) = 2.62752 3.82788 3.28303
# Velocity P-wave (km/s) = 4.57206 6.74810 5.76371
#
# Compressibility (1/GPa) = 0.03155672
#
# Stress axis : x y z
#
# Youngs Moduli (GPa) = 99.31545 47.90136 63.18087
#
# Poissons Ratio (x) = 0.28385 0.29697
# Poissons Ratio (y) = 0.58851 -0.19068
# Poissons Ratio (z) = 0.46681 -0.14456
#
# Static dielectric constant tensor:
#      x y z
#    x 2.959870 0.000000 1.506310 
#    y 0.000000 2.271330 0.000000 
#    z 1.506310 0.000000 5.390440 
# 
# From -- ./inp_files/73006.got.cif
#   From: 2010.05.17/outbox.cif.g08.bks.cpg/sg14_37_cif.got.tgz:73006.got - 2010.06.03 17:49:19.
