data_PCOD9239995
_publ_section_title
;
Structure prediction by ZEFSAII (Michael W. Deem and Ramdas Pophale) SiO2 
 PCOD9239995
Probable space group: P 21/C
;
_chemical_formula_sum "Si O2"
_cell_formula_units_Z 32
_cell_length_a 21.437533
_cell_length_b 5.367477
_cell_length_c 22.106022
_cell_angle_alpha 90.000000
_cell_angle_beta 29.458446
_cell_angle_gamma 90.000000
_cell_volume 1250.942172
_symmetry_space_group_name_H-M "P 21/C"
_symmetry_group_IT_number 14
_symmetry_cell_setting 'monoclinic'
loop_
_space_group_symop_operation_xyz
x,y,z
-x,1/2+y,1/2-z
-x,-y,-z
x,1/2-y,1/2+z
loop_
_atom_site_type_symbol
_atom_site_label
_atom_site_fract_x
_atom_site_fract_y
_atom_site_fract_z
Si Si1 0.071106 0.157745 0.732142
Si Si2 0.407644 0.753316 0.017857
Si Si3 0.795973 0.181080 0.027668
Si Si4 0.517007 0.103071 0.344280
Si Si5 0.571132 0.408549 0.625928
Si Si6 0.057973 0.662550 0.786125
Si Si7 0.155628 0.181972 0.444837
Si Si8 0.673022 0.034245 0.795896
O O1 0.124630 0.404770 0.716083
O O2 0.050951 0.163680 0.676946
O O3 0.133773 0.908214 0.703750
O O4 0.929047 0.154925 0.880427
O O5 0.422300 0.475538 0.979026
O O6 0.373794 0.915191 0.988382
O O7 0.555474 0.840536 0.905132
O O8 0.318234 0.816965 0.148903
O O9 0.681697 0.148321 0.078448
O O10 0.798839 0.954582 0.073280
O O11 0.790007 0.455406 0.060802
O O12 0.523101 0.831588 0.305239
O O13 0.476009 0.307244 0.329301
O O14 0.624670 0.256045 0.289083
O O15 0.991321 0.676249 0.907917
O O16 0.206946 0.108727 0.334920
#
# Coordination Sequence:
#
# PCOD9239995 Si02
#       8
#     4   4   4   4   4   4   4   4
#     4   8  14  25  46  60  90 119 147 176 214 267
#     4   8  19  33  51  66  83 120 157 203 225 262
#     4  10  19  33  45  70  96 126 148 181 224 283
#     4   9  18  32  48  66  81 116 151 199 224 253
#     4   9  18  32  50  63  90 116 157 190 216 266
#     4   8  14  27  40  67  88 116 146 178 221 268
#     4  10  21  29  48  69  98 120 146 189 234 277
#     4  10  18  34  50  68  89 116 157 196 239 265
#
# _framework density 25.580721
#
# number of rings (size 3 to 8) (size 9 to 14) (size 15 to 20)
#    0.750    2.250    0.000    1.125    1.750    0.000 
#    0.000    7.500    0.000    0.000    0.000    0.875 
#    0.000    1.000    0.000    2.875    0.000    0.500 
#
# Total GULP energy -178361.094714 kJ/mol
# GULP energy per Si atom -5573.784210 kJ/mol
# Density = 2.552250 g / cm^3
# Si number density = 25.580721 Si / 1000 Ang^3
#
#
#
# Elastic Constant Matrix: (Units=GPa)
#
#
# Indices 1 2 3 4 5 6 
#
# 1 19.9359 1.1835 6.0840 0.0000 0.2770 0.0000
# 2 1.1835 181.5017 9.7447 0.0000 -3.3095 0.0000
# 3 6.0840 9.7447 124.1796 0.0000 4.7810 0.0000
# 4 0.0000 0.0000 0.0000 43.2532 0.0000 1.6351
# 5 0.2770 -3.3095 4.7810 0.0000 26.6121 0.0000
# 6 0.0000 0.0000 0.0000 1.6351 0.0000 7.0036
#
#
#
# Elastic Compliance Matrix: (Units=1/GPa)
#
#
# Indices 1 2 3 4 5 6 
#
# 1 0.050930 -0.000201 -0.002475 0.000000 -0.000110 0.000000
# 2 -0.000201 0.005549 -0.000455 0.000000 0.000774 0.000000
# 3 -0.002475 -0.000455 0.008268 0.000000 -0.001516 0.000000
# 4 0.000000 0.000000 0.000000 0.023326 0.000000 -0.005446
# 5 -0.000110 0.000774 -0.001516 0.000000 0.037947 0.000000
# 6 0.000000 0.000000 0.000000 -0.005446 0.000000 0.144055
#
#
# Mechanical properties :
#
#
# Convention : Reuss Voigt Hill
#
# Bulk Modulus (GPa) = 17.09881 39.96017 28.52949
# Shear Modulus (GPa) = 16.90145 35.94745 26.42445
#
# Velocity S-wave (km/s) = 2.57322 3.75274 3.21749
# Velocity P-wave (km/s) = 3.94048 5.86792 4.99799
#
# Compressibility (1/GPa) = 0.05848360
#
# Stress axis : x y z
#
# Youngs Moduli (GPa) = 19.63498 180.19744 120.94481
#
# Poissons Ratio (x) = 0.03626 0.29936
# Poissons Ratio (y) = 0.00395 0.05508
# Poissons Ratio (z) = 0.04860 0.08207
#
# Static dielectric constant tensor:
#      x y z
#    x 1.999200 0.000000 -0.003370 
#    y 0.000000 2.123700 0.000000 
#    z -0.003370 0.000000 2.129030 
# 
# From -- ./inp_files/75254.got.cif
#   From: 2010.05.17/outbox.cif.g08.bks.cpg/sg14_38_cif.got.tgz:75254.got - 2010.06.03 17:49:19.
