data_PCOD9239958
_publ_section_title
;
Structure prediction by ZEFSAII (Michael W. Deem and Ramdas Pophale) SiO2 
 PCOD9239958
Probable space group: P 21/C
;
_chemical_formula_sum "Si O2"
_cell_formula_units_Z 32
_cell_length_a 9.349154
_cell_length_b 17.572641
_cell_length_c 8.078033
_cell_angle_alpha 90.000000
_cell_angle_beta 105.719726
_cell_angle_gamma 90.000000
_cell_volume 1277.497814
_symmetry_space_group_name_H-M "P 21/C"
_symmetry_group_IT_number 14
_symmetry_cell_setting 'monoclinic'
loop_
_space_group_symop_operation_xyz
x,y,z
-x,1/2+y,1/2-z
-x,-y,-z
x,1/2-y,1/2+z
loop_
_atom_site_type_symbol
_atom_site_label
_atom_site_fract_x
_atom_site_fract_y
_atom_site_fract_z
Si Si1 0.085601 0.587087 0.579559
Si Si2 0.598959 0.420964 0.355377
Si Si3 0.107529 0.324405 0.279477
Si Si4 0.354581 0.549099 0.248139
Si Si5 0.950227 0.405412 0.802149
Si Si6 0.556066 0.163929 0.509622
Si Si7 0.230778 0.318412 0.994481
Si Si8 0.158467 0.735895 0.038769
O O1 0.240783 0.544621 0.655312
O O2 0.952695 0.596918 0.666256
O O3 0.029510 0.569450 0.380016
O O4 0.133933 0.676839 0.576452
O O5 0.457713 0.475520 0.292784
O O6 0.623224 0.410708 0.562137
O O7 0.576984 0.356663 0.209176
O O8 0.154882 0.262968 0.430324
O O9 0.969310 0.293064 0.127349
O O10 0.242999 0.328202 0.194709
O O11 0.176755 0.539294 0.164949
O O12 0.412044 0.595444 0.107770
O O13 0.864679 0.324669 0.817740
O O14 0.115523 0.385303 0.911509
O O15 0.383124 0.182378 0.443965
O O16 0.680662 0.223703 0.492455
#
# Coordination Sequence:
#
# PCOD9239958 Si02
#       8
#     4   4   4   4   4   4   4   4
#     4  11  17  33  62  84 108 152 206 243 280 355
#     4  10  21  38  66  92 111 155 208 259 296 342
#     4  11  19  35  55  78 119 159 196 220 284 387
#     4   9  21  42  64  86 118 152 211 255 294 350
#     4   9  18  34  59  80 111 156 192 237 290 363
#     4  11  23  38  59  93 123 151 193 261 307 343
#     4  11  22  37  53  87 124 159 190 239 314 362
#     4  10  18  33  57  85 111 147 201 236 283 362
#
# _framework density 25.048967000000001
#
# number of rings (size 3 to 8) (size 9 to 14) (size 15 to 20)
#    0.000    1.750    5.000    0.375    0.000    1.000 
#    9.000    0.625    0.000    2.250    0.000    0.000 
#    0.000    0.000    0.000    0.000    0.000    0.000 
#
# Total GULP energy -178533.609201 kJ/mol
# GULP energy per Si atom -5579.175288 kJ/mol
# Density = 2.499195 g / cm^3
# Si number density = 25.048967 Si / 1000 Ang^3
#
#
#
# Elastic Constant Matrix: (Units=GPa)
#
#
# Indices 1 2 3 4 5 6 
#
# 1 168.1455 22.4616 16.5529 0.0000 -19.3533 0.0000
# 2 22.4616 57.9936 15.8774 0.0000 6.3580 0.0000
# 3 16.5529 15.8774 61.5772 0.0000 -13.6176 0.0000
# 4 0.0000 0.0000 0.0000 28.4888 0.0000 1.5112
# 5 -19.3533 6.3580 -13.6176 0.0000 35.1508 0.0000
# 6 0.0000 0.0000 0.0000 1.5112 0.0000 37.4777
#
#
#
# Elastic Compliance Matrix: (Units=1/GPa)
#
#
# Indices 1 2 3 4 5 6 
#
# 1 0.006867 -0.003107 -0.000093 0.000000 0.004307 0.000000
# 2 -0.003107 0.021064 -0.006362 0.000000 -0.007985 0.000000
# 3 -0.000093 -0.006362 0.019849 0.000000 0.008789 0.000000
# 4 0.000000 0.000000 0.000000 0.035177 0.000000 -0.001418
# 5 0.004307 -0.007985 0.008789 0.000000 0.035669 0.000000
# 6 0.000000 0.000000 0.000000 -0.001418 0.000000 0.026740
#
#
# Mechanical properties :
#
#
# Convention : Reuss Voigt Hill
#
# Bulk Modulus (GPa) = 34.89486 44.16669 39.53077
# Shear Modulus (GPa) = 28.72907 35.74509 32.23708
#
# Velocity S-wave (km/s) = 3.39029 3.78167 3.59132
# Velocity P-wave (km/s) = 5.41168 6.06123 5.74564
#
# Compressibility (1/GPa) = 0.02865752
#
# Stress axis : x y z
#
# Youngs Moduli (GPa) = 145.62320 47.47515 50.38098
#
# Poissons Ratio (x) = 0.14748 0.00466
# Poissons Ratio (y) = 0.45238 0.32052
# Poissons Ratio (z) = 0.01347 0.30203
#
# Static dielectric constant tensor:
#      x y z
#    x 2.048630 0.000000 -0.007470 
#    y 0.000000 2.056680 0.000000 
#    z -0.007470 0.000000 2.029640 
# 
# From -- ./inp_files/10703.got.cif
#   From: 2010.05.17/outbox.cif.g08.bks.cpg/sg14_6_cif.got.tgz:10703.got - 2010.06.03 17:49:19.
