data_PCOD9239875
_publ_section_title
;
Structure prediction by ZEFSAII (Michael W. Deem and Ramdas Pophale) SiO2 
 PCOD9239875
Probable space group: P 21/C
;
_chemical_formula_sum "Si O2"
_cell_formula_units_Z 24
_cell_length_a 10.152011
_cell_length_b 12.343053
_cell_length_c 11.599673
_cell_angle_alpha 90.000000
_cell_angle_beta 41.232884
_cell_angle_gamma 90.000000
_cell_volume 958.044523
_symmetry_space_group_name_H-M "P 21/C"
_symmetry_group_IT_number 14
_symmetry_cell_setting 'monoclinic'
loop_
_space_group_symop_operation_xyz
x,y,z
-x,1/2+y,1/2-z
-x,-y,-z
x,1/2-y,1/2+z
loop_
_atom_site_type_symbol
_atom_site_label
_atom_site_fract_x
_atom_site_fract_y
_atom_site_fract_z
Si Si1 0.601486 0.114924 0.407481
Si Si2 0.789155 0.326464 0.019074
Si Si3 0.256335 0.046365 0.058354
Si Si4 0.629350 0.741009 0.102723
Si Si5 0.899921 0.396923 0.505427
Si Si6 0.708477 0.536405 0.204344
O O1 0.757037 0.146365 0.405195
O O2 0.438607 0.206729 0.482715
O O3 0.707189 0.105739 0.214879
O O4 0.500000 0.000000 0.500000
O O5 0.564180 0.284780 0.200478
O O6 0.938687 0.229985 0.957366
O O7 0.816839 0.434067 0.075705
O O8 0.223507 0.067506 0.213111
O O9 0.225029 0.156357 0.006560
O O10 0.127369 0.944702 0.104113
O O11 0.481475 0.007067 0.879119
O O12 0.709195 0.636662 0.116575
O O13 0.000000 0.500000 0.500000
#
# Coordination Sequence:
#
# PCOD9239875 Si02
#       6
#     4   4   4   4   4   4
#     4  11  19  37  65  96 123 159 210 271 322 381
#     4  10  20  34  61  90 125 166 209 261 323 384
#     4  10  20  34  58  87 127 164 205 266 321 377
#     4  10  18  32  57  99 125 150 204 271 329 374
#     4  11  25  42  59  89 130 177 217 254 320 390
#     4  10  18  34  59  96 121 154 212 272 326 373
#
# _framework density 25.051027999999999
#
# number of rings (size 3 to 8) (size 9 to 14) (size 15 to 20)
#    0.000    1.667    5.000    2.000    7.000    0.000 
#    0.000    3.333    0.000    2.000    0.000    0.000 
#    0.000    0.000    0.000    0.000    0.000    0.000 
#
# Total GULP energy -134020.393753 kJ/mol
# GULP energy per Si atom -5584.183073 kJ/mol
# Density = 2.499401 g / cm^3
# Si number density = 25.051028 Si / 1000 Ang^3
#
#
#
# Elastic Constant Matrix: (Units=GPa)
#
#
# Indices 1 2 3 4 5 6 
#
# 1 55.1781 45.7045 34.3833 0.0000 28.2146 0.0000
# 2 45.7045 194.9901 54.9297 0.0000 12.2201 0.0000
# 3 34.3833 54.9297 64.6487 0.0000 20.6970 0.0000
# 4 0.0000 0.0000 0.0000 28.1999 0.0000 6.4062
# 5 28.2146 12.2201 20.6970 0.0000 37.9110 0.0000
# 6 0.0000 0.0000 0.0000 6.4062 0.0000 55.4490
#
#
#
# Elastic Compliance Matrix: (Units=1/GPa)
#
#
# Indices 1 2 3 4 5 6 
#
# 1 0.040220 -0.005305 -0.009510 0.000000 -0.023031 0.000000
# 2 -0.005305 0.007484 -0.004883 0.000000 0.004201 0.000000
# 3 -0.009510 -0.004883 0.026544 0.000000 -0.005840 0.000000
# 4 0.000000 0.000000 0.000000 0.036417 0.000000 -0.004207
# 5 -0.023031 0.004201 -0.005840 0.000000 0.045352 0.000000
# 6 0.000000 0.000000 0.000000 -0.004207 0.000000 0.018521
#
#
# Mechanical properties :
#
#
# Convention : Reuss Voigt Hill
#
# Bulk Modulus (GPa) = 28.69188 64.98353 46.83770
# Shear Modulus (GPa) = 22.16792 36.29861 29.23327
#
# Velocity S-wave (km/s) = 2.97797 3.81069 3.41977
# Velocity P-wave (km/s) = 4.82728 6.73488 5.85923
#
# Compressibility (1/GPa) = 0.03485307
#
# Stress axis : x y z
#
# Youngs Moduli (GPa) = 24.86322 133.61777 37.67276
#
# Poissons Ratio (x) = 0.70882 0.35828
# Poissons Ratio (y) = 0.13190 0.18394
# Poissons Ratio (z) = 0.23646 0.65239
#
# Static dielectric constant tensor:
#      x y z
#    x 1.732260 0.000000 -0.022840 
#    y 0.000000 1.901940 0.000000 
#    z -0.022840 0.000000 1.928790 
# 
# From -- ./inp_files/28707.got.cif
#   From: 2010.05.17/outbox.cif.g08.bks.cpg/sg14_15_cif.got.tgz:28707.got - 2010.06.03 17:49:19.
