data_PCOD9239952
_publ_section_title
;
Structure prediction by ZEFSAII (Michael W. Deem and Ramdas Pophale) SiO2 
 PCOD9239952
Probable space group: P 21/C
;
_chemical_formula_sum "Si O2"
_cell_formula_units_Z 32
_cell_length_a 18.699818
_cell_length_b 15.403770
_cell_length_c 17.321161
_cell_angle_alpha 90.000000
_cell_angle_beta 22.138033
_cell_angle_gamma 90.000000
_cell_volume 1880.171604
_symmetry_space_group_name_H-M "P 21/C"
_symmetry_group_IT_number 14
_symmetry_cell_setting 'monoclinic'
loop_
_space_group_symop_operation_xyz
x,y,z
-x,1/2+y,1/2-z
-x,-y,-z
x,1/2-y,1/2+z
loop_
_atom_site_type_symbol
_atom_site_label
_atom_site_fract_x
_atom_site_fract_y
_atom_site_fract_z
Si Si1 0.577735 0.338881 0.878915
Si Si2 0.895064 0.273820 0.263552
Si Si3 0.169204 0.095737 0.755322
Si Si4 0.422264 0.661118 0.534385
Si Si5 0.900820 0.096064 0.169036
Si Si6 0.830797 0.595736 0.093730
Si Si7 0.104933 0.726181 0.553683
Si Si8 0.099174 0.596065 0.970684
O O1 0.392761 0.390338 0.038551
O O2 0.518388 0.250000 0.981614
O O3 0.714494 0.389204 0.801871
O O4 0.710860 0.312647 0.673998
O O5 0.710858 0.312651 0.404287
O O6 0.913812 0.174912 0.215440
O O7 0.880490 0.278799 0.369510
O O8 0.071026 0.330184 0.055605
O O9 0.113951 0.999793 0.781395
O O10 0.075997 0.101576 0.934035
O O11 0.071028 0.169817 0.802340
O O12 0.285500 0.610798 0.730864
O O13 0.607240 0.609660 0.324074
O O14 0.923998 0.601577 0.086036
O O15 0.886054 0.499793 0.009294
O O16 0.086181 0.825090 0.543074
#
# Coordination Sequence:
#
# PCOD9239952 Si02
#       8
#     4   4   4   4   4   4   4   4
#     4   9  17  32  53  74  98 128 165 208 250 293
#     4  10  21  34  47  72 108 136 162 200 247 300
#     4  10  18  33  57  77  95 129 172 209 248 292
#     4   9  17  32  53  74  98 128 165 208 250 293
#     4   9  19  33  53  78 100 126 166 213 250 287
#     4  10  18  33  57  77  95 129 172 209 248 292
#     4  10  21  34  47  72 108 136 162 200 247 300
#     4   9  19  33  53  78 100 126 166 213 250 287
#
# _framework density 17.019724
#
# number of rings (size 3 to 8) (size 9 to 14) (size 15 to 20)
#    0.000    2.500    0.000    4.500    0.000    2.000 
#    0.000    0.000    0.000    0.000    0.000    0.000 
#    0.000    0.000    0.000    0.000    0.000    0.000 
#
# Total GULP energy -178494.338417 kJ/mol
# GULP energy per Si atom -5577.948076 kJ/mol
# Density = 1.698099 g / cm^3
# Si number density = 17.019724 Si / 1000 Ang^3
#
#
#
# Elastic Constant Matrix: (Units=GPa)
#
#
# Indices 1 2 3 4 5 6 
#
# 1 46.9819 28.0266 21.6342 0.0000 13.7795 0.0000
# 2 28.0266 85.0151 25.0317 0.0000 2.0302 0.0000
# 3 21.6342 25.0317 41.6839 0.0000 -10.1877 0.0000
# 4 0.0000 0.0000 0.0000 14.1896 0.0000 -2.3705
# 5 13.7795 2.0302 -10.1877 0.0000 18.7964 0.0000
# 6 0.0000 0.0000 0.0000 -2.3705 0.0000 10.6981
#
#
#
# Elastic Compliance Matrix: (Units=1/GPa)
#
#
# Indices 1 2 3 4 5 6 
#
# 1 0.076930 -0.006428 -0.057266 0.000000 -0.086740 0.000000
# 2 -0.006428 0.015709 -0.006178 0.000000 -0.000333 0.000000
# 3 -0.057266 -0.006178 0.078204 0.000000 0.085035 0.000000
# 4 0.000000 0.000000 0.000000 0.073183 0.000000 0.016216
# 5 -0.086740 -0.000333 0.085035 0.000000 0.162915 0.000000
# 6 0.000000 0.000000 0.000000 0.016216 0.000000 0.097068
#
#
# Mechanical properties :
#
#
# Convention : Reuss Voigt Hill
#
# Bulk Modulus (GPa) = 32.15706 35.89622 34.02664
# Shear Modulus (GPa) = 7.64384 15.33605 11.48995
#
# Velocity S-wave (km/s) = 2.12154 3.00505 2.60108
# Velocity P-wave (km/s) = 4.99362 5.75996 5.39043
#
# Compressibility (1/GPa) = 0.03109737
#
# Stress axis : x y z
#
# Youngs Moduli (GPa) = 12.99887 63.65797 12.78699
#
# Poissons Ratio (x) = 0.40922 0.73226
# Poissons Ratio (y) = 0.08356 0.07900
# Poissons Ratio (z) = 0.74439 0.39330
#
# Static dielectric constant tensor:
#      x y z
#    x 1.536370 0.000000 -0.013310 
#    y 0.000000 1.600390 0.000000 
#    z -0.013310 0.000000 1.555970 
# 
# From -- ./inp_files/61446.got.cif
#   From: 2010.05.17/outbox.cif.g08.bks.cpg/sg14_31_cif.got.tgz:61446.got - 2010.06.03 17:49:19.
