data_PCOD9239438
_publ_section_title
;
Structure prediction by ZEFSAII (Michael W. Deem and Ramdas Pophale) SiO2 
 PCOD9239438
Probable space group: P 21/C
;
_chemical_formula_sum "Si O2"
_cell_formula_units_Z 32
_cell_length_a 8.364121
_cell_length_b 12.806321
_cell_length_c 16.623554
_cell_angle_alpha 90.000000
_cell_angle_beta 115.241832
_cell_angle_gamma 90.000000
_cell_volume 1610.589254
_symmetry_space_group_name_H-M "P 21/C"
_symmetry_group_IT_number 14
_symmetry_cell_setting 'monoclinic'
loop_
_space_group_symop_operation_xyz
x,y,z
-x,1/2+y,1/2-z
-x,-y,-z
x,1/2-y,1/2+z
loop_
_atom_site_type_symbol
_atom_site_label
_atom_site_fract_x
_atom_site_fract_y
_atom_site_fract_z
Si Si1 0.088544 0.912400 0.962150
Si Si2 0.337006 0.610944 0.117504
Si Si3 0.326938 0.066026 0.942252
Si Si4 0.317725 0.940068 0.437705
Si Si5 0.436522 0.834107 0.133080
Si Si6 0.489474 0.884182 0.319981
Si Si7 0.780845 0.727903 0.440880
Si Si8 0.031381 0.080735 0.432229
O O1 0.259322 0.860687 0.043441
O O2 0.932201 0.827755 0.919600
O O3 0.167999 0.981577 0.906098
O O4 0.000000 0.000000 0.000000
O O5 0.455508 0.711274 0.155233
O O6 0.418572 0.497144 0.147540
O O7 0.163156 0.614406 0.135215
O O8 0.282992 0.623725 0.011592
O O9 0.388711 0.126429 0.875775
O O10 0.292356 0.145078 0.009270
O O11 0.500000 0.000000 0.000000
O O12 0.352182 0.876944 0.364365
O O13 0.500000 0.000000 0.500000
O O14 0.158630 0.022273 0.397561
O O15 0.412779 0.886048 0.214692
O O16 0.628499 0.789664 0.360488
O O17 0.871315 0.818973 0.512437
O O18 0.000000 0.000000 0.500000
#
# Coordination Sequence:
#
# PCOD9239438 Si02
#       8
#     4   4   4   4   4   4   4   4
#     4   9  20  38  62  82 113 162 211 237 283 371
#     4  10  20  36  60  86 118 158 201 244 296 373
#     4   9  21  38  59  85 116 162 216 243 277 371
#     4   9  17  33  57  87 115 148 193 243 289 358
#     4  11  22  37  61  88 122 162 193 255 316 340
#     4  11  23  36  59  94 127 147 202 261 307 352
#     4  11  18  36  67  85 112 162 204 241 299 359
#     4  10  17  32  61  88 113 143 202 240 287 357
#
# _framework density 19.868504000000001
#
# number of rings (size 3 to 8) (size 9 to 14) (size 15 to 20)
#    0.000    2.000    5.000    0.750    1.750    3.000 
#    0.000    2.500    2.750    0.000    0.000    0.000 
#    0.000    0.000    0.000    0.000    0.000    0.000 
#
# Total GULP energy -178135.379245 kJ/mol
# GULP energy per Si atom -5566.730601 kJ/mol
# Density = 1.982328 g / cm^3
# Si number density = 19.868504 Si / 1000 Ang^3
#
#
#
# Elastic Constant Matrix: (Units=GPa)
#
#
# Indices 1 2 3 4 5 6 
#
# 1 125.7851 49.0500 23.0197 0.0000 -7.5180 0.0000
# 2 49.0500 111.3774 23.0975 0.0000 1.2013 0.0000
# 3 23.0197 23.0975 30.3247 0.0000 -12.6066 0.0000
# 4 0.0000 0.0000 0.0000 11.5317 0.0000 5.9268
# 5 -7.5180 1.2013 -12.6066 0.0000 8.9480 0.0000
# 6 0.0000 0.0000 0.0000 5.9268 0.0000 52.5171
#
#
#
# Elastic Compliance Matrix: (Units=1/GPa)
#
#
# Indices 1 2 3 4 5 6 
#
# 1 0.010340 -0.004239 -0.001865 0.000000 0.006629 0.000000
# 2 -0.004239 0.017788 -0.030906 0.000000 -0.049493 0.000000
# 3 -0.001865 -0.030906 0.142423 0.000000 0.203238 0.000000
# 4 0.000000 0.000000 0.000000 0.092057 0.000000 -0.010389
# 5 0.006629 -0.049493 0.203238 0.000000 0.410308 0.000000
# 6 0.000000 0.000000 0.000000 -0.010389 0.000000 0.020214
#
#
# Mechanical properties :
#
#
# Convention : Reuss Voigt Hill
#
# Bulk Modulus (GPa) = 10.35933 50.86906 30.61419
# Shear Modulus (GPa) = 6.25525 26.08736 16.17130
#
# Velocity S-wave (km/s) = 1.77628 3.62747 2.85602
# Velocity P-wave (km/s) = 3.07118 6.57291 5.13007
#
# Compressibility (1/GPa) = 0.09653135
#
# Stress axis : x y z
#
# Youngs Moduli (GPa) = 96.70741 56.21668 7.02132
#
# Poissons Ratio (x) = 0.23828 0.01310
# Poissons Ratio (y) = 0.40990 0.21700
# Poissons Ratio (z) = 0.18040 1.73745
#
# Static dielectric constant tensor:
#      x y z
#    x 1.772940 0.000000 0.002010 
#    y 0.000000 1.780960 0.000000 
#    z 0.002010 0.000000 1.691500 
# 
# From -- ./inp_files/65427.got.cif
#   From: 2010.05.17/outbox.cif.g08.bks.cpg/sg14_33_cif.got.tgz:65427.got - 2010.06.03 17:49:19.
