data_PCOD9239393
_publ_section_title
;
Structure prediction by ZEFSAII (Michael W. Deem and Ramdas Pophale) SiO2 
 PCOD9239393
Probable space group: P 21/C
;
_chemical_formula_sum "Si O2"
_cell_formula_units_Z 32
_cell_length_a 26.766117
_cell_length_b 8.751763
_cell_length_c 18.893021
_cell_angle_alpha 90.000000
_cell_angle_beta 19.499528
_cell_angle_gamma 90.000000
_cell_volume 1477.295861
_symmetry_space_group_name_H-M "P 21/C"
_symmetry_group_IT_number 14
_symmetry_cell_setting 'monoclinic'
loop_
_space_group_symop_operation_xyz
x,y,z
-x,1/2+y,1/2-z
-x,-y,-z
x,1/2-y,1/2+z
loop_
_atom_site_type_symbol
_atom_site_label
_atom_site_fract_x
_atom_site_fract_y
_atom_site_fract_z
Si Si1 0.634527 0.796642 0.219907
Si Si2 0.455871 0.031005 0.263016
Si Si3 0.668645 0.455241 0.854372
Si Si4 0.781302 0.091081 0.955222
Si Si5 0.028821 0.507045 0.613424
Si Si6 0.490571 0.218292 0.359617
Si Si7 0.812578 0.150708 0.307241
Si Si8 0.943721 0.785801 0.338813
O O1 0.570699 0.659346 0.258786
O O2 0.490128 0.874561 0.448654
O O3 0.712700 0.923521 0.063658
O O4 0.767326 0.726470 0.089586
O O5 0.504907 0.118380 0.268215
O O6 0.551348 0.890040 0.104871
O O7 0.304880 0.946102 0.488798
O O8 0.793994 0.464924 0.627632
O O9 0.751251 0.368723 0.809903
O O10 0.624674 0.625050 0.939294
O O11 0.661767 0.199795 0.157482
O O12 0.805766 0.176239 0.846515
O O13 0.946831 0.099241 0.766583
O O14 0.992796 0.374067 0.717652
O O15 0.966647 0.434496 0.623280
O O16 0.956989 0.661923 0.739367
#
# Coordination Sequence:
#
# PCOD9239393 Si02
#       8
#     4   4   4   4   4   4   4   4
#     4  11  20  35  59  92 118 158 203 247 303 358
#     4  10  17  31  58  85 123 153 197 242 291 370
#     4  10  22  37  60  91 122 157 195 261 316 349
#     4   9  18  33  55  84 114 155 200 243 285 359
#     4  11  22  41  62  85 120 159 209 251 301 365
#     4   9  18  32  53  89 117 155 195 243 305 348
#     4   9  18  35  62  87 118 155 200 252 298 353
#     4  11  22  38  60  83 112 162 204 244 291 371
#
# _framework density 21.661199
#
# number of rings (size 3 to 8) (size 9 to 14) (size 15 to 20)
#    0.000    2.000    2.500    3.375    0.000    0.500 
#    0.000    1.250    0.000    2.250    0.000    0.000 
#    0.000    0.000    0.000    0.000    0.000    0.000 
#
# Total GULP energy -178169.841775 kJ/mol
# GULP energy per Si atom -5567.807555 kJ/mol
# Density = 2.161190 g / cm^3
# Si number density = 21.661199 Si / 1000 Ang^3
#
#
#
# Elastic Constant Matrix: (Units=GPa)
#
#
# Indices 1 2 3 4 5 6 
#
# 1 54.3477 25.2594 12.7621 0.0000 -14.9757 0.0000
# 2 25.2594 108.1515 23.8757 0.0000 0.2587 0.0000
# 3 12.7621 23.8757 80.4161 0.0000 -20.7419 0.0000
# 4 0.0000 0.0000 0.0000 27.8643 0.0000 -8.9505
# 5 -14.9757 0.2587 -20.7419 0.0000 29.2584 0.0000
# 6 0.0000 0.0000 0.0000 -8.9505 0.0000 27.6243
#
#
#
# Elastic Compliance Matrix: (Units=1/GPa)
#
#
# Indices 1 2 3 4 5 6 
#
# 1 0.024681 -0.006113 0.001432 0.000000 0.013702 0.000000
# 2 -0.006113 0.011581 -0.004040 0.000000 -0.006096 0.000000
# 3 0.001432 -0.004040 0.016651 0.000000 0.012573 0.000000
# 4 0.000000 0.000000 0.000000 0.040057 0.000000 0.012979
# 5 0.013702 -0.006096 0.012573 0.000000 0.050159 0.000000
# 6 0.000000 0.000000 0.000000 0.012979 0.000000 0.040405
#
#
# Mechanical properties :
#
#
# Convention : Reuss Voigt Hill
#
# Bulk Modulus (GPa) = 28.19343 40.74553 34.46948
# Shear Modulus (GPa) = 23.49636 29.01726 26.25681
#
# Velocity S-wave (km/s) = 3.29708 3.66402 3.48538
# Velocity P-wave (km/s) = 5.24769 6.06228 5.66963
#
# Compressibility (1/GPa) = 0.03546926
#
# Stress axis : x y z
#
# Youngs Moduli (GPa) = 40.51755 86.35106 60.05813
#
# Poissons Ratio (x) = 0.52789 -0.08603
# Poissons Ratio (y) = 0.24770 0.24266
# Poissons Ratio (z) = -0.05804 0.34890
#
# Static dielectric constant tensor:
#      x y z
#    x 1.956620 0.000000 -0.116360 
#    y 0.000000 1.816360 0.000000 
#    z -0.116360 0.000000 1.853560 
# 
# From -- ./inp_files/70704.got.cif
#   From: 2010.05.17/outbox.cif.g08.bks.cpg/sg14_36_cif.got.tgz:70704.got - 2010.06.03 17:49:19.
