data_PCOD9239581
_publ_section_title
;
Structure prediction by ZEFSAII (Michael W. Deem and Ramdas Pophale) SiO2 
 PCOD9239581
Probable space group: P 21/C
;
_chemical_formula_sum "Si O2"
_cell_formula_units_Z 24
_cell_length_a 12.247011
_cell_length_b 8.933503
_cell_length_c 16.818945
_cell_angle_alpha 90.000000
_cell_angle_beta 42.117861
_cell_angle_gamma 90.000000
_cell_volume 1234.103775
_symmetry_space_group_name_H-M "P 21/C"
_symmetry_group_IT_number 14
_symmetry_cell_setting 'monoclinic'
loop_
_space_group_symop_operation_xyz
x,y,z
-x,1/2+y,1/2-z
-x,-y,-z
x,1/2-y,1/2+z
loop_
_atom_site_type_symbol
_atom_site_label
_atom_site_fract_x
_atom_site_fract_y
_atom_site_fract_z
Si Si1 0.112737 0.958975 0.752584
Si Si2 0.646816 0.044074 0.225506
Si Si3 0.894023 0.923124 0.625375
Si Si4 0.051338 0.344953 0.146458
Si Si5 0.076198 0.611973 0.525364
Si Si6 0.670242 0.713983 0.134716
O O1 0.249706 0.962592 0.748076
O O2 0.057247 0.791501 0.762792
O O3 0.153742 0.066066 0.657324
O O4 0.946867 0.026854 0.880385
O O5 0.479003 0.131450 0.326990
O O6 0.636817 0.879308 0.189261
O O7 0.748735 0.141616 0.105787
O O8 0.718175 0.890927 0.684173
O O9 0.973333 0.760804 0.592542
O O10 0.000000 0.000000 0.500000
O O11 0.923382 0.032181 0.682406
O O12 0.173865 0.289403 0.009801
O O13 0.000000 0.500000 0.500000
#
# Coordination Sequence:
#
# PCOD9239581 Si02
#       6
#     4   4   4   4   4   4
#     4  11  22  41  65  88 123 162 206 261 307 358
#     4  11  23  38  64  90 130 160 202 252 311 366
#     4  10  19  35  61  89 117 154 214 252 294 358
#     4  11  24  40  65  91 122 162 213 259 307 365
#     4  10  17  37  61  86 115 160 203 257 294 348
#     4  11  23  39  61  94 125 162 203 254 306 374
#
# _framework density 19.447312
#
# number of rings (size 3 to 8) (size 9 to 14) (size 15 to 20)
#    0.000    1.333    5.000    4.000    7.000    0.667 
#    0.000    0.000    0.000    3.000    0.000    0.000 
#    0.000    0.000    0.000    0.000    0.000    0.000 
#
# Total GULP energy -133636.326537 kJ/mol
# GULP energy per Si atom -5568.180272 kJ/mol
# Density = 1.940305 g / cm^3
# Si number density = 19.447312 Si / 1000 Ang^3
#
#
#
# Elastic Constant Matrix: (Units=GPa)
#
#
# Indices 1 2 3 4 5 6 
#
# 1 96.7592 46.6040 13.4249 0.0000 1.8258 0.0000
# 2 46.6040 123.3046 13.1305 0.0000 7.5571 0.0000
# 3 13.4249 13.1305 27.9500 0.0000 0.0158 0.0000
# 4 0.0000 0.0000 0.0000 14.0183 0.0000 6.2658
# 5 1.8258 7.5571 0.0158 0.0000 24.9792 0.0000
# 6 0.0000 0.0000 0.0000 6.2658 0.0000 30.1219
#
#
#
# Elastic Compliance Matrix: (Units=1/GPa)
#
#
# Indices 1 2 3 4 5 6 
#
# 1 0.013085 -0.004528 -0.004158 0.000000 0.000416 0.000000
# 2 -0.004528 0.010274 -0.002650 0.000000 -0.002776 0.000000
# 3 -0.004158 -0.002650 0.039020 0.000000 0.001081 0.000000
# 4 0.000000 0.000000 0.000000 0.078648 0.000000 -0.016360
# 5 0.000416 -0.002776 0.001081 0.000000 0.040842 0.000000
# 6 0.000000 0.000000 0.000000 -0.016360 0.000000 0.036602
#
#
# Mechanical properties :
#
#
# Convention : Reuss Voigt Hill
#
# Bulk Modulus (GPa) = 25.18495 43.81472 34.49984
# Shear Modulus (GPa) = 19.65584 25.48082 22.56833
#
# Velocity S-wave (km/s) = 3.18264 3.62366 3.41029
# Velocity P-wave (km/s) = 5.14626 6.33141 5.76935
#
# Compressibility (1/GPa) = 0.03970625
#
# Stress axis : x y z
#
# Youngs Moduli (GPa) = 76.42318 97.33497 25.62816
#
# Poissons Ratio (x) = 0.44077 0.10656
# Poissons Ratio (y) = 0.34607 0.06791
# Poissons Ratio (z) = 0.31776 0.25792
#
# Static dielectric constant tensor:
#      x y z
#    x 1.734700 0.000000 0.045800 
#    y 0.000000 1.629350 0.000000 
#    z 0.045800 0.000000 1.223090 
# 
# From -- ./inp_files/56988.got.cif
#   From: 2010.05.17/outbox.cif.g08.bks.cpg/sg14_29_cif.got.tgz:56988.got - 2010.06.03 17:49:19.
