data_PCOD9239912
_publ_section_title
;
Structure prediction by ZEFSAII (Michael W. Deem and Ramdas Pophale) SiO2 
 PCOD9239912
Probable space group: P 21/C
;
_chemical_formula_sum "Si O2"
_cell_formula_units_Z 28
_cell_length_a 23.468276
_cell_length_b 8.339494
_cell_length_c 20.728894
_cell_angle_alpha 90.000000
_cell_angle_beta 18.656332
_cell_angle_gamma 90.000000
_cell_volume 1297.773835
_symmetry_space_group_name_H-M "P 21/C"
_symmetry_group_IT_number 14
_symmetry_cell_setting 'monoclinic'
loop_
_space_group_symop_operation_xyz
x,y,z
-x,1/2+y,1/2-z
-x,-y,-z
x,1/2-y,1/2+z
loop_
_atom_site_type_symbol
_atom_site_label
_atom_site_fract_x
_atom_site_fract_y
_atom_site_fract_z
Si Si1 0.243454 0.792295 0.396740
Si Si2 0.774669 0.006176 0.178830
Si Si3 0.052480 0.308176 0.604700
Si Si4 0.420618 0.384222 0.726026
Si Si5 0.551163 0.445845 0.726298
Si Si6 0.083680 0.482732 0.696791
Si Si7 0.594993 0.100845 0.492598
O O1 0.213522 0.679031 0.367890
O O2 0.338368 0.688262 0.351710
O O3 0.373796 0.943432 0.246848
O O4 0.053343 0.866288 0.620584
O O5 0.587675 0.940998 0.349736
O O6 0.746831 0.028897 0.284455
O O7 0.926634 0.888801 0.987665
O O8 0.243946 0.223324 0.409082
O O9 0.026429 0.454359 0.683257
O O10 0.928402 0.159110 0.757812
O O11 0.452155 0.396485 0.768336
O O12 0.582552 0.291188 0.518021
O O13 0.708530 0.558997 0.529103
O O14 0.424057 0.525716 0.915780
#
# Coordination Sequence:
#
# PCOD9239912 Si02
#       7
#     4   4   4   4   4   4   4
#     4  10  20  30  52  79 104 138 179 219 262 308
#     4   9  17  34  53  75 103 137 180 216 254 312
#     4  10  18  33  52  81 104 137 179 217 263 307
#     4  10  20  31  51  82 108 134 170 219 272 315
#     4  11  19  33  52  81 110 133 171 218 277 312
#     4  11  18  32  52  80 105 135 177 222 266 302
#     4   9  18  33  53  74 108 136 171 219 265 309
#
# _framework density 21.575406999999998
#
# number of rings (size 3 to 8) (size 9 to 14) (size 15 to 20)
#    0.000    2.000    5.714    0.857    0.000    0.571 
#    0.000    1.429    0.000    1.714    0.000    4.000 
#    0.000    0.000    0.000    0.000    0.000    0.000 
#
# Total GULP energy -155980.671767 kJ/mol
# GULP energy per Si atom -5570.738277 kJ/mol
# Density = 2.152630 g / cm^3
# Si number density = 21.575407 Si / 1000 Ang^3
#
#
#
# Elastic Constant Matrix: (Units=GPa)
#
#
# Indices 1 2 3 4 5 6 
#
# 1 49.9676 4.7514 16.2528 0.0000 0.2116 0.0000
# 2 4.7514 100.7176 22.2247 0.0000 3.9871 0.0000
# 3 16.2528 22.2247 61.8938 0.0000 22.0447 0.0000
# 4 0.0000 0.0000 0.0000 15.7017 0.0000 -3.4764
# 5 0.2116 3.9871 22.0447 0.0000 16.2126 0.0000
# 6 0.0000 0.0000 0.0000 -3.4764 0.0000 4.9511
#
#
#
# Elastic Compliance Matrix: (Units=1/GPa)
#
#
# Indices 1 2 3 4 5 6 
#
# 1 0.023907 0.000975 -0.012471 0.000000 0.016405 0.000000
# 2 0.000975 0.011042 -0.006300 0.000000 0.005839 0.000000
# 3 -0.012471 -0.006300 0.040884 0.000000 -0.053879 0.000000
# 4 0.000000 0.000000 0.000000 0.075410 0.000000 0.052949
# 5 0.016405 0.005839 -0.053879 0.000000 0.133291 0.000000
# 6 0.000000 0.000000 0.000000 0.052949 0.000000 0.239153
#
#
# Mechanical properties :
#
#
# Convention : Reuss Voigt Hill
#
# Bulk Modulus (GPa) = 24.85114 33.22630 29.03872
# Shear Modulus (GPa) = 8.73068 18.66309 13.69688
#
# Velocity S-wave (km/s) = 2.01380 2.94431 2.52233
# Velocity P-wave (km/s) = 4.11709 5.19539 4.68735
#
# Compressibility (1/GPa) = 0.04023961
#
# Stress axis : x y z
#
# Youngs Moduli (GPa) = 41.82847 90.56412 24.45964
#
# Poissons Ratio (x) = -0.08826 0.30503
# Poissons Ratio (y) = -0.04077 0.15410
# Poissons Ratio (z) = 0.52164 0.57058
#
# Static dielectric constant tensor:
#      x y z
#    x 1.777130 0.000000 -0.021300 
#    y 0.000000 1.869040 0.000000 
#    z -0.021300 0.000000 1.864630 
# 
# From -- ./inp_files/70411.got.cif
#   From: 2010.05.17/outbox.cif.g08.bks.cpg/sg14_36_cif.got.tgz:70411.got - 2010.06.03 17:49:19.
