data_PCOD9239268
_publ_section_title
;
Structure prediction by ZEFSAII (Michael W. Deem and Ramdas Pophale) SiO2 
 PCOD9239268
Probable space group: P 21/C
;
_chemical_formula_sum "Si O2"
_cell_formula_units_Z 24
_cell_length_a 23.161586
_cell_length_b 7.717285
_cell_length_c 21.901350
_cell_angle_alpha 90.000000
_cell_angle_beta 163.534263
_cell_angle_gamma 90.000000
_cell_volume 1109.603446
_symmetry_space_group_name_H-M "P 21/C"
_symmetry_group_IT_number 14
_symmetry_cell_setting 'monoclinic'
loop_
_space_group_symop_operation_xyz
x,y,z
-x,1/2+y,1/2-z
-x,-y,-z
x,1/2-y,1/2+z
loop_
_atom_site_type_symbol
_atom_site_label
_atom_site_fract_x
_atom_site_fract_y
_atom_site_fract_z
Si Si1 0.766456 0.104186 0.755656
Si Si2 0.994994 0.696034 0.607813
Si Si3 0.628078 0.729342 0.819537
Si Si4 0.667432 0.075841 0.072876
Si Si5 0.525513 0.796072 0.450801
Si Si6 0.678349 0.529806 0.986034
O O1 0.982656 0.124497 0.939035
O O2 0.643206 0.257493 0.592462
O O3 0.706376 0.163246 0.762789
O O4 0.660989 0.928161 0.627787
O O5 0.780454 0.705516 0.421908
O O6 0.098884 0.887853 0.710443
O O7 0.140345 0.572974 0.796159
O O8 0.475628 0.599550 0.630489
O O9 0.739538 0.637435 0.988712
O O10 0.488953 0.886508 0.701396
O O11 0.606880 0.897610 0.042312
O O12 0.571939 0.847860 0.428321
#
# Coordination Sequence:
#
# PCOD9239268 Si02
#       6
#     4   4   4   4   4   4
#     4   8  18  35  59  82 111 150 185 224 274 322
#     4   8  20  37  53  80 110 142 182 229 272 324
#     4  11  20  39  55  80 118 139 188 233 270 340
#     4   9  19  35  59  82 108 149 178 226 281 313
#     4  10  16  35  60  81 112 150 186 221 277 331
#     4  10  22  34  55  81 107 151 179 226 284 321
#
# _framework density 21.629348
#
# number of rings (size 3 to 8) (size 9 to 14) (size 15 to 20)
#    1.000    1.667    1.667    1.500    0.000    4.000 
#    0.000    6.667    0.000    0.000    0.000    0.000 
#    0.000    0.000    0.000    0.000    0.000    0.000 
#
# Total GULP energy -133699.266370 kJ/mol
# GULP energy per Si atom -5570.802765 kJ/mol
# Density = 2.158012 g / cm^3
# Si number density = 21.629348 Si / 1000 Ang^3
#
#
#
# Elastic Constant Matrix: (Units=GPa)
#
#
# Indices 1 2 3 4 5 6 
#
# 1 76.3951 5.7116 0.5939 0.0000 7.5931 0.0000
# 2 5.7116 49.3195 -6.7172 0.0000 7.5336 0.0000
# 3 0.5939 -6.7172 25.5759 0.0000 10.7969 0.0000
# 4 0.0000 0.0000 0.0000 -11.9958 0.0000 8.0032
# 5 7.5931 7.5336 10.7969 0.0000 25.0525 0.0000
# 6 0.0000 0.0000 0.0000 8.0032 0.0000 35.9362
#
#
#
# Elastic Compliance Matrix: (Units=1/GPa)
#
#
# Indices 1 2 3 4 5 6 
#
# 1 0.013579 -0.000691 0.001409 0.000000 -0.004515 0.000000
# 2 -0.000691 0.023671 0.011184 0.000000 -0.011729 0.000000
# 3 0.001409 0.011184 0.053302 0.000000 -0.026762 0.000000
# 4 0.000000 0.000000 0.000000 -0.072578 0.000000 0.016164
# 5 -0.004515 -0.011729 -0.026762 0.000000 0.056345 0.000000
# 6 0.000000 0.000000 0.000000 0.016164 0.000000 0.024227
#
#
# Mechanical properties :
#
#
# Convention : Reuss Voigt Hill
#
# Bulk Modulus (GPa) = 8.74453 16.71857 12.73155
# Shear Modulus (GPa) = 44.30279 19.91206 32.10743
#
# Velocity S-wave (km/s) = 4.53069 3.03744 3.85702
# Velocity P-wave (km/s) = 5.60547 4.47747 5.07292
#
# Compressibility (1/GPa) = 0.11435726
#
# Stress axis : x y z
#
# Youngs Moduli (GPa) = 73.64134 42.24599 18.76118
#
# Poissons Ratio (x) = 0.02919 -0.02644
# Poissons Ratio (y) = 0.05088 -0.20983
# Poissons Ratio (z) = -0.10379 -0.47249
#
# Static dielectric constant tensor:
#      x y z
#    x 1.843590 0.000000 0.051310 
#    y 0.000000 1.814600 0.000000 
#    z 0.051310 0.000000 1.833300 
# 
# From -- ./inp_files/69815.got.cif
#   From: 2010.05.17/outbox.cif.g08.bks.cpg/sg14_35_cif.got.tgz:69815.got - 2010.06.03 17:49:19.
