data_PCOD9239837
_publ_section_title
;
Structure prediction by ZEFSAII (Michael W. Deem and Ramdas Pophale) SiO2 
 PCOD9239837
Probable space group: P 21/C
;
_chemical_formula_sum "Si O2"
_cell_formula_units_Z 32
_cell_length_a 8.236399
_cell_length_b 20.165592
_cell_length_c 10.412258
_cell_angle_alpha 90.000000
_cell_angle_beta 64.326254
_cell_angle_gamma 90.000000
_cell_volume 1558.658261
_symmetry_space_group_name_H-M "P 21/C"
_symmetry_group_IT_number 14
_symmetry_cell_setting 'monoclinic'
loop_
_space_group_symop_operation_xyz
x,y,z
-x,1/2+y,1/2-z
-x,-y,-z
x,1/2-y,1/2+z
loop_
_atom_site_type_symbol
_atom_site_label
_atom_site_fract_x
_atom_site_fract_y
_atom_site_fract_z
Si Si1 0.216728 0.395091 0.918113
Si Si2 0.972216 0.246998 0.791587
Si Si3 0.990338 0.396888 0.255350
Si Si4 0.075379 0.027267 0.106723
Si Si5 0.777692 0.749858 0.044627
Si Si6 0.121361 0.886911 0.642946
Si Si7 0.310098 0.110447 0.858512
Si Si8 0.409103 0.526819 0.899696
O O1 0.307558 0.323414 0.911834
O O2 0.336762 0.459577 0.860462
O O3 0.078570 0.388149 0.849175
O O4 0.093238 0.406460 0.086405
O O5 0.842402 0.310683 0.834340
O O6 0.891777 0.174052 0.792331
O O7 0.124423 0.255503 0.627616
O O8 0.065407 0.247306 0.900097
O O9 0.146454 0.390073 0.310172
O O10 0.880000 0.463051 0.323305
O O11 0.907785 0.066937 0.224649
O O12 0.237220 0.075036 0.011879
O O13 0.000000 0.000000 0.000000
O O14 0.654246 0.812963 0.118200
O O15 0.254829 0.922533 0.499784
O O16 0.462884 0.068099 0.737489
O O17 0.500000 0.500000 0.000000
#
# Coordination Sequence:
#
# PCOD9239837 Si02
#       8
#     4   4   4   4   4   4   4   4
#     4  10  20  36  60  84 109 153 198 235 280 351
#     4   9  18  33  57  87 108 148 200 241 276 344
#     4   9  17  33  58  83 112 145 193 232 283 335
#     4  10  18  32  54  83 109 147 191 234 275 337
#     4   9  18  34  60  82 113 151 201 232 290 343
#     4  11  21  36  61  83 111 147 200 240 281 337
#     4  10  19  34  56  85 115 152 189 234 285 355
#     4  12  22  37  57  88 119 153 188 238 299 351
#
# _framework density 20.530477000000001
#
# number of rings (size 3 to 8) (size 9 to 14) (size 15 to 20)
#    0.000    2.000    3.750    1.125    0.000    0.000 
#    0.000    1.875    5.500    0.000    0.000    0.000 
#    0.000    0.000    0.000    0.000    0.000    0.000 
#
# Total GULP energy -178416.978984 kJ/mol
# GULP energy per Si atom -5575.530593 kJ/mol
# Density = 2.048375 g / cm^3
# Si number density = 20.530477 Si / 1000 Ang^3
#
#
#
# Elastic Constant Matrix: (Units=GPa)
#
#
# Indices 1 2 3 4 5 6 
#
# 1 15.9624 12.2856 -0.0783 0.0000 -0.4961 0.0000
# 2 12.2856 186.3605 41.4811 0.0000 -25.3041 0.0000
# 3 -0.0783 41.4811 81.8072 0.0000 -2.7415 0.0000
# 4 0.0000 0.0000 0.0000 34.0797 0.0000 -1.1129
# 5 -0.4961 -25.3041 -2.7415 0.0000 26.2103 0.0000
# 6 0.0000 0.0000 0.0000 -1.1129 0.0000 12.6718
#
#
#
# Elastic Compliance Matrix: (Units=1/GPa)
#
#
# Indices 1 2 3 4 5 6 
#
# 1 0.066797 -0.005527 0.002740 0.000000 -0.003785 0.000000
# 2 -0.005527 0.007429 -0.003548 0.000000 0.006697 0.000000
# 3 0.002740 -0.003548 0.013961 0.000000 -0.001913 0.000000
# 4 0.000000 0.000000 0.000000 0.029427 0.000000 0.002585
# 5 -0.003785 0.006697 -0.001913 0.000000 0.044346 0.000000
# 6 0.000000 0.000000 0.000000 0.002585 0.000000 0.079142
#
#
# Mechanical properties :
#
#
# Convention : Reuss Voigt Hill
#
# Bulk Modulus (GPa) = 13.24206 43.50076 28.37141
# Shear Modulus (GPa) = 17.92452 29.95514 23.93983
#
# Velocity S-wave (km/s) = 2.95798 3.82390 3.41847
# Velocity P-wave (km/s) = 4.25795 6.38206 5.42498
#
# Compressibility (1/GPa) = 0.07551697
#
# Stress axis : x y z
#
# Youngs Moduli (GPa) = 14.97066 134.60139 71.62602
#
# Poissons Ratio (x) = 0.74399 -0.19624
# Poissons Ratio (y) = 0.08275 0.25413
# Poissons Ratio (z) = -0.04102 0.47756
#
# Static dielectric constant tensor:
#      x y z
#    x 1.761210 0.000000 0.032720 
#    y 0.000000 1.853550 0.000000 
#    z 0.032720 0.000000 1.729780 
# 
# From -- ./inp_files/26647.got.cif
#   From: 2010.05.17/outbox.cif.g08.bks.cpg/sg14_14_cif.got.tgz:26647.got - 2010.06.03 17:49:19.
