data_PCOD9239002
_publ_section_title
;
Structure prediction by ZEFSAII (Michael W. Deem and Ramdas Pophale) SiO2 
 PCOD9239002
Probable space group: P 2/C
;
_chemical_formula_sum "Si O2"
_cell_formula_units_Z 26
_cell_length_a 15.000000
_cell_length_b 9.000000
_cell_length_c 15.000000
_cell_angle_alpha 90.000000
_cell_angle_beta 140.000000
_cell_angle_gamma 90.000000
_cell_volume 1301.644910
_symmetry_space_group_name_H-M "P 2/C"
_symmetry_group_IT_number 13
_symmetry_cell_setting 'monoclinic'
loop_
_space_group_symop_operation_xyz
x,y,z
-x,y,1/2-z
-x,-y,-z
x,-y,1/2+z
loop_
_atom_site_type_symbol
_atom_site_label
_atom_site_fract_x
_atom_site_fract_y
_atom_site_fract_z
Si Si1 0.168804 0.309916 0.772288
Si Si2 0.449003 0.165137 0.060082
Si Si3 0.000000 0.448787 0.250000
Si Si4 0.323986 0.653845 0.211450
Si Si5 0.171213 0.803683 0.946453
Si Si6 0.414576 0.826910 0.016512
Si Si7 0.500000 0.590992 0.750000
Si Si8 0.000000 0.921089 0.250000
O O1 0.115808 0.447116 0.792321
O O2 0.211994 0.365717 0.705880
O O3 0.054638 0.184525 0.711742
O O4 0.306564 0.221461 0.907093
O O5 0.473967 0.293164 0.150495
O O6 0.433647 0.991654 0.074133
O O7 0.567623 0.160936 0.075511
O O8 0.936089 0.332747 0.130172
O O9 0.468449 0.712948 0.362164
O O10 0.372756 0.515048 0.186473
O O11 0.266192 0.785529 0.105129
O O12 0.266612 0.770919 0.934074
O O13 0.106179 0.963598 0.877722
#
# Coordination Sequence:
#
# PCOD9239002 Si02
#       8
#     4   4   2   4   4   4   2   2
#     4  10  22  42  60  88 121 165 204 252 296 367
#     4  10  23  38  64  90 123 155 206 249 309 354
#     4  10  24  38  64  82 122 172 196 242 306 356
#     4  11  24  39  63  92 127 154 204 254 313 354
#     4  11  21  40  62  89 122 158 206 253 293 370
#     4  10  21  41  64  89 120 161 198 257 304 357
#     4  12  24  36  60 102 120 160 186 254 320 366
#     4  10  22  40  64  84 118 172 214 242 302 344
#
# _framework density 19.974726
#
# number of rings (size 3 to 8) (size 9 to 14) (size 15 to 20)
#    0.000    1.538    3.077    0.923    4.308    2.462 
#    0.000    0.000    0.000    0.000    0.000    0.000 
#    0.000    0.000    0.000    0.000    0.000    0.000 
#
# Total GULP energy -144740.849640 kJ/mol
# GULP energy per Si atom -5566.955755 kJ/mol
# Density = 1.992926 g / cm^3
# Si number density = 19.974726 Si / 1000 Ang^3
#
#
#
# Elastic Constant Matrix: (Units=GPa)
#
#
# Indices 1 2 3 4 5 6 
#
# 1 128.0188 44.9550 14.4320 0.0000 2.0241 0.0000
# 2 44.9550 109.9254 5.2980 0.0000 -4.6771 0.0000
# 3 14.4320 5.2980 13.8820 0.0000 -1.1723 0.0000
# 4 0.0000 0.0000 0.0000 1.8967 0.0000 -33.8630
# 5 2.0241 -4.6771 -1.1723 0.0000 20.3835 0.0000
# 6 0.0000 0.0000 0.0000 -33.8630 0.0000 -17.3708
#
#
#
# Elastic Compliance Matrix: (Units=1/GPa)
#
#
# Indices 1 2 3 4 5 6 
#
# 1 0.010261 -0.003847 -0.009406 0.000000 -0.002443 0.000000
# 2 -0.003847 0.010786 0.000125 0.000000 0.002864 0.000000
# 3 -0.009406 0.000125 0.082247 0.000000 0.005693 0.000000
# 4 0.000000 0.000000 0.000000 0.014725 0.000000 -0.028706
# 5 -0.002443 0.002864 0.005693 0.000000 0.050286 0.000000
# 6 0.000000 0.000000 0.000000 -0.028706 0.000000 -0.001608
#
#
# Mechanical properties :
#
#
# Convention : Reuss Voigt Hill
#
# Bulk Modulus (GPa) = 12.98049 42.35513 27.66781
# Shear Modulus (GPa) = 22.86922 13.45796 18.16359
#
# Velocity S-wave (km/s) = 3.38732 2.59848 3.01878
# Velocity P-wave (km/s) = 4.67024 5.50029 5.10217
#
# Compressibility (1/GPa) = 0.07703871
#
# Stress axis : x y z
#
# Youngs Moduli (GPa) = 97.45415 92.71103 12.15844
#
# Poissons Ratio (x) = 0.35666 0.11436
# Poissons Ratio (y) = 0.37491 -0.00152
# Poissons Ratio (z) = 0.91664 -0.01157
#
# Static dielectric constant tensor:
#      x y z
#    x 1.737680 0.000000 0.005320 
#    y 0.000000 1.698860 0.000000 
#    z 0.005320 0.000000 1.807640 
# 
# From -- ./inp_files/49801.got.cif
#   From: 2010.05.17/outbox.ucp.g08.bks.cvg/sg13_25_cif.got.tgz:49801.got - 2010.06.11 12:23:55.
