data_PCOD9239417
_publ_section_title
;
Structure prediction by ZEFSAII (Michael W. Deem and Ramdas Pophale) SiO2 
 PCOD9239417
Probable space group: P 21/C
;
_chemical_formula_sum "Si O2"
_cell_formula_units_Z 20
_cell_length_a 7.897424
_cell_length_b 14.888545
_cell_length_c 9.837628
_cell_angle_alpha 90.000000
_cell_angle_beta 136.186578
_cell_angle_gamma 90.000000
_cell_volume 800.811156
_symmetry_space_group_name_H-M "P 21/C"
_symmetry_group_IT_number 14
_symmetry_cell_setting 'monoclinic'
loop_
_space_group_symop_operation_xyz
x,y,z
-x,1/2+y,1/2-z
-x,-y,-z
x,1/2-y,1/2+z
loop_
_atom_site_type_symbol
_atom_site_label
_atom_site_fract_x
_atom_site_fract_y
_atom_site_fract_z
Si Si1 0.264729 0.160659 0.669099
Si Si2 0.920142 0.781749 0.154383
Si Si3 0.887697 0.022868 0.743346
Si Si4 0.493456 0.484476 0.768184
Si Si5 0.802910 0.389820 0.742984
O O1 0.467897 0.085491 0.767497
O O2 0.269363 0.238960 0.561455
O O3 0.223420 0.203500 0.789880
O O4 0.010913 0.110729 0.482381
O O5 0.036576 0.875852 0.181850
O O6 0.140045 0.707384 0.289982
O O7 0.759979 0.976895 0.798898
O O8 0.688750 0.025247 0.505326
O O9 0.111467 0.965556 0.813037
O O10 0.561397 0.417737 0.684522
#
# Coordination Sequence:
#
# PCOD9239417 Si02
#       5
#     4   4   4   4   4
#     4   9  18  33  55  76 105 141 174 220 265 309
#     4  10  18  33  55  80 107 140 175 221 268 311
#     4  10  17  32  55  81 100 136 186 219 253 312
#     4  10  17  33  58  74 101 146 189 212 248 328
#     4   9  18  33  56  72 108 137 177 215 262 311
#
# _framework density 24.974678000000001
#
# number of rings (size 3 to 8) (size 9 to 14) (size 15 to 20)
#    1.200    1.200    4.000    1.200    0.000    0.000 
#    3.600    3.000    0.000    1.200    0.000    0.000 
#    0.000    0.000    0.000    0.000    0.000    0.000 
#
# Total GULP energy -111843.739049 kJ/mol
# GULP energy per Si atom -5592.186952 kJ/mol
# Density = 2.491783 g / cm^3
# Si number density = 24.974678 Si / 1000 Ang^3
#
#
#
# Elastic Constant Matrix: (Units=GPa)
#
#
# Indices 1 2 3 4 5 6 
#
# 1 104.1499 42.4359 64.2928 0.0000 -28.7459 0.0000
# 2 42.4359 173.7632 55.3796 0.0000 -18.3400 0.0000
# 3 64.2928 55.3796 91.8315 0.0000 -19.1457 0.0000
# 4 0.0000 0.0000 0.0000 43.0889 0.0000 -9.8330
# 5 -28.7459 -18.3400 -19.1457 0.0000 52.6843 0.0000
# 6 0.0000 0.0000 0.0000 -9.8330 0.0000 30.8907
#
#
#
# Elastic Compliance Matrix: (Units=1/GPa)
#
#
# Indices 1 2 3 4 5 6 
#
# 1 0.018421 -0.000201 -0.011571 0.000000 0.005776 0.000000
# 2 -0.000201 0.007175 -0.003990 0.000000 0.000938 0.000000
# 3 -0.011571 -0.003990 0.021414 0.000000 0.000079 0.000000
# 4 0.000000 0.000000 0.000000 0.025026 0.000000 0.007966
# 5 0.005776 0.000938 0.000079 0.000000 0.022488 0.000000
# 6 0.000000 0.000000 0.000000 0.007966 0.000000 0.034908
#
#
# Mechanical properties :
#
#
# Convention : Reuss Voigt Hill
#
# Bulk Modulus (GPa) = 64.58464 77.10681 70.84572
# Shear Modulus (GPa) = 30.09925 39.17518 34.63722
#
# Velocity S-wave (km/s) = 3.47535 3.96485 3.72814
# Velocity P-wave (km/s) = 6.48231 7.20424 6.85279
#
# Compressibility (1/GPa) = 0.01548356
#
# Stress axis : x y z
#
# Youngs Moduli (GPa) = 54.28703 139.37542 46.69930
#
# Poissons Ratio (x) = 0.02805 0.54036
# Poissons Ratio (y) = 0.01092 0.18635
# Poissons Ratio (z) = 0.62816 0.55617
#
# Static dielectric constant tensor:
#      x y z
#    x 1.949660 0.000000 0.063130 
#    y 0.000000 1.932180 0.000000 
#    z 0.063130 0.000000 2.032360 
# 
# From -- ./inp_files/24358.got.cif
#   From: 2010.05.17/outbox.cif.g08.bks.cpg/sg14_13_cif.got.tgz:24358.got - 2010.06.03 17:49:19.
