data_PCOD9239701
_publ_section_title
;
Structure prediction by ZEFSAII (Michael W. Deem and Ramdas Pophale) SiO2 
 PCOD9239701
Probable space group: P 21/C
;
_chemical_formula_sum "Si O2"
_cell_formula_units_Z 30
_cell_length_a 9.782979
_cell_length_b 6.951833
_cell_length_c 22.032055
_cell_angle_alpha 90.000000
_cell_angle_beta 118.761000
_cell_angle_gamma 90.000000
_cell_volume 1313.542007
_symmetry_space_group_name_H-M "P 21/C"
_symmetry_group_IT_number 14
_symmetry_cell_setting 'monoclinic'
loop_
_space_group_symop_operation_xyz
x,y,z
-x,1/2+y,1/2-z
-x,-y,-z
x,1/2-y,1/2+z
loop_
_atom_site_type_symbol
_atom_site_label
_atom_site_fract_x
_atom_site_fract_y
_atom_site_fract_z
Si Si1 0.978235 0.255445 0.660345
Si Si2 0.590981 0.395429 0.733325
Si Si3 0.686541 0.219660 0.014176
Si Si4 0.076330 0.818790 0.710186
Si Si5 0.493754 0.903037 0.916406
Si Si6 0.500000 0.000000 0.500000
Si Si7 0.742131 0.760077 0.623212
Si Si8 0.307251 0.163463 0.254260
O O1 0.853787 0.277350 0.579961
O O2 0.914998 0.308473 0.714426
O O3 0.143358 0.360696 0.685054
O O4 0.024789 0.031308 0.677892
O O5 0.749781 0.274782 0.776695
O O6 0.507763 0.335709 0.652490
O O7 0.655538 0.608726 0.736917
O O8 0.462726 0.415474 0.757615
O O9 0.602819 0.391753 0.961489
O O10 0.562534 0.257105 0.046679
O O11 0.643671 0.019677 0.972458
O O12 0.923665 0.701804 0.656661
O O13 0.359268 0.065213 0.895750
O O14 0.329678 0.103076 0.441974
O O15 0.728135 0.877545 0.683314
#
# Coordination Sequence:
#
# PCOD9239701 Si02
#       8
#     4   4   4   4   4   2   4   4
#     4  10  19  33  51  81 104 136 170 226 263 309
#     4  10  19  36  50  77 103 146 170 220 258 322
#     4  10  18  32  52  80 106 138 171 222 260 311
#     4  10  19  31  54  78 109 130 178 218 268 305
#     4   9  19  33  52  75 111 136 175 214 264 309
#     4  10  18  30  56  80 104 136 176 210 264 314
#     4   9  18  34  51  82 103 134 170 224 260 312
#     4   9  21  33  50  73 110 135 176 213 270 305
#
# _framework density 22.839013000000001
#
# number of rings (size 3 to 8) (size 9 to 14) (size 15 to 20)
#    0.000    2.400    2.667    0.800    0.000    3.200 
#    0.000    0.667    0.000    0.800    0.000    0.000 
#    0.000    0.000    0.000    0.000    0.000    0.000 
#
# Total GULP energy -167037.251473 kJ/mol
# GULP energy per Si atom -5567.908382 kJ/mol
# Density = 2.278703 g / cm^3
# Si number density = 22.839013 Si / 1000 Ang^3
#
#
#
# Elastic Constant Matrix: (Units=GPa)
#
#
# Indices 1 2 3 4 5 6 
#
# 1 122.1648 9.5068 48.6762 0.0000 32.8209 0.0000
# 2 9.5068 72.1448 21.2564 0.0000 11.4467 0.0000
# 3 48.6762 21.2564 111.7995 0.0000 45.3445 0.0000
# 4 0.0000 0.0000 0.0000 30.2779 0.0000 7.6321
# 5 32.8209 11.4467 45.3445 0.0000 37.7027 0.0000
# 6 0.0000 0.0000 0.0000 7.6321 0.0000 25.9496
#
#
#
# Elastic Compliance Matrix: (Units=1/GPa)
#
#
# Indices 1 2 3 4 5 6 
#
# 1 0.010861 0.000267 -0.001780 0.000000 -0.007394 0.000000
# 2 0.000267 0.014780 -0.001976 0.000000 -0.002343 0.000000
# 3 -0.001780 -0.001976 0.018007 0.000000 -0.019508 0.000000
# 4 0.000000 0.000000 0.000000 0.035672 0.000000 -0.010492
# 5 -0.007394 -0.002343 -0.019508 0.000000 0.057133 0.000000
# 6 0.000000 0.000000 0.000000 -0.010492 0.000000 0.041622
#
#
# Mechanical properties :
#
#
# Convention : Reuss Voigt Hill
#
# Bulk Modulus (GPa) = 27.27115 51.66531 39.46823
# Shear Modulus (GPa) = 25.34502 33.89734 29.62118
#
# Velocity S-wave (km/s) = 3.33487 3.85669 3.60523
# Velocity P-wave (km/s) = 5.17639 6.51941 5.88633
#
# Compressibility (1/GPa) = 0.03666879
#
# Stress axis : x y z
#
# Youngs Moduli (GPa) = 92.07387 67.66001 55.53253
#
# Poissons Ratio (x) = -0.01804 0.09887
# Poissons Ratio (y) = -0.02454 0.10973
# Poissons Ratio (z) = 0.16392 0.13369
#
# Static dielectric constant tensor:
#      x y z
#    x 1.952920 0.000000 0.013340 
#    y 0.000000 2.159160 0.000000 
#    z 0.013340 0.000000 1.896520 
# 
# From -- ./inp_files/64585.got.cif
#   From: 2010.05.17/outbox.cif.g08.bks.cpg/sg14_33_cif.got.tgz:64585.got - 2010.06.03 17:49:19.
