data_PCOD9239909
_publ_section_title
;
Structure prediction by ZEFSAII (Michael W. Deem and Ramdas Pophale) SiO2 
 PCOD9239909
Probable space group: P 21/C
;
_chemical_formula_sum "Si O2"
_cell_formula_units_Z 32
_cell_length_a 28.811563
_cell_length_b 8.821269
_cell_length_c 14.818552
_cell_angle_alpha 90.000000
_cell_angle_beta 23.635681
_cell_angle_gamma 90.000000
_cell_volume 1509.944429
_symmetry_space_group_name_H-M "P 21/C"
_symmetry_group_IT_number 14
_symmetry_cell_setting 'monoclinic'
loop_
_space_group_symop_operation_xyz
x,y,z
-x,1/2+y,1/2-z
-x,-y,-z
x,1/2-y,1/2+z
loop_
_atom_site_type_symbol
_atom_site_label
_atom_site_fract_x
_atom_site_fract_y
_atom_site_fract_z
Si Si1 0.604030 0.050760 0.933037
Si Si2 0.756324 0.747035 0.202759
Si Si3 0.066313 0.476521 0.047253
Si Si4 0.195427 0.157751 0.705147
Si Si5 0.875745 0.652634 0.317980
Si Si6 0.040238 0.937909 0.077146
Si Si7 0.354054 0.579403 0.845913
Si Si8 0.251927 0.769603 0.186948
O O1 0.624931 0.117453 0.795795
O O2 0.645766 0.175561 0.930049
O O3 0.681724 0.899316 0.810107
O O4 0.473455 0.990828 0.170378
O O5 0.719372 0.834274 0.359076
O O6 0.876631 0.684012 0.032714
O O7 0.784441 0.839950 0.062841
O O8 0.953916 0.503127 0.186773
O O9 0.020750 0.517582 0.229311
O O10 0.166093 0.587047 0.834563
O O11 0.175090 0.315016 0.689485
O O12 0.259768 0.053597 0.517301
O O13 0.079673 0.064724 0.936385
O O14 0.959534 0.799776 0.187156
O O15 0.163749 0.858885 0.882009
O O16 0.304268 0.709242 0.999981
#
# Coordination Sequence:
#
# PCOD9239909 Si02
#       8
#     4   4   4   4   4   4   4   4
#     4  10  21  41  61  82 113 147 190 248 283 326
#     4  10  20  34  55  78 112 148 186 236 274 334
#     4   9  18  35  52  80 117 151 182 225 289 332
#     4  11  20  33  55  84 107 146 195 227 278 348
#     4  10  18  33  51  78 112 146 184 232 276 328
#     4   9  18  33  53  81 112 150 188 224 278 340
#     4  10  22  38  63  87 105 149 201 231 292 341
#     4   9  20  37  59  86 115 149 193 236 282 341
#
# _framework density 21.192831999999999
#
# number of rings (size 3 to 8) (size 9 to 14) (size 15 to 20)
#    0.000    2.250    2.500    0.375    1.750    0.500 
#    0.000    2.500    0.000    0.750    0.000    0.000 
#    0.000    0.000    0.000    0.000    0.000    0.000 
#
# Total GULP energy -178321.217850 kJ/mol
# GULP energy per Si atom -5572.538058 kJ/mol
# Density = 2.114460 g / cm^3
# Si number density = 21.192832 Si / 1000 Ang^3
#
#
#
# Elastic Constant Matrix: (Units=GPa)
#
#
# Indices 1 2 3 4 5 6 
#
# 1 66.8039 6.0954 13.4824 0.0000 10.7708 0.0000
# 2 6.0954 44.6293 13.1086 0.0000 1.1892 0.0000
# 3 13.4824 13.1086 70.7722 0.0000 12.9359 0.0000
# 4 0.0000 0.0000 0.0000 24.0529 0.0000 1.8380
# 5 10.7708 1.1892 12.9359 0.0000 25.3287 0.0000
# 6 0.0000 0.0000 0.0000 1.8380 0.0000 42.2096
#
#
#
# Elastic Compliance Matrix: (Units=1/GPa)
#
#
# Indices 1 2 3 4 5 6 
#
# 1 0.016435 -0.001574 -0.001738 0.000000 -0.006028 0.000000
# 2 -0.001574 0.023882 -0.004457 0.000000 0.001824 0.000000
# 3 -0.001738 -0.004457 0.016669 0.000000 -0.007565 0.000000
# 4 0.000000 0.000000 0.000000 0.041714 0.000000 -0.001816
# 5 -0.006028 0.001824 -0.007565 0.000000 0.045822 0.000000
# 6 0.000000 0.000000 0.000000 -0.001816 0.000000 0.023770
#
#
# Mechanical properties :
#
#
# Convention : Reuss Voigt Hill
#
# Bulk Modulus (GPa) = 24.12569 27.50868 25.81719
# Shear Modulus (GPa) = 25.29762 28.28616 26.79189
#
# Velocity S-wave (km/s) = 3.45873 3.65732 3.55941
# Velocity P-wave (km/s) = 5.23058 5.55365 5.39454
#
# Compressibility (1/GPa) = 0.04144959
#
# Stress axis : x y z
#
# Youngs Moduli (GPa) = 60.84453 41.87199 59.99075
#
# Poissons Ratio (x) = 0.06589 0.10425
# Poissons Ratio (y) = 0.09575 0.26739
# Poissons Ratio (z) = 0.10574 0.18663
#
# Static dielectric constant tensor:
#      x y z
#    x 1.853680 0.000000 0.065100 
#    y 0.000000 1.804700 0.000000 
#    z 0.065100 0.000000 1.837610 
# 
# From -- ./inp_files/35912.got.cif
#   From: 2010.05.17/outbox.cif.g08.bks.cpg/sg14_18_cif.got.tgz:35912.got - 2010.06.03 17:49:19.
