data_PCOD9239719
_publ_section_title
;
Structure prediction by ZEFSAII (Michael W. Deem and Ramdas Pophale) SiO2 
 PCOD9239719
Probable space group: P 21/C
;
_chemical_formula_sum "Si O2"
_cell_formula_units_Z 32
_cell_length_a 11.995749
_cell_length_b 13.082510
_cell_length_c 19.714028
_cell_angle_alpha 90.000000
_cell_angle_beta 145.256265
_cell_angle_gamma 90.000000
_cell_volume 1763.184429
_symmetry_space_group_name_H-M "P 21/C"
_symmetry_group_IT_number 14
_symmetry_cell_setting 'monoclinic'
loop_
_space_group_symop_operation_xyz
x,y,z
-x,1/2+y,1/2-z
-x,-y,-z
x,1/2-y,1/2+z
loop_
_atom_site_type_symbol
_atom_site_label
_atom_site_fract_x
_atom_site_fract_y
_atom_site_fract_z
Si Si1 0.726103 0.705664 0.898426
Si Si2 0.276765 0.123666 0.895921
Si Si3 0.086280 0.391990 0.439801
Si Si4 0.723235 0.123666 0.119156
Si Si5 0.913720 0.391991 0.853521
Si Si6 0.733619 0.885571 0.258052
Si Si7 0.733619 0.114428 0.975567
Si Si8 0.273896 0.794336 0.172323
O O1 0.765219 0.685172 0.838700
O O2 0.500000 0.684583 0.798774
O O3 0.780077 0.820988 0.945447
O O4 0.868077 0.633502 0.013529
O O5 0.135082 0.144109 0.887681
O O6 0.219627 0.161246 0.792401
O O7 0.281281 0.000000 0.890640
O O8 0.500000 0.156483 0.023750
O O9 0.147371 0.509711 0.475197
O O10 0.868077 0.366498 0.354548
O O11 0.864917 0.144109 0.252599
O O12 0.780373 0.161246 0.072774
O O13 0.852629 0.509711 0.827826
O O14 0.780077 0.320988 0.834631
O O15 0.500000 0.910768 0.138282
O O16 0.765220 0.185172 0.926520
#
# Coordination Sequence:
#
# PCOD9239719 Si02
#       8
#     4   4   4   4   4   4   4   4
#     4  10  20  31  46  72 100 127 158 192 242 296
#     4   8  14  27  50  73  88 113 157 202 235 264
#     4  10  18  31  50  71  97 128 161 200 240 280
#     4   8  14  27  50  73  88 113 157 202 235 264
#     4  10  18  31  50  71  97 128 161 200 240 280
#     4   9  17  31  52  75  97 122 160 205 238 276
#     4   9  17  31  52  75  97 122 160 205 238 276
#     4  10  20  31  46  72 100 127 158 192 242 296
#
# _framework density 18.148980000000002
#
# number of rings (size 3 to 8) (size 9 to 14) (size 15 to 20)
#    0.000    2.750    0.000    4.500    0.000    0.000 
#    0.000    5.000    0.000    6.750    0.000    3.500 
#    0.000    0.000    0.000    0.000    0.000    0.000 
#
# Total GULP energy -178350.986219 kJ/mol
# GULP energy per Si atom -5573.468319 kJ/mol
# Density = 1.810767 g / cm^3
# Si number density = 18.148980 Si / 1000 Ang^3
#
#
#
# Elastic Constant Matrix: (Units=GPa)
#
#
# Indices 1 2 3 4 5 6 
#
# 1 118.9164 17.6780 76.6323 0.0000 -17.4429 0.0000
# 2 17.6780 24.3227 14.1871 0.0000 -11.7923 0.0000
# 3 76.6323 14.1871 109.4350 0.0000 -14.5808 0.0000
# 4 0.0000 0.0000 0.0000 15.5937 0.0000 -1.4699
# 5 -17.4429 -11.7923 -14.5808 0.0000 28.2280 0.0000
# 6 0.0000 0.0000 0.0000 -1.4699 0.0000 16.0288
#
#
#
# Elastic Compliance Matrix: (Units=1/GPa)
#
#
# Indices 1 2 3 4 5 6 
#
# 1 0.016150 -0.004322 -0.010373 0.000000 0.002816 0.000000
# 2 -0.004322 0.054481 -0.001460 0.000000 0.019334 0.000000
# 3 -0.010373 -0.001460 0.016813 0.000000 0.001665 0.000000
# 4 0.000000 0.000000 0.000000 0.064688 0.000000 0.005932
# 5 0.002816 0.019334 0.001665 0.000000 0.046102 0.000000
# 6 0.000000 0.000000 0.000000 0.005932 0.000000 0.062932
#
#
# Mechanical properties :
#
#
# Convention : Reuss Voigt Hill
#
# Bulk Modulus (GPa) = 18.13832 52.18544 35.16188
# Shear Modulus (GPa) = 16.03316 21.58187 18.80751
#
# Velocity S-wave (km/s) = 2.97546 3.45215 3.22263
# Velocity P-wave (km/s) = 4.67122 6.68626 5.76743
#
# Compressibility (1/GPa) = 0.05513190
#
# Stress axis : x y z
#
# Youngs Moduli (GPa) = 61.92097 18.35513 59.47800
#
# Poissons Ratio (x) = 0.07933 0.61699
# Poissons Ratio (y) = 0.26763 0.08685
# Poissons Ratio (z) = 0.64233 0.02680
#
# Static dielectric constant tensor:
#      x y z
#    x 1.653790 0.000000 -0.021700 
#    y 0.000000 1.607410 0.000000 
#    z -0.021700 0.000000 1.647370 
# 
# From -- ./inp_files/57831.got.cif
#   From: 2010.05.17/outbox.cif.g08.bks.cpg/sg14_29_cif.got.tgz:57831.got - 2010.06.03 17:49:19.
