data_PCOD9239407
_publ_section_title
;
Structure prediction by ZEFSAII (Michael W. Deem and Ramdas Pophale) SiO2 
 PCOD9239407
Probable space group: P 21/C
;
_chemical_formula_sum "Si O2"
_cell_formula_units_Z 32
_cell_length_a 11.247433
_cell_length_b 14.998906
_cell_length_c 13.383985
_cell_angle_alpha 90.000000
_cell_angle_beta 149.744290
_cell_angle_gamma 90.000000
_cell_volume 1137.649227
_symmetry_space_group_name_H-M "P 21/C"
_symmetry_group_IT_number 14
_symmetry_cell_setting 'monoclinic'
loop_
_space_group_symop_operation_xyz
x,y,z
-x,1/2+y,1/2-z
-x,-y,-z
x,1/2-y,1/2+z
loop_
_atom_site_type_symbol
_atom_site_label
_atom_site_fract_x
_atom_site_fract_y
_atom_site_fract_z
Si Si1 0.182435 0.766345 0.570116
Si Si2 0.406888 0.125648 0.087209
Si Si3 0.522818 0.429621 0.354824
Si Si4 0.965409 0.596279 0.356853
Si Si5 0.906888 0.874352 0.587209
Si Si6 0.977182 0.070379 0.645176
Si Si7 0.534592 0.596279 0.143147
Si Si8 0.682435 0.233655 0.070116
O O1 0.421628 0.789509 0.803662
O O2 0.250000 0.750000 0.500000
O O3 0.026875 0.679606 0.473376
O O4 0.048680 0.860992 0.464898
O O5 0.372639 0.127200 0.181551
O O6 0.537346 0.030684 0.162549
O O7 0.164016 0.117189 0.853007
O O8 0.548680 0.360992 0.464898
O O9 0.776990 0.441872 0.483956
O O10 0.335984 0.382811 0.146993
O O11 0.872639 0.627200 0.181551
O O12 0.750000 0.542345 0.250000
O O13 0.078372 0.789509 0.696338
O O14 0.037346 0.969316 0.662549
O O15 0.723009 0.058129 0.516044
O O16 0.473125 0.679606 0.026624
#
# Coordination Sequence:
#
# PCOD9239407 Si02
#       8
#     4   4   4   4   4   4   4   4
#     4   8  18  32  50  72  98 130 163 206 234 286
#     4  10  17  32  53  77  95 124 170 208 241 276
#     4  10  17  32  53  77  95 124 170 208 241 276
#     4  10  22  34  46  74 110 134 152 192 254 306
#     4  10  17  32  53  77  95 124 170 208 241 276
#     4  10  17  32  53  77  95 124 170 208 241 276
#     4  10  22  34  46  74 110 134 152 192 254 306
#     4   8  18  32  50  72  98 130 163 206 234 286
#
# _framework density 28.128177999999998
#
# number of rings (size 3 to 8) (size 9 to 14) (size 15 to 20)
#    0.000    3.000    5.000    0.000    0.000   11.000 
#    0.000    0.000    0.000    1.500    0.000    0.000 
#    0.000    0.000    0.000    0.000    0.000    0.000 
#
# Total GULP energy -178882.980177 kJ/mol
# GULP energy per Si atom -5590.093131 kJ/mol
# Density = 2.806416 g / cm^3
# Si number density = 28.128178 Si / 1000 Ang^3
#
#
#
# Elastic Constant Matrix: (Units=GPa)
#
#
# Indices 1 2 3 4 5 6 
#
# 1 114.6689 3.5540 45.8725 0.0000 40.8233 0.0000
# 2 3.5540 126.4479 27.8375 0.0000 -6.7182 0.0000
# 3 45.8725 27.8375 232.7093 0.0000 -0.6427 0.0000
# 4 0.0000 0.0000 0.0000 56.4143 0.0000 -10.0827
# 5 40.8233 -6.7182 -0.6427 0.0000 50.9596 0.0000
# 6 0.0000 0.0000 0.0000 -10.0827 0.0000 26.9037
#
#
#
# Elastic Compliance Matrix: (Units=1/GPa)
#
#
# Indices 1 2 3 4 5 6 
#
# 1 0.013770 -0.000383 -0.002699 0.000000 -0.011115 0.000000
# 2 -0.000383 0.008190 -0.000900 0.000000 0.001376 0.000000
# 3 -0.002699 -0.000900 0.004943 0.000000 0.002106 0.000000
# 4 0.000000 0.000000 0.000000 0.018999 0.000000 0.007120
# 5 -0.011115 0.001376 0.002106 0.000000 0.028736 0.000000
# 6 0.000000 0.000000 0.000000 0.007120 0.000000 0.039838
#
#
# Mechanical properties :
#
#
# Convention : Reuss Voigt Hill
#
# Bulk Modulus (GPa) = 52.80656 69.81711 61.31183
# Shear Modulus (GPa) = 38.83399 53.29300 46.06350
#
# Velocity S-wave (km/s) = 3.71968 4.35748 4.05115
# Velocity P-wave (km/s) = 6.10429 7.08461 6.61264
#
# Compressibility (1/GPa) = 0.01893704
#
# Stress axis : x y z
#
# Youngs Moduli (GPa) = 72.62387 122.09300 202.31448
#
# Poissons Ratio (x) = 0.04680 0.54608
# Poissons Ratio (y) = 0.02784 0.18217
# Poissons Ratio (z) = 0.19602 0.10993
#
# Static dielectric constant tensor:
#      x y z
#    x 2.355060 0.000000 0.000820 
#    y 0.000000 2.246730 0.000000 
#    z 0.000820 0.000000 2.189900 
# 
# From -- ./inp_files/69433.got.cif
#   From: 2010.05.17/outbox.cif.g08.bks.cpg/sg14_35_cif.got.tgz:69433.got - 2010.06.03 17:49:19.
