data_PCOD9239289
_publ_section_title
;
Structure prediction by ZEFSAII (Michael W. Deem and Ramdas Pophale) SiO2 
 PCOD9239289
Probable space group: P 21/C
;
_chemical_formula_sum "Si O2"
_cell_formula_units_Z 32
_cell_length_a 16.336111
_cell_length_b 5.057096
_cell_length_c 26.054536
_cell_angle_alpha 90.000000
_cell_angle_beta 110.167559
_cell_angle_gamma 90.000000
_cell_volume 2020.480481
_symmetry_space_group_name_H-M "P 21/C"
_symmetry_group_IT_number 14
_symmetry_cell_setting 'monoclinic'
loop_
_space_group_symop_operation_xyz
x,y,z
-x,1/2+y,1/2-z
-x,-y,-z
x,1/2-y,1/2+z
loop_
_atom_site_type_symbol
_atom_site_label
_atom_site_fract_x
_atom_site_fract_y
_atom_site_fract_z
Si Si1 0.090349 0.402043 0.082600
Si Si2 0.504584 0.566437 0.819473
Si Si3 0.094186 0.427575 0.964625
Si Si4 0.205571 0.578528 0.612074
Si Si5 0.394139 0.563907 0.696903
Si Si6 0.210211 0.551294 0.493834
Si Si7 0.514269 0.747849 0.433932
Si Si8 0.604509 0.258254 0.992215
O O1 0.135558 0.141281 0.114901
O O2 0.997950 0.513794 0.082334
O O3 0.159285 0.638556 0.100232
O O4 0.073644 0.334653 0.018711
O O5 0.424437 0.588357 0.762480
O O6 0.549435 0.281093 0.822261
O O7 0.482105 0.653829 0.871988
O O8 0.576075 0.776854 0.815596
O O9 0.160865 0.202887 0.960033
O O10 0.143490 0.705016 0.978125
O O11 0.292503 0.594115 0.664200
O O12 0.231759 0.502960 0.558916
O O13 0.298155 0.648111 0.485879
O O14 0.440682 0.768370 0.461865
O O15 0.550030 0.450489 0.445837
O O16 0.592383 0.950371 0.466032
#
# Coordination Sequence:
#
# PCOD9239289 Si02
#       8
#     4   4   4   4   4   4   4   4
#     4   9  17  27  39  57  82 112 140 169 211 256
#     4  10  19  32  46  62  90 119 146 184 221 255
#     4   9  17  27  39  57  82 112 140 169 211 256
#     4  10  17  26  41  59  83 111 142 177 206 249
#     4  10  20  30  45  67  86 116 154 180 215 263
#     4  10  17  26  41  59  83 111 142 177 206 249
#     4  10  19  32  46  62  90 119 146 184 221 255
#     4  10  20  30  45  67  86 116 154 180 215 263
#
# _framework density 15.837818
#
# number of rings (size 3 to 8) (size 9 to 14) (size 15 to 20)
#    0.000    2.250    0.000    4.500    0.000    5.000 
#    0.000    0.000    0.000    0.000    0.000    0.000 
#    0.000    4.000    0.000    0.250    0.000    0.000 
#
# Total GULP energy -178333.684961 kJ/mol
# GULP energy per Si atom -5572.927655 kJ/mol
# Density = 1.580177 g / cm^3
# Si number density = 15.837818 Si / 1000 Ang^3
#
#
#
# Elastic Constant Matrix: (Units=GPa)
#
#
# Indices 1 2 3 4 5 6 
#
# 1 66.1502 3.2444 30.4653 0.0000 19.4450 0.0000
# 2 3.2444 55.3343 9.2239 0.0000 1.5328 0.0000
# 3 30.4653 9.2239 58.9802 0.0000 7.0555 0.0000
# 4 0.0000 0.0000 0.0000 13.6421 0.0000 4.0576
# 5 19.4450 1.5328 7.0555 0.0000 19.6022 0.0000
# 6 0.0000 0.0000 0.0000 4.0576 0.0000 24.9053
#
#
#
# Elastic Compliance Matrix: (Units=1/GPa)
#
#
# Indices 1 2 3 4 5 6 
#
# 1 0.026999 0.000943 -0.011370 0.000000 -0.022763 0.000000
# 2 0.000943 0.018592 -0.003249 0.000000 -0.001220 0.000000
# 3 -0.011370 -0.003249 0.022944 0.000000 0.003275 0.000000
# 4 0.000000 0.000000 0.000000 0.077036 0.000000 -0.012551
# 5 -0.022763 -0.001220 0.003275 0.000000 0.072512 0.000000
# 6 0.000000 0.000000 0.000000 -0.012551 0.000000 0.042197
#
#
# Mechanical properties :
#
#
# Convention : Reuss Voigt Hill
#
# Bulk Modulus (GPa) = 24.28180 29.59241 26.93711
# Shear Modulus (GPa) = 16.59148 20.79866 18.69507
#
# Velocity S-wave (km/s) = 3.24016 3.62778 3.43943
# Velocity P-wave (km/s) = 5.41876 6.02270 5.72869
#
# Compressibility (1/GPa) = 0.04118311
#
# Stress axis : x y z
#
# Youngs Moduli (GPa) = 37.03882 53.78646 43.58392
#
# Poissons Ratio (x) = -0.05072 0.49556
# Poissons Ratio (y) = -0.03493 0.14159
# Poissons Ratio (z) = 0.42114 0.17474
#
# Static dielectric constant tensor:
#      x y z
#    x 1.538370 0.000000 0.007080 
#    y 0.000000 1.551490 0.000000 
#    z 0.007080 0.000000 1.523130 
# 
# From -- ./inp_files/73496.got.cif
#   From: 2010.05.17/outbox.cif.g08.bks.cpg/sg14_37_cif.got.tgz:73496.got - 2010.06.03 17:49:19.
