data_PCOD9239754
_publ_section_title
;
Structure prediction by ZEFSAII (Michael W. Deem and Ramdas Pophale) SiO2 
 PCOD9239754
Probable space group: P 21/C
;
_chemical_formula_sum "Si O2"
_cell_formula_units_Z 32
_cell_length_a 11.842495
_cell_length_b 19.274570
_cell_length_c 20.452859
_cell_angle_alpha 90.000000
_cell_angle_beta 22.161296
_cell_angle_gamma 90.000000
_cell_volume 1761.047987
_symmetry_space_group_name_H-M "P 21/C"
_symmetry_group_IT_number 14
_symmetry_cell_setting 'monoclinic'
loop_
_space_group_symop_operation_xyz
x,y,z
-x,1/2+y,1/2-z
-x,-y,-z
x,1/2-y,1/2+z
loop_
_atom_site_type_symbol
_atom_site_label
_atom_site_fract_x
_atom_site_fract_y
_atom_site_fract_z
Si Si1 0.374967 0.244559 0.748798
Si Si2 0.268257 0.504852 0.945142
Si Si3 0.197489 0.662875 0.402307
Si Si4 0.828945 0.065708 0.199692
Si Si5 0.928372 0.341820 0.907249
Si Si6 0.720486 0.031911 0.807991
Si Si7 0.146193 0.414341 0.663947
Si Si8 0.614802 0.025505 0.129832
O O1 0.558276 0.280528 0.708769
O O2 0.627891 0.204662 0.571179
O O3 0.185618 0.301363 0.809447
O O4 0.131119 0.192330 0.908861
O O5 0.555132 0.487240 0.836360
O O6 0.372276 0.492065 0.815472
O O7 0.155891 0.583388 0.015929
O O8 0.006183 0.453064 0.109792
O O9 0.239542 0.632671 0.307504
O O10 0.253245 0.599406 0.422263
O O11 0.919938 0.081949 0.224768
O O12 0.119882 0.030305 0.010864
O O13 0.046159 0.359281 0.771588
O O14 0.839797 0.988604 0.805800
O O15 0.525166 0.980164 0.866869
O O16 0.487503 0.091173 0.953823
#
# Coordination Sequence:
#
# PCOD9239754 Si02
#       8
#     4   4   4   4   4   4   4   4
#     4  10  21  35  55  75  98 136 179 220 256 295
#     4  10  18  31  54  83 107 133 169 217 271 311
#     4  10  19  35  53  77 103 131 172 215 259 306
#     4  10  20  33  53  79 109 138 166 210 267 319
#     4  10  20  36  54  75 103 136 177 218 255 310
#     4   9  18  30  50  78 106 130 160 205 257 311
#     4   9  19  35  49  71 105 138 165 199 253 313
#     4  10  18  32  55  81 108 134 167 216 270 313
#
# _framework density 18.170998000000001
#
# number of rings (size 3 to 8) (size 9 to 14) (size 15 to 20)
#    0.000    2.250    0.000    4.875    0.000    3.000 
#    0.000    7.500    0.000    0.000    0.000    0.000 
#    0.000    0.000    0.000    0.000    0.000    0.000 
#
# Total GULP energy -178401.684445 kJ/mol
# GULP energy per Si atom -5575.052639 kJ/mol
# Density = 1.812964 g / cm^3
# Si number density = 18.170998 Si / 1000 Ang^3
#
#
#
# Elastic Constant Matrix: (Units=GPa)
#
#
# Indices 1 2 3 4 5 6 
#
# 1 102.5779 34.2252 32.7542 0.0000 -6.8224 0.0000
# 2 34.2252 72.3076 48.6646 0.0000 0.2242 0.0000
# 3 32.7542 48.6646 113.6565 0.0000 -9.9174 0.0000
# 4 0.0000 0.0000 0.0000 28.7364 0.0000 5.1217
# 5 -6.8224 0.2242 -9.9174 0.0000 20.5786 0.0000
# 6 0.0000 0.0000 0.0000 5.1217 0.0000 16.1326
#
#
#
# Elastic Compliance Matrix: (Units=1/GPa)
#
#
# Indices 1 2 3 4 5 6 
#
# 1 0.011973 -0.005007 -0.000998 0.000000 0.003543 0.000000
# 2 -0.005007 0.021913 -0.008461 0.000000 -0.005976 0.000000
# 3 -0.000998 -0.008461 0.013245 0.000000 0.006144 0.000000
# 4 0.000000 0.000000 0.000000 0.036886 0.000000 -0.011711
# 5 0.003543 -0.005976 0.006144 0.000000 0.052795 0.000000
# 6 0.000000 0.000000 0.000000 -0.011711 0.000000 0.065704
#
#
# Mechanical properties :
#
#
# Convention : Reuss Voigt Hill
#
# Bulk Modulus (GPa) = 54.94502 57.75888 56.35195
# Shear Modulus (GPa) = 21.05138 24.61607 22.83373
#
# Velocity S-wave (km/s) = 3.40739 3.68460 3.54870
# Velocity P-wave (km/s) = 6.76637 7.06803 6.91885
#
# Compressibility (1/GPa) = 0.01820001
#
# Stress axis : x y z
#
# Youngs Moduli (GPa) = 83.51799 45.63565 75.50120
#
# Poissons Ratio (x) = 0.22850 0.07532
# Poissons Ratio (y) = 0.41817 0.63881
# Poissons Ratio (z) = 0.08331 0.38612
#
# Static dielectric constant tensor:
#      x y z
#    x 1.630850 0.000000 -0.008950 
#    y 0.000000 1.623890 0.000000 
#    z -0.008950 0.000000 1.671490 
# 
# From -- ./inp_files/14161.got.cif
#   From: 2010.05.17/outbox.cif.g08.bks.cpg/sg14_8_cif.got.tgz:14161.got - 2010.06.03 17:49:19.
