data_PCOD9239367
_publ_section_title
;
Structure prediction by ZEFSAII (Michael W. Deem and Ramdas Pophale) SiO2 
 PCOD9239367
Probable space group: P 21/C
;
_chemical_formula_sum "Si O2"
_cell_formula_units_Z 32
_cell_length_a 14.526131
_cell_length_b 20.129578
_cell_length_c 13.987265
_cell_angle_alpha 90.000000
_cell_angle_beta 30.436250
_cell_angle_gamma 90.000000
_cell_volume 2071.881537
_symmetry_space_group_name_H-M "P 21/C"
_symmetry_group_IT_number 14
_symmetry_cell_setting 'monoclinic'
loop_
_space_group_symop_operation_xyz
x,y,z
-x,1/2+y,1/2-z
-x,-y,-z
x,1/2-y,1/2+z
loop_
_atom_site_type_symbol
_atom_site_label
_atom_site_fract_x
_atom_site_fract_y
_atom_site_fract_z
Si Si1 0.443695 0.331807 0.865060
Si Si2 0.670075 0.196319 0.420876
Si Si3 0.170075 0.696319 0.420876
Si Si4 0.943695 0.668193 0.365060
Si Si5 0.449754 0.076272 0.530417
Si Si6 0.687731 0.774906 0.701222
Si Si7 0.812270 0.774906 0.798778
Si Si8 0.050246 0.423728 0.469583
O O1 0.654865 0.311181 0.669070
O O2 0.346824 0.329517 0.849530
O O3 0.445650 0.399359 0.924266
O O4 0.334662 0.277763 0.027807
O O5 0.750000 0.226135 0.250000
O O6 0.587596 0.125041 0.462646
O O7 0.503205 0.236917 0.612702
O O8 0.845135 0.188819 0.330930
O O9 0.003205 0.736916 0.612702
O O10 0.087596 0.625041 0.462645
O O11 0.834662 0.722237 0.527807
O O12 0.846824 0.670483 0.349529
O O13 0.945650 0.600641 0.424266
O O14 0.250000 0.088443 0.750000
O O15 0.500000 0.000000 0.500000
O O16 0.750000 0.798121 0.750000
O O17 0.000000 0.500000 0.500000
#
# Coordination Sequence:
#
# PCOD9239367 Si02
#       8
#     4   4   4   4   4   4   4   4
#     4  10  20  30  49  72 101 137 165 202 259 289
#     4  10  17  31  46  72 102 132 167 201 254 290
#     4  10  17  31  46  72 102 132 167 201 254 290
#     4  10  20  30  49  72 101 137 165 202 259 289
#     4  11  19  33  51  75 104 129 167 212 248 300
#     4  11  18  32  48  70 107 133 165 206 245 308
#     4  11  18  32  48  70 107 133 165 206 245 308
#     4  11  19  33  51  75 104 129 167 212 248 300
#
# _framework density 15.444898
#
# number of rings (size 3 to 8) (size 9 to 14) (size 15 to 20)
#    0.000    1.500    7.500    3.000    0.000    0.000 
#    0.000    0.000    0.000    0.000    0.000    7.000 
#    0.000    0.000    0.000    0.000    0.000    0.000 
#
# Total GULP energy -178276.180803 kJ/mol
# GULP energy per Si atom -5571.130650 kJ/mol
# Density = 1.540975 g / cm^3
# Si number density = 15.444898 Si / 1000 Ang^3
#
#
#
# Elastic Constant Matrix: (Units=GPa)
#
#
# Indices 1 2 3 4 5 6 
#
# 1 136.0285 42.3290 24.5545 0.0000 5.5929 0.0000
# 2 42.3290 62.6718 17.3015 0.0000 5.0319 0.0000
# 3 24.5545 17.3015 93.3497 0.0000 -22.9222 0.0000
# 4 0.0000 0.0000 0.0000 13.6190 0.0000 1.7671
# 5 5.5929 5.0319 -22.9222 0.0000 22.8637 0.0000
# 6 0.0000 0.0000 0.0000 1.7671 0.0000 22.4057
#
#
#
# Elastic Compliance Matrix: (Units=1/GPa)
#
#
# Indices 1 2 3 4 5 6 
#
# 1 0.009663 -0.005592 -0.002366 0.000000 -0.003505 0.000000
# 2 -0.005592 0.021595 -0.004461 0.000000 -0.007857 0.000000
# 3 -0.002366 -0.004461 0.016642 0.000000 0.018245 0.000000
# 4 0.000000 0.000000 0.000000 0.074186 0.000000 -0.005851
# 5 -0.003505 -0.007857 0.018245 0.000000 0.064616 0.000000
# 6 0.000000 0.000000 0.000000 -0.005851 0.000000 0.045093
#
#
# Mechanical properties :
#
#
# Convention : Reuss Voigt Hill
#
# Bulk Modulus (GPa) = 43.36114 51.15779 47.25946
# Shear Modulus (GPa) = 18.91656 25.63534 22.27595
#
# Velocity S-wave (km/s) = 3.50348 4.07848 3.80186
# Velocity P-wave (km/s) = 6.67094 7.44132 7.06664
#
# Compressibility (1/GPa) = 0.02306212
#
# Stress axis : x y z
#
# Youngs Moduli (GPa) = 103.49217 46.30670 60.09036
#
# Poissons Ratio (x) = 0.25893 0.14217
# Poissons Ratio (y) = 0.57869 0.26807
# Poissons Ratio (z) = 0.24486 0.20658
#
# Static dielectric constant tensor:
#      x y z
#    x 1.540920 0.000000 -0.001070 
#    y 0.000000 1.499130 0.000000 
#    z -0.001070 0.000000 1.547000 
# 
# From -- ./inp_files/47535.got.cif
#   From: 2010.05.17/outbox.cif.g08.bks.cpg/sg14_24_cif.got.tgz:47535.got - 2010.06.03 17:49:19.
