data_PCOD9239495
_publ_section_title
;
Structure prediction by ZEFSAII (Michael W. Deem and Ramdas Pophale) SiO2 
 PCOD9239495
Probable space group: P 21/C
;
_chemical_formula_sum "Si O2"
_cell_formula_units_Z 32
_cell_length_a 11.271993
_cell_length_b 12.774333
_cell_length_c 21.130746
_cell_angle_alpha 90.000000
_cell_angle_beta 34.146888
_cell_angle_gamma 90.000000
_cell_volume 1707.896478
_symmetry_space_group_name_H-M "P 21/C"
_symmetry_group_IT_number 14
_symmetry_cell_setting 'monoclinic'
loop_
_space_group_symop_operation_xyz
x,y,z
-x,1/2+y,1/2-z
-x,-y,-z
x,1/2-y,1/2+z
loop_
_atom_site_type_symbol
_atom_site_label
_atom_site_fract_x
_atom_site_fract_y
_atom_site_fract_z
Si Si1 0.706788 0.374222 0.809557
Si Si2 0.828680 0.233953 0.633887
Si Si3 0.839730 0.077637 0.035299
Si Si4 0.254498 0.278112 0.005754
Si Si5 0.702595 0.007073 0.865140
Si Si6 0.499544 0.408883 0.331451
Si Si7 0.050749 0.412127 0.305394
Si Si8 0.087270 0.209940 0.217500
O O1 0.778260 0.312813 0.714663
O O2 0.777322 0.494866 0.771740
O O3 0.845764 0.323783 0.805618
O O4 0.457153 0.353105 0.923792
O O5 0.836573 0.309478 0.569959
O O6 0.641390 0.148971 0.716629
O O7 0.053033 0.183012 0.554470
O O8 0.618109 0.015295 0.135343
O O9 0.924207 0.085567 0.926722
O O10 0.000000 0.000000 0.000000
O O11 0.182111 0.246631 0.108095
O O12 0.330755 0.174105 0.934192
O O13 0.787851 0.891799 0.815537
O O14 0.648435 0.066663 0.825295
O O15 0.885432 0.063272 0.822897
O O16 0.500000 0.000000 0.000000
O O17 0.123877 0.297473 0.253952
#
# Coordination Sequence:
#
# PCOD9239495 Si02
#       8
#     4   4   4   4   4   4   4   4
#     4   9  19  34  58  85 118 163 199 240 303 357
#     4  10  21  37  61  90 111 157 212 240 287 358
#     4  12  21  40  62  87 117 158 206 246 288 352
#     4  10  17  34  59  86 121 156 197 244 294 359
#     4  11  19  37  63  90 118 155 194 243 306 352
#     4  11  21  38  66  87 118 159 199 251 298 355
#     4  11  21  37  60  90 123 154 200 252 293 361
#     4  10  21  33  56  95 122 150 201 249 303 354
#
# _framework density 18.736498000000001
#
# number of rings (size 3 to 8) (size 9 to 14) (size 15 to 20)
#    0.000    1.500    5.000    3.000    0.000    0.500 
#    2.250    0.000    0.000    6.750    0.000    0.000 
#    0.000    0.000    0.000    0.000    0.000    0.000 
#
# Total GULP energy -178568.646239 kJ/mol
# GULP energy per Si atom -5580.270195 kJ/mol
# Density = 1.869385 g / cm^3
# Si number density = 18.736498 Si / 1000 Ang^3
#
#
#
# Elastic Constant Matrix: (Units=GPa)
#
#
# Indices 1 2 3 4 5 6 
#
# 1 44.9464 17.5925 27.4387 0.0000 -5.2906 0.0000
# 2 17.5925 71.3397 35.0492 0.0000 2.3444 0.0000
# 3 27.4387 35.0492 77.3115 0.0000 -15.4532 0.0000
# 4 0.0000 0.0000 0.0000 0.1256 0.0000 6.3041
# 5 -5.2906 2.3444 -15.4532 0.0000 13.1775 0.0000
# 6 0.0000 0.0000 0.0000 6.3041 0.0000 27.7923
#
#
#
# Elastic Compliance Matrix: (Units=1/GPa)
#
#
# Indices 1 2 3 4 5 6 
#
# 1 0.028839 -0.003066 -0.008388 0.000000 0.002287 0.000000
# 2 -0.003066 0.021700 -0.012758 0.000000 -0.020053 0.000000
# 3 -0.008388 -0.012758 0.028051 0.000000 0.031798 0.000000
# 4 0.000000 0.000000 0.000000 -0.766693 0.000000 0.173907
# 5 0.002287 -0.020053 0.031798 0.000000 0.117661 0.000000
# 6 0.000000 0.000000 0.000000 0.173907 0.000000 -0.003466
#
#
# Mechanical properties :
#
#
# Convention : Reuss Voigt Hill
#
# Bulk Modulus (GPa) = 33.14927 39.30651 36.22789
# Shear Modulus (GPa) = -9.70068 15.78691 3.04312
#
# Velocity S-wave (km/s) = -2.27786 2.90586 1.27581
# Velocity P-wave (km/s) = 3.28824 5.68180 4.64195
#
# Compressibility (1/GPa) = 0.03016657
#
# Stress axis : x y z
#
# Youngs Moduli (GPa) = 34.67568 46.08196 35.64885
#
# Poissons Ratio (x) = 0.14127 0.29903
# Poissons Ratio (y) = 0.10630 0.45481
# Poissons Ratio (z) = 0.29087 0.58792
#
# Static dielectric constant tensor:
#      x y z
#    x 1.656270 0.000000 -0.025870 
#    y 0.000000 1.693010 0.000000 
#    z -0.025870 0.000000 1.690820 
# 
# From -- ./inp_files/73290.got.cif
#   From: 2010.05.17/outbox.cif.g08.bks.cpg/sg14_37_cif.got.tgz:73290.got - 2010.06.03 17:49:19.
