data_PCOD9239517
_publ_section_title
;
Structure prediction by ZEFSAII (Michael W. Deem and Ramdas Pophale) SiO2 
 PCOD9239517
Probable space group: P 21/C
;
_chemical_formula_sum "Si O2"
_cell_formula_units_Z 32
_cell_length_a 8.736255
_cell_length_b 14.963829
_cell_length_c 23.661833
_cell_angle_alpha 90.000000
_cell_angle_beta 27.612906
_cell_angle_gamma 90.000000
_cell_volume 1433.712525
_symmetry_space_group_name_H-M "P 21/C"
_symmetry_group_IT_number 14
_symmetry_cell_setting 'monoclinic'
loop_
_space_group_symop_operation_xyz
x,y,z
-x,1/2+y,1/2-z
-x,-y,-z
x,1/2-y,1/2+z
loop_
_atom_site_type_symbol
_atom_site_label
_atom_site_fract_x
_atom_site_fract_y
_atom_site_fract_z
Si Si1 0.303604 0.296980 0.672709
Si Si2 0.426475 0.781184 0.626155
Si Si3 0.961120 0.465082 0.360335
Si Si4 0.187831 0.616157 0.769976
Si Si5 0.122159 0.453632 0.018413
Si Si6 0.686839 0.038829 0.071321
Si Si7 0.335920 0.358087 0.534149
Si Si8 0.423608 0.103213 0.615361
O O1 0.471888 0.373069 0.655368
O O2 0.344475 0.320415 0.593644
O O3 0.486821 0.202808 0.616900
O O4 0.902401 0.291153 0.806472
O O5 0.322641 0.716226 0.712148
O O6 0.607584 0.874221 0.579450
O O7 0.668012 0.718477 0.510245
O O8 0.864153 0.433789 0.454186
O O9 0.659458 0.421659 0.422923
O O10 0.956997 0.571339 0.369679
O O11 0.270009 0.440588 0.222114
O O12 0.428519 0.542472 0.663181
O O13 0.843070 0.609974 0.847881
O O14 0.136129 0.590214 0.852552
O O15 0.286174 0.537781 0.997424
O O16 0.000000 0.500000 0.000000
O O17 0.000000 0.000000 0.000000
#
# Coordination Sequence:
#
# PCOD9239517 Si02
#       8
#     4   4   4   4   4   4   4   4
#     4  10  22  37  66 106 130 178 237 291 345 406
#     4  11  20  42  71 101 131 182 240 289 345 416
#     4  10  18  37  67  99 135 171 231 291 341 393
#     4  11  23  46  72 103 133 182 245 286 346 424
#     4  12  29  45  66 104 151 188 219 288 371 424
#     4  11  24  40  66 100 140 183 228 285 351 427
#     4  10  17  34  66 100 128 163 233 297 333 393
#     4  11  22  44  70 100 138 183 236 296 341 410
#
# _framework density 22.319678
#
# number of rings (size 3 to 8) (size 9 to 14) (size 15 to 20)
#    0.000    1.250    3.750    4.875    1.750    2.000 
#    0.000    1.250    0.000    0.000    0.000    0.000 
#    0.000    0.000    0.000    0.000    0.000    0.000 
#
# Total GULP energy -178280.031694 kJ/mol
# GULP energy per Si atom -5571.250990 kJ/mol
# Density = 2.226888 g / cm^3
# Si number density = 22.319678 Si / 1000 Ang^3
#
#
#
# Elastic Constant Matrix: (Units=GPa)
#
#
# Indices 1 2 3 4 5 6 
#
# 1 94.8171 67.9791 44.4751 0.0000 19.2675 0.0000
# 2 67.9791 198.4525 56.1763 0.0000 -10.0805 0.0000
# 3 44.4751 56.1763 88.7512 0.0000 22.7651 0.0000
# 4 0.0000 0.0000 0.0000 30.1388 0.0000 8.7525
# 5 19.2675 -10.0805 22.7651 0.0000 24.6518 0.0000
# 6 0.0000 0.0000 0.0000 8.7525 0.0000 24.2868
#
#
#
# Elastic Compliance Matrix: (Units=1/GPa)
#
#
# Indices 1 2 3 4 5 6 
#
# 1 0.019953 -0.007624 -0.000489 0.000000 -0.018260 0.000000
# 2 -0.007624 0.010546 -0.007193 0.000000 0.016913 0.000000
# 3 -0.000489 -0.007193 0.021912 0.000000 -0.022794 0.000000
# 4 0.000000 0.000000 0.000000 0.037058 0.000000 -0.013355
# 5 -0.018260 0.016913 -0.022794 0.000000 0.082803 0.000000
# 6 0.000000 0.000000 0.000000 -0.013355 0.000000 0.045988
#
#
# Mechanical properties :
#
#
# Convention : Reuss Voigt Hill
#
# Bulk Modulus (GPa) = 45.87429 79.92020 62.89724
# Shear Modulus (GPa) = 19.52073 30.04151 24.78112
#
# Velocity S-wave (km/s) = 2.96057 3.67272 3.33570
# Velocity P-wave (km/s) = 5.68195 7.33962 6.56333
#
# Compressibility (1/GPa) = 0.02179870
#
# Stress axis : x y z
#
# Youngs Moduli (GPa) = 50.11891 94.82483 45.63613
#
# Poissons Ratio (x) = 0.72292 0.02233
# Poissons Ratio (y) = 0.38209 0.32826
# Poissons Ratio (z) = 0.02452 0.68208
#
# Static dielectric constant tensor:
#      x y z
#    x 2.075250 0.000000 -0.051530 
#    y 0.000000 1.947470 0.000000 
#    z -0.051530 0.000000 1.938080 
# 
# From -- ./inp_files/72436.got.cif
#   From: 2010.05.17/outbox.cif.g08.bks.cpg/sg14_37_cif.got.tgz:72436.got - 2010.06.03 17:49:19.
