data_PCOD9239562
_publ_section_title
;
Structure prediction by ZEFSAII (Michael W. Deem and Ramdas Pophale) SiO2 
 PCOD9239562
Probable space group: P 21/C
;
_chemical_formula_sum "Si O2"
_cell_formula_units_Z 28
_cell_length_a 8.138112
_cell_length_b 13.897909
_cell_length_c 13.167656
_cell_angle_alpha 90.000000
_cell_angle_beta 50.138431
_cell_angle_gamma 90.000000
_cell_volume 1143.178020
_symmetry_space_group_name_H-M "P 21/C"
_symmetry_group_IT_number 14
_symmetry_cell_setting 'monoclinic'
loop_
_space_group_symop_operation_xyz
x,y,z
-x,1/2+y,1/2-z
-x,-y,-z
x,1/2-y,1/2+z
loop_
_atom_site_type_symbol
_atom_site_label
_atom_site_fract_x
_atom_site_fract_y
_atom_site_fract_z
Si Si1 0.247850 0.200103 0.623044
Si Si2 0.012943 0.536862 0.723260
Si Si3 0.226474 0.067897 0.950010
Si Si4 0.556329 0.390339 0.703240
Si Si5 0.097996 0.136682 0.342037
Si Si6 0.937345 0.259654 0.564218
Si Si7 0.580586 0.338215 0.455465
O O1 0.169879 0.277589 0.738057
O O2 0.490955 0.229689 0.497863
O O3 0.208622 0.092774 0.676354
O O4 0.088948 0.221455 0.592444
O O5 0.076494 0.485935 0.592386
O O6 0.040962 0.455848 0.798295
O O7 0.189049 0.622539 0.666903
O O8 0.414316 0.112094 0.944856
O O9 0.338085 0.994540 0.829053
O O10 0.079948 0.152106 0.962748
O O11 0.308027 0.384569 0.827945
O O12 0.711621 0.307068 0.684148
O O13 0.558273 0.376710 0.579499
O O14 0.915845 0.178839 0.487131
#
# Coordination Sequence:
#
# PCOD9239562 Si02
#       7
#     4   4   4   4   4   4   4
#     4  10  23  37  59  93 120 157 203 256 293 361
#     4  11  18  37  70  82 120 169 201 239 310 364
#     4  10  17  36  60  89 111 155 207 256 288 364
#     4  10  18  34  58  89 116 155 197 253 302 353
#     4  11  21  40  62  88 119 167 203 241 315 360
#     4  11  23  35  57  95 125 146 209 263 292 356
#     4   9  17  35  60  88 113 153 208 240 294 364
#
# _framework density 24.493124999999999
#
# number of rings (size 3 to 8) (size 9 to 14) (size 15 to 20)
#    0.000    1.714    5.714    3.000    0.000    2.857 
#    0.000    0.000    0.000    7.714    0.000    0.000 
#    0.000    0.000    0.000    0.000    0.000    0.000 
#
# Total GULP energy -156481.005688 kJ/mol
# GULP energy per Si atom -5588.607346 kJ/mol
# Density = 2.443738 g / cm^3
# Si number density = 24.493125 Si / 1000 Ang^3
#
#
#
# Elastic Constant Matrix: (Units=GPa)
#
#
# Indices 1 2 3 4 5 6 
#
# 1 74.2240 29.7406 7.7946 0.0000 0.9805 0.0000
# 2 29.7406 115.7998 56.8765 0.0000 -6.7755 0.0000
# 3 7.7946 56.8765 42.5004 0.0000 -2.9585 0.0000
# 4 0.0000 0.0000 0.0000 32.1379 0.0000 2.3369
# 5 0.9805 -6.7755 -2.9585 0.0000 13.4392 0.0000
# 6 0.0000 0.0000 0.0000 2.3369 0.0000 14.2215
#
#
#
# Elastic Compliance Matrix: (Units=1/GPa)
#
#
# Indices 1 2 3 4 5 6 
#
# 1 0.015935 -0.008004 0.007543 0.000000 -0.003537 0.000000
# 2 -0.008004 0.029606 -0.037650 0.000000 0.007222 0.000000
# 3 0.007543 -0.037650 0.072279 0.000000 -0.003621 0.000000
# 4 0.000000 0.000000 0.000000 0.031492 0.000000 -0.005175
# 5 -0.003537 0.007222 -0.003621 0.000000 0.077511 0.000000
# 6 0.000000 0.000000 0.000000 -0.005175 0.000000 0.071166
#
#
# Mechanical properties :
#
#
# Convention : Reuss Voigt Hill
#
# Bulk Modulus (GPa) = 24.03972 46.81639 35.42805
# Shear Modulus (GPa) = 12.88400 21.16721 17.02560
#
# Velocity S-wave (km/s) = 2.29601 2.94293 2.63937
# Velocity P-wave (km/s) = 4.10671 5.54107 4.87691
#
# Compressibility (1/GPa) = 0.04159782
#
# Stress axis : x y z
#
# Youngs Moduli (GPa) = 62.75656 33.77670 13.83524
#
# Poissons Ratio (x) = 0.27036 -0.10436
# Poissons Ratio (y) = 0.50233 0.52090
# Poissons Ratio (z) = -0.47340 1.27169
#
# Static dielectric constant tensor:
#      x y z
#    x 1.986060 0.000000 -0.025870 
#    y 0.000000 1.974590 0.000000 
#    z -0.025870 0.000000 2.000260 
# 
# From -- ./inp_files/41130.got.cif
#   From: 2010.05.17/outbox.cif.g08.bks.cpg/sg14_21_cif.got.tgz:41130.got - 2010.06.03 17:49:19.
