data_PCOD9239025
_publ_section_title
;
Structure prediction by ZEFSAII (Michael W. Deem and Ramdas Pophale) SiO2 
 PCOD9239025
Probable space group: P 2/C
;
_chemical_formula_sum "Si O2"
_cell_formula_units_Z 28
_cell_length_a 27.000000
_cell_length_b 9.000000
_cell_length_c 9.000000
_cell_angle_alpha 90.000000
_cell_angle_beta 40.000000
_cell_angle_gamma 90.000000
_cell_volume 1405.776502
_symmetry_space_group_name_H-M "P 2/C"
_symmetry_group_IT_number 13
_symmetry_cell_setting 'monoclinic'
loop_
_space_group_symop_operation_xyz
x,y,z
-x,y,1/2-z
-x,-y,-z
x,-y,1/2+z
loop_
_atom_site_type_symbol
_atom_site_label
_atom_site_fract_x
_atom_site_fract_y
_atom_site_fract_z
Si Si1 0.506649 0.160534 0.413628
Si Si2 0.915488 0.830587 0.274863
Si Si3 0.920098 0.820873 0.760129
Si Si4 0.821261 0.318441 0.248532
Si Si5 0.658126 0.663197 0.521052
Si Si6 0.646157 0.342586 0.690885
Si Si7 0.166451 0.671527 0.290046
O O1 0.500000 0.153893 0.250000
O O2 0.591999 0.229263 0.237527
O O3 0.433788 0.253447 0.646064
O O4 0.500000 0.000000 0.500000
O O5 0.882415 0.728721 0.481959
O O6 0.854107 0.789166 0.289636
O O7 0.918685 0.005344 0.310245
O O8 0.000044 0.794951 0.012363
O O9 0.848364 0.786145 0.819182
O O10 0.901242 0.707666 0.936263
O O11 0.729799 0.289760 0.433324
O O12 0.832423 0.495597 0.254962
O O13 0.638523 0.504514 0.637709
O O14 0.655057 0.651367 0.349289
O O15 0.746541 0.701915 0.355937
#
# Coordination Sequence:
#
# PCOD9239025 Si02
#       7
#     4   4   4   4   4   4   4
#     4  10  23  42  62  96 130 162 205 250 300 362
#     4  11  25  39  63  88 121 172 203 255 320 373
#     4  11  23  43  59  88 127 160 211 257 312 381
#     4  11  23  40  63  92 123 159 212 259 309 365
#     4  10  22  41  65  91 124 161 203 252 306 365
#     4  10  22  41  65  91 124 161 203 252 306 365
#     4  11  23  40  63  92 123 159 212 259 309 365
#
# _framework density 19.917818
#
# number of rings (size 3 to 8) (size 9 to 14) (size 15 to 20)
#    0.000    1.429    1.429    3.000    6.000    9.143 
#    0.000    0.000    0.000    0.000    0.000    0.000 
#    0.000    0.000    0.000    0.000    0.000    0.000 
#
# Total GULP energy -156121.232110 kJ/mol
# GULP energy per Si atom -5575.758290 kJ/mol
# Density = 1.987248 g / cm^3
# Si number density = 19.917818 Si / 1000 Ang^3
#
#
#
# Elastic Constant Matrix: (Units=GPa)
#
#
# Indices 1 2 3 4 5 6 
#
# 1 46.5206 22.0160 16.8953 0.0000 -24.4286 0.0000
# 2 22.0160 81.4548 55.6299 0.0000 -25.5965 0.0000
# 3 16.8953 55.6299 105.7431 0.0000 -32.7532 0.0000
# 4 0.0000 0.0000 0.0000 31.8401 0.0000 -2.6898
# 5 -24.4286 -25.5965 -32.7532 0.0000 31.4019 0.0000
# 6 0.0000 0.0000 0.0000 -2.6898 0.0000 27.2167
#
#
#
# Elastic Compliance Matrix: (Units=1/GPa)
#
#
# Indices 1 2 3 4 5 6 
#
# 1 0.038682 -0.004409 0.006421 0.000000 0.033195 0.000000
# 2 -0.004409 0.020954 -0.008998 0.000000 0.004265 0.000000
# 3 0.006421 -0.008998 0.018377 0.000000 0.016829 0.000000
# 4 0.000000 0.000000 0.000000 0.031671 0.000000 0.003130
# 5 0.033195 0.004265 0.016829 0.000000 0.078698 0.000000
# 6 0.000000 0.000000 0.000000 0.003130 0.000000 0.037051
#
#
# Mechanical properties :
#
#
# Convention : Reuss Voigt Hill
#
# Bulk Modulus (GPa) = 15.61505 46.97786 31.29645
# Shear Modulus (GPa) = 19.17525 27.37024 23.27274
#
# Velocity S-wave (km/s) = 3.10614 3.71099 3.42195
# Velocity P-wave (km/s) = 4.55202 6.48066 5.59999
#
# Compressibility (1/GPa) = 0.06404080
#
# Stress axis : x y z
#
# Youngs Moduli (GPa) = 25.85207 47.72372 54.41505
#
# Poissons Ratio (x) = 0.21042 -0.34940
# Poissons Ratio (y) = 0.11398 0.48963
# Poissons Ratio (z) = -0.16600 0.42942
#
# Static dielectric constant tensor:
#      x y z
#    x 1.809040 0.000000 0.067430 
#    y 0.000000 1.659280 0.000000 
#    z 0.067430 0.000000 1.720980 
# 
# From -- ./inp_files/24559.got.cif
#   From: 2010.05.17/outbox.ucp.g08.bks.cvg/sg13_13_cif.got.tgz:24559.got - 2010.06.11 12:23:55.
