data_PCOD9239193
_publ_section_title
;
Structure prediction by ZEFSAII (Michael W. Deem and Ramdas Pophale) SiO2 
 PCOD9239193
Probable space group: P 21/C
;
_chemical_formula_sum "Si O2"
_cell_formula_units_Z 28
_cell_length_a 24.358337
_cell_length_b 10.962070
_cell_length_c 13.956643
_cell_angle_alpha 90.000000
_cell_angle_beta 16.982266
_cell_angle_gamma 90.000000
_cell_volume 1088.470340
_symmetry_space_group_name_H-M "P 21/C"
_symmetry_group_IT_number 14
_symmetry_cell_setting 'monoclinic'
loop_
_space_group_symop_operation_xyz
x,y,z
-x,1/2+y,1/2-z
-x,-y,-z
x,1/2-y,1/2+z
loop_
_atom_site_type_symbol
_atom_site_label
_atom_site_fract_x
_atom_site_fract_y
_atom_site_fract_z
Si Si1 0.694797 0.707690 0.513594
Si Si2 0.736031 0.235722 0.693427
Si Si3 0.979983 0.060931 0.875342
Si Si4 0.327367 0.981757 0.074156
Si Si5 0.738418 0.980887 0.448054
Si Si6 0.229733 0.405748 0.424198
Si Si7 0.369815 0.852179 0.804871
O O1 0.747741 0.606048 0.346940
O O2 0.739272 0.842444 0.406227
O O3 0.814169 0.675643 0.409742
O O4 0.469513 0.709816 0.922303
O O5 0.909065 0.320050 0.437482
O O6 0.719637 0.241811 0.605401
O O7 0.756069 0.103658 0.705660
O O8 0.866579 0.061772 0.165434
O O9 0.903387 0.951771 0.937208
O O10 0.188946 0.039086 0.565480
O O11 0.527195 0.021637 0.783587
O O12 0.330860 0.887868 0.978219
O O13 0.301895 0.530303 0.356281
O O14 0.407404 0.343227 0.077657
#
# Coordination Sequence:
#
# PCOD9239193 Si02
#       7
#     4   4   4   4   4   4   4
#     4   9  17  30  49  76  93 128 170 207 244 291
#     4   9  17  28  51  72  97 129 173 209 241 297
#     4  10  17  31  49  75  99 130 163 205 256 294
#     4  10  16  30  52  74  98 132 168 213 245 291
#     4  10  19  28  50  73 102 127 161 209 246 301
#     4   8  13  26  49  65  92 119 162 211 239 286
#     4   8  13  25  46  74  89 121 172 205 240 279
#
# _framework density 25.724174999999999
#
# number of rings (size 3 to 8) (size 9 to 14) (size 15 to 20)
#    0.000    2.857    2.857    1.714    0.000    0.000 
#    0.000    0.714   18.857    5.143    0.000    0.000 
#    0.000    0.000    0.000    0.000    0.000    0.000 
#
# Total GULP energy -156378.247330 kJ/mol
# GULP energy per Si atom -5584.937405 kJ/mol
# Density = 2.566563 g / cm^3
# Si number density = 25.724175 Si / 1000 Ang^3
#
#
#
# Elastic Constant Matrix: (Units=GPa)
#
#
# Indices 1 2 3 4 5 6 
#
# 1 141.2059 23.2525 50.2331 0.0000 -42.6979 0.0000
# 2 23.2525 53.9776 0.1839 0.0000 -1.8483 0.0000
# 3 50.2331 0.1839 45.7247 0.0000 -19.4558 0.0000
# 4 0.0000 0.0000 0.0000 11.2976 0.0000 -3.2886
# 5 -42.6979 -1.8483 -19.4558 0.0000 38.6688 0.0000
# 6 0.0000 0.0000 0.0000 -3.2886 0.0000 51.3536
#
#
#
# Elastic Compliance Matrix: (Units=1/GPa)
#
#
# Indices 1 2 3 4 5 6 
#
# 1 0.016070 -0.006505 -0.012991 0.000000 0.010897 0.000000
# 2 -0.006505 0.021195 0.005644 0.000000 -0.003330 0.000000
# 3 -0.012991 0.005644 0.038338 0.000000 0.005214 0.000000
# 4 0.000000 0.000000 0.000000 0.090196 0.000000 0.005776
# 5 0.010897 -0.003330 0.005214 0.000000 0.040357 0.000000
# 6 0.000000 0.000000 0.000000 0.005776 0.000000 0.019843
#
#
# Mechanical properties :
#
#
# Convention : Reuss Voigt Hill
#
# Bulk Modulus (GPa) = 20.87732 43.13858 32.00795
# Shear Modulus (GPa) = 18.54127 31.41326 24.97726
#
# Velocity S-wave (km/s) = 2.68763 3.49830 3.11941
# Velocity P-wave (km/s) = 4.21481 5.75530 5.04421
#
# Compressibility (1/GPa) = 0.04789886
#
# Stress axis : x y z
#
# Youngs Moduli (GPa) = 62.22955 47.18048 26.08361
#
# Poissons Ratio (x) = 0.30691 0.33886
# Poissons Ratio (y) = 0.40481 -0.14722
# Poissons Ratio (z) = 0.80845 -0.26630
#
# Static dielectric constant tensor:
#      x y z
#    x 1.991080 0.000000 -0.036890 
#    y 0.000000 2.042860 0.000000 
#    z -0.036890 0.000000 2.154020 
# 
# From -- ./inp_files/57466.got.cif
#   From: 2010.05.17/outbox.cif.g08.bks.cpg/sg14_29_cif.got.tgz:57466.got - 2010.06.03 17:49:19.
