data_PCOD9239800
_publ_section_title
;
Structure prediction by ZEFSAII (Michael W. Deem and Ramdas Pophale) SiO2 
 PCOD9239800
Probable space group: P 21/C
;
_chemical_formula_sum "Si O2"
_cell_formula_units_Z 32
_cell_length_a 22.241470
_cell_length_b 7.441829
_cell_length_c 22.776186
_cell_angle_alpha 90.000000
_cell_angle_beta 150.448628
_cell_angle_gamma 90.000000
_cell_volume 1859.304538
_symmetry_space_group_name_H-M "P 21/C"
_symmetry_group_IT_number 14
_symmetry_cell_setting 'monoclinic'
loop_
_space_group_symop_operation_xyz
x,y,z
-x,1/2+y,1/2-z
-x,-y,-z
x,1/2-y,1/2+z
loop_
_atom_site_type_symbol
_atom_site_label
_atom_site_fract_x
_atom_site_fract_y
_atom_site_fract_z
Si Si1 0.443824 0.912073 0.753145
Si Si2 0.277382 0.630783 0.011490
Si Si3 0.504794 0.397185 0.894359
Si Si4 0.652219 0.818411 0.840944
Si Si5 0.875349 0.731906 0.103077
Si Si6 0.356838 0.585674 0.419494
Si Si7 0.861835 0.430083 0.676931
Si Si8 0.531057 0.275803 0.592937
O O1 0.338794 0.818240 0.625456
O O2 0.401159 0.117638 0.714162
O O3 0.570970 0.893137 0.826096
O O4 0.453103 0.837297 0.826213
O O5 0.194736 0.453503 0.941724
O O6 0.205252 0.799316 0.925972
O O7 0.389603 0.579599 0.064527
O O8 0.381969 0.401557 0.750888
O O9 0.497567 0.566097 0.930765
O O10 0.549126 0.217024 0.964926
O O11 0.791447 0.814610 0.979985
O O12 0.010107 0.666525 0.200677
O O13 0.878297 0.876126 0.159127
O O14 0.229305 0.570674 0.344973
O O15 0.417713 0.390192 0.471954
O O16 0.357903 0.667093 0.355062
#
# Coordination Sequence:
#
# PCOD9239800 Si02
#       8
#     4   4   4   4   4   4   4   4
#     4  10  18  32  51  81 109 131 173 219 275 318
#     4   9  20  33  51  80 106 133 174 223 266 316
#     4  10  19  34  54  81 108 136 176 222 272 316
#     4  10  20  31  54  83 109 134 171 227 273 317
#     4  11  21  34  53  79 105 141 173 215 269 317
#     4  10  22  36  53  78 110 145 178 218 262 321
#     4  11  21  36  54  76 109 140 178 217 263 313
#     4  11  20  34  55  81 107 143 177 215 274 325
#
# _framework density 17.210736000000001
#
# number of rings (size 3 to 8) (size 9 to 14) (size 15 to 20)
#    0.000    1.750    2.500    4.125    5.250    0.000 
#    0.000    0.000    0.000    3.750    0.000    0.000 
#    0.000    0.000    0.000    0.000    0.000    0.000 
#
# Total GULP energy -178382.513367 kJ/mol
# GULP energy per Si atom -5574.453543 kJ/mol
# Density = 1.717156 g / cm^3
# Si number density = 17.210736 Si / 1000 Ang^3
#
#
#
# Elastic Constant Matrix: (Units=GPa)
#
#
# Indices 1 2 3 4 5 6 
#
# 1 80.3178 26.6853 34.0916 0.0000 -0.7792 0.0000
# 2 26.6853 48.8572 14.3009 0.0000 7.8631 0.0000
# 3 34.0916 14.3009 74.7600 0.0000 9.2824 0.0000
# 4 0.0000 0.0000 0.0000 25.0875 0.0000 3.4374
# 5 -0.7792 7.8631 9.2824 0.0000 23.5914 0.0000
# 6 0.0000 0.0000 0.0000 3.4374 0.0000 19.3829
#
#
#
# Elastic Compliance Matrix: (Units=1/GPa)
#
#
# Indices 1 2 3 4 5 6 
#
# 1 0.018785 -0.009092 -0.007654 0.000000 0.006662 0.000000
# 2 -0.009092 0.026887 0.000161 0.000000 -0.009325 0.000000
# 3 -0.007654 0.000161 0.017741 0.000000 -0.007287 0.000000
# 4 0.000000 0.000000 0.000000 0.040853 0.000000 -0.007245
# 5 0.006662 -0.009325 -0.007287 0.000000 0.048583 0.000000
# 6 0.000000 0.000000 0.000000 -0.007245 0.000000 0.052877
#
#
# Mechanical properties :
#
#
# Convention : Reuss Voigt Hill
#
# Bulk Modulus (GPa) = 33.06677 39.34340 36.20509
# Shear Modulus (GPa) = 20.08210 22.20285 21.14247
#
# Velocity S-wave (km/s) = 3.41960 3.59563 3.50872
# Velocity P-wave (km/s) = 5.90306 6.33621 6.12347
#
# Compressibility (1/GPa) = 0.03024184
#
# Stress axis : x y z
#
# Youngs Moduli (GPa) = 53.23457 37.19201 56.36802
#
# Poissons Ratio (x) = 0.33814 0.43145
# Poissons Ratio (y) = 0.48400 -0.00905
# Poissons Ratio (z) = 0.40747 -0.00597
#
# Static dielectric constant tensor:
#      x y z
#    x 1.589000 0.000000 -0.027650 
#    y 0.000000 1.636920 0.000000 
#    z -0.027650 0.000000 1.621580 
# 
# From -- ./inp_files/69798.got.cif
#   From: 2010.05.17/outbox.cif.g08.bks.cpg/sg14_35_cif.got.tgz:69798.got - 2010.06.03 17:49:19.
