data_PCOD9239651
_publ_section_title
;
Structure prediction by ZEFSAII (Michael W. Deem and Ramdas Pophale) SiO2 
 PCOD9239651
Probable space group: P 21/C
;
_chemical_formula_sum "Si O2"
_cell_formula_units_Z 32
_cell_length_a 9.192992
_cell_length_b 18.352204
_cell_length_c 9.635224
_cell_angle_alpha 90.000000
_cell_angle_beta 131.068570
_cell_angle_gamma 90.000000
_cell_volume 1225.559580
_symmetry_space_group_name_H-M "P 21/C"
_symmetry_group_IT_number 14
_symmetry_cell_setting 'monoclinic'
loop_
_space_group_symop_operation_xyz
x,y,z
-x,1/2+y,1/2-z
-x,-y,-z
x,1/2-y,1/2+z
loop_
_atom_site_type_symbol
_atom_site_label
_atom_site_fract_x
_atom_site_fract_y
_atom_site_fract_z
Si Si1 0.513206 0.130254 0.083927
Si Si2 0.245835 0.734280 0.091840
Si Si3 0.023784 0.136572 0.121120
Si Si4 0.402715 0.230853 0.406425
Si Si5 0.161721 0.957437 0.760836
Si Si6 0.684377 0.957591 0.797190
Si Si7 0.422207 0.905655 0.389058
Si Si8 0.923358 0.093007 0.605695
O O1 0.681567 0.189637 0.228512
O O2 0.364348 0.185989 0.924129
O O3 0.623241 0.068700 0.068180
O O4 0.430100 0.091213 0.166089
O O5 0.433764 0.733074 0.110358
O O6 0.082534 0.679395 0.926601
O O7 0.150517 0.813349 0.041730
O O8 0.205264 0.191598 0.241987
O O9 0.098758 0.072129 0.068760
O O10 0.973465 0.096447 0.234062
O O11 0.499904 0.176468 0.582327
O O12 0.142853 0.942919 0.583511
O O13 0.104338 0.040946 0.755159
O O14 0.600107 0.938164 0.591224
O O15 0.633476 0.042474 0.772880
O O16 0.240486 0.912256 0.379301
#
# Coordination Sequence:
#
# PCOD9239651 Si02
#       8
#     4   4   4   4   4   4   4   4
#     4  11  20  36  54  80 113 141 175 223 270 316
#     4  10  20  36  53  80 113 140 175 224 270 315
#     4  11  20  34  56  80 107 145 178 214 274 322
#     4  10  21  35  55  80 111 142 176 221 271 317
#     4  10  18  29  52  83 104 135 181 225 266 310
#     4  10  18  31  53  79 105 138 177 224 268 311
#     4   9  16  31  53  77 107 136 174 228 272 302
#     4   9  17  30  51  79 109 132 178 230 265 302
#
# _framework density 26.110520999999999
#
# number of rings (size 3 to 8) (size 9 to 14) (size 15 to 20)
#    0.000    2.000    7.500    0.000    0.000    2.000 
#    0.000    0.000    0.000    3.000    0.000    0.000 
#    0.000    0.000    0.000    0.000    0.000    0.000 
#
# Total GULP energy -178727.982271 kJ/mol
# GULP energy per Si atom -5585.249446 kJ/mol
# Density = 2.605109 g / cm^3
# Si number density = 26.110521 Si / 1000 Ang^3
#
#
#
# Elastic Constant Matrix: (Units=GPa)
#
#
# Indices 1 2 3 4 5 6 
#
# 1 99.8829 44.7632 34.1735 0.0000 -1.3907 0.0000
# 2 44.7632 148.1080 33.8615 0.0000 5.2985 0.0000
# 3 34.1735 33.8615 78.6092 0.0000 3.2379 0.0000
# 4 0.0000 0.0000 0.0000 52.1864 0.0000 11.8928
# 5 -1.3907 5.2985 3.2379 0.0000 37.7897 0.0000
# 6 0.0000 0.0000 0.0000 11.8928 0.0000 47.0427
#
#
#
# Elastic Compliance Matrix: (Units=1/GPa)
#
#
# Indices 1 2 3 4 5 6 
#
# 1 0.012836 -0.002925 -0.004372 0.000000 0.001257 0.000000
# 2 -0.002925 0.008179 -0.002208 0.000000 -0.001065 0.000000
# 3 -0.004372 -0.002208 0.015622 0.000000 -0.001190 0.000000
# 4 0.000000 0.000000 0.000000 0.020334 0.000000 -0.005141
# 5 0.001257 -0.001065 -0.001190 0.000000 0.026760 0.000000
# 6 0.000000 0.000000 0.000000 -0.005141 0.000000 0.022557
#
#
# Mechanical properties :
#
#
# Convention : Reuss Voigt Hill
#
# Bulk Modulus (GPa) = 56.73003 61.35516 59.04260
# Shear Modulus (GPa) = 38.11817 41.65720 39.88769
#
# Velocity S-wave (km/s) = 3.82498 3.99860 3.91275
# Velocity P-wave (km/s) = 6.42506 6.69833 6.56312
#
# Compressibility (1/GPa) = 0.01762735
#
# Stress axis : x y z
#
# Youngs Moduli (GPa) = 77.90703 122.26959 64.01341
#
# Poissons Ratio (x) = 0.35762 0.27986
# Poissons Ratio (y) = 0.22787 0.14132
# Poissons Ratio (z) = 0.34061 0.26993
#
# Static dielectric constant tensor:
#      x y z
#    x 1.993350 0.000000 0.044180 
#    y 0.000000 2.158580 0.000000 
#    z 0.044180 0.000000 2.190670 
# 
# From -- ./inp_files/26274.got.cif
#   From: 2010.05.17/outbox.cif.g08.bks.cpg/sg14_14_cif.got.tgz:26274.got - 2010.06.03 17:49:19.
