data_PCOD9239814
_publ_section_title
;
Structure prediction by ZEFSAII (Michael W. Deem and Ramdas Pophale) SiO2 
 PCOD9239814
Probable space group: P 21/C
;
_chemical_formula_sum "Si O2"
_cell_formula_units_Z 32
_cell_length_a 7.100140
_cell_length_b 8.060492
_cell_length_c 23.286898
_cell_angle_alpha 90.000000
_cell_angle_beta 97.391915
_cell_angle_gamma 90.000000
_cell_volume 1321.647819
_symmetry_space_group_name_H-M "P 21/C"
_symmetry_group_IT_number 14
_symmetry_cell_setting 'monoclinic'
loop_
_space_group_symop_operation_xyz
x,y,z
-x,1/2+y,1/2-z
-x,-y,-z
x,1/2-y,1/2+z
loop_
_atom_site_type_symbol
_atom_site_label
_atom_site_fract_x
_atom_site_fract_y
_atom_site_fract_z
Si Si1 0.827971 0.757987 0.364881
Si Si2 0.567630 0.659174 0.122477
Si Si3 0.120722 0.867758 0.641055
Si Si4 0.421248 0.827321 0.014993
Si Si5 0.385312 0.780541 0.387385
Si Si6 0.313871 0.137328 0.256471
Si Si7 0.737768 0.237143 0.236597
Si Si8 0.062510 0.563684 0.565619
O O1 0.611384 0.749731 0.382895
O O2 0.808103 0.729216 0.296215
O O3 0.932060 0.601015 0.396346
O O4 0.916602 0.940501 0.377453
O O5 0.347225 0.647446 0.134721
O O6 0.639666 0.473978 0.121553
O O7 0.682932 0.727548 0.181383
O O8 0.573086 0.728532 0.058481
O O9 0.118754 0.835787 0.709932
O O10 0.004016 0.726714 0.601063
O O11 0.348604 0.752687 0.952773
O O12 0.268068 0.873010 0.055814
O O13 0.500000 0.000000 0.000000
O O14 0.258023 0.701164 0.331774
O O15 0.531753 0.160131 0.244176
O O16 0.270089 0.939022 0.255652
O O17 0.000000 0.500000 0.500000
#
# Coordination Sequence:
#
# PCOD9239814 Si02
#       8
#     4   4   4   4   4   4   4   4
#     4  10  18  32  53  77 108 134 178 221 263 312
#     4   8  17  28  46  77 111 137 168 211 273 314
#     4   9  18  32  51  78 105 140 174 226 263 307
#     4  11  20  32  51  76 109 139 173 215 263 316
#     4   9  17  29  49  78 107 140 167 215 265 318
#     4   9  15  25  45  75 110 136 164 222 267 308
#     4   9  15  25  45  77 107 134 171 214 269 310
#     4  11  23  38  54  77 107 144 180 220 261 314
#
# _framework density 24.212198999999998
#
# number of rings (size 3 to 8) (size 9 to 14) (size 15 to 20)
#    0.000    2.500    2.500    2.625    0.000    1.500 
#    0.000    0.000    0.000    0.000    6.500    0.000 
#    0.000    0.000    0.000    0.000    0.000    0.000 
#
# Total GULP energy -178325.011219 kJ/mol
# GULP energy per Si atom -5572.656601 kJ/mol
# Density = 2.415709 g / cm^3
# Si number density = 24.212199 Si / 1000 Ang^3
#
#
#
# Elastic Constant Matrix: (Units=GPa)
#
#
# Indices 1 2 3 4 5 6 
#
# 1 64.7241 8.2549 9.3109 0.0000 -2.4560 0.0000
# 2 8.2549 116.3401 83.3157 0.0000 4.3968 0.0000
# 3 9.3109 83.3157 157.5692 0.0000 -9.3624 0.0000
# 4 0.0000 0.0000 0.0000 41.1765 0.0000 -6.4147
# 5 -2.4560 4.3968 -9.3624 0.0000 33.2344 0.0000
# 6 0.0000 0.0000 0.0000 -6.4147 0.0000 -1.0433
#
#
#
# Elastic Compliance Matrix: (Units=1/GPa)
#
#
# Indices 1 2 3 4 5 6 
#
# 1 0.015662 -0.000872 -0.000395 0.000000 0.001161 0.000000
# 2 -0.000872 0.014414 -0.007818 0.000000 -0.004174 0.000000
# 3 -0.000395 -0.007818 0.010743 0.000000 0.004031 0.000000
# 4 0.000000 0.000000 0.000000 0.012405 0.000000 -0.076267
# 5 0.001161 -0.004174 0.004031 0.000000 0.031863 0.000000
# 6 0.000000 0.000000 0.000000 -0.076267 0.000000 -0.489562
#
#
# Mechanical properties :
#
#
# Convention : Reuss Voigt Hill
#
# Bulk Modulus (GPa) = 44.15280 60.04405 52.09842
# Shear Modulus (GPa) = -13.20113 30.52364 8.66125
#
# Velocity S-wave (km/s) = -2.33754 3.55445 1.89341
# Velocity P-wave (km/s) = 3.31510 6.45743 5.13265
#
# Compressibility (1/GPa) = 0.02264862
#
# Stress axis : x y z
#
# Youngs Moduli (GPa) = 63.84730 69.37819 93.08350
#
# Poissons Ratio (x) = 0.06050 0.03680
# Poissons Ratio (y) = 0.05568 0.72771
# Poissons Ratio (z) = 0.02524 0.54239
#
# Static dielectric constant tensor:
#      x y z
#    x 2.001990 0.000000 0.101010 
#    y 0.000000 1.922700 0.000000 
#    z 0.101010 0.000000 1.797740 
# 
# From -- ./inp_files/66873.got.cif
#   From: 2010.05.17/outbox.cif.g08.bks.cpg/sg14_34_cif.got.tgz:66873.got - 2010.06.03 17:49:19.
