data_PCOD9239574
_publ_section_title
;
Structure prediction by ZEFSAII (Michael W. Deem and Ramdas Pophale) SiO2 
 PCOD9239574
Probable space group: P 21/C
;
_chemical_formula_sum "Si O2"
_cell_formula_units_Z 28
_cell_length_a 10.290322
_cell_length_b 8.513490
_cell_length_c 15.901769
_cell_angle_alpha 90.000000
_cell_angle_beta 131.411733
_cell_angle_gamma 90.000000
_cell_volume 1044.790433
_symmetry_space_group_name_H-M "P 21/C"
_symmetry_group_IT_number 14
_symmetry_cell_setting 'monoclinic'
loop_
_space_group_symop_operation_xyz
x,y,z
-x,1/2+y,1/2-z
-x,-y,-z
x,1/2-y,1/2+z
loop_
_atom_site_type_symbol
_atom_site_label
_atom_site_fract_x
_atom_site_fract_y
_atom_site_fract_z
Si Si1 0.826043 0.291143 0.890779
Si Si2 0.649483 0.672551 0.228831
Si Si3 0.916342 0.887663 0.262113
Si Si4 0.379170 0.959707 0.120264
Si Si5 0.286819 0.547129 0.881723
Si Si6 0.365928 0.642670 0.366191
Si Si7 0.847890 0.566161 0.015257
O O1 0.783895 0.154670 0.939074
O O2 0.710818 0.286443 0.755983
O O3 0.032853 0.289968 0.960880
O O4 0.768433 0.455928 0.910357
O O5 0.823279 0.731781 0.254399
O O6 0.532943 0.827492 0.191768
O O7 0.650560 0.584317 0.317725
O O8 0.605027 0.534132 0.144729
O O9 0.086503 0.896243 0.276748
O O10 0.997520 0.955685 0.382534
O O11 0.773994 0.010680 0.170447
O O12 0.449668 0.064984 0.074191
O O13 0.369082 0.717733 0.934292
O O14 0.266587 0.427276 0.950909
#
# Coordination Sequence:
#
# PCOD9239574 Si02
#       7
#     4   4   4   4   4   4   4
#     4  10  17  37  55  78 110 142 177 219 262 328
#     4  11  19  31  53  81 107 136 177 223 266 306
#     4   8  19  31  52  78 105 134 176 223 267 306
#     4  11  21  32  53  81 107 140 178 221 261 321
#     4  10  18  33  53  83 103 135 177 230 263 308
#     4  10  18  33  54  80 105 136 181 221 266 307
#     4   8  20  33  57  78 108 141 178 217 271 316
#
# _framework density 26.799631000000002
#
# number of rings (size 3 to 8) (size 9 to 14) (size 15 to 20)
#    0.857    1.429    2.857    0.857    0.000    0.000 
#    0.000    2.143    0.000    0.000    0.000    0.000 
#    0.000    0.000    0.000    0.000    0.000    0.000 
#
# Total GULP energy -156147.266953 kJ/mol
# GULP energy per Si atom -5576.688105 kJ/mol
# Density = 2.673863 g / cm^3
# Si number density = 26.799631 Si / 1000 Ang^3
#
#
#
# Elastic Constant Matrix: (Units=GPa)
#
#
# Indices 1 2 3 4 5 6 
#
# 1 148.2546 60.7940 35.4353 0.0000 5.5567 0.0000
# 2 60.7940 109.8861 19.6647 0.0000 12.6837 0.0000
# 3 35.4353 19.6647 62.6733 0.0000 0.7265 0.0000
# 4 0.0000 0.0000 0.0000 26.7487 0.0000 -2.5202
# 5 5.5567 12.6837 0.7265 0.0000 25.9084 0.0000
# 6 0.0000 0.0000 0.0000 -2.5202 0.0000 62.5944
#
#
#
# Elastic Compliance Matrix: (Units=1/GPa)
#
#
# Indices 1 2 3 4 5 6 
#
# 1 0.009579 -0.004626 -0.003968 0.000000 0.000322 0.000000
# 2 -0.004626 0.012467 -0.001237 0.000000 -0.005076 0.000000
# 3 -0.003968 -0.001237 0.018576 0.000000 0.000936 0.000000
# 4 0.000000 0.000000 0.000000 0.037527 0.000000 0.001511
# 5 0.000322 -0.005076 0.000936 0.000000 0.040988 0.000000
# 6 0.000000 0.000000 0.000000 0.001511 0.000000 0.016037
#
#
# Mechanical properties :
#
#
# Convention : Reuss Voigt Hill
#
# Bulk Modulus (GPa) = 47.71109 61.40023 54.55566
# Shear Modulus (GPa) = 30.89791 36.71163 33.80477
#
# Velocity S-wave (km/s) = 3.39916 3.70517 3.55546
# Velocity P-wave (km/s) = 5.76604 6.42378 6.10378
#
# Compressibility (1/GPa) = 0.02095949
#
# Stress axis : x y z
#
# Youngs Moduli (GPa) = 104.39948 80.21037 53.83146
#
# Poissons Ratio (x) = 0.37108 0.21359
# Poissons Ratio (y) = 0.48299 0.06660
# Poissons Ratio (z) = 0.41424 0.09923
#
# Static dielectric constant tensor:
#      x y z
#    x 2.162010 0.000000 0.026690 
#    y 0.000000 2.153210 0.000000 
#    z 0.026690 0.000000 2.135050 
# 
# From -- ./inp_files/66701.got.cif
#   From: 2010.05.17/outbox.cif.g08.bks.cpg/sg14_34_cif.got.tgz:66701.got - 2010.06.03 17:49:19.
