data_PCOD9239813
_publ_section_title
;
Structure prediction by ZEFSAII (Michael W. Deem and Ramdas Pophale) SiO2 
 PCOD9239813
Probable space group: P 21/C
;
_chemical_formula_sum "Si O2"
_cell_formula_units_Z 24
_cell_length_a 7.825523
_cell_length_b 14.900517
_cell_length_c 8.316271
_cell_angle_alpha 90.000000
_cell_angle_beta 61.846110
_cell_angle_gamma 90.000000
_cell_volume 854.980161
_symmetry_space_group_name_H-M "P 21/C"
_symmetry_group_IT_number 14
_symmetry_cell_setting 'monoclinic'
loop_
_space_group_symop_operation_xyz
x,y,z
-x,1/2+y,1/2-z
-x,-y,-z
x,1/2-y,1/2+z
loop_
_atom_site_type_symbol
_atom_site_label
_atom_site_fract_x
_atom_site_fract_y
_atom_site_fract_z
Si Si1 0.959783 0.170389 0.117759
Si Si2 0.313859 0.752233 0.001636
Si Si3 0.845616 0.659497 0.916463
Si Si4 0.455819 0.415076 0.695502
Si Si5 0.795798 0.495999 0.764194
Si Si6 0.739384 0.082304 0.647358
O O1 0.769525 0.199757 0.308620
O O2 0.881355 0.201227 0.981259
O O3 0.980645 0.065088 0.135003
O O4 0.128709 0.233961 0.103414
O O5 0.457024 0.836038 0.953884
O O6 0.376764 0.672196 0.852972
O O7 0.800674 0.602786 0.776292
O O8 0.051390 0.618879 0.889320
O O9 0.682517 0.638920 0.120304
O O10 0.629432 0.460673 0.721142
O O11 0.338540 0.505342 0.698184
O O12 0.759772 0.468821 0.967168
#
# Coordination Sequence:
#
# PCOD9239813 Si02
#       6
#     4   4   4   4   4   4
#     4   9  19  36  53  73 106 140 169 211 261 306
#     4   9  19  36  53  73 106 140 169 211 261 306
#     4  10  18  32  53  77 100 135 176 212 250 306
#     4  10  18  32  53  77 100 135 176 212 250 306
#     4   9  17  32  51  74 103 137 170 207 255 312
#     4   9  17  32  51  74 103 137 170 207 255 312
#
# _framework density 28.070826
#
# number of rings (size 3 to 8) (size 9 to 14) (size 15 to 20)
#    0.000    2.667    0.000    4.000    0.000    0.000 
#    0.000   35.000    0.000    0.000    0.000    0.000 
#    0.000    0.000    0.000    0.000    0.000    0.000 
#
# Total GULP energy -134200.086788 kJ/mol
# GULP energy per Si atom -5591.670283 kJ/mol
# Density = 2.800694 g / cm^3
# Si number density = 28.070826 Si / 1000 Ang^3
#
#
#
# Elastic Constant Matrix: (Units=GPa)
#
#
# Indices 1 2 3 4 5 6 
#
# 1 98.3287 22.3220 11.2073 0.0000 -13.8417 0.0000
# 2 22.3220 192.2063 48.8559 0.0000 -28.8013 0.0000
# 3 11.2073 48.8559 71.5954 0.0000 -0.7916 0.0000
# 4 0.0000 0.0000 0.0000 50.9562 0.0000 -6.2576
# 5 -13.8417 -28.8013 -0.7916 0.0000 26.0456 0.0000
# 6 0.0000 0.0000 0.0000 -6.2576 0.0000 34.4821
#
#
#
# Elastic Compliance Matrix: (Units=1/GPa)
#
#
# Indices 1 2 3 4 5 6 
#
# 1 0.011192 0.000019 -0.001699 0.000000 0.005917 0.000000
# 2 0.000019 0.007801 -0.005232 0.000000 0.008477 0.000000
# 3 -0.001699 -0.005232 0.017736 0.000000 -0.006150 0.000000
# 4 0.000000 0.000000 0.000000 0.020072 0.000000 0.003643
# 5 0.005917 0.008477 -0.006150 0.000000 0.050726 0.000000
# 6 0.000000 0.000000 0.000000 0.003643 0.000000 0.029662
#
#
# Mechanical properties :
#
#
# Convention : Reuss Voigt Hill
#
# Bulk Modulus (GPa) = 43.66225 58.54453 51.10339
# Shear Modulus (GPa) = 31.51608 40.94646 36.23127
#
# Velocity S-wave (km/s) = 3.35436 3.82342 3.59654
# Velocity P-wave (km/s) = 5.53086 6.35552 5.95747
#
# Compressibility (1/GPa) = 0.02290308
#
# Stress axis : x y z
#
# Youngs Moduli (GPa) = 89.34660 128.19163 56.38269
#
# Poissons Ratio (x) = -0.00241 0.09582
# Poissons Ratio (y) = -0.00168 0.29502
# Poissons Ratio (z) = 0.15184 0.67075
#
# Static dielectric constant tensor:
#      x y z
#    x 2.139560 0.000000 -0.006700 
#    y 0.000000 2.279120 0.000000 
#    z -0.006700 0.000000 2.341140 
# 
# From -- ./inp_files/25983.got.cif
#   From: 2010.05.17/outbox.cif.g08.bks.cpg/sg14_13_cif.got.tgz:25983.got - 2010.06.03 17:49:19.
