data_PCOD9239358
_publ_section_title
;
Structure prediction by ZEFSAII (Michael W. Deem and Ramdas Pophale) SiO2 
 PCOD9239358
Probable space group: P 21/C
;
_chemical_formula_sum "Si O2"
_cell_formula_units_Z 28
_cell_length_a 26.427168
_cell_length_b 7.006245
_cell_length_c 19.330142
_cell_angle_alpha 90.000000
_cell_angle_beta 23.762599
_cell_angle_gamma 90.000000
_cell_volume 1442.181574
_symmetry_space_group_name_H-M "P 21/C"
_symmetry_group_IT_number 14
_symmetry_cell_setting 'monoclinic'
loop_
_space_group_symop_operation_xyz
x,y,z
-x,1/2+y,1/2-z
-x,-y,-z
x,1/2-y,1/2+z
loop_
_atom_site_type_symbol
_atom_site_label
_atom_site_fract_x
_atom_site_fract_y
_atom_site_fract_z
Si Si1 0.511375 0.204390 0.449768
Si Si2 0.913717 0.182304 0.592774
Si Si3 0.750129 0.370033 0.570167
Si Si4 0.689281 0.992878 0.789049
Si Si5 0.834068 0.713561 0.986747
Si Si6 0.003710 0.768352 0.149528
Si Si7 0.075373 0.683652 0.766635
O O1 0.611089 0.192287 0.263160
O O2 0.378822 0.301763 0.598047
O O3 0.582295 0.348858 0.412810
O O4 0.500000 0.000000 0.500000
O O5 0.977100 0.316622 0.455379
O O6 0.897519 0.256046 0.690561
O O7 0.791332 0.089081 0.710717
O O8 0.000000 0.000000 0.500000
O O9 0.754497 0.599510 0.569023
O O10 0.860572 0.300666 0.484643
O O11 0.800839 0.298265 0.433869
O O12 0.752698 0.926523 0.636749
O O13 0.900485 0.645779 0.831980
O O14 0.952977 0.778904 0.885328
O O15 0.964689 0.542340 0.192744
#
# Coordination Sequence:
#
# PCOD9239358 Si02
#       7
#     4   4   4   4   4   4   4
#     4  11  22  36  58  82 107 149 197 238 265 320
#     4  10  17  33  57  81 113 148 181 223 296 349
#     4  10  18  32  53  80 114 141 192 242 274 330
#     4  11  21  35  58  83 111 148 189 230 281 333
#     4  10  17  30  52  86 109 140 180 229 286 337
#     4   9  17  29  52  81 110 142 174 232 280 334
#     4   9  18  31  56  79 111 150 179 229 297 347
#
# _framework density 19.415032
#
# number of rings (size 3 to 8) (size 9 to 14) (size 15 to 20)
#    0.000    2.000    5.714    0.000    0.000    0.000 
#    0.000    0.714    9.429    0.000    0.000    0.000 
#    0.000    0.000    0.000    0.000    0.000    0.000 
#
# Total GULP energy -155926.256597 kJ/mol
# GULP energy per Si atom -5568.794878 kJ/mol
# Density = 1.937084 g / cm^3
# Si number density = 19.415032 Si / 1000 Ang^3
#
#
#
# Elastic Constant Matrix: (Units=GPa)
#
#
# Indices 1 2 3 4 5 6 
#
# 1 90.6150 13.5175 31.3176 0.0000 29.6101 0.0000
# 2 13.5175 77.8121 30.8181 0.0000 0.9216 0.0000
# 3 31.3176 30.8181 114.1866 0.0000 24.1163 0.0000
# 4 0.0000 0.0000 0.0000 31.9891 0.0000 -2.9110
# 5 29.6101 0.9216 24.1163 0.0000 40.4360 0.0000
# 6 0.0000 0.0000 0.0000 -2.9110 0.0000 16.0764
#
#
#
# Elastic Compliance Matrix: (Units=1/GPa)
#
#
# Indices 1 2 3 4 5 6 
#
# 1 0.015161 -0.001922 -0.001492 0.000000 -0.010168 0.000000
# 2 -0.001922 0.014819 -0.004231 0.000000 0.003593 0.000000
# 3 -0.001492 -0.004231 0.011507 0.000000 -0.005674 0.000000
# 4 0.000000 0.000000 0.000000 0.031784 0.000000 0.005755
# 5 -0.010168 0.003593 -0.005674 0.000000 0.035479 0.000000
# 6 0.000000 0.000000 0.000000 0.005755 0.000000 0.063245
#
#
# Mechanical properties :
#
#
# Convention : Reuss Voigt Hill
#
# Bulk Modulus (GPa) = 38.17401 48.21336 43.19368
# Shear Modulus (GPa) = 25.50801 31.49767 28.50284
#
# Velocity S-wave (km/s) = 3.62861 4.03219 3.83571
# Velocity P-wave (km/s) = 6.10414 6.82386 6.47401
#
# Compressibility (1/GPa) = 0.02619583
#
# Stress axis : x y z
#
# Youngs Moduli (GPa) = 65.96003 67.48251 86.90338
#
# Poissons Ratio (x) = 0.12973 0.12963
# Poissons Ratio (y) = 0.12681 0.36770
# Poissons Ratio (z) = 0.09839 0.28553
#
# Static dielectric constant tensor:
#      x y z
#    x 1.781410 0.000000 0.047060 
#    y 0.000000 1.801540 0.000000 
#    z 0.047060 0.000000 1.731440 
# 
# From -- ./inp_files/70665.got.cif
#   From: 2010.05.17/outbox.cif.g08.bks.cpg/sg14_36_cif.got.tgz:70665.got - 2010.06.03 17:49:19.
