data_PCOD9239049
_publ_section_title
;
Structure prediction by ZEFSAII (Michael W. Deem and Ramdas Pophale) SiO2 
 PCOD9239049
Probable space group: P 2/C
;
_chemical_formula_sum "Si O2"
_cell_formula_units_Z 32
_cell_length_a 30.000000
_cell_length_b 9.000000
_cell_length_c 12.000000
_cell_angle_alpha 90.000000
_cell_angle_beta 150.000000
_cell_angle_gamma 90.000000
_cell_volume 1620.000000
_symmetry_space_group_name_H-M "P 2/C"
_symmetry_group_IT_number 13
_symmetry_cell_setting 'monoclinic'
loop_
_space_group_symop_operation_xyz
x,y,z
-x,y,1/2-z
-x,-y,-z
x,-y,1/2+z
loop_
_atom_site_type_symbol
_atom_site_label
_atom_site_fract_x
_atom_site_fract_y
_atom_site_fract_z
Si Si1 0.214592 0.111143 0.202560
Si Si2 0.591337 0.620618 0.876919
Si Si3 0.663796 0.653556 0.657236
Si Si4 0.264681 0.173642 0.698348
Si Si5 0.530932 0.238067 0.034550
Si Si6 0.106339 0.404507 0.994531
Si Si7 0.361142 0.061547 0.700350
Si Si8 0.185729 0.466040 0.422494
O O1 0.279512 0.210547 0.266304
O O2 0.272240 0.069712 0.435558
O O3 0.200445 0.951265 0.113001
O O4 0.136551 0.230244 0.058214
O O5 0.500000 0.644049 0.750000
O O6 0.556015 0.636243 0.676586
O O7 0.638044 0.466245 0.008584
O O8 0.669468 0.739462 0.074629
O O9 0.572729 0.713202 0.510174
O O10 0.724919 0.567889 0.881957
O O11 0.332681 0.088247 0.764896
O O12 0.213372 0.297813 0.514300
O O13 0.585216 0.091603 0.192847
O O14 0.428656 0.191928 0.811132
O O15 0.141775 0.475848 0.949695
O O16 0.000000 0.419651 0.750000
O O17 0.140717 0.464202 0.196505
#
# Coordination Sequence:
#
# PCOD9239049 Si02
#       8
#     4   4   4   4   4   4   4   4
#     4  11  23  41  66  91 126 172 211 275 331 393
#     4  11  23  36  53  82 122 164 215 274 312 367
#     4  10  25  37  57  89 125 169 217 261 327 386
#     4  11  21  42  61  90 125 172 218 264 329 387
#     4  11  23  37  58  88 123 175 225 269 315 373
#     4  11  24  47  73 104 133 167 214 272 341 418
#     4  11  22  37  62  87 125 173 224 272 318 378
#     4  10  24  43  72  99 135 173 213 272 341 401
#
# _framework density 19.753086
#
# number of rings (size 3 to 8) (size 9 to 14) (size 15 to 20)
#    0.000    1.250    5.000    0.375    7.000    0.500 
#    0.000    1.250    0.000    0.000    0.000    0.000 
#    0.000    0.000    0.000    0.000    0.000    0.000 
#
# Total GULP energy -178274.450536 kJ/mol
# GULP energy per Si atom -5571.076579 kJ/mol
# Density = 1.970813 g / cm^3
# Si number density = 19.753086 Si / 1000 Ang^3
#
#
#
# Elastic Constant Matrix: (Units=GPa)
#
#
# Indices 1 2 3 4 5 6 
#
# 1 62.6111 12.3709 14.8540 0.0000 0.9003 0.0000
# 2 12.3709 82.7186 22.0334 0.0000 -9.0189 0.0000
# 3 14.8540 22.0334 78.9071 0.0000 -7.7711 0.0000
# 4 0.0000 0.0000 0.0000 32.3119 0.0000 2.5247
# 5 0.9003 -9.0189 -7.7711 0.0000 30.6303 0.0000
# 6 0.0000 0.0000 0.0000 2.5247 0.0000 35.3319
#
#
#
# Elastic Compliance Matrix: (Units=1/GPa)
#
#
# Indices 1 2 3 4 5 6 
#
# 1 0.017064 -0.001994 -0.002833 0.000000 -0.001808 0.000000
# 2 -0.001994 0.013567 -0.003091 0.000000 0.003269 0.000000
# 3 -0.002833 -0.003091 0.014347 0.000000 0.002813 0.000000
# 4 0.000000 0.000000 0.000000 0.031122 0.000000 -0.002224
# 5 -0.001808 0.003269 0.002813 0.000000 0.034377 0.000000
# 6 0.000000 0.000000 0.000000 -0.002224 0.000000 0.028462
#
#
# Mechanical properties :
#
#
# Convention : Reuss Voigt Hill
#
# Bulk Modulus (GPa) = 34.31674 35.86149 35.08912
# Shear Modulus (GPa) = 30.39709 31.32006 30.85858
#
# Velocity S-wave (km/s) = 3.92708 3.98625 3.95678
# Velocity P-wave (km/s) = 6.16224 6.27545 6.21910
#
# Compressibility (1/GPa) = 0.02914029
#
# Stress axis : x y z
#
# Youngs Moduli (GPa) = 58.60344 73.70707 69.70277
#
# Poissons Ratio (x) = 0.14700 0.19749
# Poissons Ratio (y) = 0.11688 0.21545
# Poissons Ratio (z) = 0.16604 0.22783
#
# Static dielectric constant tensor:
#      x y z
#    x 1.766960 0.000000 -0.028990 
#    y 0.000000 1.726360 0.000000 
#    z -0.028990 0.000000 1.687430 
# 
# From -- ./inp_files/36431.got.cif
#   From: 2010.05.17/outbox.ucp.g08.bks.cvg/sg13_19_cif.got.tgz:36431.got - 2010.06.11 12:23:55.
