data_PCOD9239230
_publ_section_title
;
Structure prediction by ZEFSAII (Michael W. Deem and Ramdas Pophale) SiO2 
 PCOD9239230
Probable space group: P 21/C
;
_chemical_formula_sum "Si O2"
_cell_formula_units_Z 32
_cell_length_a 5.405576
_cell_length_b 20.853222
_cell_length_c 13.751471
_cell_angle_alpha 90.000000
_cell_angle_beta 90.361714
_cell_angle_gamma 90.000000
_cell_volume 1550.085477
_symmetry_space_group_name_H-M "P 21/C"
_symmetry_group_IT_number 14
_symmetry_cell_setting 'monoclinic'
loop_
_space_group_symop_operation_xyz
x,y,z
-x,1/2+y,1/2-z
-x,-y,-z
x,1/2-y,1/2+z
loop_
_atom_site_type_symbol
_atom_site_label
_atom_site_fract_x
_atom_site_fract_y
_atom_site_fract_z
Si Si1 0.517113 0.621735 0.608153
Si Si2 0.989921 0.225890 0.643720
Si Si3 0.987650 0.457901 0.714276
Si Si4 0.495443 0.233599 0.366730
Si Si5 0.514129 0.577644 0.394275
Si Si6 0.018891 0.600230 0.730998
Si Si7 0.489852 0.270431 0.635630
Si Si8 0.005243 0.674284 0.174063
O O1 0.506064 0.697351 0.582847
O O2 0.508031 0.579660 0.510708
O O3 0.274751 0.608024 0.672092
O O4 0.777686 0.611393 0.662872
O O5 0.987220 0.155189 0.687863
O O6 0.736693 0.242056 0.590250
O O7 0.992921 0.279032 0.730974
O O8 0.242236 0.241491 0.590350
O O9 0.732908 0.452925 0.652076
O O10 0.991332 0.398069 0.787678
O O11 0.230272 0.450739 0.646455
O O12 0.001941 0.526906 0.764937
O O13 0.492996 0.251248 0.249701
O O14 0.744673 0.193113 0.380371
O O15 0.248227 0.192317 0.379813
O O16 0.511191 0.652861 0.363508
#
# Coordination Sequence:
#
# PCOD9239230 Si02
#       8
#     4   4   4   4   4   4   4   4
#     4  12  23  35  50  74 104 141 172 198 239 301
#     4  10  16  32  56  69  87 127 170 212 252 270
#     4  12  23  35  50  74 104 141 172 198 239 301
#     4  10  16  32  56  69  87 127 170 212 252 270
#     4  12  23  35  50  74 104 141 172 198 239 301
#     4  12  23  35  50  74 104 141 172 198 239 301
#     4  10  16  32  56  69  87 127 170 212 252 270
#     4  10  16  32  56  69  87 127 170 212 252 270
#
# _framework density 20.644024000000002
#
# number of rings (size 3 to 8) (size 9 to 14) (size 15 to 20)
#    0.000    1.000   10.000    1.500    0.000    3.000 
#    0.000    0.000    0.000    0.000    0.000    0.000 
#    0.000    6.000    0.000    0.000    0.000    0.000 
#
# Total GULP energy -178808.329616 kJ/mol
# GULP energy per Si atom -5587.760300 kJ/mol
# Density = 2.059704 g / cm^3
# Si number density = 20.644024 Si / 1000 Ang^3
#
#
#
# Elastic Constant Matrix: (Units=GPa)
#
#
# Indices 1 2 3 4 5 6 
#
# 1 157.6221 7.6093 0.4365 0.0000 -8.2874 0.0000
# 2 7.6093 129.2738 5.2966 0.0000 -6.9556 0.0000
# 3 0.4365 5.2966 31.7961 0.0000 -1.8449 0.0000
# 4 0.0000 0.0000 0.0000 20.0064 0.0000 -1.6510
# 5 -8.2874 -6.9556 -1.8449 0.0000 6.1253 0.0000
# 6 0.0000 0.0000 0.0000 -1.6510 0.0000 5.8764
#
#
#
# Elastic Compliance Matrix: (Units=1/GPa)
#
#
# Indices 1 2 3 4 5 6 
#
# 1 0.006837 0.000090 0.000442 0.000000 0.009486 0.000000
# 2 0.000090 0.008262 -0.000841 0.000000 0.009251 0.000000
# 3 0.000442 -0.000841 0.032125 0.000000 0.009318 0.000000
# 4 0.000000 0.000000 0.000000 0.051171 0.000000 0.014377
# 5 0.009486 0.009251 0.009318 0.000000 0.189401 0.000000
# 6 0.000000 0.000000 0.000000 0.014377 0.000000 0.174211
#
#
# Mechanical properties :
#
#
# Convention : Reuss Voigt Hill
#
# Bulk Modulus (GPa) = 21.45643 38.37520 29.91581
# Shear Modulus (GPa) = 10.45671 26.75826 18.60749
#
# Velocity S-wave (km/s) = 2.25305 3.60415 3.00551
# Velocity P-wave (km/s) = 4.14541 5.99577 5.15430
#
# Compressibility (1/GPa) = 0.04660608
#
# Stress axis : x y z
#
# Youngs Moduli (GPa) = 146.25289 121.03006 31.12832
#
# Poissons Ratio (x) = -0.01087 -0.01375
# Poissons Ratio (y) = -0.01314 0.02617
# Poissons Ratio (z) = -0.06458 0.10177
#
# Static dielectric constant tensor:
#      x y z
#    x 1.837040 0.000000 -0.003950 
#    y 0.000000 1.722930 0.000000 
#    z -0.003950 0.000000 1.748380 
# 
# From -- ./inp_files/37714.got.cif
#   From: 2010.05.17/outbox.cif.g08.bks.cpg/sg14_19_cif.got.tgz:37714.got - 2010.06.03 17:49:19.
