data_PCOD9239182
_publ_section_title
;
Structure prediction by ZEFSAII (Michael W. Deem and Ramdas Pophale) SiO2 
 PCOD9239182
Probable space group: P 21/C
;
_chemical_formula_sum "Si O2"
_cell_formula_units_Z 28
_cell_length_a 9.185407
_cell_length_b 28.356895
_cell_length_c 5.504974
_cell_angle_alpha 90.000000
_cell_angle_beta 83.792794
_cell_angle_gamma 90.000000
_cell_volume 1425.472201
_symmetry_space_group_name_H-M "P 21/C"
_symmetry_group_IT_number 14
_symmetry_cell_setting 'monoclinic'
loop_
_space_group_symop_operation_xyz
x,y,z
-x,1/2+y,1/2-z
-x,-y,-z
x,1/2-y,1/2+z
loop_
_atom_site_type_symbol
_atom_site_label
_atom_site_fract_x
_atom_site_fract_y
_atom_site_fract_z
Si Si1 0.262588 0.761118 0.760693
Si Si2 0.648636 0.525906 0.895718
Si Si3 0.853513 0.448323 0.601517
Si Si4 0.876232 0.985343 0.711561
Si Si5 0.409822 0.275810 0.297483
Si Si6 0.532433 0.618383 0.703309
Si Si7 0.646338 0.369401 0.763060
O O1 0.181836 0.749972 0.525264
O O2 0.411478 0.729484 0.733544
O O3 0.318171 0.814394 0.750064
O O4 0.752024 0.486602 0.757015
O O5 0.620827 0.570103 0.727484
O O6 0.500000 0.500000 0.000000
O O7 0.741369 0.541079 0.115540
O O8 0.824423 0.464866 0.332411
O O9 0.794363 0.398660 0.695760
O O10 0.026476 0.455580 0.616338
O O11 0.000000 0.000000 0.500000
O O12 0.361645 0.250047 0.556351
O O13 0.380900 0.331747 0.302010
O O14 0.452289 0.618101 0.455784
O O15 0.427912 0.619311 0.963713
#
# Coordination Sequence:
#
# PCOD9239182 Si02
#       7
#     4   4   4   4   4   4   4
#     4  10  16  30  47  72 113 144 177 224 280 330
#     4  11  22  35  55  85 118 145 183 236 282 331
#     4  10  22  38  58  77 112 154 192 232 279 341
#     4   9  21  42  56  73 110 153 192 228 277 333
#     4  10  16  31  47  69 112 150 177 219 278 334
#     4  12  22  31  52  85 118 144 183 230 289 332
#     4  12  21  32  54  84 113 149 186 227 284 338
#
# _framework density 19.642613999999998
#
# number of rings (size 3 to 8) (size 9 to 14) (size 15 to 20)
#    0.000    1.429    7.143    0.857    4.000    1.143 
#    0.000    0.000    0.000    0.000    0.000    2.000 
#    0.000    0.000    0.000    0.000    0.000    0.000 
#
# Total GULP energy -156019.941887 kJ/mol
# GULP energy per Si atom -5572.140782 kJ/mol
# Density = 1.959791 g / cm^3
# Si number density = 19.642614 Si / 1000 Ang^3
#
#
#
# Elastic Constant Matrix: (Units=GPa)
#
#
# Indices 1 2 3 4 5 6 
#
# 1 55.6670 17.5634 15.3619 0.0000 4.3926 0.0000
# 2 17.5634 73.9738 -3.6939 0.0000 3.4282 0.0000
# 3 15.3619 -3.6939 118.9592 0.0000 11.0285 0.0000
# 4 0.0000 0.0000 0.0000 25.5700 0.0000 0.9245
# 5 4.3926 3.4282 11.0285 0.0000 18.4806 0.0000
# 6 0.0000 0.0000 0.0000 0.9245 0.0000 9.3300
#
#
#
# Elastic Compliance Matrix: (Units=1/GPa)
#
#
# Indices 1 2 3 4 5 6 
#
# 1 0.020394 -0.004858 -0.002560 0.000000 -0.002418 0.000000
# 2 -0.004858 0.014847 0.001309 0.000000 -0.002381 0.000000
# 3 -0.002560 0.001309 0.009256 0.000000 -0.005158 0.000000
# 4 0.000000 0.000000 0.000000 0.039249 0.000000 -0.003889
# 5 -0.002418 -0.002381 -0.005158 0.000000 0.058205 0.000000
# 6 0.000000 0.000000 0.000000 -0.003889 0.000000 0.107567
#
#
# Mechanical properties :
#
#
# Convention : Reuss Voigt Hill
#
# Bulk Modulus (GPa) = 30.97985 34.11810 32.54897
# Shear Modulus (GPa) = 18.34892 25.30070 21.82481
#
# Velocity S-wave (km/s) = 3.05968 3.59284 3.33693
# Velocity P-wave (km/s) = 5.31867 5.88374 5.60833
#
# Compressibility (1/GPa) = 0.03227905
#
# Stress axis : x y z
#
# Youngs Moduli (GPa) = 49.03401 67.35196 108.04181
#
# Poissons Ratio (x) = 0.32719 0.27661
# Poissons Ratio (y) = 0.23820 -0.14144
# Poissons Ratio (z) = 0.12554 -0.08817
#
# Static dielectric constant tensor:
#      x y z
#    x 1.690520 0.000000 0.073760 
#    y 0.000000 1.705440 0.000000 
#    z 0.073760 0.000000 1.915940 
# 
# From -- ./inp_files/1871.got.cif
#   From: 2010.05.17/outbox.cif.g08.bks.cpg/sg14_1_cif.got.tgz:1871.got - 2010.06.03 17:49:19.
