data_PCOD9239354
_publ_section_title
;
Structure prediction by ZEFSAII (Michael W. Deem and Ramdas Pophale) SiO2 
 PCOD9239354
Probable space group: P 21/C
;
_chemical_formula_sum "Si O2"
_cell_formula_units_Z 24
_cell_length_a 29.013026
_cell_length_b 5.410523
_cell_length_c 25.245735
_cell_angle_alpha 90.000000
_cell_angle_beta 166.287253
_cell_angle_gamma 90.000000
_cell_volume 939.437969
_symmetry_space_group_name_H-M "P 21/C"
_symmetry_group_IT_number 14
_symmetry_cell_setting 'monoclinic'
loop_
_space_group_symop_operation_xyz
x,y,z
-x,1/2+y,1/2-z
-x,-y,-z
x,1/2-y,1/2+z
loop_
_atom_site_type_symbol
_atom_site_label
_atom_site_fract_x
_atom_site_fract_y
_atom_site_fract_z
Si Si1 0.714316 0.071635 0.759471
Si Si2 0.253069 0.931916 0.404596
Si Si3 0.296115 0.064661 0.130108
Si Si4 0.291573 0.931678 0.572810
Si Si5 0.200312 0.081813 0.697922
Si Si6 0.717477 0.927406 0.097109
O O1 0.742735 0.361485 0.778386
O O2 0.500000 0.000000 0.500000
O O3 0.734691 0.999430 0.843456
O O4 0.825888 0.860334 0.851018
O O5 0.471436 0.925479 0.623072
O O6 0.261910 0.957309 0.477338
O O7 0.168853 0.670280 0.293583
O O8 0.162896 0.179074 0.280149
O O9 0.220278 0.329071 0.025516
O O10 0.214727 0.831915 0.006639
O O11 0.525216 0.920774 0.845508
O O12 0.342617 0.070476 0.908472
O O13 0.000000 0.000000 0.500000
#
# Coordination Sequence:
#
# PCOD9239354 Si02
#       6
#     4   4   4   4   4   4
#     4  12  23  40  64  92 122 160 209 267 309 351
#     4  10  18  30  52  86 117 146 188 251 307 350
#     4  10  18  29  49  80 115 145 181 238 303 350
#     4  10  17  30  51  86 119 146 185 250 308 352
#     4  12  26  43  61  88 127 172 209 245 306 381
#     4  10  18  32  51  76 110 149 194 239 285 350
#
# _framework density 25.547191000000002
#
# number of rings (size 3 to 8) (size 9 to 14) (size 15 to 20)
#    0.000    1.333    0.000   12.000    0.000    0.000 
#    0.000    0.000    0.000    0.000    0.000   39.667 
#    0.000    0.000    0.000    0.000    0.000    0.000 
#
# Total GULP energy -134374.347176 kJ/mol
# GULP energy per Si atom -5598.931132 kJ/mol
# Density = 2.548904 g / cm^3
# Si number density = 25.547191 Si / 1000 Ang^3
#
#
#
# Elastic Constant Matrix: (Units=GPa)
#
#
# Indices 1 2 3 4 5 6 
#
# 1 159.0234 49.1269 -8.3821 0.0000 -29.0286 0.0000
# 2 49.1269 228.0579 -7.5152 0.0000 -20.1929 0.0000
# 3 -8.3821 -7.5152 49.7565 0.0000 -5.4177 0.0000
# 4 0.0000 0.0000 0.0000 9.0852 0.0000 -3.9791
# 5 -29.0286 -20.1929 -5.4177 0.0000 30.1945 0.0000
# 6 0.0000 0.0000 0.0000 -3.9791 0.0000 58.6882
#
#
#
# Elastic Compliance Matrix: (Units=1/GPa)
#
#
# Indices 1 2 3 4 5 6 
#
# 1 0.008065 -0.001012 0.002016 0.000000 0.007438 0.000000
# 2 -0.001012 0.004844 0.000824 0.000000 0.002414 0.000000
# 3 0.002016 0.000824 0.021248 0.000000 0.006301 0.000000
# 4 0.000000 0.000000 0.000000 0.113438 0.000000 0.007691
# 5 0.007438 0.002414 0.006301 0.000000 0.043015 0.000000
# 6 0.000000 0.000000 0.000000 0.007691 0.000000 0.017561
#
#
# Mechanical properties :
#
#
# Convention : Reuss Voigt Hill
#
# Bulk Modulus (GPa) = 26.44695 55.92191 41.18443
# Shear Modulus (GPa) = 23.02876 46.50079 34.76477
#
# Velocity S-wave (km/s) = 3.00562 4.27100 3.69291
# Velocity P-wave (km/s) = 4.73494 6.80140 5.85998
#
# Compressibility (1/GPa) = 0.03781155
#
# Stress axis : x y z
#
# Youngs Moduli (GPa) = 123.98956 206.44926 47.06331
#
# Poissons Ratio (x) = 0.20899 -0.09487
# Poissons Ratio (y) = 0.12552 -0.03878
# Poissons Ratio (z) = -0.24993 -0.17009
#
# Static dielectric constant tensor:
#      x y z
#    x 1.961430 0.000000 0.018550 
#    y 0.000000 2.114410 0.000000 
#    z 0.018550 0.000000 2.160660 
# 
# From -- ./inp_files/75111.got.cif
#   From: 2010.05.17/outbox.cif.g08.bks.cpg/sg14_38_cif.got.tgz:75111.got - 2010.06.03 17:49:19.
