data_PCOD9239433
_publ_section_title
;
Structure prediction by ZEFSAII (Michael W. Deem and Ramdas Pophale) SiO2 
 PCOD9239433
Probable space group: P 21/C
;
_chemical_formula_sum "Si O2"
_cell_formula_units_Z 32
_cell_length_a 13.473897
_cell_length_b 14.662840
_cell_length_c 12.921287
_cell_angle_alpha 90.000000
_cell_angle_beta 41.518808
_cell_angle_gamma 90.000000
_cell_volume 1692.165153
_symmetry_space_group_name_H-M "P 21/C"
_symmetry_group_IT_number 14
_symmetry_cell_setting 'monoclinic'
loop_
_space_group_symop_operation_xyz
x,y,z
-x,1/2+y,1/2-z
-x,-y,-z
x,1/2-y,1/2+z
loop_
_atom_site_type_symbol
_atom_site_label
_atom_site_fract_x
_atom_site_fract_y
_atom_site_fract_z
Si Si1 0.692916 0.552273 0.855966
Si Si2 0.727953 0.164138 0.567165
Si Si3 0.979561 0.874893 0.536555
Si Si4 0.908452 0.405032 0.739684
Si Si5 0.733442 0.370676 0.544673
Si Si6 0.923079 0.466082 0.232287
Si Si7 0.961798 0.667646 0.566265
Si Si8 0.492267 0.991736 0.326315
O O1 0.768436 0.452215 0.792383
O O2 0.826654 0.618338 0.726722
O O3 0.572084 0.559207 0.860148
O O4 0.622829 0.558707 0.024229
O O5 0.844318 0.134667 0.566743
O O6 0.835434 0.160725 0.381390
O O7 0.668340 0.267919 0.610528
O O8 0.602329 0.085590 0.658916
O O9 0.895903 0.950304 0.672162
O O10 0.925797 0.773824 0.598356
O O11 0.975152 0.902280 0.419960
O O12 0.992481 0.482763 0.740201
O O13 0.014970 0.362487 0.570783
O O14 0.793285 0.405479 0.385723
O O15 0.616319 0.448031 0.671941
O O16 0.884681 0.360155 0.495625
#
# Coordination Sequence:
#
# PCOD9239433 Si02
#       8
#     4   4   4   4   4   4   4   4
#     4  10  19  34  55  85 119 144 178 240 304 341
#     4   9  21  37  55  83 116 163 195 231 291 354
#     4   9  21  37  56  83 120 152 194 245 293 342
#     4  10  17  32  60  87 116 139 190 242 292 343
#     4  11  20  36  62  86 112 155 205 239 289 352
#     4  10  19  36  57  85 116 152 190 244 297 342
#     4  11  19  34  61  95 110 145 197 253 289 344
#     4  10  21  37  55  82 123 156 182 239 299 353
#
# _framework density 18.910682999999999
#
# number of rings (size 3 to 8) (size 9 to 14) (size 15 to 20)
#    0.000    2.000    2.500    1.875    0.000    0.000 
#    2.250    5.625    0.000    0.000    0.000    0.000 
#    0.000    0.000    0.000    0.000    0.000    0.000 
#
# Total GULP energy -178156.413416 kJ/mol
# GULP energy per Si atom -5567.387919 kJ/mol
# Density = 1.886764 g / cm^3
# Si number density = 18.910683 Si / 1000 Ang^3
#
#
#
# Elastic Constant Matrix: (Units=GPa)
#
#
# Indices 1 2 3 4 5 6 
#
# 1 23.0345 13.8106 -5.8888 0.0000 -0.1910 0.0000
# 2 13.8106 80.5184 45.0978 0.0000 -0.2390 0.0000
# 3 -5.8888 45.0978 77.8206 0.0000 1.5676 0.0000
# 4 0.0000 0.0000 0.0000 23.1067 0.0000 -13.6232
# 5 -0.1910 -0.2390 1.5676 0.0000 20.7971 0.0000
# 6 0.0000 0.0000 0.0000 -13.6232 0.0000 15.6159
#
#
#
# Elastic Compliance Matrix: (Units=1/GPa)
#
#
# Indices 1 2 3 4 5 6 
#
# 1 0.058376 -0.018505 0.015158 0.000000 -0.000819 0.000000
# 2 -0.018505 0.024275 -0.015494 0.000000 0.001277 0.000000
# 3 0.015158 -0.015494 0.023012 0.000000 -0.001773 0.000000
# 4 0.000000 0.000000 0.000000 0.089111 0.000000 0.077739
# 5 -0.000819 0.001277 -0.001773 0.000000 0.048225 0.000000
# 6 0.000000 0.000000 0.000000 0.077739 0.000000 0.131856
#
#
# Mechanical properties :
#
#
# Convention : Reuss Voigt Hill
#
# Bulk Modulus (GPa) = 14.70997 31.93474 23.32236
# Shear Modulus (GPa) = 11.48905 20.46087 15.97496
#
# Velocity S-wave (km/s) = 2.46751 3.29291 2.90963
# Velocity P-wave (km/s) = 3.98920 5.60191 4.86288
#
# Compressibility (1/GPa) = 0.06798109
#
# Stress axis : x y z
#
# Youngs Moduli (GPa) = 17.13029 41.19425 43.45633
#
# Poissons Ratio (x) = 0.76229 -0.65870
# Poissons Ratio (y) = 0.31699 0.67330
# Poissons Ratio (z) = -0.25966 0.63825
#
# Static dielectric constant tensor:
#      x y z
#    x 1.703820 0.000000 0.016130 
#    y 0.000000 1.679920 0.000000 
#    z 0.016130 0.000000 1.677090 
# 
# From -- ./inp_files/30012.got.cif
#   From: 2010.05.17/outbox.cif.g08.bks.cpg/sg14_16_cif.got.tgz:30012.got - 2010.06.03 17:49:19.
