data_PCOD9239852
_publ_section_title
;
Structure prediction by ZEFSAII (Michael W. Deem and Ramdas Pophale) SiO2 
 PCOD9239852
Probable space group: P 21/C
;
_chemical_formula_sum "Si O2"
_cell_formula_units_Z 20
_cell_length_a 19.053150
_cell_length_b 8.097789
_cell_length_c 5.543889
_cell_angle_alpha 90.000000
_cell_angle_beta 100.416116
_cell_angle_gamma 90.000000
_cell_volume 841.261966
_symmetry_space_group_name_H-M "P 21/C"
_symmetry_group_IT_number 14
_symmetry_cell_setting 'monoclinic'
loop_
_space_group_symop_operation_xyz
x,y,z
-x,1/2+y,1/2-z
-x,-y,-z
x,1/2-y,1/2+z
loop_
_atom_site_type_symbol
_atom_site_label
_atom_site_fract_x
_atom_site_fract_y
_atom_site_fract_z
Si Si1 0.507052 0.694017 0.972033
Si Si2 0.138208 0.075796 0.075284
Si Si3 0.305939 0.159223 0.179265
Si Si4 0.082415 0.047651 0.540525
Si Si5 0.654895 0.301051 0.175125
O O1 0.540732 0.732003 0.734446
O O2 0.500000 0.500000 0.000000
O O3 0.426065 0.767225 0.904245
O O4 0.221748 0.114302 0.137452
O O5 0.114760 0.987081 0.306748
O O6 0.318297 0.223522 0.917010
O O7 0.097302 0.253716 0.045944
O O8 0.119144 0.989120 0.811535
O O9 0.347796 0.991677 0.257828
O O10 0.000000 0.000000 0.500000
O O11 0.689127 0.283233 0.931840
#
# Coordination Sequence:
#
# PCOD9239852 Si02
#       5
#     4   4   4   4   4
#     4  10  21  38  61  89 127 165 204 254 303 356
#     4  10  19  35  53  79 105 140 182 245 291 338
#     4  12  21  38  66  89 115 159 209 256 292 359
#     4  10  18  32  56  73 104 138 174 225 302 350
#     4  10  23  41  60  88 129 167 197 250 315 358
#
# _framework density 23.773807000000001
#
# number of rings (size 3 to 8) (size 9 to 14) (size 15 to 20)
#    0.000    1.600    4.000    2.400    0.000    1.600 
#    0.000    0.000   26.400    0.000    0.000    0.000 
#    0.000    0.000    0.000    0.000    0.000    0.000 
#
# Total GULP energy -111784.399090 kJ/mol
# GULP energy per Si atom -5589.219954 kJ/mol
# Density = 2.371970 g / cm^3
# Si number density = 23.773807 Si / 1000 Ang^3
#
#
#
# Elastic Constant Matrix: (Units=GPa)
#
#
# Indices 1 2 3 4 5 6 
#
# 1 87.2298 6.5665 23.4261 0.0000 3.1419 0.0000
# 2 6.5665 50.2133 34.1073 0.0000 -3.2716 0.0000
# 3 23.4261 34.1073 277.5227 0.0000 -8.7079 0.0000
# 4 0.0000 0.0000 0.0000 -36.1392 0.0000 199.0273
# 5 3.1419 -3.2716 -8.7079 0.0000 36.3535 0.0000
# 6 0.0000 0.0000 0.0000 199.0273 0.0000 -513.8675
#
#
#
# Elastic Compliance Matrix: (Units=1/GPa)
#
#
# Indices 1 2 3 4 5 6 
#
# 1 0.011834 -0.001012 -0.000916 0.000000 -0.001333 0.000000
# 2 -0.001012 0.021879 -0.002558 0.000000 0.001444 0.000000
# 3 -0.000916 -0.002558 0.004021 0.000000 0.000812 0.000000
# 4 0.000000 0.000000 0.000000 0.024422 0.000000 0.009459
# 5 -0.001333 0.001444 0.000812 0.000000 0.027947 0.000000
# 6 0.000000 0.000000 0.000000 0.009459 0.000000 0.001718
#
#
# Mechanical properties :
#
#
# Convention : Reuss Voigt Hill
#
# Bulk Modulus (GPa) = 34.76965 60.35173 47.56069
# Shear Modulus (GPa) = 45.29764 -79.33957 -17.02097
#
# Velocity S-wave (km/s) = 4.36978 -5.78318 -2.67864
# Velocity P-wave (km/s) = 6.33379 4.37637 3.23761
#
# Compressibility (1/GPa) = 0.02876071
#
# Stress axis : x y z
#
# Youngs Moduli (GPa) = 84.50022 45.70572 248.72248
#
# Poissons Ratio (x) = 0.04625 0.22793
# Poissons Ratio (y) = 0.08551 0.63628
# Poissons Ratio (z) = 0.07744 0.11692
#
# Static dielectric constant tensor:
#      x y z
#    x 1.927200 0.000000 -0.007940 
#    y 0.000000 2.364260 0.000000 
#    z -0.007940 0.000000 2.029860 
# 
# From -- ./inp_files/4038.got.cif
#   From: 2010.05.17/outbox.cif.g08.bks.cpg/sg14_3_cif.got.tgz:4038.got - 2010.06.03 17:49:19.
