data_PCOD9239782
_publ_section_title
;
Structure prediction by ZEFSAII (Michael W. Deem and Ramdas Pophale) SiO2 
 PCOD9239782
Probable space group: P 21/C
;
_chemical_formula_sum "Si O2"
_cell_formula_units_Z 20
_cell_length_a 12.834489
_cell_length_b 10.432065
_cell_length_c 8.676261
_cell_angle_alpha 90.000000
_cell_angle_beta 44.173810
_cell_angle_gamma 90.000000
_cell_volume 809.492598
_symmetry_space_group_name_H-M "P 21/C"
_symmetry_group_IT_number 14
_symmetry_cell_setting 'monoclinic'
loop_
_space_group_symop_operation_xyz
x,y,z
-x,1/2+y,1/2-z
-x,-y,-z
x,1/2-y,1/2+z
loop_
_atom_site_type_symbol
_atom_site_label
_atom_site_fract_x
_atom_site_fract_y
_atom_site_fract_z
Si Si1 0.164233 0.567746 0.347194
Si Si2 0.882118 0.839707 0.619779
Si Si3 0.418895 0.102793 0.189674
Si Si4 0.089831 0.798544 0.647759
Si Si5 0.631696 0.850702 0.419927
O O1 0.291152 0.465729 0.253964
O O2 0.000000 0.500000 0.500000
O O3 0.155546 0.684304 0.475549
O O4 0.200266 0.623288 0.139194
O O5 0.756102 0.919249 0.667042
O O6 0.990975 0.887956 0.638506
O O7 0.981714 0.769192 0.387254
O O8 0.777218 0.733744 0.816875
O O9 0.445083 0.101958 0.343561
O O10 0.454540 0.247389 0.091295
O O11 0.500000 0.000000 0.000000
#
# Coordination Sequence:
#
# PCOD9239782 Si02
#       5
#     4   4   4   4   4
#     4  11  19  33  57  88 134 170 202 242 307 380
#     4   9  15  34  56  86 125 153 210 236 307 365
#     4  10  20  39  67  90 112 159 219 259 316 362
#     4  10  18  31  57  92 124 170 199 236 303 380
#     4  10  20  38  63  88 124 163 204 259 312 374
#
# _framework density 24.706835000000002
#
# number of rings (size 3 to 8) (size 9 to 14) (size 15 to 20)
#    1.200    0.800    6.000    0.000    0.000    0.000 
#    0.000   16.000    0.000    0.000    0.000    0.000 
#    0.000    0.000    0.000    0.000    0.000    0.000 
#
# Total GULP energy -111687.501897 kJ/mol
# GULP energy per Si atom -5584.375095 kJ/mol
# Density = 2.465060 g / cm^3
# Si number density = 24.706835 Si / 1000 Ang^3
#
#
#
# Elastic Constant Matrix: (Units=GPa)
#
#
# Indices 1 2 3 4 5 6 
#
# 1 62.3379 27.9016 24.1896 0.0000 1.1137 0.0000
# 2 27.9016 101.2609 39.5064 0.0000 -4.3282 0.0000
# 3 24.1896 39.5064 82.7516 0.0000 19.7655 0.0000
# 4 0.0000 0.0000 0.0000 56.4295 0.0000 -1.8208
# 5 1.1137 -4.3282 19.7655 0.0000 18.9658 0.0000
# 6 0.0000 0.0000 0.0000 -1.8208 0.0000 34.3579
#
#
#
# Elastic Compliance Matrix: (Units=1/GPa)
#
#
# Indices 1 2 3 4 5 6 
#
# 1 0.019339 -0.003315 -0.004817 0.000000 0.003128 0.000000
# 2 -0.003315 0.015040 -0.009423 0.000000 0.013448 0.000000
# 3 -0.004817 -0.009423 0.024548 0.000000 -0.027450 0.000000
# 4 0.000000 0.000000 0.000000 0.017752 0.000000 0.000941
# 5 0.003128 0.013448 -0.027450 0.000000 0.084219 0.000000
# 6 0.000000 0.000000 0.000000 0.000941 0.000000 0.029155
#
#
# Mechanical properties :
#
#
# Convention : Reuss Voigt Hill
#
# Bulk Modulus (GPa) = 41.99041 47.72729 44.85885
# Shear Modulus (GPa) = 21.44965 32.26750 26.85857
#
# Velocity S-wave (km/s) = 2.94966 3.61780 3.30068
# Velocity P-wave (km/s) = 5.35099 6.06718 5.72030
#
# Compressibility (1/GPa) = 0.02381496
#
# Stress axis : x y z
#
# Youngs Moduli (GPa) = 51.70881 66.48841 40.73670
#
# Poissons Ratio (x) = 0.22044 0.19625
# Poissons Ratio (y) = 0.17144 0.38387
# Poissons Ratio (z) = 0.24911 0.62653
#
# Static dielectric constant tensor:
#      x y z
#    x 1.991450 0.000000 -0.038300 
#    y 0.000000 2.029870 0.000000 
#    z -0.038300 0.000000 1.950670 
# 
# From -- ./inp_files/12581.got.cif
#   From: 2010.05.17/outbox.cif.g08.bks.cpg/sg14_7_cif.got.tgz:12581.got - 2010.06.03 17:49:19.
