data_PCOD9239873
_publ_section_title
;
Structure prediction by ZEFSAII (Michael W. Deem and Ramdas Pophale) SiO2 
 PCOD9239873
Probable space group: P 21/C
;
_chemical_formula_sum "Si O2"
_cell_formula_units_Z 32
_cell_length_a 16.052836
_cell_length_b 8.498865
_cell_length_c 18.960248
_cell_angle_alpha 90.000000
_cell_angle_beta 149.199949
_cell_angle_gamma 90.000000
_cell_volume 1324.535737
_symmetry_space_group_name_H-M "P 21/C"
_symmetry_group_IT_number 14
_symmetry_cell_setting 'monoclinic'
loop_
_space_group_symop_operation_xyz
x,y,z
-x,1/2+y,1/2-z
-x,-y,-z
x,1/2-y,1/2+z
loop_
_atom_site_type_symbol
_atom_site_label
_atom_site_fract_x
_atom_site_fract_y
_atom_site_fract_z
Si Si1 0.153595 0.240586 0.499464
Si Si2 0.199840 0.674209 0.748581
Si Si3 0.698461 0.153798 0.966540
Si Si4 0.257478 0.163564 0.345077
Si Si5 0.710740 0.998214 0.493441
Si Si6 0.520889 0.352264 0.463862
Si Si7 0.081390 0.073006 0.801906
Si Si8 0.184014 0.531539 0.599844
O O1 0.129135 0.332419 0.407293
O O2 0.229302 0.353998 0.612544
O O3 0.962228 0.218967 0.378131
O O4 0.271277 0.100751 0.564487
O O5 0.166128 0.494648 0.752414
O O6 0.326369 0.754692 0.892554
O O7 0.266862 0.635014 0.720042
O O8 0.638850 0.333057 0.926538
O O9 0.553577 0.079469 0.909164
O O10 0.845420 0.097768 0.125429
O O11 0.768342 0.115860 0.939877
O O12 0.374691 0.230571 0.370362
O O13 0.153547 0.314864 0.293594
O O14 0.348979 0.100542 0.482452
O O15 0.896988 0.041362 0.648859
O O16 0.500000 0.500000 0.500000
O O17 0.000000 0.500000 0.500000
#
# Coordination Sequence:
#
# PCOD9239873 Si02
#       8
#     4   4   4   4   4   4   4   4
#     4   9  19  35  58  92 124 161 201 256 327 388
#     4  11  21  42  61  89 128 169 212 265 330 389
#     4  11  21  39  61  91 128 166 210 266 324 380
#     4  11  22  35  61  92 123 161 209 270 323 387
#     4  11  20  32  63  95 125 156 210 268 328 386
#     4  12  24  41  62  91 127 167 225 273 312 389
#     4  10  18  32  57  93 123 153 203 269 327 372
#     4   9  22  41  64  89 131 170 204 258 330 391
#
# _framework density 24.159407999999999
#
# number of rings (size 3 to 8) (size 9 to 14) (size 15 to 20)
#    0.000    1.500    3.750    2.625    3.500    0.000 
#    0.000    5.000    0.000    0.000    0.000    0.000 
#    0.000    0.000    0.000    0.000    0.000    0.000 
#
# Total GULP energy -178145.242452 kJ/mol
# GULP energy per Si atom -5567.038827 kJ/mol
# Density = 2.410442 g / cm^3
# Si number density = 24.159408 Si / 1000 Ang^3
#
#
#
# Elastic Constant Matrix: (Units=GPa)
#
#
# Indices 1 2 3 4 5 6 
#
# 1 179.0423 33.6581 32.5120 0.0000 -15.9006 0.0000
# 2 33.6581 73.0754 -1.2761 0.0000 -8.7566 0.0000
# 3 32.5120 -1.2761 37.8157 0.0000 -4.2225 0.0000
# 4 0.0000 0.0000 0.0000 14.7447 0.0000 -1.9048
# 5 -15.9006 -8.7566 -4.2225 0.0000 24.6924 0.0000
# 6 0.0000 0.0000 0.0000 -1.9048 0.0000 45.7550
#
#
#
# Elastic Compliance Matrix: (Units=1/GPa)
#
#
# Indices 1 2 3 4 5 6 
#
# 1 0.007590 -0.003291 -0.006342 0.000000 0.002636 0.000000
# 2 -0.003291 0.015761 0.003821 0.000000 0.004124 0.000000
# 3 -0.006342 0.003821 0.032338 0.000000 0.002801 0.000000
# 4 0.000000 0.000000 0.000000 0.068188 0.000000 0.002839
# 5 0.002636 0.004124 0.002801 0.000000 0.044137 0.000000
# 6 0.000000 0.000000 0.000000 0.002839 0.000000 0.021974
#
#
# Mechanical properties :
#
#
# Convention : Reuss Voigt Hill
#
# Bulk Modulus (GPa) = 22.69286 46.63572 34.66429
# Shear Modulus (GPa) = 23.11621 32.04103 27.57862
#
# Velocity S-wave (km/s) = 3.09661 3.64570 3.38231
# Velocity P-wave (km/s) = 4.71155 6.08825 5.44359
#
# Compressibility (1/GPa) = 0.04406673
#
# Stress axis : x y z
#
# Youngs Moduli (GPa) = 131.75979 63.44769 30.92317
#
# Poissons Ratio (x) = 0.20878 0.19611
# Poissons Ratio (y) = 0.43357 -0.11817
# Poissons Ratio (z) = 0.83560 -0.24246
#
# Static dielectric constant tensor:
#      x y z
#    x 2.058160 0.000000 0.019940 
#    y 0.000000 1.992750 0.000000 
#    z 0.019940 0.000000 1.984850 
# 
# From -- ./inp_files/68221.got.cif
#   From: 2010.05.17/outbox.cif.g08.bks.cpg/sg14_35_cif.got.tgz:68221.got - 2010.06.03 17:49:19.
