data_PCOD9239834
_publ_section_title
;
Structure prediction by ZEFSAII (Michael W. Deem and Ramdas Pophale) SiO2 
 PCOD9239834
Probable space group: P 21/C
;
_chemical_formula_sum "Si O2"
_cell_formula_units_Z 28
_cell_length_a 15.981501
_cell_length_b 20.807864
_cell_length_c 9.769232
_cell_angle_alpha 90.000000
_cell_angle_beta 155.570994
_cell_angle_gamma 90.000000
_cell_volume 1343.537210
_symmetry_space_group_name_H-M "P 21/C"
_symmetry_group_IT_number 14
_symmetry_cell_setting 'monoclinic'
loop_
_space_group_symop_operation_xyz
x,y,z
-x,1/2+y,1/2-z
-x,-y,-z
x,1/2-y,1/2+z
loop_
_atom_site_type_symbol
_atom_site_label
_atom_site_fract_x
_atom_site_fract_y
_atom_site_fract_z
Si Si1 0.327633 0.426404 0.703913
Si Si2 0.028180 0.007438 0.223806
Si Si3 0.730827 0.932847 0.191769
Si Si4 0.974232 0.688127 0.739967
Si Si5 0.750700 0.121830 0.820405
Si Si6 0.011805 0.806527 0.609559
Si Si7 0.708810 0.396863 0.956136
O O1 0.176868 0.467072 0.571273
O O2 0.311900 0.453653 0.526867
O O3 0.224964 0.356034 0.546512
O O4 0.560628 0.420006 0.089919
O O5 0.151282 0.012467 0.550134
O O6 0.954686 0.080381 0.097058
O O7 0.178274 0.965850 0.354310
O O8 0.866530 0.868695 0.390498
O O9 0.513673 0.913372 0.929927
O O10 0.927649 0.746247 0.568070
O O11 0.041741 0.708995 0.993577
O O12 0.151758 0.644712 0.936833
O O13 0.688597 0.139652 0.572301
O O14 0.800551 0.172171 0.013699
#
# Coordination Sequence:
#
# PCOD9239834 Si02
#       7
#     4   4   4   4   4   4   4
#     4   9  19  34  54  79 110 144 179 218 265 315
#     4  10  18  32  54  82 111 144 179 218 261 310
#     4   9  19  34  54  79 110 144 179 218 265 315
#     4  10  21  38  57  78 104 139 178 222 270 319
#     4  10  20  35  54  81 112 143 178 219 263 314
#     4  10  21  38  57  78 104 139 178 222 270 319
#     4  10  20  35  54  81 112 143 178 219 263 314
#
# _framework density 20.840510999999999
#
# number of rings (size 3 to 8) (size 9 to 14) (size 15 to 20)
#    0.000    2.286    0.000    2.571    0.000    2.286 
#    0.000   11.429    0.000    0.000    0.000    0.000 
#    0.000    0.000    0.000    0.000    0.000    0.000 
#
# Total GULP energy -155972.633869 kJ/mol
# GULP energy per Si atom -5570.451210 kJ/mol
# Density = 2.079308 g / cm^3
# Si number density = 20.840511 Si / 1000 Ang^3
#
#
#
# Elastic Constant Matrix: (Units=GPa)
#
#
# Indices 1 2 3 4 5 6 
#
# 1 83.8006 17.1970 19.6537 0.0000 -14.0717 0.0000
# 2 17.1970 37.7144 0.7573 0.0000 -17.5887 0.0000
# 3 19.6537 0.7573 53.9573 0.0000 2.5606 0.0000
# 4 0.0000 0.0000 0.0000 23.4488 0.0000 -4.3702
# 5 -14.0717 -17.5887 2.5606 0.0000 34.5075 0.0000
# 6 0.0000 0.0000 0.0000 -4.3702 0.0000 32.7292
#
#
#
# Elastic Compliance Matrix: (Units=1/GPa)
#
#
# Indices 1 2 3 4 5 6 
#
# 1 0.014898 -0.004797 -0.005551 0.000000 0.004042 0.000000
# 2 -0.004797 0.036424 0.000449 0.000000 0.016576 0.000000
# 3 -0.005551 0.000449 0.020718 0.000000 -0.003572 0.000000
# 4 0.000000 0.000000 0.000000 0.043734 0.000000 0.005840
# 5 0.004042 0.016576 -0.003572 0.000000 0.039342 0.000000
# 6 0.000000 0.000000 0.000000 0.005840 0.000000 0.031333
#
#
# Mechanical properties :
#
#
# Convention : Reuss Voigt Hill
#
# Bulk Modulus (GPa) = 19.14119 27.85425 23.49772
# Shear Modulus (GPa) = 22.35529 27.32807 24.84168
#
# Velocity S-wave (km/s) = 3.27874 3.62511 3.45627
# Velocity P-wave (km/s) = 4.85160 5.56025 5.21797
#
# Compressibility (1/GPa) = 0.05224334
#
# Stress axis : x y z
#
# Youngs Moduli (GPa) = 67.12269 27.45472 48.26640
#
# Poissons Ratio (x) = 0.13169 0.26793
# Poissons Ratio (y) = 0.32196 -0.02169
# Poissons Ratio (z) = 0.37260 -0.01233
#
# Static dielectric constant tensor:
#      x y z
#    x 1.783490 0.000000 -0.027550 
#    y 0.000000 1.791050 0.000000 
#    z -0.027550 0.000000 1.779790 
# 
# From -- ./inp_files/16942.got.cif
#   From: 2010.05.17/outbox.cif.g08.bks.cpg/sg14_9_cif.got.tgz:16942.got - 2010.06.03 17:49:19.
