data_PCOD9239772
_publ_section_title
;
Structure prediction by ZEFSAII (Michael W. Deem and Ramdas Pophale) SiO2 
 PCOD9239772
Probable space group: P 21/C
;
_chemical_formula_sum "Si O2"
_cell_formula_units_Z 32
_cell_length_a 13.599437
_cell_length_b 8.007533
_cell_length_c 22.683624
_cell_angle_alpha 90.000000
_cell_angle_beta 151.430772
_cell_angle_gamma 90.000000
_cell_volume 1181.299628
_symmetry_space_group_name_H-M "P 21/C"
_symmetry_group_IT_number 14
_symmetry_cell_setting 'monoclinic'
loop_
_space_group_symop_operation_xyz
x,y,z
-x,1/2+y,1/2-z
-x,-y,-z
x,1/2-y,1/2+z
loop_
_atom_site_type_symbol
_atom_site_label
_atom_site_fract_x
_atom_site_fract_y
_atom_site_fract_z
Si Si1 0.737006 0.051240 0.759646
Si Si2 0.453326 0.134450 0.233924
Si Si3 0.700094 0.309375 0.119658
Si Si4 0.011118 0.722066 0.883842
Si Si5 0.387965 0.595668 0.533615
Si Si6 0.167658 0.313238 0.472147
Si Si7 0.923986 0.943724 0.661515
Si Si8 0.721386 0.537284 0.800141
O O1 0.604056 0.000485 0.745965
O O2 0.856889 0.878793 0.805914
O O3 0.627235 0.139576 0.646466
O O4 0.934996 0.169358 0.872774
O O5 0.400478 0.311274 0.233356
O O6 0.673219 0.111822 0.318872
O O7 0.302976 0.127020 0.098018
O O8 0.573513 0.198342 0.006069
O O9 0.766842 0.487261 0.126831
O O10 0.904422 0.192577 0.233121
O O11 0.945364 0.603689 0.903217
O O12 0.247086 0.779835 0.000210
O O13 0.969712 0.613049 0.804433
O O14 0.231925 0.437782 0.451977
O O15 0.595221 0.526992 0.672165
O O16 0.188428 0.131852 0.455226
#
# Coordination Sequence:
#
# PCOD9239772 Si02
#       8
#     4   4   4   4   4   4   4   4
#     4   9  18  34  55  81 113 151 191 235 288 342
#     4  10  21  37  55  79 115 152 192 239 287 342
#     4  10  18  31  56  86 116 151 189 235 287 345
#     4   9  19  36  56  82 116 147 189 240 285 336
#     4   9  19  37  58  83 115 153 190 233 291 343
#     4   9  18  33  56  83 111 149 192 237 290 342
#     4  10  18  31  56  87 113 145 191 238 290 346
#     4  10  22  39  58  83 116 152 193 243 289 338
#
# _framework density 27.088809999999999
#
# number of rings (size 3 to 8) (size 9 to 14) (size 15 to 20)
#    0.000    2.500    0.000    3.375    0.000    5.000 
#    0.000    6.250    0.000    7.500    0.000    0.000 
#    0.000    0.000    0.000    0.000    0.000    0.000 
#
# Total GULP energy -178812.533213 kJ/mol
# GULP energy per Si atom -5587.891663 kJ/mol
# Density = 2.702715 g / cm^3
# Si number density = 27.088810 Si / 1000 Ang^3
#
#
#
# Elastic Constant Matrix: (Units=GPa)
#
#
# Indices 1 2 3 4 5 6 
#
# 1 123.4461 39.8464 48.5153 0.0000 -10.7715 0.0000
# 2 39.8464 67.9411 -7.2734 0.0000 -0.9934 0.0000
# 3 48.5153 -7.2734 83.6922 0.0000 -1.1220 0.0000
# 4 0.0000 0.0000 0.0000 22.1337 0.0000 -8.5087
# 5 -10.7715 -0.9934 -1.1220 0.0000 33.6088 0.0000
# 6 0.0000 0.0000 0.0000 -8.5087 0.0000 57.0622
#
#
#
# Elastic Compliance Matrix: (Units=1/GPa)
#
#
# Indices 1 2 3 4 5 6 
#
# 1 0.015664 -0.010183 -0.009906 0.000000 0.004388 0.000000
# 2 -0.010183 0.021484 0.007738 0.000000 -0.002370 0.000000
# 3 -0.009906 0.007738 0.018332 0.000000 -0.002334 0.000000
# 4 0.000000 0.000000 0.000000 0.047927 0.000000 0.007147
# 5 0.004388 -0.002370 -0.002334 0.000000 0.031013 0.000000
# 6 0.000000 0.000000 0.000000 0.007147 0.000000 0.018590
#
#
# Mechanical properties :
#
#
# Convention : Reuss Voigt Hill
#
# Bulk Modulus (GPa) = 32.48986 48.58401 40.53693
# Shear Modulus (GPa) = 26.59971 35.49366 31.04668
#
# Velocity S-wave (km/s) = 3.13700 3.62369 3.38909
# Velocity P-wave (km/s) = 5.01407 5.95669 5.50559
#
# Compressibility (1/GPa) = 0.03077884
#
# Stress axis : x y z
#
# Youngs Moduli (GPa) = 63.84194 46.54523 54.54874
#
# Poissons Ratio (x) = 0.47396 0.54037
# Poissons Ratio (y) = 0.65009 -0.42211
# Poissons Ratio (z) = 0.63243 -0.36018
#
# Static dielectric constant tensor:
#      x y z
#    x 2.140270 0.000000 -0.035150 
#    y 0.000000 2.168040 0.000000 
#    z -0.035150 0.000000 2.139790 
# 
# From -- ./inp_files/58889.got.cif
#   From: 2010.05.17/outbox.cif.g08.bks.cpg/sg14_30_cif.got.tgz:58889.got - 2010.06.03 17:49:19.
