data_PCOD9239726
_publ_section_title
;
Structure prediction by ZEFSAII (Michael W. Deem and Ramdas Pophale) SiO2 
 PCOD9239726
Probable space group: P 21/C
;
_chemical_formula_sum "Si O2"
_cell_formula_units_Z 32
_cell_length_a 23.585075
_cell_length_b 6.917773
_cell_length_c 10.774500
_cell_angle_alpha 90.000000
_cell_angle_beta 45.239464
_cell_angle_gamma 90.000000
_cell_volume 1248.226035
_symmetry_space_group_name_H-M "P 21/C"
_symmetry_group_IT_number 14
_symmetry_cell_setting 'monoclinic'
loop_
_space_group_symop_operation_xyz
x,y,z
-x,1/2+y,1/2-z
-x,-y,-z
x,1/2-y,1/2+z
loop_
_atom_site_type_symbol
_atom_site_label
_atom_site_fract_x
_atom_site_fract_y
_atom_site_fract_z
Si Si1 0.417413 0.015777 0.740514
Si Si2 0.150931 0.547748 0.754841
Si Si3 0.095049 0.988517 0.822747
Si Si4 0.115980 0.497508 0.549275
Si Si5 0.683298 0.430217 0.373025
Si Si6 0.581472 0.450411 0.301638
Si Si7 0.066220 0.945504 0.607719
Si Si8 0.400812 0.975935 0.498418
O O1 0.422216 0.780062 0.720143
O O2 0.385925 0.082732 0.653277
O O3 0.506985 0.090105 0.623832
O O4 0.366874 0.037299 0.942763
O O5 0.123471 0.766922 0.770504
O O6 0.167753 0.465776 0.592331
O O7 0.226523 0.542082 0.727320
O O8 0.080950 0.464091 0.950059
O O9 0.103633 0.057128 0.667838
O O10 0.139858 0.071912 0.874804
O O11 0.000000 0.000000 0.000000
O O12 0.102376 0.729216 0.550930
O O13 0.027281 0.427696 0.721927
O O14 0.654909 0.487292 0.280585
O O15 0.660134 0.202650 0.413605
O O16 0.500000 0.500000 0.500000
O O17 0.594850 0.554021 0.148918
#
# Coordination Sequence:
#
# PCOD9239726 Si02
#       8
#     4   4   4   4   4   4   4   4
#     4   9  18  32  49  74 101 129 168 210 256 310
#     4  10  19  30  49  79 106 130 166 221 257 296
#     4   8  16  29  45  68 100 134 164 200 252 299
#     4   9  17  30  49  75 102 135 173 209 255 302
#     4  10  20  32  50  80 105 131 174 219 267 299
#     4  10  18  31  51  75  98 133 167 208 255 310
#     4   9  17  30  49  76 101 135 172 210 252 308
#     4   9  18  31  49  73 101 130 167 211 255 311
#
# _framework density 25.636382000000001
#
# number of rings (size 3 to 8) (size 9 to 14) (size 15 to 20)
#    0.000    2.750    1.250    0.375    0.000    9.000 
#    0.000    0.000    0.000    0.000   39.000    0.000 
#    0.000    0.000    0.000    0.000    0.000    0.000 
#
# Total GULP energy -178611.742491 kJ/mol
# GULP energy per Si atom -5581.616953 kJ/mol
# Density = 2.557803 g / cm^3
# Si number density = 25.636382 Si / 1000 Ang^3
#
#
#
# Elastic Constant Matrix: (Units=GPa)
#
#
# Indices 1 2 3 4 5 6 
#
# 1 207.9164 -4.0357 48.3357 0.0000 51.2202 0.0000
# 2 -4.0357 96.6068 -12.4241 0.0000 -6.6461 0.0000
# 3 48.3357 -12.4241 47.2013 0.0000 32.4647 0.0000
# 4 0.0000 0.0000 0.0000 10.1142 0.0000 -9.0492
# 5 51.2202 -6.6461 32.4647 0.0000 58.0279 0.0000
# 6 0.0000 0.0000 0.0000 -9.0492 0.0000 2.2710
#
#
#
# Elastic Compliance Matrix: (Units=1/GPa)
#
#
# Indices 1 2 3 4 5 6 
#
# 1 0.006724 -0.000558 -0.004724 0.000000 -0.003356 0.000000
# 2 -0.000558 0.010772 0.003607 0.000000 -0.000292 0.000000
# 3 -0.004724 0.003607 0.038720 0.000000 -0.017080 0.000000
# 4 0.000000 0.000000 0.000000 -0.038544 0.000000 -0.153587
# 5 -0.003356 -0.000292 -0.017080 0.000000 0.029717 0.000000
# 6 0.000000 0.000000 0.000000 -0.153587 0.000000 -0.171661
#
#
# Mechanical properties :
#
#
# Convention : Reuss Voigt Hill
#
# Bulk Modulus (GPa) = 18.91530 46.16404 32.53967
# Shear Modulus (GPa) = -48.40183 35.40586 -6.49799
#
# Velocity S-wave (km/s) = -4.34984 3.72032 -1.59379
# Velocity P-wave (km/s) = 4.22301 6.04158 3.05507
#
# Compressibility (1/GPa) = 0.05286724
#
# Stress axis : x y z
#
# Youngs Moduli (GPa) = 148.72708 92.83547 25.82637
#
# Poissons Ratio (x) = 0.05176 0.12200
# Poissons Ratio (y) = 0.08292 -0.09316
# Poissons Ratio (z) = 0.70257 -0.33488
#
# Static dielectric constant tensor:
#      x y z
#    x 2.059630 0.000000 0.073520 
#    y 0.000000 1.878310 0.000000 
#    z 0.073520 0.000000 2.092550 
# 
# From -- ./inp_files/35852.got.cif
#   From: 2010.05.17/outbox.cif.g08.bks.cpg/sg14_18_cif.got.tgz:35852.got - 2010.06.03 17:49:19.
