data_PCOD9239448
_publ_section_title
;
Structure prediction by ZEFSAII (Michael W. Deem and Ramdas Pophale) SiO2 
 PCOD9239448
Probable space group: P 21/C
;
_chemical_formula_sum "Si O2"
_cell_formula_units_Z 32
_cell_length_a 14.643582
_cell_length_b 13.350919
_cell_length_c 20.678582
_cell_angle_alpha 90.000000
_cell_angle_beta 24.314284
_cell_angle_gamma 90.000000
_cell_volume 1664.577216
_symmetry_space_group_name_H-M "P 21/C"
_symmetry_group_IT_number 14
_symmetry_cell_setting 'monoclinic'
loop_
_space_group_symop_operation_xyz
x,y,z
-x,1/2+y,1/2-z
-x,-y,-z
x,1/2-y,1/2+z
loop_
_atom_site_type_symbol
_atom_site_label
_atom_site_fract_x
_atom_site_fract_y
_atom_site_fract_z
Si Si1 0.046319 0.092176 0.518613
Si Si2 0.736010 0.150962 0.121967
Si Si3 0.681228 0.975853 0.939038
Si Si4 0.910387 0.135093 0.379526
Si Si5 0.162624 0.261153 0.834576
Si Si6 0.569282 0.024485 0.673984
Si Si7 0.581272 0.155435 0.798338
Si Si8 0.346706 0.689274 0.475530
O O1 0.802979 0.125568 0.695441
O O2 0.147609 0.181490 0.411945
O O3 0.228758 0.054901 0.449830
O O4 0.000000 0.000000 0.500000
O O5 0.649444 0.040597 0.194476
O O6 0.628792 0.233402 0.240001
O O7 0.655093 0.177841 0.101451
O O8 0.003031 0.165474 0.946316
O O9 0.682810 0.077802 0.978897
O O10 0.923400 0.945198 0.757248
O O11 0.500000 0.000000 0.000000
O O12 0.608571 0.881447 0.030836
O O13 0.854895 0.236403 0.376515
O O14 0.031244 0.170533 0.367517
O O15 0.666190 0.094859 0.555957
O O16 0.420013 0.264349 0.650878
O O17 0.559411 0.087339 0.747271
#
# Coordination Sequence:
#
# PCOD9239448 Si02
#       8
#     4   4   4   4   4   4   4   4
#     4   9  13  24  50  78 107 133 180 251 281 318
#     4  10  20  32  60  90 116 158 196 263 299 349
#     4  12  23  37  61  94 123 162 200 254 308 367
#     4  11  23  35  58  89 121 154 199 249 311 368
#     4  10  17  33  54  87 115 153 195 239 304 350
#     4  11  17  32  57  86 114 150 201 242 300 344
#     4  10  19  33  53  85 119 144 203 248 294 354
#     4  11  20  38  60  85 123 158 197 254 312 353
#
# _framework density 19.224101000000001
#
# number of rings (size 3 to 8) (size 9 to 14) (size 15 to 20)
#    0.000    1.500    8.750    1.500    0.000    1.000 
#    0.000    0.625    0.000    3.000    0.000    0.000 
#    0.000    0.000    0.000    0.000    0.000    0.000 
#
# Total GULP energy -178165.816566 kJ/mol
# GULP energy per Si atom -5567.681768 kJ/mol
# Density = 1.918035 g / cm^3
# Si number density = 19.224101 Si / 1000 Ang^3
#
#
#
# Elastic Constant Matrix: (Units=GPa)
#
#
# Indices 1 2 3 4 5 6 
#
# 1 20.6411 14.8955 3.5443 0.0000 4.7198 0.0000
# 2 14.8955 40.2738 16.9586 0.0000 -5.4496 0.0000
# 3 3.5443 16.9586 74.1102 0.0000 1.5894 0.0000
# 4 0.0000 0.0000 0.0000 34.6018 0.0000 -4.1948
# 5 4.7198 -5.4496 1.5894 0.0000 16.5480 0.0000
# 6 0.0000 0.0000 0.0000 -4.1948 0.0000 27.1938
#
#
#
# Elastic Compliance Matrix: (Units=1/GPa)
#
#
# Indices 1 2 3 4 5 6 
#
# 1 0.083531 -0.038229 0.005546 0.000000 -0.036947 0.000000
# 2 -0.038229 0.046611 -0.009420 0.000000 0.027158 0.000000
# 3 0.005546 -0.009420 0.015516 0.000000 -0.006174 0.000000
# 4 0.000000 0.000000 0.000000 0.029451 0.000000 0.004543
# 5 -0.036947 0.027158 -0.006174 0.000000 0.080505 0.000000
# 6 0.000000 0.000000 0.000000 0.004543 0.000000 0.037474
#
#
# Mechanical properties :
#
#
# Convention : Reuss Voigt Hill
#
# Bulk Modulus (GPa) = 16.27316 22.86909 19.57113
# Shear Modulus (GPa) = 12.56978 22.31049 17.44013
#
# Velocity S-wave (km/s) = 2.55983 3.41038 3.01525
# Velocity P-wave (km/s) = 4.14974 5.23731 4.72492
#
# Compressibility (1/GPa) = 0.06145086
#
# Stress axis : x y z
#
# Youngs Moduli (GPa) = 11.97158 21.45420 64.44862
#
# Poissons Ratio (x) = 0.82018 -0.35740
# Poissons Ratio (y) = 0.45766 0.60712
# Poissons Ratio (z) = -0.06639 0.20210
#
# Static dielectric constant tensor:
#      x y z
#    x 1.677840 0.000000 -0.002820 
#    y 0.000000 1.621800 0.000000 
#    z -0.002820 0.000000 1.731970 
# 
# From -- ./inp_files/74430.got.cif
#   From: 2010.05.17/outbox.cif.g08.bks.cpg/sg14_38_cif.got.tgz:74430.got - 2010.06.03 17:49:19.
