data_PCOD9239830
_publ_section_title
;
Structure prediction by ZEFSAII (Michael W. Deem and Ramdas Pophale) SiO2 
 PCOD9239830
Probable space group: P 21/C
;
_chemical_formula_sum "Si O2"
_cell_formula_units_Z 24
_cell_length_a 7.311959
_cell_length_b 13.759101
_cell_length_c 9.784395
_cell_angle_alpha 90.000000
_cell_angle_beta 80.381565
_cell_angle_gamma 90.000000
_cell_volume 970.530739
_symmetry_space_group_name_H-M "P 21/C"
_symmetry_group_IT_number 14
_symmetry_cell_setting 'monoclinic'
loop_
_space_group_symop_operation_xyz
x,y,z
-x,1/2+y,1/2-z
-x,-y,-z
x,1/2-y,1/2+z
loop_
_atom_site_type_symbol
_atom_site_label
_atom_site_fract_x
_atom_site_fract_y
_atom_site_fract_z
Si Si1 0.384795 0.844674 0.465915
Si Si2 0.103269 0.307580 0.871597
Si Si3 0.765297 0.530044 0.618429
Si Si4 0.045560 0.652171 0.408466
Si Si5 0.501718 0.694819 0.670220
Si Si6 0.221423 0.042009 0.575538
O O1 0.411316 0.753765 0.560168
O O2 0.361920 0.809196 0.314356
O O3 0.583387 0.900779 0.436796
O O4 0.254793 0.929354 0.538257
O O5 0.012936 0.319580 0.735906
O O6 0.304104 0.253776 0.825542
O O7 0.978041 0.240872 0.985501
O O8 0.133540 0.405441 0.955648
O O9 0.886710 0.578283 0.484828
O O10 0.569359 0.584792 0.634433
O O11 0.853478 0.551120 0.759501
O O12 0.770730 0.413881 0.608412
#
# Coordination Sequence:
#
# PCOD9239830 Si02
#       6
#     4   4   4   4   4   4
#     4   9  17  31  54  79 104 141 180 226 277 324
#     4  10  18  32  54  79 108 145 181 224 273 322
#     4   9  18  33  52  79 109 141 184 227 267 324
#     4  10  19  32  54  79 108 145 184 224 272 323
#     4   9  16  31  54  76 104 138 179 224 274 323
#     4   9  18  33  52  77 109 141 182 225 271 325
#
# _framework density 24.728736000000001
#
# number of rings (size 3 to 8) (size 9 to 14) (size 15 to 20)
#    0.000    2.667    0.000    5.000    0.000    0.667 
#    0.000    3.333    0.000   11.000    0.000    0.000 
#    0.000    0.000    0.000    0.000    0.000    0.000 
#
# Total GULP energy -134270.401457 kJ/mol
# GULP energy per Si atom -5594.600061 kJ/mol
# Density = 2.467245 g / cm^3
# Si number density = 24.728736 Si / 1000 Ang^3
#
#
#
# Elastic Constant Matrix: (Units=GPa)
#
#
# Indices 1 2 3 4 5 6 
#
# 1 59.6688 11.8700 20.9206 0.0000 1.2268 0.0000
# 2 11.8700 145.0083 84.8102 0.0000 21.5074 0.0000
# 3 20.9206 84.8102 179.2210 0.0000 1.8177 0.0000
# 4 0.0000 0.0000 0.0000 36.3443 0.0000 -6.1047
# 5 1.2268 21.5074 1.8177 0.0000 24.7203 0.0000
# 6 0.0000 0.0000 0.0000 -6.1047 0.0000 34.5491
#
#
#
# Elastic Compliance Matrix: (Units=1/GPa)
#
#
# Indices 1 2 3 4 5 6 
#
# 1 0.017491 -0.000224 -0.001930 0.000000 -0.000531 0.000000
# 2 -0.000224 0.011416 -0.005280 0.000000 -0.009533 0.000000
# 3 -0.001930 -0.005280 0.008262 0.000000 0.004082 0.000000
# 4 0.000000 0.000000 0.000000 0.028356 0.000000 0.005010
# 5 -0.000531 -0.009533 0.004082 0.000000 0.048473 0.000000
# 6 0.000000 0.000000 0.000000 0.005010 0.000000 0.029830
#
#
# Mechanical properties :
#
#
# Convention : Reuss Voigt Hill
#
# Bulk Modulus (GPa) = 44.83926 68.78887 56.81406
# Shear Modulus (GPa) = 30.09687 36.87589 33.48638
#
# Velocity S-wave (km/s) = 3.49245 3.86582 3.68387
# Velocity P-wave (km/s) = 5.86812 6.91403 6.41243
#
# Compressibility (1/GPa) = 0.02230188
#
# Stress axis : x y z
#
# Youngs Moduli (GPa) = 57.17070 87.59462 121.03621
#
# Poissons Ratio (x) = 0.01962 0.23365
# Poissons Ratio (y) = 0.01281 0.63901
# Poissons Ratio (z) = 0.11036 0.46246
#
# Static dielectric constant tensor:
#      x y z
#    x 1.994860 0.000000 -0.034210 
#    y 0.000000 1.991370 0.000000 
#    z -0.034210 0.000000 1.908980 
# 
# From -- ./inp_files/8412.got.cif
#   From: 2010.05.17/outbox.cif.g08.bks.cpg/sg14_5_cif.got.tgz:8412.got - 2010.06.03 17:49:19.
