data_PCOD9239089
_publ_section_title
;
Structure prediction by ZEFSAII (Michael W. Deem and Ramdas Pophale) SiO2 
 PCOD9239089
Probable space group: P 21/C
;
_chemical_formula_sum "Si O2"
_cell_formula_units_Z 32
_cell_length_a 20.275085
_cell_length_b 13.465919
_cell_length_c 5.204477
_cell_angle_alpha 90.000000
_cell_angle_beta 104.230880
_cell_angle_gamma 90.000000
_cell_volume 1377.335724
_symmetry_space_group_name_H-M "P 21/C"
_symmetry_group_IT_number 14
_symmetry_cell_setting 'monoclinic'
loop_
_space_group_symop_operation_xyz
x,y,z
-x,1/2+y,1/2-z
-x,-y,-z
x,1/2-y,1/2+z
loop_
_atom_site_type_symbol
_atom_site_label
_atom_site_fract_x
_atom_site_fract_y
_atom_site_fract_z
Si Si1 0.950808 0.609918 0.193154
Si Si2 0.630290 0.136598 0.867841
Si Si3 0.172639 0.693270 0.748828
Si Si4 0.481426 0.184516 0.877323
Si Si5 0.805268 0.815806 0.410630
Si Si6 0.023791 0.623426 0.763309
Si Si7 0.339000 0.318045 0.118497
Si Si8 0.313573 0.867593 0.578882
O O1 0.873714 0.624735 0.032545
O O2 0.968533 0.494660 0.216014
O O3 0.966511 0.646142 0.495491
O O4 0.001157 0.655208 0.026081
O O5 0.552945 0.133668 0.886484
O O6 0.658289 0.251796 0.862406
O O7 0.640208 0.088827 0.600983
O O8 0.676249 0.089359 0.131536
O O9 0.179823 0.713250 0.452682
O O10 0.097408 0.657576 0.740245
O O11 0.236696 0.629889 0.905530
O O12 0.481374 0.275199 0.668410
O O13 0.410717 0.129569 0.746955
O O14 0.806097 0.773582 0.122297
O O15 0.733393 0.869365 0.399541
O O16 0.339230 0.228130 0.332137
#
# Coordination Sequence:
#
# PCOD9239089 Si02
#       8
#     4   4   4   4   4   4   4   4
#     4  10  21  40  54  69  97 123 160 200 232 292
#     4  10  14  23  36  54  83 126 147 173 224 270
#     4  12  21  32  48  71 102 126 153 202 237 278
#     4  10  14  20  34  52  82 120 149 172 213 277
#     4  10  19  32  53  75  97 124 152 198 248 284
#     4  10  23  37  53  72  93 128 161 195 240 280
#     4   8  16  25  36  62  91 115 143 187 227 271
#     4  10  16  25  36  57  87 120 147 183 225 268
#
# _framework density 23.233263000000001
#
# number of rings (size 3 to 8) (size 9 to 14) (size 15 to 20)
#    0.000    2.000    5.000    1.500    0.000    3.000 
#    0.000    0.000    0.000    0.000    0.000    0.000 
#    0.000    2.000    0.000    0.000    0.000    7.250 
#
# Total GULP energy -178507.079665 kJ/mol
# GULP energy per Si atom -5578.346240 kJ/mol
# Density = 2.318038 g / cm^3
# Si number density = 23.233263 Si / 1000 Ang^3
#
#
#
# Elastic Constant Matrix: (Units=GPa)
#
#
# Indices 1 2 3 4 5 6 
#
# 1 112.7202 -4.2966 -2.0863 0.0000 8.4089 0.0000
# 2 -4.2966 24.2702 1.5842 0.0000 8.1204 0.0000
# 3 -2.0863 1.5842 102.5344 0.0000 -10.5201 0.0000
# 4 0.0000 0.0000 0.0000 1.0079 0.0000 1.9865
# 5 8.4089 8.1204 -10.5201 0.0000 41.4444 0.0000
# 6 0.0000 0.0000 0.0000 1.9865 0.0000 5.7918
#
#
#
# Elastic Compliance Matrix: (Units=1/GPa)
#
#
# Indices 1 2 3 4 5 6 
#
# 1 0.009137 0.002410 -0.000092 0.000000 -0.002349 0.000000
# 2 0.002410 0.044989 -0.001643 0.000000 -0.009721 0.000000
# 3 -0.000092 -0.001643 0.010074 0.000000 0.002898 0.000000
# 4 0.000000 0.000000 0.000000 3.061906 0.000000 -1.050184
# 5 -0.002349 -0.009721 0.002898 0.000000 0.027246 0.000000
# 6 0.000000 0.000000 0.000000 -1.050184 0.000000 0.532854
#
#
# Mechanical properties :
#
#
# Convention : Reuss Voigt Hill
#
# Bulk Modulus (GPa) = 15.25616 25.54748 20.40182
# Shear Modulus (GPa) = 1.34891 25.93706 13.64298
#
# Velocity S-wave (km/s) = 0.76279 3.34485 2.42589
# Velocity P-wave (km/s) = 2.71230 5.09287 4.08006
#
# Compressibility (1/GPa) = 0.06554728
#
# Stress axis : x y z
#
# Youngs Moduli (GPa) = 109.44593 22.22762 99.26878
#
# Poissons Ratio (x) = -0.05356 0.00917
# Poissons Ratio (y) = -0.26372 0.16314
# Poissons Ratio (z) = 0.01011 0.03653
#
# Static dielectric constant tensor:
#      x y z
#    x 1.898060 0.000000 0.000200 
#    y 0.000000 1.807020 0.000000 
#    z 0.000200 0.000000 1.891190 
# 
# From -- ./inp_files/4148.got.cif
#   From: 2010.05.17/outbox.cif.g08.bks.cpg/sg14_3_cif.got.tgz:4148.got - 2010.06.03 17:49:19.
