data_PCOD9239396
_publ_section_title
;
Structure prediction by ZEFSAII (Michael W. Deem and Ramdas Pophale) SiO2 
 PCOD9239396
Probable space group: P 21/C
;
_chemical_formula_sum "Si O2"
_cell_formula_units_Z 28
_cell_length_a 23.015334
_cell_length_b 7.919612
_cell_length_c 24.399223
_cell_angle_alpha 90.000000
_cell_angle_beta 18.315569
_cell_angle_gamma 90.000000
_cell_volume 1397.568381
_symmetry_space_group_name_H-M "P 21/C"
_symmetry_group_IT_number 14
_symmetry_cell_setting 'monoclinic'
loop_
_space_group_symop_operation_xyz
x,y,z
-x,1/2+y,1/2-z
-x,-y,-z
x,1/2-y,1/2+z
loop_
_atom_site_type_symbol
_atom_site_label
_atom_site_fract_x
_atom_site_fract_y
_atom_site_fract_z
Si Si1 0.431594 0.192201 0.261948
Si Si2 0.109983 0.037564 0.503376
Si Si3 0.583532 0.123961 0.845474
Si Si4 0.005702 0.998368 0.276202
Si Si5 0.614015 0.825044 0.078400
Si Si6 0.301312 0.669632 0.638621
Si Si7 0.229680 0.847173 0.597855
O O1 0.237005 0.200439 0.404227
O O2 0.409791 0.219675 0.345656
O O3 0.510579 0.004838 0.180978
O O4 0.579484 0.319975 0.104908
O O5 0.225410 0.937749 0.354139
O O6 0.101013 0.953127 0.572203
O O7 0.900034 0.080337 0.675936
O O8 0.477862 0.238410 0.895471
O O9 0.624721 0.205822 0.867097
O O10 0.446357 0.963125 0.980749
O O11 0.101633 0.818113 0.200561
O O12 0.882222 0.006495 0.332255
O O13 0.175268 0.125229 0.118340
O O14 0.272200 0.827853 0.624034
#
# Coordination Sequence:
#
# PCOD9239396 Si02
#       7
#     4   4   4   4   4   4   4
#     4  10  19  30  51  71 106 126 165 207 250 297
#     4  10  17  32  46  76  95 132 162 206 248 290
#     4  10  18  30  47  70 101 130 164 203 241 291
#     4  10  19  30  51  71 106 126 165 207 250 297
#     4  10  18  33  47  78  99 132 163 206 252 294
#     4  10  18  30  47  70 101 130 164 203 241 291
#     4  10  18  33  47  78  99 132 163 206 252 294
#
# _framework density 20.034797999999999
#
# number of rings (size 3 to 8) (size 9 to 14) (size 15 to 20)
#    0.000    2.000    5.714    3.857    0.000    0.000 
#    0.000    0.000    0.000    0.000    0.000   33.000 
#    0.000    0.000    0.000    0.000    0.000    0.000 
#
# Total GULP energy -156102.216440 kJ/mol
# GULP energy per Si atom -5575.079159 kJ/mol
# Density = 1.998920 g / cm^3
# Si number density = 20.034798 Si / 1000 Ang^3
#
#
#
# Elastic Constant Matrix: (Units=GPa)
#
#
# Indices 1 2 3 4 5 6 
#
# 1 98.9942 -8.6246 6.7016 0.0000 8.3599 0.0000
# 2 -8.6246 18.3454 -3.0436 0.0000 3.0152 0.0000
# 3 6.7016 -3.0436 115.0979 0.0000 14.5490 0.0000
# 4 0.0000 0.0000 0.0000 13.5879 0.0000 0.0100
# 5 8.3599 3.0152 14.5490 0.0000 33.2705 0.0000
# 6 0.0000 0.0000 0.0000 0.0100 0.0000 24.8317
#
#
#
# Elastic Compliance Matrix: (Units=1/GPa)
#
#
# Indices 1 2 3 4 5 6 
#
# 1 0.010868 0.005623 -0.000079 0.000000 -0.003206 0.000000
# 2 0.005623 0.058784 0.002201 0.000000 -0.007703 0.000000
# 3 -0.000079 0.002201 0.009287 0.000000 -0.004241 0.000000
# 4 0.000000 0.000000 0.000000 0.073595 0.000000 -0.000030
# 5 -0.003206 -0.007703 -0.004241 0.000000 0.033415 0.000000
# 6 0.000000 0.000000 0.000000 -0.000030 0.000000 0.040271
#
#
# Mechanical properties :
#
#
# Convention : Reuss Voigt Hill
#
# Bulk Modulus (GPa) = 10.59003 24.72270 17.65637
# Shear Modulus (GPa) = 20.64359 30.16497 25.40428
#
# Velocity S-wave (km/s) = 3.21345 3.88445 3.56477
# Velocity P-wave (km/s) = 4.36642 5.69959 5.07695
#
# Compressibility (1/GPa) = 0.09442846
#
# Stress axis : x y z
#
# Youngs Moduli (GPa) = 92.01713 17.01136 107.67618
#
# Poissons Ratio (x) = -0.09565 0.00849
# Poissons Ratio (y) = -0.51741 -0.23696
# Poissons Ratio (z) = 0.00726 -0.03744
#
# Static dielectric constant tensor:
#      x y z
#    x 1.753940 0.000000 -0.012600 
#    y 0.000000 1.737930 0.000000 
#    z -0.012600 0.000000 1.752300 
# 
# From -- ./inp_files/74612.got.cif
#   From: 2010.05.17/outbox.cif.g08.bks.cpg/sg14_38_cif.got.tgz:74612.got - 2010.06.03 17:49:19.
