data_PCOD9239083
_publ_section_title
;
Structure prediction by ZEFSAII (Michael W. Deem and Ramdas Pophale) SiO2 
 PCOD9239083
Probable space group: P 2/C
;
_chemical_formula_sum "Si O2"
_cell_formula_units_Z 20
_cell_length_a 15.000000
_cell_length_b 6.000000
_cell_length_c 21.000000
_cell_angle_alpha 90.000000
_cell_angle_beta 30.000000
_cell_angle_gamma 90.000000
_cell_volume 945.000000
_symmetry_space_group_name_H-M "P 2/C"
_symmetry_group_IT_number 13
_symmetry_cell_setting 'monoclinic'
loop_
_space_group_symop_operation_xyz
x,y,z
-x,y,1/2-z
-x,-y,-z
x,-y,1/2+z
loop_
_atom_site_type_symbol
_atom_site_label
_atom_site_fract_x
_atom_site_fract_y
_atom_site_fract_z
Si Si1 0.500000 0.924270 0.250000
Si Si2 0.304313 0.430759 0.229920
Si Si3 0.311097 0.596964 0.470284
Si Si4 0.000000 0.146036 0.250000
Si Si5 0.845137 0.072180 0.718077
Si Si6 0.820459 0.733802 0.559941
O O1 0.416971 0.777575 0.359525
O O2 0.338931 0.088286 0.330958
O O3 0.520072 0.462332 0.103065
O O4 0.247846 0.673755 0.230386
O O5 0.200127 0.418272 0.363111
O O6 0.254783 0.173648 0.234778
O O7 0.216126 0.429443 0.478320
O O8 0.160768 0.707645 0.612601
O O9 0.080893 0.988538 0.256510
O O10 0.007206 0.118232 0.567448
#
# Coordination Sequence:
#
# PCOD9239083 Si02
#       6
#     2   4   4   2   4   4
#     4  12  20  46  80 112 146 204 262 310 374 454
#     4  12  26  48  79 119 151 197 262 331 378 446
#     4  12  26  48  81 111 159 204 259 315 389 472
#     4  12  30  54  72 110 160 220 256 304 402 474
#     4  12  29  47  77 111 161 203 254 325 385 460
#     4  12  24  46  80 117 154 202 260 323 390 456
#
# _framework density 21.164021000000002
#
# number of rings (size 3 to 8) (size 9 to 14) (size 15 to 20)
#    0.000    0.000    6.000    3.600    0.000    4.800 
#    0.000    0.000    0.000    0.000    0.000    0.000 
#    0.000    0.000    0.000    0.000    0.000    0.000 
#
# Total GULP energy -111455.635012 kJ/mol
# GULP energy per Si atom -5572.781751 kJ/mol
# Density = 2.111585 g / cm^3
# Si number density = 21.164021 Si / 1000 Ang^3
#
#
#
# Elastic Constant Matrix: (Units=GPa)
#
#
# Indices 1 2 3 4 5 6 
#
# 1 122.8685 59.3317 18.4652 0.0000 14.6541 0.0000
# 2 59.3317 181.0361 39.1134 0.0000 -0.1457 0.0000
# 3 18.4652 39.1134 129.3530 0.0000 11.8952 0.0000
# 4 0.0000 0.0000 0.0000 58.3555 0.0000 -3.3920
# 5 14.6541 -0.1457 11.8952 0.0000 36.3146 0.0000
# 6 0.0000 0.0000 0.0000 -3.3920 0.0000 55.6559
#
#
#
# Elastic Compliance Matrix: (Units=1/GPa)
#
#
# Indices 1 2 3 4 5 6 
#
# 1 0.010260 -0.003350 -0.000072 0.000000 -0.004130 0.000000
# 2 -0.003350 0.007018 -0.001826 0.000000 0.001978 0.000000
# 3 -0.000072 -0.001826 0.008549 0.000000 -0.002779 0.000000
# 4 0.000000 0.000000 0.000000 0.017197 0.000000 0.001048
# 5 -0.004130 0.001978 -0.002779 0.000000 0.030122 0.000000
# 6 0.000000 0.000000 0.000000 0.001048 0.000000 0.018031
#
#
# Mechanical properties :
#
#
# Convention : Reuss Voigt Hill
#
# Bulk Modulus (GPa) = 65.22802 74.11982 69.67392
# Shear Modulus (GPa) = 46.82401 51.15501 48.98951
#
# Velocity S-wave (km/s) = 4.70876 4.92171 4.81641
# Velocity P-wave (km/s) = 7.77498 8.20946 7.99517
#
# Compressibility (1/GPa) = 0.01533084
#
# Stress axis : x y z
#
# Youngs Moduli (GPa) = 97.46577 142.49423 116.97858
#
# Poissons Ratio (x) = 0.47741 0.00839
# Poissons Ratio (y) = 0.32655 0.21356
# Poissons Ratio (z) = 0.00699 0.26015
#
# Static dielectric constant tensor:
#      x y z
#    x 1.879350 0.000000 -0.036440 
#    y 0.000000 1.827690 0.000000 
#    z -0.036440 0.000000 1.768840 
# 
# From -- ./inp_files/79225.got.cif
#   From: 2010.05.17/outbox.ucp.g08.bks.cvg/sg13_40_cif.got.tgz:79225.got - 2010.06.11 12:23:55.
