data_PCOD9239019
_publ_section_title
;
Structure prediction by ZEFSAII (Michael W. Deem and Ramdas Pophale) SiO2 
 PCOD9239019
Probable space group: P 2/C
;
_chemical_formula_sum "Si O2"
_cell_formula_units_Z 20
_cell_length_a 12.000000
_cell_length_b 9.000000
_cell_length_c 18.000000
_cell_angle_alpha 90.000000
_cell_angle_beta 150.000000
_cell_angle_gamma 90.000000
_cell_volume 972.000000
_symmetry_space_group_name_H-M "P 2/C"
_symmetry_group_IT_number 13
_symmetry_cell_setting 'monoclinic'
loop_
_space_group_symop_operation_xyz
x,y,z
-x,y,1/2-z
-x,-y,-z
x,-y,1/2+z
loop_
_atom_site_type_symbol
_atom_site_label
_atom_site_fract_x
_atom_site_fract_y
_atom_site_fract_z
Si Si1 0.235610 0.670822 0.588037
Si Si2 0.952074 0.355680 0.067526
Si Si3 0.763373 0.138217 0.070291
Si Si4 0.597234 0.645925 0.589354
Si Si5 0.800333 0.195786 0.576049
O O1 0.500000 0.696160 0.750000
O O2 0.185876 0.500327 0.535305
O O3 0.118106 0.774008 0.459256
O O4 0.098842 0.698481 0.583710
O O5 0.799164 0.231270 0.016334
O O6 0.151116 0.388927 0.240777
O O7 0.600069 0.225576 0.029629
O O8 0.000000 0.134333 0.250000
O O9 0.704608 0.968919 0.025722
O O10 0.500000 0.500000 0.500000
O O11 0.410985 0.695919 0.539686
O O12 0.000000 0.220124 0.750000
#
# Coordination Sequence:
#
# PCOD9239019 Si02
#       5
#     4   4   4   4   4
#     4  11  22  40  64  89 124 158 200 250 301 358
#     4  10  22  40  61  87 124 158 202 250 301 354
#     4   9  21  38  59  89 122 157 200 249 299 357
#     4  11  20  36  65  91 120 158 204 252 294 352
#     4  11  22  39  61  89 122 160 203 246 299 360
#
# _framework density 20.576132000000001
#
# number of rings (size 3 to 8) (size 9 to 14) (size 15 to 20)
#    0.000    1.600    2.000    3.000    0.000    2.400 
#    0.000    1.000    0.000    0.000    0.000    0.000 
#    0.000    0.000    0.000    0.000    0.000    0.000 
#
# Total GULP energy -111445.607601 kJ/mol
# GULP energy per Si atom -5572.280380 kJ/mol
# Density = 2.052930 g / cm^3
# Si number density = 20.576132 Si / 1000 Ang^3
#
#
#
# Elastic Constant Matrix: (Units=GPa)
#
#
# Indices 1 2 3 4 5 6 
#
# 1 70.7983 -1.3753 9.8942 0.0000 -19.8345 0.0000
# 2 -1.3753 -44.9209 -21.7001 0.0000 -28.3035 0.0000
# 3 9.8942 -21.7001 49.8837 0.0000 -14.5735 0.0000
# 4 0.0000 0.0000 0.0000 -319.0018 0.0000 -114.8256
# 5 -19.8345 -28.3035 -14.5735 0.0000 22.2236 0.0000
# 6 0.0000 0.0000 0.0000 -114.8256 0.0000 -40.3879
#
#
#
# Elastic Compliance Matrix: (Units=1/GPa)
#
#
# Indices 1 2 3 4 5 6 
#
# 1 0.016623 -0.004081 -0.002791 0.000000 0.007809 0.000000
# 2 -0.004081 -0.007252 -0.007555 0.000000 -0.017832 0.000000
# 3 -0.002791 -0.007555 0.017040 0.000000 -0.000938 0.000000
# 4 0.000000 0.000000 0.000000 0.134127 0.000000 -0.381334
# 5 0.007809 -0.017832 -0.000938 0.000000 0.028641 0.000000
# 6 0.000000 0.000000 0.000000 -0.381334 0.000000 1.059399
#
#
# Mechanical properties :
#
#
# Convention : Reuss Voigt Hill
#
# Bulk Modulus (GPa) = -409.54024 5.48874 -202.02575
# Shear Modulus (GPa) = 3.91660 -61.50372 -28.79356
#
# Velocity S-wave (km/s) = 1.38116 -5.47318 -3.74487
# Velocity P-wave (km/s) = 14.03300 6.10472 10.82111
#
# Compressibility (1/GPa) = -0.00244176
#
# Stress axis : x y z
#
# Youngs Moduli (GPa) = 60.15754 -137.89946 58.68657
#
# Poissons Ratio (x) = -0.56273 0.16379
# Poissons Ratio (y) = 0.24549 0.44336
# Poissons Ratio (z) = 0.16790 -1.04179
#
# Static dielectric constant tensor:
#      x y z
#    x 1.740600 0.000000 -0.144200 
#    y 0.000000 1.717630 0.000000 
#    z -0.144200 0.000000 1.723670 
# 
# From -- ./inp_files/28278.got.cif
#   From: 2010.05.17/outbox.ucp.g08.bks.cvg/sg13_15_cif.got.tgz:28278.got - 2010.06.11 12:23:55.
