data_PCOD9239101
_publ_section_title
;
Structure prediction by ZEFSAII (Michael W. Deem and Ramdas Pophale) SiO2 
 PCOD9239101
Probable space group: P 21/C
;
_chemical_formula_sum "Si O2"
_cell_formula_units_Z 30
_cell_length_a 6.772004
_cell_length_b 26.698322
_cell_length_c 8.912802
_cell_angle_alpha 90.000000
_cell_angle_beta 54.175869
_cell_angle_gamma 90.000000
_cell_volume 1306.587450
_symmetry_space_group_name_H-M "P 21/C"
_symmetry_group_IT_number 14
_symmetry_cell_setting 'monoclinic'
loop_
_space_group_symop_operation_xyz
x,y,z
-x,1/2+y,1/2-z
-x,-y,-z
x,1/2-y,1/2+z
loop_
_atom_site_type_symbol
_atom_site_label
_atom_site_fract_x
_atom_site_fract_y
_atom_site_fract_z
Si Si1 0.822889 0.216142 0.041671
Si Si2 0.368648 0.344490 0.787654
Si Si3 0.028966 0.866249 0.791676
Si Si4 0.927748 0.182638 0.660021
Si Si5 0.000000 0.500000 0.000000
Si Si6 0.488592 0.950186 0.846535
Si Si7 0.721590 0.949826 0.061509
Si Si8 0.670602 0.099708 0.601209
O O1 0.537720 0.203457 0.190050
O O2 0.952100 0.177501 0.096848
O O3 0.886583 0.271793 0.062949
O O4 0.893730 0.203267 0.840997
O O5 0.183172 0.352013 0.732020
O O6 0.533525 0.394552 0.708060
O O7 0.195497 0.339201 0.008127
O O8 0.266191 0.873509 0.582776
O O9 0.948173 0.918287 0.903577
O O10 0.736503 0.139360 0.701978
O O11 0.736341 0.526166 0.168400
O O12 0.856207 0.446930 0.031307
O O13 0.275198 0.990639 0.914376
O O14 0.529787 0.945870 0.007238
O O15 0.598258 0.922030 0.256538
#
# Coordination Sequence:
#
# PCOD9239101 Si02
#       8
#     4   4   4   4   2   4   4   4
#     4  12  27  43  69  95 129 172 218 272 328 386
#     4  10  22  44  65  94 134 165 216 270 316 391
#     4  10  21  42  60  96 132 166 217 265 321 381
#     4  11  23  42  64  95 124 171 215 267 327 379
#     4  10  14  30  64  94 124 170 212 256 312 390
#     4   9  16  31  57  95 126 170 210 259 313 376
#     4   9  17  30  58  92 126 165 214 255 311 379
#     4  10  19  34  64  94 126 171 217 257 323 381
#
# _framework density 22.960574999999999
#
# number of rings (size 3 to 8) (size 9 to 14) (size 15 to 20)
#    0.000    1.867    4.000    3.200    0.000    4.267 
#    0.000    0.667    0.000    2.400    0.000    0.000 
#    0.000    0.000    0.000    0.000    0.000    0.000 
#
# Total GULP energy -167229.456142 kJ/mol
# GULP energy per Si atom -5574.315205 kJ/mol
# Density = 2.290832 g / cm^3
# Si number density = 22.960575 Si / 1000 Ang^3
#
#
#
# Elastic Constant Matrix: (Units=GPa)
#
#
# Indices 1 2 3 4 5 6 
#
# 1 47.5736 5.5452 7.8837 0.0000 7.9288 0.0000
# 2 5.5452 110.4447 7.4794 0.0000 14.5343 0.0000
# 3 7.8837 7.4794 67.8583 0.0000 8.1000 0.0000
# 4 0.0000 0.0000 0.0000 38.7011 0.0000 -4.6592
# 5 7.9288 14.5343 8.1000 0.0000 20.9479 0.0000
# 6 0.0000 0.0000 0.0000 -4.6592 0.0000 25.2465
#
#
#
# Elastic Compliance Matrix: (Units=1/GPa)
#
#
# Indices 1 2 3 4 5 6 
#
# 1 0.022617 0.000021 -0.001684 0.000000 -0.007924 0.000000
# 2 0.000021 0.009969 -0.000288 0.000000 -0.006814 0.000000
# 3 -0.001684 -0.000288 0.015583 0.000000 -0.005188 0.000000
# 4 0.000000 0.000000 0.000000 0.026426 0.000000 0.004877
# 5 -0.007924 -0.006814 -0.005188 0.000000 0.057471 0.000000
# 6 0.000000 0.000000 0.000000 0.004877 0.000000 0.040509
#
#
# Mechanical properties :
#
#
# Convention : Reuss Voigt Hill
#
# Bulk Modulus (GPa) = 22.58943 29.74370 26.16657
# Shear Modulus (GPa) = 26.14596 30.64365 28.39480
#
# Velocity S-wave (km/s) = 3.37817 3.65721 3.52046
# Velocity P-wave (km/s) = 5.00757 5.55121 5.28638
#
# Compressibility (1/GPa) = 0.04426850
#
# Stress axis : x y z
#
# Youngs Moduli (GPa) = 44.21381 100.30675 64.17123
#
# Poissons Ratio (x) = -0.00214 0.10807
# Poissons Ratio (y) = -0.00094 0.01848
# Poissons Ratio (z) = 0.07446 0.02889
#
# Static dielectric constant tensor:
#      x y z
#    x 1.880410 0.000000 0.002700 
#    y 0.000000 1.847530 0.000000 
#    z 0.002700 0.000000 1.853690 
# 
# From -- ./inp_files/11044.got.cif
#   From: 2010.05.17/outbox.cif.g08.bks.cpg/sg14_6_cif.got.tgz:11044.got - 2010.06.03 17:49:19.
