data_PCOD9239485
_publ_section_title
;
Structure prediction by ZEFSAII (Michael W. Deem and Ramdas Pophale) SiO2 
 PCOD9239485
Probable space group: P 21/C
;
_chemical_formula_sum "Si O2"
_cell_formula_units_Z 32
_cell_length_a 15.496454
_cell_length_b 17.102766
_cell_length_c 9.391979
_cell_angle_alpha 90.000000
_cell_angle_beta 140.154946
_cell_angle_gamma 90.000000
_cell_volume 1594.849710
_symmetry_space_group_name_H-M "P 21/C"
_symmetry_group_IT_number 14
_symmetry_cell_setting 'monoclinic'
loop_
_space_group_symop_operation_xyz
x,y,z
-x,1/2+y,1/2-z
-x,-y,-z
x,1/2-y,1/2+z
loop_
_atom_site_type_symbol
_atom_site_label
_atom_site_fract_x
_atom_site_fract_y
_atom_site_fract_z
Si Si1 0.431328 0.697666 0.903604
Si Si2 0.782925 0.363609 0.152996
Si Si3 0.782582 0.756618 0.526661
Si Si4 0.456229 0.116593 0.711174
Si Si5 0.746829 0.973183 0.744585
Si Si6 0.442056 0.879955 0.859930
Si Si7 0.641240 0.895737 0.866931
Si Si8 0.922997 0.819015 0.952846
O O1 0.305963 0.688687 0.851040
O O2 0.433713 0.654009 0.755378
O O3 0.461889 0.786807 0.907130
O O4 0.549294 0.654728 0.140818
O O5 0.801217 0.444331 0.262790
O O6 0.924787 0.323614 0.302845
O O7 0.699084 0.383997 0.903777
O O8 0.656377 0.815552 0.393098
O O9 0.752199 0.669090 0.545683
O O10 0.828952 0.739249 0.425196
O O11 0.906482 0.792770 0.769936
O O12 0.371973 0.052521 0.515231
O O13 0.527768 0.087972 0.945121
O O14 0.690638 0.968114 0.834843
O O15 0.856885 0.904724 0.880109
O O16 0.552813 0.912230 0.891336
#
# Coordination Sequence:
#
# PCOD9239485 Si02
#       8
#     4   4   4   4   4   4   4   4
#     4  10  19  33  55  83 116 143 175 229 286 336
#     4  11  24  37  52  79 122 154 177 214 280 351
#     4  10  17  34  57  84 101 138 192 239 267 303
#     4  10  18  33  60  84 110 138 188 238 278 319
#     4   9  21  39  57  79 107 156 192 220 265 325
#     4  11  19  32  56  86 115 139 175 237 286 323
#     4   9  17  32  60  82 108 138 187 232 273 327
#     4  10  22  36  59  79 111 147 191 233 257 326
#
# _framework density 20.064585999999998
#
# number of rings (size 3 to 8) (size 9 to 14) (size 15 to 20)
#    0.000    2.000    2.500    2.625    1.750    5.000 
#    0.000    0.000    0.000    0.000    0.000    8.750 
#    0.000    0.000    0.000    0.000    0.000    0.000 
#
# Total GULP energy -178490.520914 kJ/mol
# GULP energy per Si atom -5577.828779 kJ/mol
# Density = 2.001892 g / cm^3
# Si number density = 20.064586 Si / 1000 Ang^3
#
#
#
# Elastic Constant Matrix: (Units=GPa)
#
#
# Indices 1 2 3 4 5 6 
#
# 1 72.2169 12.7155 37.0394 0.0000 -8.4826 0.0000
# 2 12.7155 51.1233 -6.5859 0.0000 -10.4214 0.0000
# 3 37.0394 -6.5859 76.6684 0.0000 -3.2654 0.0000
# 4 0.0000 0.0000 0.0000 12.2541 0.0000 1.4849
# 5 -8.4826 -10.4214 -3.2654 0.0000 25.6238 0.0000
# 6 0.0000 0.0000 0.0000 1.4849 0.0000 9.3749
#
#
#
# Elastic Compliance Matrix: (Units=1/GPa)
#
#
# Indices 1 2 3 4 5 6 
#
# 1 0.020498 -0.005784 -0.010267 0.000000 0.003125 0.000000
# 2 -0.005784 0.023341 0.005150 0.000000 0.008235 0.000000
# 3 -0.010267 0.005150 0.018490 0.000000 0.001052 0.000000
# 4 0.000000 0.000000 0.000000 0.083202 0.000000 -0.013179
# 5 0.003125 0.008235 0.001052 0.000000 0.043544 0.000000
# 6 0.000000 0.000000 0.000000 -0.013179 0.000000 0.108756
#
#
# Mechanical properties :
#
#
# Convention : Reuss Voigt Hill
#
# Bulk Modulus (GPa) = 24.67392 31.81631 28.24511
# Shear Modulus (GPa) = 15.00858 19.90652 17.45755
#
# Velocity S-wave (km/s) = 2.73795 3.15321 2.95289
# Velocity P-wave (km/s) = 4.72431 5.39892 5.07284
#
# Compressibility (1/GPa) = 0.04052863
#
# Stress axis : x y z
#
# Youngs Moduli (GPa) = 48.78429 42.84269 54.08215
#
# Poissons Ratio (x) = 0.24780 0.55525
# Poissons Ratio (y) = 0.28217 -0.27853
# Poissons Ratio (z) = 0.50086 -0.22064
#
# Static dielectric constant tensor:
#      x y z
#    x 1.738520 0.000000 -0.000110 
#    y 0.000000 1.728610 0.000000 
#    z -0.000110 0.000000 1.722900 
# 
# From -- ./inp_files/13781.got.cif
#   From: 2010.05.17/outbox.cif.g08.bks.cpg/sg14_7_cif.got.tgz:13781.got - 2010.06.03 17:49:19.
