data_PCOD9239785
_publ_section_title
;
Structure prediction by ZEFSAII (Michael W. Deem and Ramdas Pophale) SiO2 
 PCOD9239785
Probable space group: P 21/C
;
_chemical_formula_sum "Si O2"
_cell_formula_units_Z 32
_cell_length_a 20.256072
_cell_length_b 11.300619
_cell_length_c 16.101993
_cell_angle_alpha 90.000000
_cell_angle_beta 28.129579
_cell_angle_gamma 90.000000
_cell_volume 1737.755207
_symmetry_space_group_name_H-M "P 21/C"
_symmetry_group_IT_number 14
_symmetry_cell_setting 'monoclinic'
loop_
_space_group_symop_operation_xyz
x,y,z
-x,1/2+y,1/2-z
-x,-y,-z
x,1/2-y,1/2+z
loop_
_atom_site_type_symbol
_atom_site_label
_atom_site_fract_x
_atom_site_fract_y
_atom_site_fract_z
Si Si1 0.261431 0.687017 0.959487
Si Si2 0.071363 0.010079 0.733612
Si Si3 0.986847 0.258623 0.386371
Si Si4 0.804062 0.614278 0.455423
Si Si5 0.343018 0.908594 0.972822
Si Si6 0.415210 0.005642 0.178813
Si Si7 0.931342 0.377620 0.109532
Si Si8 0.830708 0.831623 0.530015
O O1 0.355410 0.613158 0.789423
O O2 0.189065 0.591781 0.102815
O O3 0.131812 0.747299 0.053511
O O4 0.341134 0.789266 0.920508
O O5 0.112021 0.091151 0.609882
O O6 0.045059 0.108432 0.832774
O O7 0.924503 0.952777 0.872743
O O8 0.918895 0.205323 0.543667
O O9 0.114782 0.176339 0.211999
O O10 0.692150 0.521799 0.546039
O O11 0.759958 0.717629 0.567137
O O12 0.212851 0.899705 0.181949
O O13 0.485905 0.931555 0.862981
O O14 0.283035 0.085837 0.302237
O O15 0.500000 0.000000 0.000000
O O16 0.000000 0.500000 0.000000
O O17 0.039883 0.314720 0.052242
#
# Coordination Sequence:
#
# PCOD9239785 Si02
#       8
#     4   4   4   4   4   4   4   4
#     4  10  21  39  58  86 120 154 204 243 291 363
#     4   9  16  35  56  87 115 148 182 246 285 343
#     4  10  18  31  61  88 119 147 188 245 291 341
#     4  10  18  34  57  82 112 147 194 227 284 345
#     4  12  22  37  62  84 113 162 196 242 296 355
#     4  11  25  41  60  84 118 150 201 252 296 338
#     4  12  19  34  60  93 117 149 195 239 299 353
#     4  10  21  36  56  86 114 146 191 245 284 347
#
# _framework density 18.414560000000002
#
# number of rings (size 3 to 8) (size 9 to 14) (size 15 to 20)
#    0.000    1.500    3.750    4.500    1.750    0.000 
#    0.000    2.500    0.000    0.750    0.000    0.000 
#    0.000    0.000    0.000    0.000    0.000    0.000 
#
# Total GULP energy -178480.812301 kJ/mol
# GULP energy per Si atom -5577.525384 kJ/mol
# Density = 1.837265 g / cm^3
# Si number density = 18.414560 Si / 1000 Ang^3
#
#
#
# Elastic Constant Matrix: (Units=GPa)
#
#
# Indices 1 2 3 4 5 6 
#
# 1 35.4987 15.5465 -12.9352 0.0000 -12.6142 0.0000
# 2 15.5465 85.5750 8.2729 0.0000 3.6093 0.0000
# 3 -12.9352 8.2729 48.8121 0.0000 2.3897 0.0000
# 4 0.0000 0.0000 0.0000 17.3084 0.0000 -1.4171
# 5 -12.6142 3.6093 2.3897 0.0000 25.2089 0.0000
# 6 0.0000 0.0000 0.0000 -1.4171 0.0000 28.7467
#
#
#
# Elastic Compliance Matrix: (Units=1/GPa)
#
#
# Indices 1 2 3 4 5 6 
#
# 1 0.045625 -0.010496 0.012737 0.000000 0.023126 0.000000
# 2 -0.010496 0.014353 -0.004879 0.000000 -0.006844 0.000000
# 3 0.012737 -0.004879 0.024456 0.000000 0.004754 0.000000
# 4 0.000000 0.000000 0.000000 0.058010 0.000000 0.002860
# 5 0.023126 -0.006844 0.004754 0.000000 0.051769 0.000000
# 6 0.000000 0.000000 0.000000 0.002860 0.000000 0.034928
#
#
# Mechanical properties :
#
#
# Convention : Reuss Voigt Hill
#
# Bulk Modulus (GPa) = 12.63255 21.29489 16.96372
# Shear Modulus (GPa) = 19.17164 24.85290 22.01227
#
# Velocity S-wave (km/s) = 3.23013 3.67772 3.46117
# Velocity P-wave (km/s) = 4.55924 5.44274 5.02046
#
# Compressibility (1/GPa) = 0.07916056
#
# Stress axis : x y z
#
# Youngs Moduli (GPa) = 21.91762 69.67316 40.88922
#
# Poissons Ratio (x) = 0.73126 -0.52082
# Poissons Ratio (y) = 0.23004 0.19949
# Poissons Ratio (z) = -0.27917 0.33992
#
# Static dielectric constant tensor:
#      x y z
#    x 1.619040 0.000000 0.016830 
#    y 0.000000 1.708060 0.000000 
#    z 0.016830 0.000000 1.649240 
# 
# From -- ./inp_files/47174.got.cif
#   From: 2010.05.17/outbox.cif.g08.bks.cpg/sg14_24_cif.got.tgz:47174.got - 2010.06.03 17:49:19.
