data_PCOD9239445
_publ_section_title
;
Structure prediction by ZEFSAII (Michael W. Deem and Ramdas Pophale) SiO2 
 PCOD9239445
Probable space group: P 21/C
;
_chemical_formula_sum "Si O2"
_cell_formula_units_Z 28
_cell_length_a 8.987370
_cell_length_b 6.777168
_cell_length_c 33.162042
_cell_angle_alpha 90.000000
_cell_angle_beta 31.966695
_cell_angle_gamma 90.000000
_cell_volume 1069.368985
_symmetry_space_group_name_H-M "P 21/C"
_symmetry_group_IT_number 14
_symmetry_cell_setting 'monoclinic'
loop_
_space_group_symop_operation_xyz
x,y,z
-x,1/2+y,1/2-z
-x,-y,-z
x,1/2-y,1/2+z
loop_
_atom_site_type_symbol
_atom_site_label
_atom_site_fract_x
_atom_site_fract_y
_atom_site_fract_z
Si Si1 0.167445 0.126868 0.633259
Si Si2 0.624816 0.597021 0.827265
Si Si3 0.672330 0.495659 0.584070
Si Si4 0.163653 0.597524 0.652157
Si Si5 0.752596 0.908046 0.147857
Si Si6 0.339129 0.792801 0.029381
Si Si7 0.326638 0.859526 0.314593
O O1 0.250135 0.025415 0.657453
O O2 0.098799 0.362319 0.659156
O O3 0.447520 0.149130 0.541564
O O4 0.911618 0.068363 0.661957
O O5 0.433857 0.530448 0.831098
O O6 0.911626 0.659837 0.739010
O O7 0.430860 0.773271 0.887786
O O8 0.479090 0.595344 0.595937
O O9 0.581588 0.604446 0.646133
O O10 0.000000 0.500000 0.500000
O O11 0.200932 0.733837 0.604820
O O12 0.595693 0.834006 0.223506
O O13 0.057512 0.821127 0.068553
O O14 0.782262 0.144269 0.147062
O O15 0.500000 0.000000 0.000000
#
# Coordination Sequence:
#
# PCOD9239445 Si02
#       7
#     4   4   4   4   4   4   4
#     4  10  20  33  55  79 106 146 186 234 283 335
#     4  10  20  32  50  82 111 142 180 235 287 339
#     4  10  21  33  56  88 110 141 199 246 280 333
#     4  10  18  34  52  78 115 142 180 239 296 331
#     4  11  20  34  55  84 113 145 186 239 284 340
#     4  10  17  33  54  79 106 141 187 232 283 322
#     4  11  20  34  54  82 113 146 189 232 284 337
#
# _framework density 26.183667
#
# number of rings (size 3 to 8) (size 9 to 14) (size 15 to 20)
#    0.000    1.714    4.286    3.429    2.000    0.000 
#    0.000    0.000    0.000    0.857    7.429   17.000 
#    0.000    0.000    0.000    0.000    0.000    0.000 
#
# Total GULP energy -156202.001311 kJ/mol
# GULP energy per Si atom -5578.642904 kJ/mol
# Density = 2.612407 g / cm^3
# Si number density = 26.183667 Si / 1000 Ang^3
#
#
#
# Elastic Constant Matrix: (Units=GPa)
#
#
# Indices 1 2 3 4 5 6 
#
# 1 240.4272 30.3709 52.6413 0.0000 6.7456 0.0000
# 2 30.3709 64.1347 30.7211 -0.0001 -7.8482 0.0000
# 3 52.6413 30.7211 132.9920 -0.0004 -2.0801 -0.0001
# 4 0.0000 -0.0001 -0.0004 8.1005 -0.0001 -3.8110
# 5 6.7456 -7.8482 -2.0801 -0.0001 58.9882 0.0000
# 6 0.0000 0.0000 -0.0001 -3.8110 0.0000 22.3674
#
#
#
# Elastic Compliance Matrix: (Units=1/GPa)
#
#
# Indices 1 2 3 4 5 6 
#
# 1 0.004715 -0.001610 -0.001507 0.000000 -0.000807 0.000000
# 2 -0.001610 0.018369 -0.003567 0.000000 0.002502 0.000000
# 3 -0.001507 -0.003567 0.008940 0.000000 0.000013 0.000000
# 4 0.000000 0.000000 0.000000 0.134207 0.000000 0.022866
# 5 -0.000807 0.002502 0.000013 0.000000 0.017378 0.000000
# 6 0.000000 0.000000 0.000000 0.022866 0.000000 0.048604
#
#
# Mechanical properties :
#
#
# Convention : Reuss Voigt Hill
#
# Bulk Modulus (GPa) = 53.59970 73.89116 63.74543
# Shear Modulus (GPa) = 19.85706 39.47928 29.66817
#
# Velocity S-wave (km/s) = 2.75685 3.88723 3.36978
# Velocity P-wave (km/s) = 5.53613 6.95910 6.28799
#
# Compressibility (1/GPa) = 0.01865682
#
# Stress axis : x y z
#
# Youngs Moduli (GPa) = 212.07941 54.43882 111.85672
#
# Poissons Ratio (x) = 0.08763 0.16859
# Poissons Ratio (y) = 0.34137 0.39900
# Poissons Ratio (z) = 0.31964 0.19418
#
# Static dielectric constant tensor:
#      x y z
#    x 2.165970 0.000000 0.061680 
#    y 0.000000 2.200470 0.000000 
#    z 0.061680 0.000000 1.970720 
# 
# From -- ./inp_files/65440.got.cif
#   From: 2010.05.17/outbox.cif.g08.bks.cpg/sg14_33_cif.got.tgz:65440.got - 2010.06.03 17:49:19.
