data_PCOD9239934
_publ_section_title
;
Structure prediction by ZEFSAII (Michael W. Deem and Ramdas Pophale) SiO2 
 PCOD9239934
Probable space group: P 21/C
;
_chemical_formula_sum "Si O2"
_cell_formula_units_Z 32
_cell_length_a 23.947615
_cell_length_b 8.372265
_cell_length_c 15.482531
_cell_angle_alpha 90.000000
_cell_angle_beta 26.223526
_cell_angle_gamma 90.000000
_cell_volume 1371.658097
_symmetry_space_group_name_H-M "P 21/C"
_symmetry_group_IT_number 14
_symmetry_cell_setting 'monoclinic'
loop_
_space_group_symop_operation_xyz
x,y,z
-x,1/2+y,1/2-z
-x,-y,-z
x,1/2-y,1/2+z
loop_
_atom_site_type_symbol
_atom_site_label
_atom_site_fract_x
_atom_site_fract_y
_atom_site_fract_z
Si Si1 0.391983 0.834282 0.662808
Si Si2 0.525634 0.820719 0.735071
Si Si3 0.728917 0.159177 0.354589
Si Si4 0.804286 0.650581 0.126171
Si Si5 0.044312 0.882579 0.513346
Si Si6 0.335544 0.357901 0.311224
Si Si7 0.470143 0.373370 0.422763
Si Si8 0.885944 0.874740 0.172939
O O1 0.312358 0.866074 0.687541
O O2 0.538093 0.850324 0.425724
O O3 0.412760 0.660166 0.675944
O O4 0.325565 0.950866 0.824786
O O5 0.625057 0.717969 0.653052
O O6 0.550885 0.793653 0.599536
O O7 0.508669 0.990229 0.802909
O O8 0.388576 0.741865 0.938434
O O9 0.843791 0.280920 0.185187
O O10 0.769725 0.996470 0.345695
O O11 0.898283 0.497891 0.992366
O O12 0.772301 0.757338 0.086933
O O13 0.666348 0.587614 0.348615
O O14 0.856312 0.770697 0.128280
O O15 0.932262 0.752590 0.680721
O O16 0.000000 0.000000 0.500000
O O17 0.000000 0.000000 0.000000
#
# Coordination Sequence:
#
# PCOD9239934 Si02
#       8
#     4   4   4   4   4   4   4   4
#     4   9  18  31  51  76 106 140 173 210 261 321
#     4  11  23  34  50  77 112 145 178 209 261 339
#     4  10  18  33  55  79 110 138 172 221 273 313
#     4  10  18  33  55  79 112 138 170 225 273 307
#     4   9  18  31  50  81 108 127 176 228 269 305
#     4   9  18  31  51  76 106 141 172 210 261 320
#     4  11  23  34  50  77 112 146 177 210 261 337
#     4   9  18  31  52  81 106 131 174 224 271 307
#
# _framework density 23.329428
#
# number of rings (size 3 to 8) (size 9 to 14) (size 15 to 20)
#    0.000    2.250    2.500    0.750    5.250    1.500 
#    0.000    0.000    0.000    0.000    0.000   26.250 
#    0.000    0.000    0.000    0.000    0.000    0.000 
#
# Total GULP energy -178449.378472 kJ/mol
# GULP energy per Si atom -5576.543077 kJ/mol
# Density = 2.327633 g / cm^3
# Si number density = 23.329428 Si / 1000 Ang^3
#
#
#
# Elastic Constant Matrix: (Units=GPa)
#
#
# Indices 1 2 3 4 5 6 
#
# 1 90.8331 37.7036 29.4059 0.0000 -24.0112 0.0000
# 2 37.7036 119.1525 34.1319 0.0000 -25.9383 0.0000
# 3 29.4059 34.1319 45.2640 0.0000 -23.3811 0.0000
# 4 0.0000 0.0000 0.0000 41.3806 0.0000 -22.1582
# 5 -24.0112 -25.9383 -23.3811 0.0000 31.1535 0.0000
# 6 0.0000 0.0000 0.0000 -22.1582 0.0000 54.0351
#
#
#
# Elastic Compliance Matrix: (Units=1/GPa)
#
#
# Indices 1 2 3 4 5 6 
#
# 1 0.015122 -0.001968 -0.005170 0.000000 0.006136 0.000000
# 2 -0.001968 0.011392 -0.005219 0.000000 0.004051 0.000000
# 3 -0.005170 -0.005219 0.040965 0.000000 0.022415 0.000000
# 4 0.000000 0.000000 0.000000 0.030965 0.000000 0.012698
# 5 0.006136 0.004051 0.022415 0.000000 0.057024 0.000000
# 6 0.000000 0.000000 0.000000 0.012698 0.000000 0.023714
#
#
# Mechanical properties :
#
#
# Convention : Reuss Voigt Hill
#
# Bulk Modulus (GPa) = 23.38413 50.85917 37.12165
# Shear Modulus (GPa) = 22.91968 35.58106 29.25037
#
# Velocity S-wave (km/s) = 3.13778 3.90956 3.54474
# Velocity P-wave (km/s) = 4.81381 6.49826 5.71840
#
# Compressibility (1/GPa) = 0.04276405
#
# Stress axis : x y z
#
# Youngs Moduli (GPa) = 66.12872 87.77771 24.41079
#
# Poissons Ratio (x) = 0.17277 0.12621
# Poissons Ratio (y) = 0.13016 0.12741
# Poissons Ratio (z) = 0.34191 0.45814
#
# Static dielectric constant tensor:
#      x y z
#    x 1.964860 0.000000 -0.097770 
#    y 0.000000 2.150850 0.000000 
#    z -0.097770 0.000000 1.906320 
# 
# From -- ./inp_files/61702.got.cif
#   From: 2010.05.17/outbox.cif.g08.bks.cpg/sg14_31_cif.got.tgz:61702.got - 2010.06.03 17:49:19.
