data_PCOD9239471
_publ_section_title
;
Structure prediction by ZEFSAII (Michael W. Deem and Ramdas Pophale) SiO2 
 PCOD9239471
Probable space group: P 21/C
;
_chemical_formula_sum "Si O2"
_cell_formula_units_Z 32
_cell_length_a 10.957059
_cell_length_b 18.493045
_cell_length_c 18.126597
_cell_angle_alpha 90.000000
_cell_angle_beta 26.762843
_cell_angle_gamma 90.000000
_cell_volume 1653.938270
_symmetry_space_group_name_H-M "P 21/C"
_symmetry_group_IT_number 14
_symmetry_cell_setting 'monoclinic'
loop_
_space_group_symop_operation_xyz
x,y,z
-x,1/2+y,1/2-z
-x,-y,-z
x,1/2-y,1/2+z
loop_
_atom_site_type_symbol
_atom_site_label
_atom_site_fract_x
_atom_site_fract_y
_atom_site_fract_z
Si Si1 0.874998 0.546532 0.756155
Si Si2 0.675627 0.700636 0.584653
Si Si3 0.469967 0.455817 0.611756
Si Si4 0.776914 0.249443 0.759589
Si Si5 0.198654 0.400597 0.359752
Si Si6 0.503340 0.888565 0.047846
Si Si7 0.577235 0.052174 0.217450
Si Si8 0.472861 0.904784 0.594137
O O1 0.780698 0.596857 0.738980
O O2 0.744800 0.467868 0.809043
O O3 0.200885 0.542803 0.577986
O O4 0.737364 0.578028 0.903235
O O5 0.384774 0.735137 0.729391
O O6 0.725393 0.671308 0.638389
O O7 0.685988 0.634769 0.519175
O O8 0.909763 0.751250 0.427608
O O9 0.363340 0.405273 0.603180
O O10 0.370543 0.536654 0.646847
O O11 0.430884 0.435269 0.718136
O O12 0.688022 0.181480 0.856986
O O13 0.662620 0.326734 0.847615
O O14 0.380905 0.466182 0.293170
O O15 0.884928 0.417970 0.546715
O O16 0.460359 0.085701 0.355199
#
# Coordination Sequence:
#
# PCOD9239471 Si02
#       8
#     4   4   4   4   4   4   4   4
#     4   9  20  30  56  84 112 142 188 238 285 328
#     4  10  19  35  54  84 108 153 182 234 276 342
#     4  10  17  34  53  84 104 145 194 240 270 339
#     4  10  21  33  56  80 113 150 189 224 284 345
#     4   9  15  30  52  81 104 137 183 229 271 331
#     4   9  21  31  54  79 109 148 186 236 278 338
#     4   9  15  27  56  79 108 133 183 232 276 329
#     4  10  18  32  50  86 109 147 180 236 283 333
#
# _framework density 19.347757999999999
#
# number of rings (size 3 to 8) (size 9 to 14) (size 15 to 20)
#    0.750    1.750    2.500    1.500    1.750    0.000 
#    0.000    1.250    0.000    3.000   19.500    0.000 
#    0.000    0.000    0.000    0.000    0.000    0.000 
#
# Total GULP energy -178149.260474 kJ/mol
# GULP energy per Si atom -5567.164390 kJ/mol
# Density = 1.930372 g / cm^3
# Si number density = 19.347758 Si / 1000 Ang^3
#
#
#
# Elastic Constant Matrix: (Units=GPa)
#
#
# Indices 1 2 3 4 5 6 
#
# 1 71.6468 12.2543 21.6119 0.0000 29.3337 0.0000
# 2 12.2543 57.3513 12.3524 0.0000 13.9125 0.0000
# 3 21.6119 12.3524 56.9745 0.0000 28.3551 0.0000
# 4 0.0000 0.0000 0.0000 15.1170 0.0000 3.8632
# 5 29.3337 13.9125 28.3551 0.0000 33.2757 0.0000
# 6 0.0000 0.0000 0.0000 3.8632 0.0000 25.7064
#
#
#
# Elastic Compliance Matrix: (Units=1/GPa)
#
#
# Indices 1 2 3 4 5 6 
#
# 1 0.022007 -0.000018 0.002270 0.000000 -0.021327 0.000000
# 2 -0.000018 0.019407 -0.000296 0.000000 -0.007846 0.000000
# 3 0.002270 -0.000296 0.030715 0.000000 -0.028050 0.000000
# 4 0.000000 0.000000 0.000000 0.068793 0.000000 -0.010338
# 5 -0.021327 -0.007846 -0.028050 0.000000 0.076036 0.000000
# 6 0.000000 0.000000 0.000000 -0.010338 0.000000 0.040454
#
#
# Mechanical properties :
#
#
# Convention : Reuss Voigt Hill
#
# Bulk Modulus (GPa) = 13.15048 30.93440 22.04244
# Shear Modulus (GPa) = 17.93095 24.13674 21.03384
#
# Velocity S-wave (km/s) = 3.04759 3.53586 3.30077
# Velocity P-wave (km/s) = 4.38126 5.71778 5.09355
#
# Compressibility (1/GPa) = 0.07604287
#
# Stress axis : x y z
#
# Youngs Moduli (GPa) = 45.43912 51.52691 32.55739
#
# Poissons Ratio (x) = 0.00091 -0.07391
# Poissons Ratio (y) = 0.00080 0.00963
# Poissons Ratio (z) = -0.10315 0.01525
#
# Static dielectric constant tensor:
#      x y z
#    x 1.714950 0.000000 -0.001740 
#    y 0.000000 1.706440 0.000000 
#    z -0.001740 0.000000 1.660600 
# 
# From -- ./inp_files/58096.got.cif
#   From: 2010.05.17/outbox.cif.g08.bks.cpg/sg14_30_cif.got.tgz:58096.got - 2010.06.03 17:49:19.
