data_PCOD9239560
_publ_section_title
;
Structure prediction by ZEFSAII (Michael W. Deem and Ramdas Pophale) SiO2 
 PCOD9239560
Probable space group: P 21/C
;
_chemical_formula_sum "Si O2"
_cell_formula_units_Z 28
_cell_length_a 12.431829
_cell_length_b 20.621188
_cell_length_c 8.599844
_cell_angle_alpha 90.000000
_cell_angle_beta 145.351849
_cell_angle_gamma 90.000000
_cell_volume 1253.420288
_symmetry_space_group_name_H-M "P 21/C"
_symmetry_group_IT_number 14
_symmetry_cell_setting 'monoclinic'
loop_
_space_group_symop_operation_xyz
x,y,z
-x,1/2+y,1/2-z
-x,-y,-z
x,1/2-y,1/2+z
loop_
_atom_site_type_symbol
_atom_site_label
_atom_site_fract_x
_atom_site_fract_y
_atom_site_fract_z
Si Si1 0.765617 0.383412 0.869473
Si Si2 0.936121 0.985403 0.248492
Si Si3 0.609539 0.356480 0.985786
Si Si4 0.630308 0.632247 0.005125
Si Si5 0.284053 0.707642 0.437156
Si Si6 0.044797 0.622534 0.388951
Si Si7 0.565156 0.024110 0.907887
O O1 0.607077 0.389146 0.813802
O O2 0.949453 0.420044 0.153454
O O3 0.777581 0.312168 0.812296
O O4 0.700373 0.418309 0.633293
O O5 0.990639 0.050331 0.221277
O O6 0.709787 0.979757 0.983936
O O7 0.000000 0.000000 0.500000
O O8 0.432556 0.359773 0.890689
O O9 0.680228 0.284015 0.031194
O O10 0.781762 0.387159 0.287330
O O11 0.486887 0.679498 0.739771
O O12 0.582193 0.560122 0.879240
O O13 0.848956 0.645542 0.231656
O O14 0.125007 0.675752 0.361058
O O15 0.500000 0.000000 0.000000
#
# Coordination Sequence:
#
# PCOD9239560 Si02
#       7
#     4   4   4   4   4   4   4
#     4  10  20  36  61  88 116 160 202 247 304 362
#     4  10  17  36  60  85 118 151 203 247 291 357
#     4  11  23  41  57  89 130 158 195 250 316 354
#     4  10  21  39  61  84 120 155 200 245 304 357
#     4  10  21  41  64  82 116 164 207 250 286 361
#     4  11  21  40  63  89 119 160 197 254 306 352
#     4  10  19  36  61  90 113 160 203 249 291 358
#
# _framework density 22.338875999999999
#
# number of rings (size 3 to 8) (size 9 to 14) (size 15 to 20)
#    0.000    1.714    5.714    3.429    0.000    1.714 
#    2.571    1.429    0.000    0.000    0.000    0.000 
#    0.000    0.000    0.000    0.000    0.000    0.000 
#
# Total GULP energy -155960.150153 kJ/mol
# GULP energy per Si atom -5570.005363 kJ/mol
# Density = 2.228803 g / cm^3
# Si number density = 22.338876 Si / 1000 Ang^3
#
#
#
# Elastic Constant Matrix: (Units=GPa)
#
#
# Indices 1 2 3 4 5 6 
#
# 1 175.4150 23.7661 33.4163 0.0000 19.6669 0.0000
# 2 23.7661 49.8528 16.2364 0.0000 -3.2066 0.0000
# 3 33.4163 16.2364 30.5352 0.0000 12.6506 0.0000
# 4 0.0000 0.0000 0.0000 21.7602 0.0000 -5.3000
# 5 19.6669 -3.2066 12.6506 0.0000 45.8885 0.0000
# 6 0.0000 0.0000 0.0000 -5.3000 0.0000 13.0288
#
#
#
# Elastic Compliance Matrix: (Units=1/GPa)
#
#
# Indices 1 2 3 4 5 6 
#
# 1 0.007321 -0.001400 -0.006691 0.000000 -0.001391 0.000000
# 2 -0.001400 0.026046 -0.015037 0.000000 0.006566 0.000000
# 3 -0.006691 -0.015037 0.053415 0.000000 -0.012909 0.000000
# 4 0.000000 0.000000 0.000000 0.051010 0.000000 0.020750
# 5 -0.001391 0.006566 -0.012909 0.000000 0.026406 0.000000
# 6 0.000000 0.000000 0.000000 0.020750 0.000000 0.085194
#
#
# Mechanical properties :
#
#
# Convention : Reuss Voigt Hill
#
# Bulk Modulus (GPa) = 24.67587 44.73785 34.70686
# Shear Modulus (GPa) = 16.17300 28.29442 22.23371
#
# Velocity S-wave (km/s) = 2.69361 3.56279 3.15825
# Velocity P-wave (km/s) = 4.55458 6.08235 5.37305
#
# Compressibility (1/GPa) = 0.04052541
#
# Stress axis : x y z
#
# Youngs Moduli (GPa) = 136.59214 38.39294 18.72134
#
# Poissons Ratio (x) = 0.05377 0.12526
# Poissons Ratio (y) = 0.19129 0.28152
# Poissons Ratio (z) = 0.91392 0.57732
#
# Static dielectric constant tensor:
#      x y z
#    x 1.898860 0.000000 0.025160 
#    y 0.000000 2.069790 0.000000 
#    z 0.025160 0.000000 1.835780 
# 
# From -- ./inp_files/14494.got.cif
#   From: 2010.05.17/outbox.cif.g08.bks.cpg/sg14_8_cif.got.tgz:14494.got - 2010.06.03 17:49:19.
