data_PCOD9239554
_publ_section_title
;
Structure prediction by ZEFSAII (Michael W. Deem and Ramdas Pophale) SiO2 
 PCOD9239554
Probable space group: P 21/C
;
_chemical_formula_sum "Si O2"
_cell_formula_units_Z 32
_cell_length_a 11.013439
_cell_length_b 7.569765
_cell_length_c 14.809907
_cell_angle_alpha 90.000000
_cell_angle_beta 72.654591
_cell_angle_gamma 90.000000
_cell_volume 1178.541567
_symmetry_space_group_name_H-M "P 21/C"
_symmetry_group_IT_number 14
_symmetry_cell_setting 'monoclinic'
loop_
_space_group_symop_operation_xyz
x,y,z
-x,1/2+y,1/2-z
-x,-y,-z
x,1/2-y,1/2+z
loop_
_atom_site_type_symbol
_atom_site_label
_atom_site_fract_x
_atom_site_fract_y
_atom_site_fract_z
Si Si1 0.238354 0.686984 0.315529
Si Si2 0.978308 0.772273 0.951115
Si Si3 0.553985 0.007129 0.145692
Si Si4 0.312040 0.598124 0.102407
Si Si5 0.679835 0.818960 0.716635
Si Si6 0.090689 0.003866 0.301130
Si Si7 0.892650 0.113234 0.905252
Si Si8 0.389699 0.303126 0.966771
O O1 0.104954 0.627957 0.385310
O O2 0.351761 0.666672 0.358707
O O3 0.262892 0.600630 0.214679
O O4 0.213860 0.890165 0.302662
O O5 0.988279 0.586005 0.894228
O O6 0.010583 0.778974 0.049978
O O7 0.871419 0.915777 0.950998
O O8 0.599809 0.865532 0.213242
O O9 0.592590 0.906347 0.046715
O O10 0.413710 0.075171 0.195159
O O11 0.225791 0.751288 0.076279
O O12 0.461411 0.644271 0.068188
O O13 0.313189 0.402484 0.060735
O O14 0.677061 0.870852 0.610457
O O15 0.826779 0.814404 0.718232
O O16 0.061680 0.933180 0.207133
#
# Coordination Sequence:
#
# PCOD9239554 Si02
#       8
#     4   4   4   4   4   4   4   4
#     4   9  18  36  58  82 121 155 206 252 310 369
#     4   9  21  37  64  89 120 162 209 272 317 357
#     4  10  18  32  52  84 117 161 201 244 314 372
#     4  10  17  36  57  91 118 166 210 253 308 386
#     4  10  18  32  55  83 122 163 200 250 308 373
#     4   9  19  36  61  89 116 160 206 252 318 371
#     4  10  19  38  65  89 120 164 216 258 320 372
#     4   9  20  29  57  85 123 159 206 249 309 378
#
# _framework density 27.152203
#
# number of rings (size 3 to 8) (size 9 to 14) (size 15 to 20)
#    1.500    1.000    1.250    3.000    0.000    0.000 
#    2.250    1.250    2.750    3.750    0.000    0.000 
#    0.000    0.000    0.000    0.000    0.000    0.000 
#
# Total GULP energy -178177.222549 kJ/mol
# GULP energy per Si atom -5568.038205 kJ/mol
# Density = 2.709040 g / cm^3
# Si number density = 27.152203 Si / 1000 Ang^3
#
#
#
# Elastic Constant Matrix: (Units=GPa)
#
#
# Indices 1 2 3 4 5 6 
#
# 1 55.6623 16.2854 52.6617 0.0000 -7.3627 0.0000
# 2 16.2854 68.3263 15.0558 0.0000 3.6166 0.0000
# 3 52.6617 15.0558 62.8699 0.0000 -8.4681 0.0000
# 4 0.0000 0.0000 0.0000 24.1901 0.0000 3.3355
# 5 -7.3627 3.6166 -8.4681 0.0000 41.5447 0.0000
# 6 0.0000 0.0000 0.0000 3.3355 0.0000 48.1257
#
#
#
# Elastic Compliance Matrix: (Units=1/GPa)
#
#
# Indices 1 2 3 4 5 6 
#
# 1 0.088230 -0.005123 -0.072502 0.000000 0.001304 0.000000
# 2 -0.005123 0.015939 0.000169 0.000000 -0.002261 0.000000
# 3 -0.072502 0.000169 0.076976 0.000000 0.002826 0.000000
# 4 0.000000 0.000000 0.000000 0.041738 0.000000 -0.002893
# 5 0.001304 -0.002261 0.002826 0.000000 0.025074 0.000000
# 6 0.000000 0.000000 0.000000 -0.002893 0.000000 0.020979
#
#
# Mechanical properties :
#
#
# Convention : Reuss Voigt Hill
#
# Bulk Modulus (GPa) = 38.11753 39.42936 38.77345
# Shear Modulus (GPa) = 11.55821 29.62915 20.59368
#
# Velocity S-wave (km/s) = 2.06545 3.30695 2.75699
# Velocity P-wave (km/s) = 4.44489 5.39763 4.94426
#
# Compressibility (1/GPa) = 0.02623465
#
# Stress axis : x y z
#
# Youngs Moduli (GPa) = 11.33395 62.73924 12.99108
#
# Poissons Ratio (x) = 0.32140 0.94188
# Poissons Ratio (y) = 0.05806 -0.00220
# Poissons Ratio (z) = 0.82174 -0.01063
#
# Static dielectric constant tensor:
#      x y z
#    x 2.206390 0.000000 0.011100 
#    y 0.000000 2.428510 0.000000 
#    z 0.011100 0.000000 2.200570 
# 
# From -- ./inp_files/57044.got.cif
#   From: 2010.05.17/outbox.cif.g08.bks.cpg/sg14_29_cif.got.tgz:57044.got - 2010.06.03 17:49:19.
