data_PCOD9239615
_publ_section_title
;
Structure prediction by ZEFSAII (Michael W. Deem and Ramdas Pophale) SiO2 
 PCOD9239615
Probable space group: P 21/C
;
_chemical_formula_sum "Si O2"
_cell_formula_units_Z 28
_cell_length_a 13.960903
_cell_length_b 10.654981
_cell_length_c 13.436082
_cell_angle_alpha 90.000000
_cell_angle_beta 29.526332
_cell_angle_gamma 90.000000
_cell_volume 984.986434
_symmetry_space_group_name_H-M "P 21/C"
_symmetry_group_IT_number 14
_symmetry_cell_setting 'monoclinic'
loop_
_space_group_symop_operation_xyz
x,y,z
-x,1/2+y,1/2-z
-x,-y,-z
x,1/2-y,1/2+z
loop_
_atom_site_type_symbol
_atom_site_label
_atom_site_fract_x
_atom_site_fract_y
_atom_site_fract_z
Si Si1 0.163192 0.837376 0.732890
Si Si2 0.355562 0.014705 0.893851
Si Si3 0.720299 0.561214 0.196399
Si Si4 0.511246 0.378268 0.901331
Si Si5 0.205202 0.753228 0.988288
Si Si6 0.868336 0.039740 0.763199
Si Si7 0.860801 0.816791 0.149006
O O1 0.348620 0.866794 0.631876
O O2 0.206063 0.844531 0.577003
O O3 0.120589 0.690309 0.780038
O O4 0.971576 0.894275 0.960178
O O5 0.536819 0.972103 0.795457
O O6 0.420733 0.000886 0.723269
O O7 0.202356 0.892524 0.048913
O O8 0.207607 0.088427 0.095293
O O9 0.728213 0.498382 0.296177
O O10 0.737301 0.709354 0.204306
O O11 0.907708 0.511191 0.967446
O O12 0.586699 0.267735 0.757088
O O13 0.290564 0.376952 0.135642
O O14 0.037938 0.767051 0.058206
#
# Coordination Sequence:
#
# PCOD9239615 Si02
#       7
#     4   4   4   4   4   4   4
#     4   9  17  31  45  64  98 123 149 190 229 282
#     4   9  18  28  44  63  94 125 154 184 230 280
#     4  10  19  29  48  71  95 126 157 189 230 290
#     4   9  19  27  42  67  89 126 158 187 232 277
#     4   8  18  29  42  63  92 127 150 191 237 273
#     4   9  18  31  47  67  97 129 153 184 241 280
#     4  10  18  27  45  68  94 121 159 190 231 278
#
# _framework density 28.42679
#
# number of rings (size 3 to 8) (size 9 to 14) (size 15 to 20)
#    0.857    2.000    0.000    2.143    6.000    0.000 
#    0.000    0.000    0.000    0.000    0.000    1.000 
#    0.000   25.143    0.000    0.429    0.000    0.000 
#
# Total GULP energy -155948.973883 kJ/mol
# GULP energy per Si atom -5569.606210 kJ/mol
# Density = 2.836209 g / cm^3
# Si number density = 28.426790 Si / 1000 Ang^3
#
#
#
# Elastic Constant Matrix: (Units=GPa)
#
#
# Indices 1 2 3 4 5 6 
#
# 1 138.0559 8.6603 67.6205 0.0000 20.8328 0.0000
# 2 8.6603 40.8963 15.5663 0.0000 8.9395 0.0000
# 3 67.6205 15.5663 240.8203 0.0000 35.4877 0.0000
# 4 0.0000 0.0000 0.0000 -28.0869 0.0000 -8.6868
# 5 20.8328 8.9395 35.4877 0.0000 47.9162 0.0000
# 6 0.0000 0.0000 0.0000 -8.6868 0.0000 18.1969
#
#
#
# Elastic Compliance Matrix: (Units=1/GPa)
#
#
# Indices 1 2 3 4 5 6 
#
# 1 0.008611 -0.000576 -0.002071 0.000000 -0.002103 0.000000
# 2 -0.000576 0.025775 -0.000935 0.000000 -0.003866 0.000000
# 3 -0.002071 -0.000935 0.005204 0.000000 -0.002779 0.000000
# 4 0.000000 0.000000 0.000000 -0.031023 0.000000 -0.014810
# 5 -0.002103 -0.003866 -0.002779 0.000000 0.024564 0.000000
# 6 0.000000 0.000000 0.000000 -0.014810 0.000000 0.047885
#
#
# Mechanical properties :
#
#
# Convention : Reuss Voigt Hill
#
# Bulk Modulus (GPa) = 30.83796 67.05186 48.94491
# Shear Modulus (GPa) = 50.51185 29.46693 39.98939
#
# Velocity S-wave (km/s) = 4.21991 3.22310 3.75474
# Velocity P-wave (km/s) = 5.88348 6.12291 6.00439
#
# Compressibility (1/GPa) = 0.03242756
#
# Stress axis : x y z
#
# Youngs Moduli (GPa) = 116.12785 38.79752 192.16154
#
# Poissons Ratio (x) = 0.02233 0.39794
# Poissons Ratio (y) = 0.06685 0.17961
# Poissons Ratio (z) = 0.24049 0.03626
#
# Static dielectric constant tensor:
#      x y z
#    x 2.171080 0.000000 0.102010 
#    y 0.000000 2.548010 0.000000 
#    z 0.102010 0.000000 2.418150 
# 
# From -- ./inp_files/47474.got.cif
#   From: 2010.05.17/outbox.cif.g08.bks.cpg/sg14_24_cif.got.tgz:47474.got - 2010.06.03 17:49:19.
