data_PCOD9239744
_publ_section_title
;
Structure prediction by ZEFSAII (Michael W. Deem and Ramdas Pophale) SiO2 
 PCOD9239744
Probable space group: P 21/C
;
_chemical_formula_sum "Si O2"
_cell_formula_units_Z 32
_cell_length_a 22.748413
_cell_length_b 10.179753
_cell_length_c 8.376287
_cell_angle_alpha 90.000000
_cell_angle_beta 127.363074
_cell_angle_gamma 90.000000
_cell_volume 1541.703914
_symmetry_space_group_name_H-M "P 21/C"
_symmetry_group_IT_number 14
_symmetry_cell_setting 'monoclinic'
loop_
_space_group_symop_operation_xyz
x,y,z
-x,1/2+y,1/2-z
-x,-y,-z
x,1/2-y,1/2+z
loop_
_atom_site_type_symbol
_atom_site_label
_atom_site_fract_x
_atom_site_fract_y
_atom_site_fract_z
Si Si1 0.073337 0.062167 0.549463
Si Si2 0.344334 0.689720 0.777453
Si Si3 0.475711 0.582833 0.807714
Si Si4 0.120516 0.323851 0.820705
Si Si5 0.633410 0.567483 0.954796
Si Si6 0.648466 0.010418 0.116106
Si Si7 0.775816 0.459457 0.596091
Si Si8 0.216227 0.147830 0.188666
O O1 0.086841 0.196244 0.675533
O O2 0.066686 0.096933 0.349597
O O3 0.144097 0.964436 0.688950
O O4 0.000000 0.000000 0.500000
O O5 0.416754 0.685014 0.782531
O O6 0.340518 0.833006 0.842530
O O7 0.270424 0.663678 0.550450
O O8 0.355302 0.570267 0.925058
O O9 0.552261 0.625217 0.854457
O O10 0.428209 0.496053 0.605854
O O11 0.500000 0.500000 0.000000
O O12 0.166193 0.394601 0.756532
O O13 0.180751 0.274194 0.048608
O O14 0.644482 0.547102 0.785456
O O15 0.699044 0.660226 0.122798
O O16 0.716176 0.971342 0.113817
O O17 0.787977 0.542301 0.456991
#
# Coordination Sequence:
#
# PCOD9239744 Si02
#       8
#     4   4   4   4   4   4   4   4
#     4  10  20  39  63  90 125 156 193 240 297 344
#     4   9  19  35  54  75 112 149 190 238 290 343
#     4   9  19  34  49  72 108 146 186 239 285 330
#     4   9  19  38  62  85 119 157 190 236 292 354
#     4  10  18  31  53  80 106 145 190 236 290 346
#     4  11  19  33  57  79 108 152 192 234 295 347
#     4   9  19  35  56  82 110 149 187 236 287 355
#     4   9  18  35  58  81 109 145 190 233 287 337
#
# _framework density 20.756253000000001
#
# number of rings (size 3 to 8) (size 9 to 14) (size 15 to 20)
#    0.000    2.500    0.000    3.375    0.000    0.000 
#    4.500    5.625   16.500    0.000    0.000    0.000 
#    0.000    0.000    0.000    0.000    0.000    0.000 
#
# Total GULP energy -178353.607879 kJ/mol
# GULP energy per Si atom -5573.550246 kJ/mol
# Density = 2.070901 g / cm^3
# Si number density = 20.756253 Si / 1000 Ang^3
#
#
#
# Elastic Constant Matrix: (Units=GPa)
#
#
# Indices 1 2 3 4 5 6 
#
# 1 176.2981 21.4659 41.2382 0.0000 -13.5749 0.0000
# 2 21.4659 36.2858 6.9780 0.0000 -1.0194 0.0000
# 3 41.2382 6.9780 65.0900 0.0000 -12.6269 0.0000
# 4 0.0000 0.0000 0.0000 23.4224 0.0000 -2.7387
# 5 -13.5749 -1.0194 -12.6269 0.0000 44.5154 0.0000
# 6 0.0000 0.0000 0.0000 -2.7387 0.0000 18.3360
#
#
#
# Elastic Compliance Matrix: (Units=1/GPa)
#
#
# Indices 1 2 3 4 5 6 
#
# 1 0.007081 -0.003406 -0.003934 0.000000 0.000966 0.000000
# 2 -0.003406 0.029779 -0.001168 0.000000 -0.000688 0.000000
# 3 -0.003934 -0.001168 0.018776 0.000000 0.004100 0.000000
# 4 0.000000 0.000000 0.000000 0.043453 0.000000 0.006490
# 5 0.000966 -0.000688 0.004100 0.000000 0.023906 0.000000
# 6 0.000000 0.000000 0.000000 0.006490 0.000000 0.055507
#
#
# Mechanical properties :
#
#
# Convention : Reuss Voigt Hill
#
# Bulk Modulus (GPa) = 25.89277 46.33758 36.11517
# Shear Modulus (GPa) = 23.99323 31.12087 27.55705
#
# Velocity S-wave (km/s) = 3.40362 3.87634 3.64765
# Velocity P-wave (km/s) = 5.28658 6.51213 5.93109
#
# Compressibility (1/GPa) = 0.03862082
#
# Stress axis : x y z
#
# Youngs Moduli (GPa) = 141.21409 33.58074 53.25856
#
# Poissons Ratio (x) = 0.11436 0.20952
# Poissons Ratio (y) = 0.48091 0.06222
# Poissons Ratio (z) = 0.55555 0.03923
#
# Static dielectric constant tensor:
#      x y z
#    x 1.784430 0.000000 0.000200 
#    y 0.000000 1.820410 0.000000 
#    z 0.000200 0.000000 1.769140 
# 
# From -- ./inp_files/18957.got.cif
#   From: 2010.05.17/outbox.cif.g08.bks.cpg/sg14_10_cif.got.tgz:18957.got - 2010.06.03 17:49:19.
