data_PCOD9239528
_publ_section_title
;
Structure prediction by ZEFSAII (Michael W. Deem and Ramdas Pophale) SiO2 
 PCOD9239528
Probable space group: P 21/C
;
_chemical_formula_sum "Si O2"
_cell_formula_units_Z 28
_cell_length_a 7.096066
_cell_length_b 9.784125
_cell_length_c 18.357895
_cell_angle_alpha 90.000000
_cell_angle_beta 90.615616
_cell_angle_gamma 90.000000
_cell_volume 1274.492990
_symmetry_space_group_name_H-M "P 21/C"
_symmetry_group_IT_number 14
_symmetry_cell_setting 'monoclinic'
loop_
_space_group_symop_operation_xyz
x,y,z
-x,1/2+y,1/2-z
-x,-y,-z
x,1/2-y,1/2+z
loop_
_atom_site_type_symbol
_atom_site_label
_atom_site_fract_x
_atom_site_fract_y
_atom_site_fract_z
Si Si1 0.334292 0.678071 0.480241
Si Si2 0.910982 0.236497 0.403001
Si Si3 0.823380 0.495562 0.788396
Si Si4 0.831836 0.775477 0.853969
Si Si5 0.787778 0.051842 0.788325
Si Si6 0.247645 0.365889 0.482427
Si Si7 0.281905 0.724772 0.318316
O O1 0.199846 0.783090 0.521728
O O2 0.231220 0.530206 0.478287
O O3 0.530852 0.664050 0.523261
O O4 0.376472 0.715374 0.397048
O O5 0.904124 0.108003 0.349849
O O6 0.798392 0.356814 0.360820
O O7 0.117675 0.291829 0.422852
O O8 0.751947 0.629847 0.828919
O O9 0.692826 0.405337 0.734838
O O10 0.997193 0.544319 0.739424
O O11 0.737355 0.897963 0.807942
O O12 0.056036 0.774913 0.836238
O O13 0.811836 0.811666 0.938434
O O14 0.678873 0.138127 0.727147
#
# Coordination Sequence:
#
# PCOD9239528 Si02
#       7
#     4   4   4   4   4   4   4
#     4  11  22  37  61  90 120 156 206 248 294 361
#     4  11  20  39  65  85 118 158 194 248 300 349
#     4   9  20  33  63  89 116 156 197 243 303 357
#     4  10  17  35  58  88 118 152 201 242 292 361
#     4   9  18  34  64  87 110 157 201 235 295 356
#     4  11  22  35  61  91 118 158 206 243 295 365
#     4   9  18  36  59  85 117 154 196 250 295 347
#
# _framework density 21.969521
#
# number of rings (size 3 to 8) (size 9 to 14) (size 15 to 20)
#    0.000    2.000    2.857    3.000    0.000    0.571 
#    0.000    2.143   25.143    0.000    0.000    0.000 
#    0.000    0.000    0.000    0.000    0.000    0.000 
#
# Total GULP energy -156444.874161 kJ/mol
# GULP energy per Si atom -5587.316934 kJ/mol
# Density = 2.191952 g / cm^3
# Si number density = 21.969521 Si / 1000 Ang^3
#
#
#
# Elastic Constant Matrix: (Units=GPa)
#
#
# Indices 1 2 3 4 5 6 
#
# 1 65.0055 12.7632 22.1926 0.0000 13.1135 0.0000
# 2 12.7632 86.2307 40.9283 0.0000 -3.4498 0.0000
# 3 22.1926 40.9283 119.8270 0.0000 3.9515 0.0000
# 4 0.0000 0.0000 0.0000 3.6493 0.0000 9.2584
# 5 13.1135 -3.4498 3.9515 0.0000 25.8736 0.0000
# 6 0.0000 0.0000 0.0000 9.2584 0.0000 -6.3546
#
#
#
# Elastic Compliance Matrix: (Units=1/GPa)
#
#
# Indices 1 2 3 4 5 6 
#
# 1 0.018466 -0.001939 -0.002453 0.000000 -0.009243 0.000000
# 2 -0.001939 0.014218 -0.004615 0.000000 0.003583 0.000000
# 3 -0.002453 -0.004615 0.010408 0.000000 -0.000962 0.000000
# 4 0.000000 0.000000 0.000000 0.058349 0.000000 0.085011
# 5 -0.009243 0.003583 -0.000962 0.000000 0.043959 0.000000
# 6 0.000000 0.000000 0.000000 0.085011 0.000000 -0.033508
#
#
# Mechanical properties :
#
#
# Convention : Reuss Voigt Hill
#
# Bulk Modulus (GPa) = 39.87653 46.98130 43.42891
# Shear Modulus (GPa) = 36.16270 17.64558 26.90414
#
# Velocity S-wave (km/s) = 4.06154 2.83713 3.50324
# Velocity P-wave (km/s) = 6.33917 5.67129 6.01451
#
# Compressibility (1/GPa) = 0.02507741
#
# Stress axis : x y z
#
# Youngs Moduli (GPa) = 54.15368 70.33481 96.08171
#
# Poissons Ratio (x) = 0.13636 0.23569
# Poissons Ratio (y) = 0.10499 0.44345
# Poissons Ratio (z) = 0.13284 0.32462
#
# Static dielectric constant tensor:
#      x y z
#    x 1.821590 0.000000 0.001790 
#    y 0.000000 1.787410 0.000000 
#    z 0.001790 0.000000 1.802220 
# 
# From -- ./inp_files/54932.got.cif
#   From: 2010.05.17/outbox.cif.g08.bks.cpg/sg14_28_cif.got.tgz:54932.got - 2010.06.03 17:49:19.
