data_PCOD9239845
_publ_section_title
;
Structure prediction by ZEFSAII (Michael W. Deem and Ramdas Pophale) SiO2 
 PCOD9239845
Probable space group: P 21/C
;
_chemical_formula_sum "Si O2"
_cell_formula_units_Z 28
_cell_length_a 9.717095
_cell_length_b 7.797087
_cell_length_c 27.976914
_cell_angle_alpha 90.000000
_cell_angle_beta 36.592020
_cell_angle_gamma 90.000000
_cell_volume 1263.564075
_symmetry_space_group_name_H-M "P 21/C"
_symmetry_group_IT_number 14
_symmetry_cell_setting 'monoclinic'
loop_
_space_group_symop_operation_xyz
x,y,z
-x,1/2+y,1/2-z
-x,-y,-z
x,1/2-y,1/2+z
loop_
_atom_site_type_symbol
_atom_site_label
_atom_site_fract_x
_atom_site_fract_y
_atom_site_fract_z
Si Si1 0.709632 0.982787 0.698579
Si Si2 0.117733 0.933908 0.722397
Si Si3 0.950741 0.640655 0.972624
Si Si4 0.307979 0.686551 0.428844
Si Si5 0.674102 0.868977 0.253844
Si Si6 0.533242 0.032475 0.546891
Si Si7 0.663094 0.071823 0.818353
O O1 0.766919 0.785881 0.695387
O O2 0.471929 0.994811 0.735771
O O3 0.664195 0.076885 0.760988
O O4 0.901978 0.080597 0.614440
O O5 0.233154 0.748699 0.692751
O O6 0.142147 0.031121 0.765827
O O7 0.276699 0.034665 0.640252
O O8 0.855477 0.931809 0.779608
O O9 0.067046 0.802268 0.967090
O O10 0.687751 0.617450 0.028985
O O11 0.000000 0.500000 0.000000
O O12 0.483914 0.783841 0.342661
O O13 0.334006 0.796505 0.470609
O O14 0.418830 0.499785 0.403931
O O15 0.500000 0.000000 0.500000
#
# Coordination Sequence:
#
# PCOD9239845 Si02
#       7
#     4   4   4   4   4   4   4
#     4  10  18  32  55  82 107 143 182 224 275 330
#     4  11  22  36  55  82 109 142 183 236 293 329
#     4   9  18  33  55  79 113 153 183 217 266 335
#     4   8  18  35  52  76 109 143 179 223 272 321
#     4   9  18  32  52  80 108 134 179 229 277 330
#     4  10  19  34  57  81 109 149 188 220 270 343
#     4  11  21  36  57  80 110 142 184 241 286 330
#
# _framework density 22.15954
#
# number of rings (size 3 to 8) (size 9 to 14) (size 15 to 20)
#    0.000    2.286    0.000    5.143    0.000    0.000 
#    0.000    1.429    0.000   12.000    0.000    3.000 
#    0.000    0.000    0.000    0.000    0.000    0.000 
#
# Total GULP energy -156213.138663 kJ/mol
# GULP energy per Si atom -5579.040667 kJ/mol
# Density = 2.210910 g / cm^3
# Si number density = 22.159540 Si / 1000 Ang^3
#
#
#
# Elastic Constant Matrix: (Units=GPa)
#
#
# Indices 1 2 3 4 5 6 
#
# 1 141.0313 22.1865 26.5709 0.0000 -5.2470 0.0000
# 2 22.1865 87.9507 3.6375 0.0000 1.2034 0.0000
# 3 26.5709 3.6375 37.9275 0.0000 -6.8988 0.0000
# 4 0.0000 0.0000 0.0000 18.3477 0.0000 -12.3033
# 5 -5.2470 1.2034 -6.8988 0.0000 38.0031 0.0000
# 6 0.0000 0.0000 0.0000 -12.3033 0.0000 23.1462
#
#
#
# Elastic Compliance Matrix: (Units=1/GPa)
#
#
# Indices 1 2 3 4 5 6 
#
# 1 0.008475 -0.001904 -0.005720 0.000000 0.000192 0.000000
# 2 -0.001904 0.011855 0.000084 0.000000 -0.000623 0.000000
# 3 -0.005720 0.000084 0.031253 0.000000 0.004881 0.000000
# 4 0.000000 0.000000 0.000000 0.084689 0.000000 0.045016
# 5 0.000192 -0.000623 0.004881 0.000000 0.027246 0.000000
# 6 0.000000 0.000000 0.000000 0.045016 0.000000 0.067132
#
#
# Mechanical properties :
#
#
# Convention : Reuss Voigt Hill
#
# Bulk Modulus (GPa) = 27.39508 41.29990 34.34749
# Shear Modulus (GPa) = 19.38747 30.20038 24.79393
#
# Velocity S-wave (km/s) = 2.96109 3.69570 3.34860
# Velocity P-wave (km/s) = 4.90716 6.07362 5.52128
#
# Compressibility (1/GPa) = 0.03650290
#
# Stress axis : x y z
#
# Youngs Moduli (GPa) = 117.99525 84.34991 31.99696
#
# Poissons Ratio (x) = 0.16060 0.18301
# Poissons Ratio (y) = 0.22466 -0.00267
# Poissons Ratio (z) = 0.67490 -0.00704
#
# Static dielectric constant tensor:
#      x y z
#    x 1.866760 0.000000 -0.030570 
#    y 0.000000 1.923450 0.000000 
#    z -0.030570 0.000000 1.823270 
# 
# From -- ./inp_files/76448.got.cif
#   From: 2010.05.17/outbox.cif.g08.bks.cpg/sg14_39_cif.got.tgz:76448.got - 2010.06.03 17:49:19.
