data_PCOD9239718
_publ_section_title
;
Structure prediction by ZEFSAII (Michael W. Deem and Ramdas Pophale) SiO2 
 PCOD9239718
Probable space group: P 21/C
;
_chemical_formula_sum "Si O2"
_cell_formula_units_Z 28
_cell_length_a 10.303192
_cell_length_b 14.475728
_cell_length_c 17.460314
_cell_angle_alpha 90.000000
_cell_angle_beta 143.113945
_cell_angle_gamma 90.000000
_cell_volume 1563.071172
_symmetry_space_group_name_H-M "P 21/C"
_symmetry_group_IT_number 14
_symmetry_cell_setting 'monoclinic'
loop_
_space_group_symop_operation_xyz
x,y,z
-x,1/2+y,1/2-z
-x,-y,-z
x,1/2-y,1/2+z
loop_
_atom_site_type_symbol
_atom_site_label
_atom_site_fract_x
_atom_site_fract_y
_atom_site_fract_z
Si Si1 0.801173 0.941933 0.659090
Si Si2 0.197541 0.835637 0.920565
Si Si3 0.509719 0.329856 0.100862
Si Si4 0.087025 0.649316 0.815011
Si Si5 0.376443 0.353510 0.480131
Si Si6 0.220584 0.008782 0.024396
Si Si7 0.716975 0.022308 0.781327
O O1 0.639868 0.886730 0.528894
O O2 0.693792 0.964910 0.691402
O O3 0.012140 0.882097 0.779621
O O4 0.865100 0.040427 0.651315
O O5 0.139541 0.727535 0.902840
O O6 0.423922 0.846875 0.983451
O O7 0.202593 0.899386 0.998328
O O8 0.746242 0.322766 0.173693
O O9 0.407252 0.229319 0.055706
O O10 0.557784 0.390854 0.197710
O O11 0.843147 0.658578 0.671091
O O12 0.354280 0.446266 0.518744
O O13 0.315265 0.026527 0.152782
O O14 0.974246 0.046749 0.903560
#
# Coordination Sequence:
#
# PCOD9239718 Si02
#       7
#     4   4   4   4   4   4   4
#     4  10  18  33  56  78 101 132 174 218 257 295
#     4  10  20  31  51  79 102 132 171 216 255 302
#     4  10  19  33  54  79 104 132 175 219 252 298
#     4  10  18  31  49  80 101 129 174 212 260 294
#     4  11  19  31  54  79 105 133 173 213 257 309
#     4  10  19  34  54  75 106 137 172 209 259 305
#     4   9  18  33  53  73 101 136 173 212 246 311
#
# _framework density 17.913451999999999
#
# number of rings (size 3 to 8) (size 9 to 14) (size 15 to 20)
#    0.000    2.000    5.714    2.143    0.000    0.000 
#    0.000    4.286    0.000    0.857    0.000    0.000 
#    0.000    0.000    0.000    0.000    0.000    0.000 
#
# Total GULP energy -155876.395280 kJ/mol
# GULP energy per Si atom -5567.014117 kJ/mol
# Density = 1.787268 g / cm^3
# Si number density = 17.913452 Si / 1000 Ang^3
#
#
#
# Elastic Constant Matrix: (Units=GPa)
#
#
# Indices 1 2 3 4 5 6 
#
# 1 32.4226 6.3377 23.6608 0.0000 9.3580 0.0000
# 2 6.3377 77.5697 13.8290 0.0000 -8.3652 0.0000
# 3 23.6608 13.8290 69.0300 0.0000 3.4360 0.0000
# 4 0.0000 0.0000 0.0000 20.9944 0.0000 -2.5084
# 5 9.3580 -8.3652 3.4360 0.0000 23.8780 0.0000
# 6 0.0000 0.0000 0.0000 -2.5084 0.0000 8.6762
#
#
#
# Elastic Compliance Matrix: (Units=1/GPa)
#
#
# Indices 1 2 3 4 5 6 
#
# 1 0.047220 -0.003125 -0.014689 0.000000 -0.017487 0.000000
# 2 -0.003125 0.014224 -0.002102 0.000000 0.006510 0.000000
# 3 -0.014689 -0.002102 0.019835 0.000000 0.002166 0.000000
# 4 0.000000 0.000000 0.000000 0.049336 0.000000 0.014264
# 5 -0.017487 0.006510 0.002166 0.000000 0.050702 0.000000
# 6 0.000000 0.000000 0.000000 0.014264 0.000000 0.119381
#
#
# Mechanical properties :
#
#
# Convention : Reuss Voigt Hill
#
# Bulk Modulus (GPa) = 24.12783 29.63080 26.87931
# Shear Modulus (GPa) = 14.11052 19.72271 16.91661
#
# Velocity S-wave (km/s) = 2.80965 3.32173 3.07637
# Velocity P-wave (km/s) = 4.90142 5.59365 5.25893
#
# Compressibility (1/GPa) = 0.04144592
#
# Stress axis : x y z
#
# Youngs Moduli (GPa) = 21.17747 70.30431 50.41717
#
# Poissons Ratio (x) = 0.21971 0.74056
# Poissons Ratio (y) = 0.06618 0.10600
# Poissons Ratio (z) = 0.31107 0.14781
#
# Static dielectric constant tensor:
#      x y z
#    x 1.599050 0.000000 0.003840 
#    y 0.000000 1.701380 0.000000 
#    z 0.003840 0.000000 1.614420 
# 
# From -- ./inp_files/57879.got.cif
#   From: 2010.05.17/outbox.cif.g08.bks.cpg/sg14_29_cif.got.tgz:57879.got - 2010.06.03 17:49:19.
