data_PCOD9239637
_publ_section_title
;
Structure prediction by ZEFSAII (Michael W. Deem and Ramdas Pophale) SiO2 
 PCOD9239637
Probable space group: P 21/C
;
_chemical_formula_sum "Si O2"
_cell_formula_units_Z 20
_cell_length_a 22.696554
_cell_length_b 7.166998
_cell_length_c 5.461934
_cell_angle_alpha 90.000000
_cell_angle_beta 103.820581
_cell_angle_gamma 90.000000
_cell_volume 862.749253
_symmetry_space_group_name_H-M "P 21/C"
_symmetry_group_IT_number 14
_symmetry_cell_setting 'monoclinic'
loop_
_space_group_symop_operation_xyz
x,y,z
-x,1/2+y,1/2-z
-x,-y,-z
x,1/2-y,1/2+z
loop_
_atom_site_type_symbol
_atom_site_label
_atom_site_fract_x
_atom_site_fract_y
_atom_site_fract_z
Si Si1 0.059334 0.371507 0.552500
Si Si2 0.383663 0.952843 0.958361
Si Si3 0.191218 0.968962 0.218901
Si Si4 0.241291 0.546547 0.268757
Si Si5 0.569237 0.028702 0.494736
O O1 0.059657 0.256307 0.297762
O O2 0.120133 0.495723 0.622202
O O3 0.000000 0.500000 0.500000
O O4 0.313325 0.931159 0.821897
O O5 0.413635 0.747733 0.015194
O O6 0.416908 0.048728 0.761995
O O7 0.391094 0.039620 0.235029
O O8 0.209999 0.750930 0.247597
O O9 0.214819 0.046511 0.500100
O O10 0.224270 0.043471 0.009839
O O11 0.500000 0.000000 0.500000
#
# Coordination Sequence:
#
# PCOD9239637 Si02
#       5
#     4   4   4   4   4
#     4  12  28  46  70 101 141 182 223 271 332 400
#     4  10  19  33  52  88 107 146 214 249 321 365
#     4  10  20  35  62  93 124 155 212 259 328 367
#     4  10  19  35  65  96 116 157 210 282 316 390
#     4  10  18  29  48  77 112 146 180 249 302 370
#
# _framework density 23.181705999999998
#
# number of rings (size 3 to 8) (size 9 to 14) (size 15 to 20)
#    0.000    1.600    0.000    8.400    5.600    0.000 
#    0.000    0.000    0.000    0.000  176.800    0.000 
#    0.000    0.000    0.000    0.000    0.000    0.000 
#
# Total GULP energy -111803.695265 kJ/mol
# GULP energy per Si atom -5590.184763 kJ/mol
# Density = 2.312894 g / cm^3
# Si number density = 23.181706 Si / 1000 Ang^3
#
#
#
# Elastic Constant Matrix: (Units=GPa)
#
#
# Indices 1 2 3 4 5 6 
#
# 1 142.6642 9.2393 10.2472 0.0000 13.6999 0.0000
# 2 9.2393 91.4059 2.9102 0.0000 3.1308 0.0000
# 3 10.2472 2.9102 204.3097 0.0000 -24.6909 0.0000
# 4 0.0000 0.0000 0.0000 -33.5567 0.0000 22.8363
# 5 13.6999 3.1308 -24.6909 0.0000 55.9296 0.0000
# 6 0.0000 0.0000 0.0000 22.8363 0.0000 20.0017
#
#
#
# Elastic Compliance Matrix: (Units=1/GPa)
#
#
# Indices 1 2 3 4 5 6 
#
# 1 0.007288 -0.000649 -0.000600 0.000000 -0.002014 0.000000
# 2 -0.000649 0.011030 -0.000190 0.000000 -0.000543 0.000000
# 3 -0.000600 -0.000190 0.005225 0.000000 0.002464 0.000000
# 4 0.000000 0.000000 0.000000 -0.016770 0.000000 0.019147
# 5 -0.002014 -0.000543 0.002464 0.000000 0.019491 0.000000
# 6 0.000000 0.000000 0.000000 0.019147 0.000000 0.028135
#
#
# Mechanical properties :
#
#
# Convention : Reuss Voigt Hill
#
# Bulk Modulus (GPa) = 48.38709 53.68590 51.03650
# Shear Modulus (GPa) = 77.92384 36.20712 57.06548
#
# Velocity S-wave (km/s) = 5.80408 3.95635 4.96689
# Velocity P-wave (km/s) = 8.11386 6.63923 7.41330
#
# Compressibility (1/GPa) = 0.02066667
#
# Stress axis : x y z
#
# Youngs Moduli (GPa) = 137.21365 90.65843 191.38332
#
# Poissons Ratio (x) = 0.05880 0.11476
# Poissons Ratio (y) = 0.08900 0.03639
# Poissons Ratio (z) = 0.08228 0.01724
#
# Static dielectric constant tensor:
#      x y z
#    x 1.791480 0.000000 -0.032900 
#    y 0.000000 1.759660 0.000000 
#    z -0.032900 0.000000 1.929990 
# 
# From -- ./inp_files/4041.got.cif
#   From: 2010.05.17/outbox.cif.g08.bks.cpg/sg14_3_cif.got.tgz:4041.got - 2010.06.03 17:49:19.
