data_PCOD9239663
_publ_section_title
;
Structure prediction by ZEFSAII (Michael W. Deem and Ramdas Pophale) SiO2 
 PCOD9239663
Probable space group: P 21/C
;
_chemical_formula_sum "Si O2"
_cell_formula_units_Z 32
_cell_length_a 8.972755
_cell_length_b 19.213900
_cell_length_c 11.811595
_cell_angle_alpha 90.000000
_cell_angle_beta 37.437461
_cell_angle_gamma 90.000000
_cell_volume 1237.879966
_symmetry_space_group_name_H-M "P 21/C"
_symmetry_group_IT_number 14
_symmetry_cell_setting 'monoclinic'
loop_
_space_group_symop_operation_xyz
x,y,z
-x,1/2+y,1/2-z
-x,-y,-z
x,1/2-y,1/2+z
loop_
_atom_site_type_symbol
_atom_site_label
_atom_site_fract_x
_atom_site_fract_y
_atom_site_fract_z
Si Si1 0.123890 0.936203 0.168460
Si Si2 0.930772 0.569167 0.197799
Si Si3 0.187268 0.171342 0.731119
Si Si4 0.152191 0.721504 0.165594
Si Si5 0.285395 0.030018 0.411535
Si Si6 0.606347 0.361534 0.810305
Si Si7 0.537103 0.658823 0.506453
Si Si8 0.501202 0.778280 0.262347
O O1 0.013664 0.889581 0.134607
O O2 0.924732 0.927156 0.391425
O O3 0.130516 0.019163 0.157877
O O4 0.375857 0.904770 0.058458
O O5 0.210954 0.547463 0.998206
O O6 0.811412 0.643182 0.296657
O O7 0.782094 0.540678 0.177965
O O8 0.423657 0.138553 0.529326
O O9 0.072464 0.225680 0.710840
O O10 0.267936 0.210583 0.794754
O O11 0.154418 0.665396 0.266014
O O12 0.382061 0.774378 0.059730
O O13 0.254945 0.702756 0.979606
O O14 0.543206 0.064670 0.289655
O O15 0.531837 0.300256 0.766644
O O16 0.533889 0.668314 0.641085
#
# Coordination Sequence:
#
# PCOD9239663 Si02
#       8
#     4   4   4   4   4   4   4   4
#     4   8  16  30  49  70  96 128 163 202 237 289
#     4   9  16  29  49  76  98 130 167 204 239 289
#     4   9  18  33  49  69  98 130 163 197 251 299
#     4   9  19  32  49  69  98 130 161 200 249 298
#     4   8  16  28  50  75  97 127 168 205 243 287
#     4   9  17  32  49  72 100 125 162 209 246 288
#     4  10  18  30  48  73  98 124 167 207 241 287
#     4  10  20  31  48  74 100 127 161 207 250 296
#
# _framework density 25.850648
#
# number of rings (size 3 to 8) (size 9 to 14) (size 15 to 20)
#    0.750    2.250    0.000    1.125    0.000    4.000 
#    0.000    0.625    0.000    0.000    0.000   15.750 
#    0.000    0.000    0.000    0.000    0.000    0.000 
#
# Total GULP energy -178452.339806 kJ/mol
# GULP energy per Si atom -5576.635619 kJ/mol
# Density = 2.579181 g / cm^3
# Si number density = 25.850648 Si / 1000 Ang^3
#
#
#
# Elastic Constant Matrix: (Units=GPa)
#
#
# Indices 1 2 3 4 5 6 
#
# 1 79.0075 -14.3730 16.7517 0.0000 3.8945 0.0000
# 2 -14.3730 71.9492 -0.6950 0.0000 2.0158 0.0000
# 3 16.7517 -0.6950 63.6945 0.0000 -6.9444 0.0000
# 4 0.0000 0.0000 0.0000 33.6679 0.0000 2.5889
# 5 3.8945 2.0158 -6.9444 0.0000 22.9596 0.0000
# 6 0.0000 0.0000 0.0000 2.5889 0.0000 33.1113
#
#
#
# Elastic Compliance Matrix: (Units=1/GPa)
#
#
# Indices 1 2 3 4 5 6 
#
# 1 0.014261 0.002919 -0.004147 0.000000 -0.003930 0.000000
# 2 0.002919 0.014530 -0.000830 0.000000 -0.002022 0.000000
# 3 -0.004147 -0.000830 0.017441 0.000000 0.006052 0.000000
# 4 0.000000 0.000000 0.000000 0.029882 0.000000 -0.002336
# 5 -0.003930 -0.002022 0.006052 0.000000 0.046229 0.000000
# 6 0.000000 0.000000 0.000000 -0.002336 0.000000 0.030384
#
#
# Mechanical properties :
#
#
# Convention : Reuss Voigt Hill
#
# Bulk Modulus (GPa) = 23.74332 24.22428 23.98380
# Shear Modulus (GPa) = 29.25990 32.14558 30.70274
#
# Velocity S-wave (km/s) = 3.36800 3.53017 3.45004
# Velocity P-wave (km/s) = 4.93247 5.09974 5.01680
#
# Compressibility (1/GPa) = 0.04211711
#
# Stress axis : x y z
#
# Youngs Moduli (GPa) = 70.12097 68.82108 57.33476
#
# Poissons Ratio (x) = -0.20088 0.23778
# Poissons Ratio (y) = -0.20468 0.04756
# Poissons Ratio (z) = 0.29081 0.05709
#
# Static dielectric constant tensor:
#      x y z
#    x 2.130030 0.000000 -0.068220 
#    y 0.000000 2.174880 0.000000 
#    z -0.068220 0.000000 2.113250 
# 
# From -- ./inp_files/26972.got.cif
#   From: 2010.05.17/outbox.cif.g08.bks.cpg/sg14_14_cif.got.tgz:26972.got - 2010.06.03 17:49:19.
