data_PCOD9239823
_publ_section_title
;
Structure prediction by ZEFSAII (Michael W. Deem and Ramdas Pophale) SiO2 
 PCOD9239823
Probable space group: P 21/C
;
_chemical_formula_sum "Si O2"
_cell_formula_units_Z 32
_cell_length_a 14.614909
_cell_length_b 14.102506
_cell_length_c 19.674978
_cell_angle_alpha 90.000000
_cell_angle_beta 18.289984
_cell_angle_gamma 90.000000
_cell_volume 1272.612691
_symmetry_space_group_name_H-M "P 21/C"
_symmetry_group_IT_number 14
_symmetry_cell_setting 'monoclinic'
loop_
_space_group_symop_operation_xyz
x,y,z
-x,1/2+y,1/2-z
-x,-y,-z
x,1/2-y,1/2+z
loop_
_atom_site_type_symbol
_atom_site_label
_atom_site_fract_x
_atom_site_fract_y
_atom_site_fract_z
Si Si1 0.426576 0.403696 0.763018
Si Si2 0.482974 0.144549 0.068676
Si Si3 0.173984 0.631090 0.842086
Si Si4 0.209127 0.172808 0.737665
Si Si5 0.025946 0.517836 0.326506
Si Si6 0.216056 0.043746 0.139760
Si Si7 0.336902 0.722985 0.867172
Si Si8 0.073592 0.336187 0.491321
O O1 0.425464 0.353433 0.689370
O O2 0.695179 0.475514 0.571597
O O3 0.492742 0.322076 0.771561
O O4 0.091888 0.435254 0.996213
O O5 0.475378 0.253958 0.052003
O O6 0.748287 0.070005 0.876003
O O7 0.228590 0.093595 0.203797
O O8 0.476363 0.586166 0.605220
O O9 0.227912 0.659768 0.882171
O O10 0.079766 0.735939 0.882642
O O11 0.091224 0.151401 0.897489
O O12 0.233618 0.073696 0.683223
O O13 0.937173 0.233215 0.898972
O O14 0.013260 0.560746 0.259132
O O15 0.072803 0.586231 0.357073
O O16 0.584657 0.665701 0.730414
#
# Coordination Sequence:
#
# PCOD9239823 Si02
#       8
#     4   4   4   4   4   4   4   4
#     4   9  18  32  55  81 108 141 184 224 269 323
#     4  10  19  37  52  79 108 141 187 223 274 323
#     4  10  18  33  56  81 110 145 177 228 280 320
#     4  10  19  33  57  81 109 146 185 227 278 335
#     4  10  20  33  54  86 114 143 184 232 279 331
#     4  10  22  34  55  79 111 144 185 233 269 327
#     4   9  15  29  52  81 109 132 177 226 264 322
#     4  10  18  32  53  86 115 138 181 229 283 320
#
# _framework density 25.145119999999999
#
# number of rings (size 3 to 8) (size 9 to 14) (size 15 to 20)
#    0.000    2.250    5.000    0.375    0.000    3.000 
#    0.000    5.000    0.000    0.750    0.000    0.000 
#    0.000    0.000    0.000    0.000    0.000    0.000 
#
# Total GULP energy -178306.934218 kJ/mol
# GULP energy per Si atom -5572.091694 kJ/mol
# Density = 2.508789 g / cm^3
# Si number density = 25.145120 Si / 1000 Ang^3
#
#
#
# Elastic Constant Matrix: (Units=GPa)
#
#
# Indices 1 2 3 4 5 6 
#
# 1 93.6600 32.7413 20.7368 0.0000 -5.4623 0.0000
# 2 32.7413 101.9430 17.7343 0.0000 -8.9072 0.0000
# 3 20.7368 17.7343 57.4695 0.0000 -3.1290 0.0000
# 4 0.0000 0.0000 0.0000 25.8614 0.0000 -12.8526
# 5 -5.4623 -8.9072 -3.1290 0.0000 24.1884 0.0000
# 6 0.0000 0.0000 0.0000 -12.8526 0.0000 39.8989
#
#
#
# Elastic Compliance Matrix: (Units=1/GPa)
#
#
# Indices 1 2 3 4 5 6 
#
# 1 0.012693 -0.003369 -0.003476 0.000000 0.001176 0.000000
# 2 -0.003369 0.011550 -0.002174 0.000000 0.003211 0.000000
# 3 -0.003476 -0.002174 0.019376 0.000000 0.000921 0.000000
# 4 0.000000 0.000000 0.000000 0.046038 0.000000 0.014830
# 5 0.001176 0.003211 0.000921 0.000000 0.042909 0.000000
# 6 0.000000 0.000000 0.000000 0.014830 0.000000 0.029841
#
#
# Mechanical properties :
#
#
# Convention : Reuss Voigt Hill
#
# Bulk Modulus (GPa) = 39.09202 43.94413 41.51807
# Shear Modulus (GPa) = 26.45893 30.11374 28.28633
#
# Velocity S-wave (km/s) = 3.24736 3.46439 3.35763
# Velocity P-wave (km/s) = 5.44433 5.78937 5.61950
#
# Compressibility (1/GPa) = 0.02558067
#
# Stress axis : x y z
#
# Youngs Moduli (GPa) = 78.78397 86.57857 51.61076
#
# Poissons Ratio (x) = 0.29169 0.17942
# Poissons Ratio (y) = 0.26543 0.11219
# Poissons Ratio (z) = 0.27388 0.18820
#
# Static dielectric constant tensor:
#      x y z
#    x 2.014170 0.000000 -0.002660 
#    y 0.000000 2.042830 0.000000 
#    z -0.002660 0.000000 2.081110 
# 
# From -- ./inp_files/68691.got.cif
#   From: 2010.05.17/outbox.cif.g08.bks.cpg/sg14_35_cif.got.tgz:68691.got - 2010.06.03 17:49:19.
