data_PCOD9239808
_publ_section_title
;
Structure prediction by ZEFSAII (Michael W. Deem and Ramdas Pophale) SiO2 
 PCOD9239808
Probable space group: P 21/C
;
_chemical_formula_sum "Si O2"
_cell_formula_units_Z 26
_cell_length_a 15.762391
_cell_length_b 5.444147
_cell_length_c 29.347742
_cell_angle_alpha 90.000000
_cell_angle_beta 156.361371
_cell_angle_gamma 90.000000
_cell_volume 1009.799147
_symmetry_space_group_name_H-M "P 21/C"
_symmetry_group_IT_number 14
_symmetry_cell_setting 'monoclinic'
loop_
_space_group_symop_operation_xyz
x,y,z
-x,1/2+y,1/2-z
-x,-y,-z
x,1/2-y,1/2+z
loop_
_atom_site_type_symbol
_atom_site_label
_atom_site_fract_x
_atom_site_fract_y
_atom_site_fract_z
Si Si1 0.047992 0.888773 0.920173
Si Si2 0.000000 0.500000 0.500000
Si Si3 0.389948 0.615930 0.320864
Si Si4 0.872362 0.894993 0.572499
Si Si5 0.355005 0.119048 0.344211
Si Si6 0.127372 0.030382 0.321888
Si Si7 0.444263 0.388514 0.698739
O O1 0.173289 0.632138 0.981044
O O2 0.869607 0.867480 0.793361
O O3 0.185372 0.124312 0.973407
O O4 0.950244 0.920611 0.921967
O O5 0.803964 0.672267 0.422464
O O6 0.451896 0.384508 0.382566
O O7 0.444342 0.581988 0.294846
O O8 0.132352 0.627160 0.197707
O O9 0.462134 0.882267 0.374205
O O10 0.820469 0.951837 0.599407
O O11 0.309926 0.072448 0.374723
O O12 0.969887 0.261300 0.235476
O O13 0.442671 0.661591 0.720413
#
# Coordination Sequence:
#
# PCOD9239808 Si02
#       7
#     4   2   4   4   4   4   4
#     4  10  20  34  52  82 123 162 211 274 317 391
#     4  12  28  46  72 102 136 190 240 282 360 418
#     4  10  18  32  52  80 120 161 202 266 329 383
#     4  10  18  32  54  87 124 164 217 269 328 399
#     4  10  18  32  54  88 125 165 214 270 328 404
#     4  12  16  28  52  92 125 165 218 272 333 406
#     4  12  26  46  70  99 135 182 239 297 348 411
#
# _framework density 25.747691
#
# number of rings (size 3 to 8) (size 9 to 14) (size 15 to 20)
#    0.000    1.231    6.154    4.615    0.000    2.462 
#    0.000    0.000    0.000    0.000    0.000   11.846 
#    0.000    0.000    0.000    0.000    0.000    0.000 
#
# Total GULP energy -145049.209186 kJ/mol
# GULP energy per Si atom -5578.815738 kJ/mol
# Density = 2.568909 g / cm^3
# Si number density = 25.747691 Si / 1000 Ang^3
#
#
#
# Elastic Constant Matrix: (Units=GPa)
#
#
# Indices 1 2 3 4 5 6 
#
# 1 194.6522 6.2640 12.5450 0.0000 -13.5186 0.0000
# 2 6.2640 149.2775 5.5198 0.0000 0.3403 0.0000
# 3 12.5450 5.5198 34.2888 0.0000 -11.2712 0.0000
# 4 0.0000 0.0000 0.0000 23.9252 0.0000 23.3645
# 5 -13.5186 0.3403 -11.2712 0.0000 30.0639 0.0000
# 6 0.0000 0.0000 0.0000 23.3645 0.0000 37.3023
#
#
#
# Elastic Compliance Matrix: (Units=1/GPa)
#
#
# Indices 1 2 3 4 5 6 
#
# 1 0.005361 -0.000181 -0.001299 0.000000 0.001925 0.000000
# 2 -0.000181 0.006753 -0.001224 0.000000 -0.000617 0.000000
# 3 -0.001299 -0.001224 0.033816 0.000000 0.012108 0.000000
# 4 0.000000 0.000000 0.000000 0.107634 0.000000 -0.067417
# 5 0.001925 -0.000617 0.012108 0.000000 0.038675 0.000000
# 6 0.000000 0.000000 0.000000 -0.067417 0.000000 0.069035
#
#
# Mechanical properties :
#
#
# Convention : Reuss Voigt Hill
#
# Bulk Modulus (GPa) = 24.67783 47.43067 36.05425
# Shear Modulus (GPa) = 17.84507 41.85094 29.84801
#
# Velocity S-wave (km/s) = 2.63549 4.03603 3.40847
# Velocity P-wave (km/s) = 4.34354 6.33882 5.43356
#
# Compressibility (1/GPa) = 0.04052221
#
# Stress axis : x y z
#
# Youngs Moduli (GPa) = 186.54442 148.07820 29.57159
#
# Poissons Ratio (x) = 0.02685 0.03842
# Poissons Ratio (y) = 0.03382 0.03618
# Poissons Ratio (z) = 0.24235 0.18117
#
# Static dielectric constant tensor:
#      x y z
#    x 1.473820 0.000000 0.276330 
#    y 0.000000 2.134960 0.000000 
#    z 0.276330 0.000000 2.246670 
# 
# From -- ./inp_files/80158.got.cif
#   From: 2010.05.17/outbox.cif.g08.bks.cpg/sg14_41_cif.got.tgz:80158.got - 2010.06.03 17:49:19.
