data_PCOD9239140
_publ_section_title
;
Structure prediction by ZEFSAII (Michael W. Deem and Ramdas Pophale) SiO2 
 PCOD9239140
Probable space group: P 21/C
;
_chemical_formula_sum "Si O2"
_cell_formula_units_Z 32
_cell_length_a 12.485124
_cell_length_b 5.382190
_cell_length_c 27.072488
_cell_angle_alpha 90.000000
_cell_angle_beta 90.409289
_cell_angle_gamma 90.000000
_cell_volume 1819.151941
_symmetry_space_group_name_H-M "P 21/C"
_symmetry_group_IT_number 14
_symmetry_cell_setting 'monoclinic'
loop_
_space_group_symop_operation_xyz
x,y,z
-x,1/2+y,1/2-z
-x,-y,-z
x,1/2-y,1/2+z
loop_
_atom_site_type_symbol
_atom_site_label
_atom_site_fract_x
_atom_site_fract_y
_atom_site_fract_z
Si Si1 0.967314 0.250159 0.528201
Si Si2 0.744769 0.247742 0.986681
Si Si3 0.065172 0.300402 0.739367
Si Si4 0.304836 0.247400 0.528868
Si Si5 0.985217 0.283229 0.139635
Si Si6 0.653096 0.747625 0.087391
Si Si7 0.448874 0.747586 0.439215
Si Si8 0.851936 0.716930 0.660803
O O1 0.837417 0.250961 0.527947
O O2 0.013480 0.247288 0.582917
O O3 0.000000 0.500000 0.500000
O O4 0.000000 0.000000 0.500000
O O5 0.751011 0.495887 0.955237
O O6 0.751088 0.999075 0.955431
O O7 0.628061 0.247372 0.012422
O O8 0.157564 0.253890 0.779932
O O9 0.021232 0.582178 0.746370
O O10 0.077296 0.251062 0.681166
O O11 0.297849 0.247179 0.468469
O O12 0.428618 0.247316 0.544174
O O13 0.930457 0.554977 0.145369
O O14 0.902909 0.054946 0.150960
O O15 0.584660 0.495687 0.089653
O O16 0.745580 0.756730 0.128133
O O17 0.581176 0.994756 0.088736
#
# Coordination Sequence:
#
# PCOD9239140 Si02
#       8
#     4   4   4   4   4   4   4   4
#     4  12  24  35  46  65  91 128 172 201 216 250
#     4  10  18  30  44  58  82 115 148 187 222 250
#     4   8  16  27  44  65  84 108 147 190 231 278
#     4  10  17  28  44  64  84 114 146 175 223 285
#     4  10  18  32  46  60  86 119 154 200 234 255
#     4  10  16  23  36  58  88 113 134 166 202 260
#     4  10  18  27  42  64  86 115 145 173 222 284
#     4  10  17  28  46  68  87 116 154 182 228 290
#
# _framework density 17.590613999999999
#
# number of rings (size 3 to 8) (size 9 to 14) (size 15 to 20)
#    0.000    2.000    0.000    9.000    0.000    0.000 
#    0.000    0.000    0.000    0.000    0.000    0.000 
#    0.000    0.000    0.000   38.250    0.000    6.500 
#
# Total GULP energy -178290.728986 kJ/mol
# GULP energy per Si atom -5571.585281 kJ/mol
# Density = 1.755058 g / cm^3
# Si number density = 17.590614 Si / 1000 Ang^3
#
#
#
# Elastic Constant Matrix: (Units=GPa)
#
#
# Indices 1 2 3 4 5 6 
#
# 1 51.1451 14.6188 20.2907 0.0000 24.2516 0.0000
# 2 14.6188 152.3443 18.9745 0.0000 9.1914 0.0000
# 3 20.2907 18.9745 97.7463 0.0000 27.7281 0.0000
# 4 0.0000 0.0000 0.0000 18.1535 0.0000 7.1395
# 5 24.2516 9.1914 27.7281 0.0000 27.0763 0.0000
# 6 0.0000 0.0000 0.0000 7.1395 0.0000 24.0723
#
#
#
# Elastic Compliance Matrix: (Units=1/GPa)
#
#
# Indices 1 2 3 4 5 6 
#
# 1 0.034731 -0.001647 0.002503 0.000000 -0.033112 0.000000
# 2 -0.001647 0.006839 -0.001051 0.000000 0.000229 0.000000
# 3 0.002503 -0.001051 0.014728 0.000000 -0.016968 0.000000
# 4 0.000000 0.000000 0.000000 0.062360 0.000000 -0.018495
# 5 -0.033112 0.000229 -0.016968 0.000000 0.083889 0.000000
# 6 0.000000 0.000000 0.000000 -0.018495 0.000000 0.047027
#
#
# Mechanical properties :
#
#
# Convention : Reuss Voigt Hill
#
# Bulk Modulus (GPa) = 17.88620 45.44486 31.66553
# Shear Modulus (GPa) = 18.61512 30.35053 24.48282
#
# Velocity S-wave (km/s) = 3.25659 4.15828 3.73475
# Velocity P-wave (km/s) = 4.93261 6.99613 6.05295
#
# Compressibility (1/GPa) = 0.05590901
#
# Stress axis : x y z
#
# Youngs Moduli (GPa) = 28.79310 146.21730 67.89594
#
# Poissons Ratio (x) = 0.24078 -0.16995
# Poissons Ratio (y) = 0.04741 0.07135
# Poissons Ratio (z) = -0.07207 0.15366
#
# Static dielectric constant tensor:
#      x y z
#    x 1.592110 0.000000 0.020710 
#    y 0.000000 1.717050 0.000000 
#    z 0.020710 0.000000 1.600460 
# 
# From -- ./inp_files/72764.got.cif
#   From: 2010.05.17/outbox.cif.g08.bks.cpg/sg14_37_cif.got.tgz:72764.got - 2010.06.03 17:49:19.
