data_PCOD9239621
_publ_section_title
;
Structure prediction by ZEFSAII (Michael W. Deem and Ramdas Pophale) SiO2 
 PCOD9239621
Probable space group: P 21/C
;
_chemical_formula_sum "Si O2"
_cell_formula_units_Z 32
_cell_length_a 19.740806
_cell_length_b 18.401132
_cell_length_c 24.862437
_cell_angle_alpha 90.000000
_cell_angle_beta 168.580590
_cell_angle_gamma 90.000000
_cell_volume 1788.113521
_symmetry_space_group_name_H-M "P 21/C"
_symmetry_group_IT_number 14
_symmetry_cell_setting 'monoclinic'
loop_
_space_group_symop_operation_xyz
x,y,z
-x,1/2+y,1/2-z
-x,-y,-z
x,1/2-y,1/2+z
loop_
_atom_site_type_symbol
_atom_site_label
_atom_site_fract_x
_atom_site_fract_y
_atom_site_fract_z
Si Si1 0.773206 0.306507 0.495721
Si Si2 0.310403 0.586804 0.086471
Si Si3 0.202044 0.820979 0.859324
Si Si4 0.265266 0.297924 0.533718
Si Si5 0.785763 0.577514 0.777405
Si Si6 0.755149 0.686849 0.608148
Si Si7 0.179951 0.583534 0.196072
Si Si8 0.654029 0.919087 0.386281
O O1 0.687434 0.312296 0.492580
O O2 0.517832 0.254630 0.263606
O O3 0.701156 0.382868 0.410045
O O4 0.131237 0.263139 0.776943
O O5 0.057119 0.587343 0.941152
O O6 0.092956 0.634687 0.874673
O O7 0.657751 0.626049 0.376911
O O8 0.368135 0.503375 0.115725
O O9 0.095760 0.744363 0.749945
O O10 0.858396 0.871097 0.589246
O O11 0.490285 0.863530 0.051252
O O12 0.349323 0.304194 0.535524
O O13 0.640049 0.495494 0.661351
O O14 0.982131 0.583469 0.986147
O O15 0.453938 0.646984 0.405099
O O16 0.904295 0.587300 0.028936
#
# Coordination Sequence:
#
# PCOD9239621 Si02
#       8
#     4   4   4   4   4   4   4   4
#     4   9  19  32  44  61  91 129 162 194 224 272
#     4  10  19  30  47  71  98 125 155 192 233 279
#     4  10  18  30  45  62  92 131 161 188 228 274
#     4   9  19  32  44  61  91 129 162 194 224 272
#     4  10  18  28  45  71 101 129 155 187 229 279
#     4  10  18  30  45  62  92 131 161 188 228 274
#     4  10  18  28  45  71 101 129 155 187 229 279
#     4  10  19  30  47  71  98 125 155 192 233 279
#
# _framework density 17.895956000000002
#
# number of rings (size 3 to 8) (size 9 to 14) (size 15 to 20)
#    0.000    2.250    2.500    1.500    0.000    3.000 
#    0.000    0.000    0.000    0.000    0.000    0.000 
#    0.000   39.000    0.000   44.250    0.000   14.750 
#
# Total GULP energy -178158.809482 kJ/mol
# GULP energy per Si atom -5567.462796 kJ/mol
# Density = 1.785522 g / cm^3
# Si number density = 17.895956 Si / 1000 Ang^3
#
#
#
# Elastic Constant Matrix: (Units=GPa)
#
#
# Indices 1 2 3 4 5 6 
#
# 1 51.8105 5.3530 8.9137 0.0000 -27.4946 0.0000
# 2 5.3530 86.6044 24.6476 0.0000 2.2873 0.0000
# 3 8.9137 24.6476 46.7349 0.0000 -18.6272 0.0000
# 4 0.0000 0.0000 0.0000 44.0853 0.0000 2.7886
# 5 -27.4946 2.2873 -18.6272 0.0000 37.4606 0.0000
# 6 0.0000 0.0000 0.0000 2.7886 0.0000 6.1449
#
#
#
# Elastic Compliance Matrix: (Units=1/GPa)
#
#
# Indices 1 2 3 4 5 6 
#
# 1 0.033920 -0.005087 0.007807 0.000000 0.029089 0.000000
# 2 -0.005087 0.015314 -0.011184 0.000000 -0.010230 0.000000
# 3 0.007807 -0.011184 0.035373 0.000000 0.024002 0.000000
# 4 0.000000 0.000000 0.000000 0.023354 0.000000 -0.010598
# 5 0.029089 -0.010230 0.024002 0.000000 0.060604 0.000000
# 6 0.000000 0.000000 0.000000 -0.010598 0.000000 0.167545
#
#
# Mechanical properties :
#
#
# Convention : Reuss Voigt Hill
#
# Bulk Modulus (GPa) = 14.77529 29.21983 21.99756
# Shear Modulus (GPa) = 13.31215 27.28721 20.29968
#
# Velocity S-wave (km/s) = 2.73035 3.90907 3.37162
# Velocity P-wave (km/s) = 4.26777 6.06114 5.24172
#
# Compressibility (1/GPa) = 0.06768058
#
# Stress axis : x y z
#
# Youngs Moduli (GPa) = 29.48103 65.29897 28.27028
#
# Poissons Ratio (x) = 0.33216 -0.22071
# Poissons Ratio (y) = 0.14996 0.31616
# Poissons Ratio (z) = -0.23016 0.73028
#
# Static dielectric constant tensor:
#      x y z
#    x 1.604490 0.000000 -0.040390 
#    y 0.000000 1.681330 0.000000 
#    z -0.040390 0.000000 1.651010 
# 
# From -- ./inp_files/69467.got.cif
#   From: 2010.05.17/outbox.cif.g08.bks.cpg/sg14_35_cif.got.tgz:69467.got - 2010.06.03 17:49:19.
