data_PCOD9239599
_publ_section_title
;
Structure prediction by ZEFSAII (Michael W. Deem and Ramdas Pophale) SiO2 
 PCOD9239599
Probable space group: P 21/C
;
_chemical_formula_sum "Si O2"
_cell_formula_units_Z 28
_cell_length_a 18.507635
_cell_length_b 8.200618
_cell_length_c 19.880602
_cell_angle_alpha 90.000000
_cell_angle_beta 20.714526
_cell_angle_gamma 90.000000
_cell_volume 1067.276197
_symmetry_space_group_name_H-M "P 21/C"
_symmetry_group_IT_number 14
_symmetry_cell_setting 'monoclinic'
loop_
_space_group_symop_operation_xyz
x,y,z
-x,1/2+y,1/2-z
-x,-y,-z
x,1/2-y,1/2+z
loop_
_atom_site_type_symbol
_atom_site_label
_atom_site_fract_x
_atom_site_fract_y
_atom_site_fract_z
Si Si1 0.569464 0.089093 0.188906
Si Si2 0.981524 0.228194 0.863572
Si Si3 0.604703 0.401660 0.845028
Si Si4 0.105571 0.637564 0.301317
Si Si5 0.196645 0.249013 0.036418
Si Si6 0.331137 0.136463 0.131639
Si Si7 0.471775 0.282183 0.139303
O O1 0.345357 0.097953 0.417073
O O2 0.507940 0.176227 0.172309
O O3 0.672050 0.918186 0.080027
O O4 0.738045 0.206644 0.077539
O O5 0.041211 0.252937 0.733732
O O6 0.104644 0.366621 0.797846
O O7 0.065433 0.051233 0.816238
O O8 0.826423 0.353890 0.680028
O O9 0.605884 0.531770 0.784685
O O10 0.500000 0.500000 0.000000
O O11 0.455157 0.249806 0.970023
O O12 0.923625 0.743004 0.429369
O O13 0.305104 0.704653 0.089063
O O14 0.317928 0.214344 0.217164
O O15 0.500000 0.000000 0.000000
#
# Coordination Sequence:
#
# PCOD9239599 Si02
#       7
#     4   4   4   4   4   4   4
#     4  11  26  40  61  93 125 161 207 256 297 370
#     4  11  20  39  66  87 119 165 201 248 309 357
#     4   8  15  31  58  84 111 146 201 248 289 360
#     4   9  17  37  62  88 112 158 206 245 298 362
#     4  11  25  39  60  91 128 160 206 247 311 361
#     4  10  18  31  59  92 118 153 203 248 305 363
#     4  10  17  38  61  87 115 156 207 252 296 360
#
# _framework density 26.235009000000002
#
# number of rings (size 3 to 8) (size 9 to 14) (size 15 to 20)
#    0.000    2.286    5.714    0.857    2.000    0.000 
#    5.143    0.714    6.286    1.714    0.000    0.000 
#    0.000    0.000    0.000    0.000    0.000    0.000 
#
# Total GULP energy -156468.818535 kJ/mol
# GULP energy per Si atom -5588.172091 kJ/mol
# Density = 2.617530 g / cm^3
# Si number density = 26.235009 Si / 1000 Ang^3
#
#
#
# Elastic Constant Matrix: (Units=GPa)
#
#
# Indices 1 2 3 4 5 6 
#
# 1 73.2991 -1.3757 13.4746 0.0000 -32.5195 0.0000
# 2 -1.3757 48.8851 5.8263 0.0000 -0.5365 0.0000
# 3 13.4746 5.8263 101.4960 0.0000 -20.7356 0.0000
# 4 0.0000 0.0000 0.0000 33.9434 0.0000 -9.6406
# 5 -32.5195 -0.5365 -20.7356 0.0000 45.1855 0.0000
# 6 0.0000 0.0000 0.0000 -9.6406 0.0000 41.0543
#
#
#
# Elastic Compliance Matrix: (Units=1/GPa)
#
#
# Indices 1 2 3 4 5 6 
#
# 1 0.020074 0.000692 0.000274 0.000000 0.014581 0.000000
# 2 0.000692 0.020625 -0.001240 0.000000 0.000174 0.000000
# 3 0.000274 -0.001240 0.010951 0.000000 0.005208 0.000000
# 4 0.000000 0.000000 0.000000 0.031566 0.000000 0.007413
# 5 0.014581 0.000174 0.005208 0.000000 0.035017 0.000000
# 6 0.000000 0.000000 0.000000 0.007413 0.000000 0.026099
#
#
# Mechanical properties :
#
#
# Convention : Reuss Voigt Hill
#
# Bulk Modulus (GPa) = 19.56817 28.83673 24.20245
# Shear Modulus (GPa) = 30.88033 37.75364 34.31698
#
# Velocity S-wave (km/s) = 3.43456 3.79760 3.62064
# Velocity P-wave (km/s) = 4.81698 5.49951 5.16952
#
# Compressibility (1/GPa) = 0.05110340
#
# Stress axis : x y z
#
# Youngs Moduli (GPa) = 49.81468 48.48403 91.31214
#
# Poissons Ratio (x) = -0.03357 -0.02503
# Poissons Ratio (y) = -0.03449 0.11326
# Poissons Ratio (z) = -0.01366 0.06014
#
# Static dielectric constant tensor:
#      x y z
#    x 2.176140 0.000000 0.029990 
#    y 0.000000 2.174900 0.000000 
#    z 0.029990 0.000000 2.067730 
# 
# From -- ./inp_files/74622.got.cif
#   From: 2010.05.17/outbox.cif.g08.bks.cpg/sg14_38_cif.got.tgz:74622.got - 2010.06.03 17:49:19.
