data_PCOD9239694
_publ_section_title
;
Structure prediction by ZEFSAII (Michael W. Deem and Ramdas Pophale) SiO2 
 PCOD9239694
Probable space group: P 21/C
;
_chemical_formula_sum "Si O2"
_cell_formula_units_Z 28
_cell_length_a 11.984645
_cell_length_b 9.219567
_cell_length_c 14.325423
_cell_angle_alpha 90.000000
_cell_angle_beta 74.722792
_cell_angle_gamma 90.000000
_cell_volume 1526.927666
_symmetry_space_group_name_H-M "P 21/C"
_symmetry_group_IT_number 14
_symmetry_cell_setting 'monoclinic'
loop_
_space_group_symop_operation_xyz
x,y,z
-x,1/2+y,1/2-z
-x,-y,-z
x,1/2-y,1/2+z
loop_
_atom_site_type_symbol
_atom_site_label
_atom_site_fract_x
_atom_site_fract_y
_atom_site_fract_z
Si Si1 0.297760 0.764991 0.404217
Si Si2 0.866946 0.972561 0.551002
Si Si3 0.710038 0.537484 0.657205
Si Si4 0.562232 0.056540 0.772747
Si Si5 0.269546 0.226762 0.030635
Si Si6 0.240229 0.325292 0.747450
Si Si7 0.469813 0.831392 0.025670
O O1 0.249561 0.627653 0.356972
O O2 0.389123 0.857566 0.324895
O O3 0.369419 0.713888 0.478180
O O4 0.195809 0.874499 0.447681
O O5 0.802155 0.860445 0.495740
O O6 0.842955 0.910266 0.661493
O O7 0.000000 0.000000 0.500000
O O8 0.572643 0.524491 0.703569
O O9 0.733342 0.606062 0.549958
O O10 0.754219 0.658469 0.719535
O O11 0.574806 0.162822 0.858889
O O12 0.636903 0.909660 0.767231
O O13 0.219902 0.174943 0.140967
O O14 0.408636 0.254681 0.011462
O O15 0.500000 0.000000 0.000000
#
# Coordination Sequence:
#
# PCOD9239694 Si02
#       7
#     4   4   4   4   4   4   4
#     4  11  21  35  58  84 118 154 187 233 293 341
#     4  10  25  44  57  79 117 153 199 248 275 322
#     4  10  18  31  54  86 120 150 185 225 289 355
#     4  10  18  30  53  86 123 155 175 228 292 349
#     4  10  19  37  61  83 117 154 184 237 291 339
#     4  10  19  35  58  81 111 152 196 235 284 338
#     4  11  18  34  58  91 123 143 181 233 288 356
#
# _framework density 18.337475999999999
#
# number of rings (size 3 to 8) (size 9 to 14) (size 15 to 20)
#    0.000    1.714    4.286    1.714    0.000    2.857 
#    0.000    8.571    0.000    0.000    0.000    0.000 
#    0.000    0.000    0.000    0.000    0.000    0.000 
#
# Total GULP energy -156133.677040 kJ/mol
# GULP energy per Si atom -5576.202751 kJ/mol
# Density = 1.829574 g / cm^3
# Si number density = 18.337476 Si / 1000 Ang^3
#
#
#
# Elastic Constant Matrix: (Units=GPa)
#
#
# Indices 1 2 3 4 5 6 
#
# 1 81.0392 53.4349 46.4163 0.0000 -24.8085 0.0000
# 2 53.4349 106.1742 11.4802 0.0000 -16.0841 0.0000
# 3 46.4163 11.4802 78.5330 0.0000 -15.2640 0.0000
# 4 0.0000 0.0000 0.0000 11.8717 0.0000 6.9023
# 5 -24.8085 -16.0841 -15.2640 0.0000 19.9851 0.0000
# 6 0.0000 0.0000 0.0000 6.9023 0.0000 15.6358
#
#
#
# Elastic Compliance Matrix: (Units=1/GPa)
#
#
# Indices 1 2 3 4 5 6 
#
# 1 0.037445 -0.013577 -0.015543 0.000000 0.023684 0.000000
# 2 -0.013577 0.015650 0.005765 0.000000 0.000145 0.000000
# 3 -0.015543 0.005765 0.021407 0.000000 0.001695 0.000000
# 4 0.000000 0.000000 0.000000 0.113319 0.000000 -0.050024
# 5 0.023684 0.000145 0.001695 0.000000 0.080848 0.000000
# 6 0.000000 0.000000 0.000000 -0.050024 0.000000 0.086039
#
#
# Mechanical properties :
#
#
# Convention : Reuss Voigt Hill
#
# Bulk Modulus (GPa) = 35.98290 54.26770 45.12530
# Shear Modulus (GPa) = 12.17487 19.79284 15.98385
#
# Velocity S-wave (km/s) = 2.57949 3.28893 2.95557
# Velocity P-wave (km/s) = 5.34199 6.63934 6.02569
#
# Compressibility (1/GPa) = 0.02779097
#
# Stress axis : x y z
#
# Youngs Moduli (GPa) = 26.70598 63.89834 46.71366
#
# Poissons Ratio (x) = 0.86752 0.72609
# Poissons Ratio (y) = 0.36258 -0.26929
# Poissons Ratio (z) = 0.41510 -0.36836
#
# Static dielectric constant tensor:
#      x y z
#    x 1.617160 0.000000 0.020480 
#    y 0.000000 1.654930 0.000000 
#    z 0.020480 0.000000 1.688850 
# 
# From -- ./inp_files/43372.got.cif
#   From: 2010.05.17/outbox.cif.g08.bks.cpg/sg14_22_cif.got.tgz:43372.got - 2010.06.03 17:49:19.
