data_PCOD9239385
_publ_section_title
;
Structure prediction by ZEFSAII (Michael W. Deem and Ramdas Pophale) SiO2 
 PCOD9239385
Probable space group: P 21/C
;
_chemical_formula_sum "Si O2"
_cell_formula_units_Z 24
_cell_length_a 7.377510
_cell_length_b 13.553005
_cell_length_c 14.507483
_cell_angle_alpha 90.000000
_cell_angle_beta 38.806626
_cell_angle_gamma 90.000000
_cell_volume 909.060875
_symmetry_space_group_name_H-M "P 21/C"
_symmetry_group_IT_number 14
_symmetry_cell_setting 'monoclinic'
loop_
_space_group_symop_operation_xyz
x,y,z
-x,1/2+y,1/2-z
-x,-y,-z
x,1/2-y,1/2+z
loop_
_atom_site_type_symbol
_atom_site_label
_atom_site_fract_x
_atom_site_fract_y
_atom_site_fract_z
Si Si1 0.180887 0.800133 0.501751
Si Si2 0.905268 0.370788 0.156587
Si Si3 0.633976 0.837867 0.803240
Si Si4 0.480947 0.694517 0.147624
Si Si5 0.924276 0.420819 0.452840
Si Si6 0.190203 0.513822 0.172281
O O1 0.189974 0.875336 0.413408
O O2 0.978008 0.837027 0.663727
O O3 0.035898 0.693602 0.531686
O O4 0.498127 0.761918 0.400851
O O5 0.966291 0.472221 0.183449
O O6 0.667528 0.301213 0.297627
O O7 0.217040 0.316818 0.025447
O O8 0.554700 0.831506 0.725387
O O9 0.423004 0.920681 0.927960
O O10 0.250657 0.613803 0.205929
O O11 0.103903 0.441394 0.290768
O O12 0.000000 0.500000 0.500000
O O13 0.500000 0.500000 0.000000
#
# Coordination Sequence:
#
# PCOD9239385 Si02
#       6
#     4   4   4   4   4   4
#     4   8  16  29  50  73  98 133 171 207 249 304
#     4   9  17  31  50  75 101 137 168 210 261 299
#     4   8  15  28  50  72  95 126 172 205 249 292
#     4   9  16  32  52  74  97 135 172 209 252 306
#     4  10  17  31  54  77  96 136 179 211 244 313
#     4  10  19  32  51  80 104 134 172 213 253 310
#
# _framework density 26.400873000000001
#
# number of rings (size 3 to 8) (size 9 to 14) (size 15 to 20)
#    1.000    2.000    1.667    0.000    0.000    0.000 
#    6.000    0.833    0.000    1.000    8.667    0.000 
#    0.000    0.000    0.000    0.000    0.000    0.000 
#
# Total GULP energy -133901.417379 kJ/mol
# GULP energy per Si atom -5579.225724 kJ/mol
# Density = 2.634078 g / cm^3
# Si number density = 26.400873 Si / 1000 Ang^3
#
#
#
# Elastic Constant Matrix: (Units=GPa)
#
#
# Indices 1 2 3 4 5 6 
#
# 1 65.5113 -1.1364 12.8504 0.0000 20.1800 0.0000
# 2 -1.1364 56.3689 22.7414 0.0000 -4.3106 0.0000
# 3 12.8504 22.7414 135.6126 0.0000 -3.7212 0.0000
# 4 0.0000 0.0000 0.0000 42.1992 0.0000 -7.4802
# 5 20.1800 -4.3106 -3.7212 0.0000 28.8984 0.0000
# 6 0.0000 0.0000 0.0000 -7.4802 0.0000 12.7787
#
#
#
# Elastic Compliance Matrix: (Units=1/GPa)
#
#
# Indices 1 2 3 4 5 6 
#
# 1 0.020143 0.000256 -0.002345 0.000000 -0.014330 0.000000
# 2 0.000256 0.019203 -0.003182 0.000000 0.002276 0.000000
# 3 -0.002345 -0.003182 0.008191 0.000000 0.002218 0.000000
# 4 0.000000 0.000000 0.000000 0.026441 0.000000 0.015477
# 5 -0.014330 0.002276 0.002218 0.000000 0.045236 0.000000
# 6 0.000000 0.000000 0.000000 0.015477 0.000000 0.087315
#
#
# Mechanical properties :
#
#
# Convention : Reuss Voigt Hill
#
# Bulk Modulus (GPa) = 27.03030 36.26706 31.64868
# Shear Modulus (GPa) = 21.79584 31.64444 26.72014
#
# Velocity S-wave (km/s) = 2.87640 3.46586 3.18479
# Velocity P-wave (km/s) = 4.61434 5.45739 5.05348
#
# Compressibility (1/GPa) = 0.03699552
#
# Stress axis : x y z
#
# Youngs Moduli (GPa) = 49.64479 52.07450 122.09097
#
# Poissons Ratio (x) = -0.01335 0.28629
# Poissons Ratio (y) = -0.01272 0.38851
# Poissons Ratio (z) = 0.11641 0.16571
#
# Static dielectric constant tensor:
#      x y z
#    x 2.260920 0.000000 -0.024600 
#    y 0.000000 2.520920 0.000000 
#    z -0.024600 0.000000 2.139570 
# 
# From -- ./inp_files/41065.got.cif
#   From: 2010.05.17/outbox.cif.g08.bks.cpg/sg14_21_cif.got.tgz:41065.got - 2010.06.03 17:49:19.
