data_PCOD9239917
_publ_section_title
;
Structure prediction by ZEFSAII (Michael W. Deem and Ramdas Pophale) SiO2 
 PCOD9239917
Probable space group: P 21/C
;
_chemical_formula_sum "Si O2"
_cell_formula_units_Z 24
_cell_length_a 22.355349
_cell_length_b 8.344481
_cell_length_c 18.584710
_cell_angle_alpha 90.000000
_cell_angle_beta 161.088317
_cell_angle_gamma 90.000000
_cell_volume 1123.645816
_symmetry_space_group_name_H-M "P 21/C"
_symmetry_group_IT_number 14
_symmetry_cell_setting 'monoclinic'
loop_
_space_group_symop_operation_xyz
x,y,z
-x,1/2+y,1/2-z
-x,-y,-z
x,1/2-y,1/2+z
loop_
_atom_site_type_symbol
_atom_site_label
_atom_site_fract_x
_atom_site_fract_y
_atom_site_fract_z
Si Si1 0.934190 0.649722 0.636327
Si Si2 0.970048 0.233938 0.526945
Si Si3 0.431081 0.759144 0.658977
Si Si4 0.222344 0.679014 0.557646
Si Si5 0.069168 0.631353 0.176049
Si Si6 0.744349 0.569289 0.064986
O O1 0.785420 0.509589 0.470359
O O2 0.921180 0.789527 0.562264
O O3 0.030060 0.734344 0.813216
O O4 0.102200 0.540181 0.797328
O O5 0.797531 0.293958 0.379616
O O6 0.929765 0.231105 0.396589
O O7 0.017695 0.050721 0.601702
O O8 0.149384 0.341129 0.750433
O O9 0.379000 0.759084 0.685797
O O10 0.271395 0.647785 0.442417
O O11 0.636778 0.691397 0.890428
O O12 0.406389 0.930433 0.593365
#
# Coordination Sequence:
#
# PCOD9239917 Si02
#       6
#     4   4   4   4   4   4
#     4   9  18  31  49  74  98 130 165 206 245 294
#     4  10  18  33  53  74  99 131 165 208 247 296
#     4  10  19  33  51  76 100 130 167 206 249 297
#     4   9  17  29  50  72  99 125 165 208 246 288
#     4   9  19  31  52  75  99 130 168 201 249 302
#     4   9  19  31  51  71  99 132 164 201 246 297
#
# _framework density 21.359044999999998
#
# number of rings (size 3 to 8) (size 9 to 14) (size 15 to 20)
#    0.000    3.000    0.000    3.000    0.000    7.333 
#    0.000    0.000    0.000   33.000    0.000    0.000 
#    0.000    0.000    0.000    0.000    0.000    0.000 
#
# Total GULP energy -133621.172425 kJ/mol
# GULP energy per Si atom -5567.548851 kJ/mol
# Density = 2.131043 g / cm^3
# Si number density = 21.359045 Si / 1000 Ang^3
#
#
#
# Elastic Constant Matrix: (Units=GPa)
#
#
# Indices 1 2 3 4 5 6 
#
# 1 62.2285 -16.5368 7.6850 0.0000 -10.0890 0.0000
# 2 -16.5368 46.6175 -4.3205 0.0000 9.0540 0.0000
# 3 7.6850 -4.3205 51.2840 0.0000 5.3091 0.0000
# 4 0.0000 0.0000 0.0000 17.9911 0.0000 -7.8794
# 5 -10.0890 9.0540 5.3091 0.0000 31.6416 0.0000
# 6 0.0000 0.0000 0.0000 -7.8794 0.0000 31.7640
#
#
#
# Elastic Compliance Matrix: (Units=1/GPa)
#
#
# Indices 1 2 3 4 5 6 
#
# 1 0.018648 0.005404 -0.002844 0.000000 0.004877 0.000000
# 2 0.005404 0.024634 0.001849 0.000000 -0.005636 0.000000
# 3 -0.002844 0.001849 0.020587 0.000000 -0.004890 0.000000
# 4 0.000000 0.000000 0.000000 0.062358 0.000000 0.015468
# 5 0.004877 -0.005636 -0.004890 0.000000 0.035592 0.000000
# 6 0.000000 0.000000 0.000000 0.015468 0.000000 0.035319
#
#
# Mechanical properties :
#
#
# Convention : Reuss Voigt Hill
#
# Bulk Modulus (GPa) = 13.75742 14.86505 14.31123
# Shear Modulus (GPa) = 23.52398 27.83284 25.67841
#
# Velocity S-wave (km/s) = 3.32227 3.61376 3.47108
# Velocity P-wave (km/s) = 4.60127 4.93832 4.77277
#
# Compressibility (1/GPa) = 0.07268806
#
# Stress axis : x y z
#
# Youngs Moduli (GPa) = 53.62556 40.59393 48.57330
#
# Poissons Ratio (x) = -0.21938 0.13814
# Poissons Ratio (y) = -0.28981 -0.08981
# Poissons Ratio (z) = 0.15251 -0.07506
#
# Static dielectric constant tensor:
#      x y z
#    x 1.863300 0.000000 0.049620 
#    y 0.000000 1.877950 0.000000 
#    z 0.049620 0.000000 1.801280 
# 
# From -- ./inp_files/61817.got.cif
#   From: 2010.05.17/outbox.cif.g08.bks.cpg/sg14_31_cif.got.tgz:61817.got - 2010.06.03 17:49:19.
