data_PCOD9239737
_publ_section_title
;
Structure prediction by ZEFSAII (Michael W. Deem and Ramdas Pophale) SiO2 
 PCOD9239737
Probable space group: P 21/C
;
_chemical_formula_sum "Si O2"
_cell_formula_units_Z 24
_cell_length_a 9.140347
_cell_length_b 7.693053
_cell_length_c 14.650671
_cell_angle_alpha 90.000000
_cell_angle_beta 66.010667
_cell_angle_gamma 90.000000
_cell_volume 941.206843
_symmetry_space_group_name_H-M "P 21/C"
_symmetry_group_IT_number 14
_symmetry_cell_setting 'monoclinic'
loop_
_space_group_symop_operation_xyz
x,y,z
-x,1/2+y,1/2-z
-x,-y,-z
x,1/2-y,1/2+z
loop_
_atom_site_type_symbol
_atom_site_label
_atom_site_fract_x
_atom_site_fract_y
_atom_site_fract_z
Si Si1 0.163579 0.733635 0.975108
Si Si2 0.168989 0.641318 0.284928
Si Si3 0.176340 0.143308 0.378131
Si Si4 0.502724 0.335951 0.307929
Si Si5 0.502072 0.283090 0.603460
Si Si6 0.832130 0.726432 0.812897
O O1 0.182331 0.875409 0.890659
O O2 0.165520 0.544425 0.926681
O O3 0.328893 0.749624 0.988995
O O4 0.991024 0.743902 0.063760
O O5 0.329928 0.740283 0.214168
O O6 0.160124 0.463371 0.232917
O O7 0.999018 0.737534 0.318082
O O8 0.338438 0.234589 0.370192
O O9 0.184403 0.137990 0.266574
O O10 0.500684 0.520615 0.357786
O O11 0.500340 0.338577 0.196110
O O12 0.337221 0.245095 0.592534
#
# Coordination Sequence:
#
# PCOD9239737 Si02
#       6
#     4   4   4   4   4   4
#     4  10  20  35  55  79 107 138 173 213 258 307
#     4  11  21  35  55  78 106 137 174 216 259 308
#     4  10  20  35  55  79 107 138 173 213 258 307
#     4  10  18  31  52  76 103 136 175 212 252 306
#     4  10  18  31  52  76 103 136 175 212 252 306
#     4  11  21  35  55  78 106 137 174 216 259 308
#
# _framework density 25.499175999999999
#
# number of rings (size 3 to 8) (size 9 to 14) (size 15 to 20)
#    0.000    1.667    0.000   11.000    0.000    2.667 
#    0.000    1.667    0.000   10.000    0.000    0.000 
#    0.000    0.000    0.000    0.000    0.000    0.000 
#
# Total GULP energy -134267.861060 kJ/mol
# GULP energy per Si atom -5594.494211 kJ/mol
# Density = 2.544114 g / cm^3
# Si number density = 25.499176 Si / 1000 Ang^3
#
#
#
# Elastic Constant Matrix: (Units=GPa)
#
#
# Indices 1 2 3 4 5 6 
#
# 1 161.0818 26.4752 71.5088 0.0000 -77.6211 0.0000
# 2 26.4752 75.3951 13.5293 0.0000 -30.3394 0.0000
# 3 71.5088 13.5293 101.8762 0.0000 -54.9190 0.0000
# 4 0.0000 0.0000 0.0000 22.0087 0.0000 -13.3049
# 5 -77.6211 -30.3394 -54.9190 0.0000 72.2607 0.0000
# 6 0.0000 0.0000 0.0000 -13.3049 0.0000 35.9007
#
#
#
# Elastic Compliance Matrix: (Units=1/GPa)
#
#
# Indices 1 2 3 4 5 6 
#
# 1 0.013366 0.000903 -0.002639 0.000000 0.012731 0.000000
# 2 0.000903 0.016415 0.002413 0.000000 0.009696 0.000000
# 3 -0.002639 0.002413 0.017560 0.000000 0.011525 0.000000
# 4 0.000000 0.000000 0.000000 0.058555 0.000000 0.021701
# 5 0.012731 0.009696 0.011525 0.000000 0.040344 0.000000
# 6 0.000000 0.000000 0.000000 0.021701 0.000000 0.035897
#
#
# Mechanical properties :
#
#
# Convention : Reuss Voigt Hill
#
# Bulk Modulus (GPa) = 20.53551 62.37550 41.45551
# Shear Modulus (GPa) = 25.37887 41.15668 33.26778
#
# Velocity S-wave (km/s) = 3.15823 4.02187 3.61593
# Velocity P-wave (km/s) = 4.62278 6.78838 5.80742
#
# Compressibility (1/GPa) = 0.04869613
#
# Stress axis : x y z
#
# Youngs Moduli (GPa) = 74.81866 60.91959 56.94702
#
# Poissons Ratio (x) = -0.05502 0.15026
# Poissons Ratio (y) = -0.06757 -0.13742
# Poissons Ratio (z) = 0.19741 -0.14700
#
# Static dielectric constant tensor:
#      x y z
#    x 2.058500 0.000000 -0.040640 
#    y 0.000000 2.012150 0.000000 
#    z -0.040640 0.000000 2.067910 
# 
# From -- ./inp_files/71881.got.cif
#   From: 2010.05.17/outbox.cif.g08.bks.cpg/sg14_36_cif.got.tgz:71881.got - 2010.06.03 17:49:19.
