data_PCOD9239891
_publ_section_title
;
Structure prediction by ZEFSAII (Michael W. Deem and Ramdas Pophale) SiO2 
 PCOD9239891
Probable space group: P 21/C
;
_chemical_formula_sum "Si O2"
_cell_formula_units_Z 32
_cell_length_a 11.938540
_cell_length_b 16.411426
_cell_length_c 8.170671
_cell_angle_alpha 90.000000
_cell_angle_beta 135.055172
_cell_angle_gamma 90.000000
_cell_volume 1130.893386
_symmetry_space_group_name_H-M "P 21/C"
_symmetry_group_IT_number 14
_symmetry_cell_setting 'monoclinic'
loop_
_space_group_symop_operation_xyz
x,y,z
-x,1/2+y,1/2-z
-x,-y,-z
x,1/2-y,1/2+z
loop_
_atom_site_type_symbol
_atom_site_label
_atom_site_fract_x
_atom_site_fract_y
_atom_site_fract_z
Si Si1 0.349947 0.780529 0.342480
Si Si2 0.052137 0.373823 0.314818
Si Si3 0.506580 0.370688 0.666546
Si Si4 0.689473 0.739357 0.364367
Si Si5 0.885644 0.340072 0.796233
Si Si6 0.256248 0.489298 0.317096
Si Si7 0.830385 0.904936 0.597339
Si Si8 0.745473 0.058273 0.674596
O O1 0.373334 0.701859 0.252728
O O2 0.209675 0.744005 0.310608
O O3 0.306248 0.872664 0.244156
O O4 0.525739 0.782731 0.605210
O O5 0.148681 0.305187 0.518661
O O6 0.161899 0.450185 0.372663
O O7 0.986302 0.341010 0.071025
O O8 0.910593 0.408716 0.275864
O O9 0.346043 0.314315 0.511585
O O10 0.421200 0.442069 0.480772
O O11 0.600744 0.423125 0.899829
O O12 0.708035 0.832029 0.433831
O O13 0.759881 0.414490 0.682462
O O14 0.000971 0.360637 0.761972
O O15 0.172231 0.466584 0.059824
O O16 0.776302 0.960456 0.695747
#
# Coordination Sequence:
#
# PCOD9239891 Si02
#       8
#     4   4   4   4   4   4   4   4
#     4  11  22  37  55  86 113 158 186 227 288 342
#     4  10  18  36  53  85 116 144 180 235 288 332
#     4  10  21  37  55  87 122 148 187 228 285 340
#     4  10  23  35  57  81 119 154 185 231 282 344
#     4  11  20  34  62  87 114 145 186 242 296 325
#     4  10  18  32  60  87 117 140 177 242 297 327
#     4  11  19  35  54  88 111 144 191 233 282 336
#     4  11  21  35  58  85 117 147 190 240 275 336
#
# _framework density 28.296216000000001
#
# number of rings (size 3 to 8) (size 9 to 14) (size 15 to 20)
#    0.000    1.500    5.000    1.500    1.750    1.000 
#    0.000    0.625    0.000    0.750    0.000    0.000 
#    0.000    0.000    0.000    0.000    0.000    0.000 
#
# Total GULP energy -178491.065730 kJ/mol
# GULP energy per Si atom -5577.845804 kJ/mol
# Density = 2.823181 g / cm^3
# Si number density = 28.296216 Si / 1000 Ang^3
#
#
#
# Elastic Constant Matrix: (Units=GPa)
#
#
# Indices 1 2 3 4 5 6 
#
# 1 39.0143 0.3822 7.6015 0.0000 -1.2305 0.0000
# 2 0.3822 107.4457 28.3412 0.0000 -4.4871 0.0000
# 3 7.6015 28.3412 133.0384 0.0000 -8.4419 0.0000
# 4 0.0000 0.0000 0.0000 45.7293 0.0000 23.7451
# 5 -1.2305 -4.4871 -8.4419 0.0000 20.1410 0.0000
# 6 0.0000 0.0000 0.0000 23.7451 0.0000 37.0861
#
#
#
# Elastic Compliance Matrix: (Units=1/GPa)
#
#
# Indices 1 2 3 4 5 6 
#
# 1 0.025951 0.000344 -0.001490 0.000000 0.001038 0.000000
# 2 0.000344 0.009902 -0.002042 0.000000 0.001371 0.000000
# 3 -0.001490 -0.002042 0.008221 0.000000 0.002900 0.000000
# 4 0.000000 0.000000 0.000000 0.032759 0.000000 -0.020975
# 5 0.001038 0.001371 0.002900 0.000000 0.051234 0.000000
# 6 0.000000 0.000000 0.000000 -0.020975 0.000000 0.040394
#
#
# Mechanical properties :
#
#
# Convention : Reuss Voigt Hill
#
# Bulk Modulus (GPa) = 26.52694 39.12756 32.82725
# Shear Modulus (GPa) = 26.68048 36.80283 31.74166
#
# Velocity S-wave (km/s) = 3.07400 3.61033 3.35291
# Velocity P-wave (km/s) = 4.68982 5.58903 5.15905
#
# Compressibility (1/GPa) = 0.03769752
#
# Stress axis : x y z
#
# Youngs Moduli (GPa) = 38.53361 100.99287 121.64290
#
# Poissons Ratio (x) = -0.03475 0.18128
# Poissons Ratio (y) = -0.01326 0.24840
# Poissons Ratio (z) = 0.05743 0.20623
#
# Static dielectric constant tensor:
#      x y z
#    x 2.699720 0.000000 -0.034960 
#    y 0.000000 2.225740 0.000000 
#    z -0.034960 0.000000 2.249900 
# 
# From -- ./inp_files/40941.got.cif
#   From: 2010.05.17/outbox.cif.g08.bks.cpg/sg14_21_cif.got.tgz:40941.got - 2010.06.03 17:49:19.
