data_PCOD9239824
_publ_section_title
;
Structure prediction by ZEFSAII (Michael W. Deem and Ramdas Pophale) SiO2 
 PCOD9239824
Probable space group: P 21/C
;
_chemical_formula_sum "Si O2"
_cell_formula_units_Z 22
_cell_length_a 7.162955
_cell_length_b 21.956362
_cell_length_c 5.403834
_cell_angle_alpha 90.000000
_cell_angle_beta 108.131843
_cell_angle_gamma 90.000000
_cell_volume 807.671855
_symmetry_space_group_name_H-M "P 21/C"
_symmetry_group_IT_number 14
_symmetry_cell_setting 'monoclinic'
loop_
_space_group_symop_operation_xyz
x,y,z
-x,1/2+y,1/2-z
-x,-y,-z
x,1/2-y,1/2+z
loop_
_atom_site_type_symbol
_atom_site_label
_atom_site_fract_x
_atom_site_fract_y
_atom_site_fract_z
Si Si1 0.318400 0.234343 0.360214
Si Si2 0.239783 0.717537 0.523599
Si Si3 0.000000 0.500000 0.000000
Si Si4 0.476949 0.101643 0.433582
Si Si5 0.703670 0.013451 0.847658
Si Si6 0.854758 0.102067 0.287431
O O1 0.213000 0.258429 0.557520
O O2 0.519823 0.274565 0.399931
O O3 0.362398 0.163560 0.413367
O O4 0.182379 0.741968 0.765453
O O5 0.155472 0.650464 0.433544
O O6 0.142758 0.516230 0.813800
O O7 0.048745 0.423688 0.989811
O O8 0.536189 0.061822 0.697733
O O9 0.684672 0.122735 0.399336
O O10 0.382564 0.053936 0.201849
O O11 0.794502 0.033698 0.150813
#
# Coordination Sequence:
#
# PCOD9239824 Si02
#       6
#     4   4   2   4   4   4
#     4  10  18  32  53  87 118 149 185 243 303 353
#     4  10  19  32  57  89 115 148 192 252 297 351
#     4  10  24  38  54  84 114 166 202 246 296 354
#     4  10  20  33  58  89 115 144 199 244 299 359
#     4  10  21  37  55  85 118 156 192 246 300 351
#     4  11  20  36  60  83 119 151 201 246 301 353
#
# _framework density 27.238783000000002
#
# number of rings (size 3 to 8) (size 9 to 14) (size 15 to 20)
#    0.000    1.818    3.636    3.273    2.545    0.000 
#    0.000    0.000    0.000    2.182    0.000    0.000 
#    0.000    0.000    0.000    0.000    0.000    0.000 
#
# Total GULP energy -122667.307316 kJ/mol
# GULP energy per Si atom -5575.786696 kJ/mol
# Density = 2.717679 g / cm^3
# Si number density = 27.238783 Si / 1000 Ang^3
#
#
#
# Elastic Constant Matrix: (Units=GPa)
#
#
# Indices 1 2 3 4 5 6 
#
# 1 62.0133 12.6967 32.8642 0.0000 4.1773 0.0000
# 2 12.6967 148.5468 38.7754 0.0000 -6.2372 0.0000
# 3 32.8642 38.7754 117.3632 0.0000 -27.6856 0.0000
# 4 0.0000 0.0000 0.0000 46.2041 0.0000 10.5010
# 5 4.1773 -6.2372 -27.6856 0.0000 39.0376 0.0000
# 6 0.0000 0.0000 0.0000 10.5010 0.0000 18.2534
#
#
#
# Elastic Compliance Matrix: (Units=1/GPa)
#
#
# Indices 1 2 3 4 5 6 
#
# 1 0.020649 -0.000117 -0.007529 0.000000 -0.007568 0.000000
# 2 -0.000117 0.007382 -0.002552 0.000000 -0.000618 0.000000
# 3 -0.007529 -0.002552 0.013889 0.000000 0.010248 0.000000
# 4 0.000000 0.000000 0.000000 0.024899 0.000000 -0.014324
# 5 -0.007568 -0.000618 0.010248 0.000000 0.033596 0.000000
# 6 0.000000 0.000000 0.000000 -0.014324 0.000000 0.063025
#
#
# Mechanical properties :
#
#
# Convention : Reuss Voigt Hill
#
# Bulk Modulus (GPa) = 46.45778 55.17731 50.81755
# Shear Modulus (GPa) = 26.17662 36.93815 31.55739
#
# Velocity S-wave (km/s) = 3.10337 3.68650 3.40743
# Velocity P-wave (km/s) = 5.47120 6.19849 5.84616
#
# Compressibility (1/GPa) = 0.02152492
#
# Stress axis : x y z
#
# Youngs Moduli (GPa) = 48.42805 135.46306 71.99768
#
# Poissons Ratio (x) = 0.01592 0.54204
# Poissons Ratio (y) = 0.00569 0.18372
# Poissons Ratio (z) = 0.36459 0.34567
#
# Static dielectric constant tensor:
#      x y z
#    x 1.577930 0.000000 -0.581700 
#    y 0.000000 1.971300 0.000000 
#    z -0.581700 0.000000 1.438220 
# 
# From -- ./inp_files/1328.got.cif
#   From: 2010.05.17/outbox.cif.g08.bks.cpg/sg14_1_cif.got.tgz:1328.got - 2010.06.03 17:49:19.
