data_PCOD9239604
_publ_section_title
;
Structure prediction by ZEFSAII (Michael W. Deem and Ramdas Pophale) SiO2 
 PCOD9239604
Probable space group: P 21/C
;
_chemical_formula_sum "Si O2"
_cell_formula_units_Z 28
_cell_length_a 12.714072
_cell_length_b 11.756091
_cell_length_c 14.178941
_cell_angle_alpha 90.000000
_cell_angle_beta 135.575684
_cell_angle_gamma 90.000000
_cell_volume 1483.435452
_symmetry_space_group_name_H-M "P 21/C"
_symmetry_group_IT_number 14
_symmetry_cell_setting 'monoclinic'
loop_
_space_group_symop_operation_xyz
x,y,z
-x,1/2+y,1/2-z
-x,-y,-z
x,1/2-y,1/2+z
loop_
_atom_site_type_symbol
_atom_site_label
_atom_site_fract_x
_atom_site_fract_y
_atom_site_fract_z
Si Si1 0.975466 0.750809 0.282119
Si Si2 0.967417 0.969264 0.861665
Si Si3 0.523900 0.090172 0.600117
Si Si4 0.187388 0.714452 0.759891
Si Si5 0.259372 0.235836 0.518662
Si Si6 0.012855 0.136625 0.502655
Si Si7 0.739088 0.546204 0.374415
O O1 0.935790 0.616585 0.258353
O O2 0.978432 0.810922 0.385619
O O3 0.134143 0.756876 0.330814
O O4 0.847503 0.794051 0.129176
O O5 0.869126 0.914658 0.883366
O O6 0.898734 0.093977 0.811633
O O7 0.146821 0.970435 0.990015
O O8 0.638499 0.187482 0.638349
O O9 0.376900 0.151000 0.546269
O O10 0.500000 0.000000 0.500000
O O11 0.613199 0.024265 0.740078
O O12 0.124172 0.803823 0.643113
O O13 0.155489 0.171393 0.528928
O O14 0.327416 0.344639 0.616509
O O15 0.000000 0.000000 0.500000
#
# Coordination Sequence:
#
# PCOD9239604 Si02
#       7
#     4   4   4   4   4   4   4
#     4  11  21  37  67  92 124 158 210 262 315 373
#     4  10  17  38  68  87 115 157 215 259 308 365
#     4  11  25  40  63  89 129 173 214 256 314 392
#     4  10  23  40  61  95 122 164 215 257 313 387
#     4  11  23  40  61  93 125 168 208 259 319 380
#     4  11  24  39  65  98 127 159 208 275 319 368
#     4  10  19  39  62  85 121 161 211 257 309 366
#
# _framework density 18.875105000000001
#
# number of rings (size 3 to 8) (size 9 to 14) (size 15 to 20)
#    0.000    1.429    4.286    3.429    6.000    1.143 
#    2.571    0.000    0.000    2.571    0.000    0.000 
#    0.000    0.000    0.000    0.000    0.000    0.000 
#
# Total GULP energy -155915.455911 kJ/mol
# GULP energy per Si atom -5568.409140 kJ/mol
# Density = 1.883214 g / cm^3
# Si number density = 18.875105 Si / 1000 Ang^3
#
#
#
# Elastic Constant Matrix: (Units=GPa)
#
#
# Indices 1 2 3 4 5 6 
#
# 1 128.7896 44.0354 49.5415 0.0000 -2.5472 0.0000
# 2 44.0354 92.1252 24.9199 0.0000 -7.5119 0.0000
# 3 49.5415 24.9199 63.5282 0.0000 0.8536 0.0000
# 4 0.0000 0.0000 0.0000 30.4069 0.0000 0.5881
# 5 -2.5472 -7.5119 0.8536 0.0000 29.0829 0.0000
# 6 0.0000 0.0000 0.0000 0.5881 0.0000 28.8017
#
#
#
# Elastic Compliance Matrix: (Units=1/GPa)
#
#
# Indices 1 2 3 4 5 6 
#
# 1 0.012080 -0.003574 -0.008024 0.000000 0.000370 0.000000
# 2 -0.003574 0.013521 -0.002561 0.000000 0.003255 0.000000
# 3 -0.008024 -0.002561 0.023030 0.000000 -0.002040 0.000000
# 4 0.000000 0.000000 0.000000 0.032900 0.000000 -0.000672
# 5 0.000370 0.003255 -0.002040 0.000000 0.035317 0.000000
# 6 0.000000 0.000000 0.000000 -0.000672 0.000000 0.034734
#
#
# Mechanical properties :
#
#
# Convention : Reuss Voigt Hill
#
# Bulk Modulus (GPa) = 49.22427 57.93741 53.58084
# Shear Modulus (GPa) = 26.78506 28.72139 27.75322
#
# Velocity S-wave (km/s) = 3.77114 3.90507 3.83869
# Velocity P-wave (km/s) = 6.71547 7.14805 6.93513
#
# Compressibility (1/GPa) = 0.02031518
#
# Stress axis : x y z
#
# Youngs Moduli (GPa) = 82.77891 73.95874 43.42129
#
# Poissons Ratio (x) = 0.26431 0.34841
# Poissons Ratio (y) = 0.29583 0.11119
# Poissons Ratio (z) = 0.66420 0.18938
#
# Static dielectric constant tensor:
#      x y z
#    x 1.694900 0.000000 -0.053500 
#    y 0.000000 1.714110 0.000000 
#    z -0.053500 0.000000 1.731870 
# 
# From -- ./inp_files/46966.got.cif
#   From: 2010.05.17/outbox.cif.g08.bks.cpg/sg14_24_cif.got.tgz:46966.got - 2010.06.03 17:49:19.
