data_PCOD9239920
_publ_section_title
;
Structure prediction by ZEFSAII (Michael W. Deem and Ramdas Pophale) SiO2 
 PCOD9239920
Probable space group: P 21/C
;
_chemical_formula_sum "Si O2"
_cell_formula_units_Z 28
_cell_length_a 15.234867
_cell_length_b 14.478154
_cell_length_c 5.591261
_cell_angle_alpha 90.000000
_cell_angle_beta 119.052278
_cell_angle_gamma 90.000000
_cell_volume 1078.104841
_symmetry_space_group_name_H-M "P 21/C"
_symmetry_group_IT_number 14
_symmetry_cell_setting 'monoclinic'
loop_
_space_group_symop_operation_xyz
x,y,z
-x,1/2+y,1/2-z
-x,-y,-z
x,1/2-y,1/2+z
loop_
_atom_site_type_symbol
_atom_site_label
_atom_site_fract_x
_atom_site_fract_y
_atom_site_fract_z
Si Si1 0.799671 0.204873 0.933424
Si Si2 0.485567 0.140946 0.053102
Si Si3 0.947803 0.601261 0.927403
Si Si4 0.046176 0.397182 0.564756
Si Si5 0.435496 0.844798 0.343252
Si Si6 0.716427 0.540139 0.646506
Si Si7 0.765248 0.013216 0.710521
O O1 0.826633 0.230208 0.242428
O O2 0.677463 0.194819 0.783736
O O3 0.827674 0.102552 0.878251
O O4 0.496985 0.251540 0.072688
O O5 0.539752 0.108651 0.879412
O O6 0.370672 0.110148 0.899395
O O7 0.535385 0.107285 0.368135
O O8 0.978780 0.646686 0.720680
O O9 0.828263 0.582716 0.769049
O O10 0.974134 0.649033 0.210261
O O11 0.000000 0.500000 0.000000
O O12 0.164926 0.423016 0.718871
O O13 0.000000 0.500000 0.500000
O O14 0.695065 0.502367 0.349613
O O15 0.726302 0.471708 0.889107
#
# Coordination Sequence:
#
# PCOD9239920 Si02
#       7
#     4   4   4   4   4   4   4
#     4  12  21  38  57  70  99 144 185 218 253 310
#     4  10  18  33  54  72  98 135 177 215 252 309
#     4   8  14  25  44  68 102 128 157 184 245 314
#     4   8  14  27  46  69 103 125 156 191 250 306
#     4  10  19  35  53  69  92 141 193 204 246 312
#     4  10  19  33  49  78 114 124 162 222 276 301
#     4  10  21  33  50  80 109 128 174 216 267 317
#
# _framework density 25.971502000000001
#
# number of rings (size 3 to 8) (size 9 to 14) (size 15 to 20)
#    0.000    2.286    2.857    1.714    0.000    0.000 
#    0.000    4.286    0.000    0.000    0.000    0.000 
#  411.429    0.000    0.000    0.000    0.000    0.000 
#
# Total GULP energy -156318.883244 kJ/mol
# GULP energy per Si atom -5582.817259 kJ/mol
# Density = 2.591239 g / cm^3
# Si number density = 25.971502 Si / 1000 Ang^3
#
#
#
# Elastic Constant Matrix: (Units=GPa)
#
#
# Indices 1 2 3 4 5 6 
#
# 1 140.1636 23.8733 77.6209 0.0000 -23.3270 0.0000
# 2 23.8733 71.7955 20.8825 0.0000 -8.6406 0.0000
# 3 77.6209 20.8825 248.4337 0.0000 -77.9732 0.0000
# 4 0.0000 0.0000 0.0000 8.9794 0.0000 -8.6870
# 5 -23.3270 -8.6406 -77.9732 0.0000 60.6876 0.0000
# 6 0.0000 0.0000 0.0000 -8.6870 0.0000 17.8473
#
#
#
# Elastic Compliance Matrix: (Units=1/GPa)
#
#
# Indices 1 2 3 4 5 6 
#
# 1 0.008965 -0.002232 -0.002734 0.000000 -0.000385 0.000000
# 2 -0.002232 0.014858 -0.000263 0.000000 0.000920 0.000000
# 3 -0.002734 -0.000263 0.007641 0.000000 0.008730 0.000000
# 4 0.000000 0.000000 0.000000 0.210479 0.000000 0.102449
# 5 -0.000385 0.000920 0.008730 0.000000 0.027677 0.000000
# 6 0.000000 0.000000 0.000000 0.102449 0.000000 0.105897
#
#
# Mechanical properties :
#
#
# Convention : Reuss Voigt Hill
#
# Bulk Modulus (GPa) = 47.60538 78.34955 62.97746
# Shear Modulus (GPa) = 12.72340 40.03727 26.38034
#
# Velocity S-wave (km/s) = 2.21577 3.93056 3.19053
# Velocity P-wave (km/s) = 4.99157 7.12966 6.15418
#
# Compressibility (1/GPa) = 0.02100603
#
# Stress axis : x y z
#
# Youngs Moduli (GPa) = 111.54779 67.30477 130.86593
#
# Poissons Ratio (x) = 0.15022 0.35780
# Poissons Ratio (y) = 0.24898 0.03440
# Poissons Ratio (z) = 0.30499 0.01769
#
# Static dielectric constant tensor:
#      x y z
#    x 2.051350 0.000000 -0.054650 
#    y 0.000000 1.992440 0.000000 
#    z -0.054650 0.000000 2.074890 
# 
# From -- ./inp_files/4158.got.cif
#   From: 2010.05.17/outbox.cif.g08.bks.cpg/sg14_3_cif.got.tgz:4158.got - 2010.06.03 17:49:19.
