data_PCOD9239118
_publ_section_title
;
Structure prediction by ZEFSAII (Michael W. Deem and Ramdas Pophale) SiO2 
 PCOD9239118
Probable space group: P 21/C
;
_chemical_formula_sum "Si O2"
_cell_formula_units_Z 20
_cell_length_a 5.590654
_cell_length_b 13.145882
_cell_length_c 10.529804
_cell_angle_alpha 90.000000
_cell_angle_beta 97.323579
_cell_angle_gamma 90.000000
_cell_volume 767.564988
_symmetry_space_group_name_H-M "P 21/C"
_symmetry_group_IT_number 14
_symmetry_cell_setting 'monoclinic'
loop_
_space_group_symop_operation_xyz
x,y,z
-x,1/2+y,1/2-z
-x,-y,-z
x,1/2-y,1/2+z
loop_
_atom_site_type_symbol
_atom_site_label
_atom_site_fract_x
_atom_site_fract_y
_atom_site_fract_z
Si Si1 0.512147 0.042928 0.144871
Si Si2 0.998048 0.106405 0.080249
Si Si3 0.625255 0.682033 0.061467
Si Si4 0.487468 0.668158 0.764812
Si Si5 0.867911 0.295215 0.884643
O O1 0.520139 0.049581 0.762142
O O2 0.275268 0.112470 0.145493
O O3 0.220377 0.909967 0.835109
O O4 0.500000 0.000000 0.000000
O O5 0.926584 0.205826 0.993968
O O6 0.000000 0.000000 0.000000
O O7 0.594503 0.689065 0.908987
O O8 0.366575 0.640101 0.089437
O O9 0.889728 0.640331 0.105263
O O10 0.622547 0.784858 0.149129
O O11 0.225493 0.720966 0.734215
#
# Coordination Sequence:
#
# PCOD9239118 Si02
#       5
#     4   4   4   4   4
#     4  10  17  27  50  75 101 121 164 219 259 282
#     4  10  15  28  47  75  98 123 156 219 261 285
#     4  10  22  32  52  72 108 140 168 204 252 308
#     4  10  22  34  52  78 109 133 172 207 258 307
#     4  10  20  33  51  76 108 129 171 208 258 304
#
# _framework density 26.056426999999999
#
# number of rings (size 3 to 8) (size 9 to 14) (size 15 to 20)
#    1.200    0.800    4.000    3.600    2.800    0.000 
#    0.000    0.000    0.000    0.000    0.000   15.400 
#    0.000    0.000    0.000    0.000    0.000    0.000 
#
# Total GULP energy -111616.394154 kJ/mol
# GULP energy per Si atom -5580.819708 kJ/mol
# Density = 2.599712 g / cm^3
# Si number density = 26.056427 Si / 1000 Ang^3
#
#
#
# Elastic Constant Matrix: (Units=GPa)
#
#
# Indices 1 2 3 4 5 6 
#
# 1 262.2036 22.0771 67.4894 0.0000 34.0816 0.0000
# 2 22.0771 77.2134 46.7849 0.0000 -11.3806 0.0000
# 3 67.4894 46.7849 150.7480 0.0000 8.0518 0.0000
# 4 0.0000 0.0000 0.0000 40.2225 0.0000 -5.1637
# 5 34.0816 -11.3806 8.0518 0.0000 41.9264 0.0000
# 6 0.0000 0.0000 0.0000 -5.1637 0.0000 24.0991
#
#
#
# Elastic Compliance Matrix: (Units=1/GPa)
#
#
# Indices 1 2 3 4 5 6 
#
# 1 0.004822 -0.000941 -0.001661 0.000000 -0.003856 0.000000
# 2 -0.000941 0.017410 -0.005330 0.000000 0.006514 0.000000
# 3 -0.001661 -0.005330 0.009130 0.000000 -0.001850 0.000000
# 4 0.000000 0.000000 0.000000 0.025565 0.000000 0.005478
# 5 -0.003856 0.006514 -0.001850 0.000000 0.029109 0.000000
# 6 0.000000 0.000000 0.000000 0.005478 0.000000 0.042669
#
#
# Mechanical properties :
#
#
# Convention : Reuss Voigt Hill
#
# Bulk Modulus (GPa) = 64.52138 84.76308 74.64223
# Shear Modulus (GPa) = 33.39260 44.83715 39.11488
#
# Velocity S-wave (km/s) = 3.58376 4.15272 3.87868
# Velocity P-wave (km/s) = 6.47614 7.45618 6.98337
#
# Compressibility (1/GPa) = 0.01549874
#
# Stress axis : x y z
#
# Youngs Moduli (GPa) = 207.39559 57.43935 109.52815
#
# Poissons Ratio (x) = 0.05403 0.18190
# Poissons Ratio (y) = 0.19509 0.58377
# Poissons Ratio (z) = 0.34444 0.30615
#
# Static dielectric constant tensor:
#      x y z
#    x 2.154120 0.000000 0.017980 
#    y 0.000000 2.143200 0.000000 
#    z 0.017980 0.000000 2.133700 
# 
# From -- ./inp_files/20883.got.cif
#   From: 2010.05.17/outbox.cif.g08.bks.cpg/sg14_11_cif.got.tgz:20883.got - 2010.06.03 17:49:19.
