data_PCOD9239426
_publ_section_title
;
Structure prediction by ZEFSAII (Michael W. Deem and Ramdas Pophale) SiO2 
 PCOD9239426
Probable space group: P 21/C
;
_chemical_formula_sum "Si O2"
_cell_formula_units_Z 32
_cell_length_a 22.865118
_cell_length_b 10.857796
_cell_length_c 18.007061
_cell_angle_alpha 90.000000
_cell_angle_beta 19.891103
_cell_angle_gamma 90.000000
_cell_volume 1521.020543
_symmetry_space_group_name_H-M "P 21/C"
_symmetry_group_IT_number 14
_symmetry_cell_setting 'monoclinic'
loop_
_space_group_symop_operation_xyz
x,y,z
-x,1/2+y,1/2-z
-x,-y,-z
x,1/2-y,1/2+z
loop_
_atom_site_type_symbol
_atom_site_label
_atom_site_fract_x
_atom_site_fract_y
_atom_site_fract_z
Si Si1 0.227294 0.924138 0.516158
Si Si2 0.806672 0.862887 0.140409
Si Si3 0.560951 0.651281 0.285432
Si Si4 0.407262 0.664037 0.314872
Si Si5 0.901280 0.729207 0.383840
Si Si6 0.843106 0.105595 0.001381
Si Si7 0.412307 0.687264 0.075679
Si Si8 0.271281 0.478281 0.129098
O O1 0.349287 0.803876 0.371368
O O2 0.043864 0.878088 0.703151
O O3 0.322075 0.029961 0.356322
O O4 0.211939 0.964883 0.621499
O O5 0.598902 0.850987 0.385409
O O6 0.855093 0.897349 0.166900
O O7 0.845308 0.983693 0.046434
O O8 0.892645 0.758337 0.985345
O O9 0.430498 0.642857 0.373589
O O10 0.454419 0.685123 0.485025
O O11 0.697855 0.764764 0.108810
O O12 0.262458 0.583767 0.447830
O O13 0.583378 0.618963 0.068487
O O14 0.981982 0.834493 0.235186
O O15 0.726962 0.193003 0.192824
O O16 0.347664 0.587792 0.090599
#
# Coordination Sequence:
#
# PCOD9239426 Si02
#       8
#     4   4   4   4   4   4   4   4
#     4  10  21  35  54  87 114 148 191 229 295 337
#     4  10  18  32  58  83 110 146 190 236 290 333
#     4  10  21  35  56  81 117 146 190 231 285 346
#     4  10  18  33  57  84 113 143 188 240 280 336
#     4  10  22  34  49  77 116 153 177 227 288 337
#     4  10  18  33  57  79 111 143 191 234 281 335
#     4  10  17  33  58  88 106 146 189 238 282 337
#     4  10  17  32  57  88 110 142 192 242 281 333
#
# _framework density 21.038506000000002
#
# number of rings (size 3 to 8) (size 9 to 14) (size 15 to 20)
#    0.000    2.000    3.750    1.500    0.000    0.500 
#    0.000    3.750    2.750    0.000    0.000    2.625 
#    0.000    0.000    0.000    0.000    0.000    0.000 
#
# Total GULP energy -178184.509119 kJ/mol
# GULP energy per Si atom -5568.265910 kJ/mol
# Density = 2.099062 g / cm^3
# Si number density = 21.038506 Si / 1000 Ang^3
#
#
#
# Elastic Constant Matrix: (Units=GPa)
#
#
# Indices 1 2 3 4 5 6 
#
# 1 67.3578 6.5578 12.5694 0.0000 5.2947 0.0000
# 2 6.5578 40.3918 2.3301 0.0000 -0.3707 0.0000
# 3 12.5694 2.3301 69.9008 0.0000 -1.7419 0.0000
# 4 0.0000 0.0000 0.0000 37.5705 0.0000 3.9342
# 5 5.2947 -0.3707 -1.7419 0.0000 21.2725 0.0000
# 6 0.0000 0.0000 0.0000 3.9342 0.0000 26.4983
#
#
#
# Elastic Compliance Matrix: (Units=1/GPa)
#
#
# Indices 1 2 3 4 5 6 
#
# 1 0.015960 -0.002463 -0.002894 0.000000 -0.004252 0.000000
# 2 -0.002463 0.025188 -0.000371 0.000000 0.001022 0.000000
# 3 -0.002894 -0.000371 0.014887 0.000000 0.001933 0.000000
# 4 0.000000 0.000000 0.000000 0.027037 0.000000 -0.004014
# 5 -0.004252 0.001022 0.001933 0.000000 0.048244 0.000000
# 6 0.000000 0.000000 0.000000 -0.004014 0.000000 0.038334
#
#
# Mechanical properties :
#
#
# Convention : Reuss Voigt Hill
#
# Bulk Modulus (GPa) = 22.43226 24.50723 23.46975
# Shear Modulus (GPa) = 25.51459 27.48112 26.49786
#
# Velocity S-wave (km/s) = 3.48624 3.61810 3.55278
# Velocity P-wave (km/s) = 5.18564 5.39706 5.29240
#
# Compressibility (1/GPa) = 0.04457865
#
# Stress axis : x y z
#
# Youngs Moduli (GPa) = 62.65601 39.70108 67.17324
#
# Poissons Ratio (x) = 0.09780 0.19438
# Poissons Ratio (y) = 0.15434 0.02494
# Poissons Ratio (z) = 0.18131 0.01474
#
# Static dielectric constant tensor:
#      x y z
#    x 1.797660 0.000000 -0.011430 
#    y 0.000000 1.851330 0.000000 
#    z -0.011430 0.000000 1.808470 
# 
# From -- ./inp_files/61986.got.cif
#   From: 2010.05.17/outbox.cif.g08.bks.cpg/sg14_31_cif.got.tgz:61986.got - 2010.06.03 17:49:19.
