data_PCOD9239398
_publ_section_title
;
Structure prediction by ZEFSAII (Michael W. Deem and Ramdas Pophale) SiO2 
 PCOD9239398
Probable space group: P 21/C
;
_chemical_formula_sum "Si O2"
_cell_formula_units_Z 28
_cell_length_a 15.000400
_cell_length_b 18.522812
_cell_length_c 8.360119
_cell_angle_alpha 90.000000
_cell_angle_beta 146.154729
_cell_angle_gamma 90.000000
_cell_volume 1293.719149
_symmetry_space_group_name_H-M "P 21/C"
_symmetry_group_IT_number 14
_symmetry_cell_setting 'monoclinic'
loop_
_space_group_symop_operation_xyz
x,y,z
-x,1/2+y,1/2-z
-x,-y,-z
x,1/2-y,1/2+z
loop_
_atom_site_type_symbol
_atom_site_label
_atom_site_fract_x
_atom_site_fract_y
_atom_site_fract_z
Si Si1 0.994924 0.572973 0.197002
Si Si2 0.842312 0.084630 0.390712
Si Si3 0.252746 0.013248 0.210929
Si Si4 0.574012 0.504907 0.377566
Si Si5 0.254599 0.247955 0.939481
Si Si6 0.072252 0.339381 0.439689
Si Si7 0.658920 0.857252 0.203514
O O1 0.074558 0.602866 0.153988
O O2 0.135241 0.555905 0.531516
O O3 0.920577 0.493319 0.052103
O O4 0.845229 0.622002 0.010911
O O5 0.899429 0.141545 0.607944
O O6 0.659211 0.064988 0.082045
O O7 0.322667 0.020530 0.132369
O O8 0.395950 0.006185 0.548960
O O9 0.152209 0.084023 0.100832
O O10 0.584265 0.569911 0.519838
O O11 0.100547 0.284713 0.625467
O O12 0.184069 0.195575 0.969041
O O13 0.346651 0.199457 0.949452
O O14 0.372195 0.309516 0.185815
#
# Coordination Sequence:
#
# PCOD9239398 Si02
#       7
#     4   4   4   4   4   4   4
#     4   8  13  25  46  68  90 112 147 192 225 261
#     4   8  13  25  46  68  90 112 147 192 225 261
#     4   9  16  28  50  73  93 120 156 196 231 272
#     4   9  16  28  50  73  93 120 156 196 231 272
#     4  10  20  28  50  66  98 122 156 188 226 284
#     4  10  17  32  47  73  89 123 155 192 231 278
#     4  10  17  32  47  73  89 123 155 192 231 278
#
# _framework density 21.643028999999999
#
# number of rings (size 3 to 8) (size 9 to 14) (size 15 to 20)
#    0.000    2.857    2.857    1.714    0.000    0.000 
#    0.000    7.143    0.000   10.286    0.000    0.000 
#    0.000    0.000    0.000    0.000    0.000    0.000 
#
# Total GULP energy -156153.266831 kJ/mol
# GULP energy per Si atom -5576.902387 kJ/mol
# Density = 2.159377 g / cm^3
# Si number density = 21.643029 Si / 1000 Ang^3
#
#
#
# Elastic Constant Matrix: (Units=GPa)
#
#
# Indices 1 2 3 4 5 6 
#
# 1 33.9417 4.7061 7.3738 0.0000 -4.5867 0.0000
# 2 4.7061 53.2011 16.7684 0.0000 -3.8265 0.0000
# 3 7.3738 16.7684 121.5936 0.0000 2.9346 0.0000
# 4 0.0000 0.0000 0.0000 33.8032 0.0000 -9.1910
# 5 -4.5867 -3.8265 2.9346 0.0000 18.7224 0.0000
# 6 0.0000 0.0000 0.0000 -9.1910 0.0000 8.3561
#
#
#
# Elastic Compliance Matrix: (Units=1/GPa)
#
#
# Indices 1 2 3 4 5 6 
#
# 1 0.031113 -0.001625 -0.001846 0.000000 0.007579 0.000000
# 2 -0.001625 0.020113 -0.002775 0.000000 0.004148 0.000000
# 3 -0.001846 -0.002775 0.008777 0.000000 -0.002395 0.000000
# 4 0.000000 0.000000 0.000000 0.042205 0.000000 0.046422
# 5 0.007579 0.004148 -0.002395 0.000000 0.056492 0.000000
# 6 0.000000 0.000000 0.000000 0.046422 0.000000 0.170734
#
#
# Mechanical properties :
#
#
# Convention : Reuss Voigt Hill
#
# Bulk Modulus (GPa) = 21.04803 29.60366 25.32584
# Shear Modulus (GPa) = 13.97572 24.16887 19.07230
#
# Velocity S-wave (km/s) = 2.54389 3.34534 2.97176
# Velocity P-wave (km/s) = 4.28657 5.35066 4.84790
#
# Compressibility (1/GPa) = 0.04751039
#
# Stress axis : x y z
#
# Youngs Moduli (GPa) = 32.14112 49.71800 113.93983
#
# Poissons Ratio (x) = 0.08081 0.21028
# Poissons Ratio (y) = 0.05224 0.31621
# Poissons Ratio (z) = 0.05932 0.13798
#
# Static dielectric constant tensor:
#      x y z
#    x 1.826440 0.000000 -0.016880 
#    y 0.000000 1.792350 0.000000 
#    z -0.016880 0.000000 1.839440 
# 
# From -- ./inp_files/14128.got.cif
#   From: 2010.05.17/outbox.cif.g08.bks.cpg/sg14_8_cif.got.tgz:14128.got - 2010.06.03 17:49:19.
