data_PCOD9239424
_publ_section_title
;
Structure prediction by ZEFSAII (Michael W. Deem and Ramdas Pophale) SiO2 
 PCOD9239424
Probable space group: P 21/C
;
_chemical_formula_sum "Si O2"
_cell_formula_units_Z 32
_cell_length_a 19.481311
_cell_length_b 5.158176
_cell_length_c 17.688155
_cell_angle_alpha 90.000000
_cell_angle_beta 95.965772
_cell_angle_gamma 90.000000
_cell_volume 1767.821496
_symmetry_space_group_name_H-M "P 21/C"
_symmetry_group_IT_number 14
_symmetry_cell_setting 'monoclinic'
loop_
_space_group_symop_operation_xyz
x,y,z
-x,1/2+y,1/2-z
-x,-y,-z
x,1/2-y,1/2+z
loop_
_atom_site_type_symbol
_atom_site_label
_atom_site_fract_x
_atom_site_fract_y
_atom_site_fract_z
Si Si1 0.712733 0.285362 0.069823
Si Si2 0.652612 0.296887 0.397968
Si Si3 0.647046 0.715132 0.638589
Si Si4 0.303299 0.203199 0.684637
Si Si5 0.146997 0.730778 0.333406
Si Si6 0.154185 0.269389 0.725844
Si Si7 0.498246 0.750288 0.553772
Si Si8 0.996430 0.764697 0.803203
O O1 0.686610 0.563952 0.095562
O O2 0.793220 0.253406 0.098273
O O3 0.672352 0.064173 0.112204
O O4 0.693654 0.246004 0.980655
O O5 0.665387 0.583559 0.367849
O O6 0.572238 0.254076 0.407281
O O7 0.678695 0.083357 0.341688
O O8 0.666366 0.744277 0.728189
O O9 0.566096 0.746219 0.613222
O O10 0.221183 0.244458 0.682003
O O11 0.155653 0.466714 0.286353
O O12 0.068581 0.742185 0.356214
O O13 0.156431 0.966510 0.274907
O O14 0.080983 0.258205 0.673181
O O15 0.500000 0.500000 0.500000
O O16 0.500000 0.000000 0.500000
O O17 0.000171 0.522478 0.746873
#
# Coordination Sequence:
#
# PCOD9239424 Si02
#       8
#     4   4   4   4   4   4   4   4
#     4  12  21  39  62  88 113 155 201 237 282 345
#     4  12  26  39  60  87 120 153 192 238 298 351
#     4  12  23  40  66  85 112 157 196 237 288 347
#     4  12  24  39  58  90 124 150 190 238 296 349
#     4  10  17  32  57  86 110 146 200 242 269 332
#     4  10  18  33  55  82 119 152 182 237 293 334
#     4  12  23  43  65  85 113 151 196 245 288 342
#     4   8  16  27  49  83 113 142 187 238 282 320
#
# _framework density 18.101374
#
# number of rings (size 3 to 8) (size 9 to 14) (size 15 to 20)
#    0.000    1.000    5.000    3.000    0.000    1.000 
#    0.000    0.000    0.000    1.500    0.000    0.000 
#    0.000    0.000    0.000    0.000    0.000    0.000 
#
# Total GULP energy -178697.130936 kJ/mol
# GULP energy per Si atom -5584.285342 kJ/mol
# Density = 1.806017 g / cm^3
# Si number density = 18.101374 Si / 1000 Ang^3
#
#
#
# Elastic Constant Matrix: (Units=GPa)
#
#
# Indices 1 2 3 4 5 6 
#
# 1 173.6404 -13.2888 14.5597 0.0000 17.5209 0.0000
# 2 -13.2888 68.1425 -12.3158 0.0000 -1.5851 0.0000
# 3 14.5597 -12.3158 41.9231 0.0000 8.3874 0.0000
# 4 0.0000 0.0000 0.0000 26.5965 0.0000 -6.5304
# 5 17.5209 -1.5851 8.3874 0.0000 24.6606 0.0000
# 6 0.0000 0.0000 0.0000 -6.5304 0.0000 28.0825
#
#
#
# Elastic Compliance Matrix: (Units=1/GPa)
#
#
# Indices 1 2 3 4 5 6 
#
# 1 0.006334 0.000940 -0.001111 0.000000 -0.004062 0.000000
# 2 0.000940 0.015646 0.004509 0.000000 -0.001196 0.000000
# 3 -0.001111 0.004509 0.027199 0.000000 -0.008171 0.000000
# 4 0.000000 0.000000 0.000000 0.039876 0.000000 0.009273
# 5 -0.004062 -0.001196 -0.008171 0.000000 0.046139 0.000000
# 6 0.000000 0.000000 0.000000 0.009273 0.000000 0.037766
#
#
# Mechanical properties :
#
#
# Convention : Reuss Voigt Hill
#
# Bulk Modulus (GPa) = 17.28490 29.06847 23.17669
# Shear Modulus (GPa) = 27.23802 35.51799 31.37800
#
# Velocity S-wave (km/s) = 3.88332 4.43445 4.16800
# Velocity P-wave (km/s) = 5.44762 6.50482 5.99955
#
# Compressibility (1/GPa) = 0.05785395
#
# Stress axis : x y z
#
# Youngs Moduli (GPa) = 157.87866 63.91593 36.76670
#
# Poissons Ratio (x) = -0.06008 0.04085
# Poissons Ratio (y) = -0.14840 -0.16578
# Poissons Ratio (z) = 0.17540 -0.28820
#
# Static dielectric constant tensor:
#      x y z
#    x 1.662220 0.000000 0.015340 
#    y 0.000000 1.608500 0.000000 
#    z 0.015340 0.000000 1.574920 
# 
# From -- ./inp_files/48175.got.cif
#   From: 2010.05.17/outbox.cif.g08.bks.cpg/sg14_25_cif.got.tgz:48175.got - 2010.06.03 17:49:19.
