data_PCOD9239147
_publ_section_title
;
Structure prediction by ZEFSAII (Michael W. Deem and Ramdas Pophale) SiO2 
 PCOD9239147
Probable space group: P 21/C
;
_chemical_formula_sum "Si O2"
_cell_formula_units_Z 24
_cell_length_a 5.442533
_cell_length_b 12.232326
_cell_length_c 14.040119
_cell_angle_alpha 90.000000
_cell_angle_beta 111.693106
_cell_angle_gamma 90.000000
_cell_volume 868.519118
_symmetry_space_group_name_H-M "P 21/C"
_symmetry_group_IT_number 14
_symmetry_cell_setting 'monoclinic'
loop_
_space_group_symop_operation_xyz
x,y,z
-x,1/2+y,1/2-z
-x,-y,-z
x,1/2-y,1/2+z
loop_
_atom_site_type_symbol
_atom_site_label
_atom_site_fract_x
_atom_site_fract_y
_atom_site_fract_z
Si Si1 0.704373 0.823938 0.388350
Si Si2 0.290547 0.995244 0.117226
Si Si3 0.048969 0.224020 0.379867
Si Si4 0.856794 0.343106 0.172096
Si Si5 0.731815 0.113671 0.054118
Si Si6 0.527613 0.641375 0.205438
O O1 0.826727 0.762706 0.497687
O O2 0.439541 0.884539 0.382328
O O3 0.608106 0.736036 0.294728
O O4 0.925560 0.893988 0.365584
O O5 0.417657 0.027229 0.234265
O O6 0.322017 0.879034 0.067691
O O7 0.479834 0.065443 0.072654
O O8 0.987885 0.034274 0.087837
O O9 0.273334 0.159945 0.352562
O O10 0.966308 0.323983 0.295401
O O11 0.780257 0.157026 0.355885
O O12 0.821192 0.220869 0.121573
#
# Coordination Sequence:
#
# PCOD9239147 Si02
#       6
#     4   4   4   4   4   4
#     4  10  18  27  41  56  77 113 140 162 198 230
#     4  10  16  25  41  58  79 111 130 152 202 248
#     4  10  18  27  41  56  77 113 140 162 198 230
#     4  10  17  30  40  58  86 106 133 170 192 236
#     4  10  16  25  41  58  79 111 130 152 202 248
#     4  10  17  30  40  58  86 106 133 170 192 236
#
# _framework density 27.633241000000002
#
# number of rings (size 3 to 8) (size 9 to 14) (size 15 to 20)
#    0.000    2.000    6.667    1.000    0.000    0.000 
#    0.000    0.000    0.000    0.000    0.000    0.000 
#    0.000    0.000    0.000  204.000    0.000    0.000 
#
# Total GULP energy -134244.585820 kJ/mol
# GULP energy per Si atom -5593.524409 kJ/mol
# Density = 2.757035 g / cm^3
# Si number density = 27.633241 Si / 1000 Ang^3
#
#
#
# Elastic Constant Matrix: (Units=GPa)
#
#
# Indices 1 2 3 4 5 6 
#
# 1 283.2412 16.2079 71.5333 0.0000 19.7440 0.0000
# 2 16.2079 48.3588 29.6846 0.0000 13.2268 0.0000
# 3 71.5333 29.6846 168.5196 0.0000 -0.6669 0.0000
# 4 0.0000 0.0000 0.0000 37.4766 0.0000 -3.9101
# 5 19.7440 13.2268 -0.6669 0.0000 29.2204 0.0000
# 6 0.0000 0.0000 0.0000 -3.9101 0.0000 14.4253
#
#
#
# Elastic Compliance Matrix: (Units=1/GPa)
#
#
# Indices 1 2 3 4 5 6 
#
# 1 0.004196 0.000628 -0.001904 0.000000 -0.003163 0.000000
# 2 0.000628 0.027095 -0.005090 0.000000 -0.012805 0.000000
# 3 -0.001904 -0.005090 0.007654 0.000000 0.003765 0.000000
# 4 0.000000 0.000000 0.000000 0.027460 0.000000 0.007443
# 5 -0.003163 -0.012805 0.003765 0.000000 0.042242 0.000000
# 6 0.000000 0.000000 0.000000 0.007443 0.000000 0.071340
#
#
# Mechanical properties :
#
#
# Convention : Reuss Voigt Hill
#
# Bulk Modulus (GPa) = 38.15037 81.66347 59.90692
# Shear Modulus (GPa) = 24.81912 41.73736 33.27824
#
# Velocity S-wave (km/s) = 3.00019 3.89061 3.47404
# Velocity P-wave (km/s) = 5.08305 7.05686 6.14966
#
# Compressibility (1/GPa) = 0.02621207
#
# Stress axis : x y z
#
# Youngs Moduli (GPa) = 238.32071 36.90693 130.65404
#
# Poissons Ratio (x) = -0.02316 0.24879
# Poissons Ratio (y) = -0.14957 0.66501
# Poissons Ratio (z) = 0.45381 0.18785
#
# Static dielectric constant tensor:
#      x y z
#    x 2.239570 0.000000 0.007130 
#    y 0.000000 2.201450 0.000000 
#    z 0.007130 0.000000 2.207140 
# 
# From -- ./inp_files/4532.got.cif
#   From: 2010.05.17/outbox.cif.g08.bks.cpg/sg14_3_cif.got.tgz:4532.got - 2010.06.03 17:49:19.
