data_PCOD9239338
_publ_section_title
;
Structure prediction by ZEFSAII (Michael W. Deem and Ramdas Pophale) SiO2 
 PCOD9239338
Probable space group: P 21/C
;
_chemical_formula_sum "Si O2"
_cell_formula_units_Z 32
_cell_length_a 18.031776
_cell_length_b 5.401338
_cell_length_c 22.208067
_cell_angle_alpha 90.000000
_cell_angle_beta 144.917666
_cell_angle_gamma 90.000000
_cell_volume 1243.173769
_symmetry_space_group_name_H-M "P 21/C"
_symmetry_group_IT_number 14
_symmetry_cell_setting 'monoclinic'
loop_
_space_group_symop_operation_xyz
x,y,z
-x,1/2+y,1/2-z
-x,-y,-z
x,1/2-y,1/2+z
loop_
_atom_site_type_symbol
_atom_site_label
_atom_site_fract_x
_atom_site_fract_y
_atom_site_fract_z
Si Si1 0.184753 0.923121 0.251935
Si Si2 0.973669 0.791923 0.277998
Si Si3 0.544257 0.253318 0.811338
Si Si4 0.271767 0.791019 0.437265
Si Si5 0.966080 0.635923 0.080593
Si Si6 0.695704 0.698305 0.273060
Si Si7 0.212927 0.699811 0.103218
Si Si8 0.758124 0.704415 0.532525
O O1 0.270662 0.801238 0.363313
O O2 0.271610 0.118904 0.273159
O O3 0.089417 0.787499 0.139736
O O4 0.073144 0.065399 0.213855
O O5 0.872925 0.804774 0.157940
O O6 0.121045 0.786954 0.357317
O O7 0.964110 0.024868 0.314479
O O8 0.516995 0.967795 0.773882
O O9 0.454464 0.305284 0.809438
O O10 0.693839 0.299748 0.894247
O O11 0.321297 0.542734 0.503538
O O12 0.317758 0.049384 0.497450
O O13 0.835299 0.765892 0.020366
O O14 0.922948 0.404036 0.011505
O O15 0.741440 0.972413 0.323169
O O16 0.764942 0.475686 0.356742
#
# Coordination Sequence:
#
# PCOD9239338 Si02
#       8
#     4   4   4   4   4   4   4   4
#     4  11  21  31  52  74 110 138 174 207 255 307
#     4  10  18  32  46  70 102 138 174 202 236 302
#     4   8  16  38  60  70  92 128 180 226 248 296
#     4  10  17  30  47  68  95 132 175 205 232 287
#     4  11  21  31  52  74 110 138 174 207 255 307
#     4  10  23  38  54  77 102 138 176 213 261 303
#     4  10  23  38  54  77 102 138 176 213 261 303
#     4  10  17  30  47  68  95 132 175 205 232 287
#
# _framework density 25.740569000000001
#
# number of rings (size 3 to 8) (size 9 to 14) (size 15 to 20)
#    0.000    2.000    3.750    0.750    3.500    1.000 
#    0.000    0.000    0.000    0.000    0.000    8.750 
#    0.000    0.000    0.000    0.375    0.000    0.000 
#
# Total GULP energy -178377.602841 kJ/mol
# GULP energy per Si atom -5574.300089 kJ/mol
# Density = 2.568198 g / cm^3
# Si number density = 25.740569 Si / 1000 Ang^3
#
#
#
# Elastic Constant Matrix: (Units=GPa)
#
#
# Indices 1 2 3 4 5 6 
#
# 1 74.8249 15.7865 16.5237 0.0000 -6.3009 0.0000
# 2 15.7865 163.0692 20.2059 0.0000 -4.1501 0.0000
# 3 16.5237 20.2059 49.5553 0.0000 -3.9853 0.0000
# 4 0.0000 0.0000 0.0000 35.5291 0.0000 -5.3512
# 5 -6.3009 -4.1501 -3.9853 0.0000 21.8587 0.0000
# 6 0.0000 0.0000 0.0000 -5.3512 0.0000 35.0300
#
#
#
# Elastic Compliance Matrix: (Units=1/GPa)
#
#
# Indices 1 2 3 4 5 6 
#
# 1 0.014770 -0.000809 -0.004328 0.000000 0.003315 0.000000
# 2 -0.000809 0.006515 -0.002340 0.000000 0.000577 0.000000
# 3 -0.004328 -0.002340 0.022775 0.000000 0.002460 0.000000
# 4 0.000000 0.000000 0.000000 0.028809 0.000000 0.004401
# 5 0.003315 0.000577 0.002460 0.000000 0.047262 0.000000
# 6 0.000000 0.000000 0.000000 0.004401 0.000000 0.029219
#
#
# Mechanical properties :
#
#
# Convention : Reuss Voigt Hill
#
# Bulk Modulus (GPa) = 34.35900 43.60906 38.98403
# Shear Modulus (GPa) = 28.73431 34.14580 31.44005
#
# Velocity S-wave (km/s) = 3.34474 3.64612 3.49867
# Velocity P-wave (km/s) = 5.31917 5.89102 5.61238
#
# Compressibility (1/GPa) = 0.02910446
#
# Stress axis : x y z
#
# Youngs Moduli (GPa) = 67.70367 153.48288 43.90800
#
# Poissons Ratio (x) = 0.12420 0.19005
# Poissons Ratio (y) = 0.05479 0.10276
# Poissons Ratio (z) = 0.29305 0.35921
#
# Static dielectric constant tensor:
#      x y z
#    x 2.010000 0.000000 -0.087160 
#    y 0.000000 2.362800 0.000000 
#    z -0.087160 0.000000 2.146270 
# 
# From -- ./inp_files/68973.got.cif
#   From: 2010.05.17/outbox.cif.g08.bks.cpg/sg14_35_cif.got.tgz:68973.got - 2010.06.03 17:49:19.
