data_PCOD9239751
_publ_section_title
;
Structure prediction by ZEFSAII (Michael W. Deem and Ramdas Pophale) SiO2 
 PCOD9239751
Probable space group: P 21/C
;
_chemical_formula_sum "Si O2"
_cell_formula_units_Z 28
_cell_length_a 12.255824
_cell_length_b 8.732854
_cell_length_c 16.493933
_cell_angle_alpha 90.000000
_cell_angle_beta 141.802502
_cell_angle_gamma 90.000000
_cell_volume 1091.626870
_symmetry_space_group_name_H-M "P 21/C"
_symmetry_group_IT_number 14
_symmetry_cell_setting 'monoclinic'
loop_
_space_group_symop_operation_xyz
x,y,z
-x,1/2+y,1/2-z
-x,-y,-z
x,1/2-y,1/2+z
loop_
_atom_site_type_symbol
_atom_site_label
_atom_site_fract_x
_atom_site_fract_y
_atom_site_fract_z
Si Si1 0.472886 0.753114 0.674781
Si Si2 0.051802 0.420576 0.866307
Si Si3 0.110536 0.026457 0.230550
Si Si4 0.306215 0.788218 0.244333
Si Si5 0.246313 0.601657 0.417605
Si Si6 0.272110 0.009231 0.634201
Si Si7 0.659875 0.744403 0.546461
O O1 0.362965 0.675257 0.684710
O O2 0.396632 0.704458 0.543658
O O3 0.421390 0.927880 0.663061
O O4 0.663115 0.675457 0.798890
O O5 0.098320 0.535477 0.817919
O O6 0.199012 0.289635 0.941475
O O7 0.867843 0.353568 0.727487
O O8 0.096893 0.492378 0.977644
O O9 0.256112 0.161112 0.329218
O O10 0.165795 0.909352 0.194730
O O11 0.911601 0.088434 0.107819
O O12 0.262845 0.609071 0.202442
O O13 0.470853 0.795041 0.402921
O O14 0.327423 0.437312 0.442278
#
# Coordination Sequence:
#
# PCOD9239751 Si02
#       7
#     4   4   4   4   4   4   4
#     4  10  19  31  54  79 105 137 181 217 261 316
#     4   8  19  30  50  76 102 141 172 215 260 316
#     4   8  20  30  51  81 106 138 172 229 266 304
#     4  10  18  31  54  79 106 131 182 227 267 295
#     4   9  18  31  48  77 102 140 173 214 262 317
#     4  10  19  32  53  81 103 139 181 219 257 318
#     4   9  16  30  53  74 106 138 179 209 261 322
#
# _framework density 25.649788000000001
#
# number of rings (size 3 to 8) (size 9 to 14) (size 15 to 20)
#    2.571    0.000    2.857    0.429    4.000    0.571 
#    0.000    0.000    0.000    1.714    7.429    0.000 
#    0.000    0.000    0.000    0.000    0.000    0.000 
#
# Total GULP energy -155960.484141 kJ/mol
# GULP energy per Si atom -5570.017291 kJ/mol
# Density = 2.559141 g / cm^3
# Si number density = 25.649788 Si / 1000 Ang^3
#
#
#
# Elastic Constant Matrix: (Units=GPa)
#
#
# Indices 1 2 3 4 5 6 
#
# 1 64.5394 6.5592 14.3046 0.0000 -9.0699 0.0000
# 2 6.5592 64.2390 18.5144 0.0000 1.3571 0.0000
# 3 14.3046 18.5144 110.6216 0.0000 -6.1385 0.0000
# 4 0.0000 0.0000 0.0000 22.2738 0.0000 2.0887
# 5 -9.0699 1.3571 -6.1385 0.0000 25.3910 0.0000
# 6 0.0000 0.0000 0.0000 2.0887 0.0000 30.6534
#
#
#
# Elastic Compliance Matrix: (Units=1/GPa)
#
#
# Indices 1 2 3 4 5 6 
#
# 1 0.016792 -0.001365 -0.001628 0.000000 0.005678 0.000000
# 2 -0.001365 0.016528 -0.002702 0.000000 -0.002024 0.000000
# 3 -0.001628 -0.002702 0.009810 0.000000 0.001935 0.000000
# 4 0.000000 0.000000 0.000000 0.045184 0.000000 -0.003079
# 5 0.005678 -0.002024 0.001935 0.000000 0.041988 0.000000
# 6 0.000000 0.000000 0.000000 -0.003079 0.000000 0.032833
#
#
# Mechanical properties :
#
#
# Convention : Reuss Voigt Hill
#
# Bulk Modulus (GPa) = 31.50672 35.35073 33.42873
# Shear Modulus (GPa) = 27.01173 28.99842 28.00507
#
# Velocity S-wave (km/s) = 3.24867 3.36602 3.30786
# Velocity P-wave (km/s) = 5.13633 5.37762 5.25836
#
# Compressibility (1/GPa) = 0.03173926
#
# Stress axis : x y z
#
# Youngs Moduli (GPa) = 59.55264 60.50418 101.93791
#
# Poissons Ratio (x) = 0.08261 0.16593
# Poissons Ratio (y) = 0.08131 0.27543
# Poissons Ratio (z) = 0.09694 0.16348
#
# Static dielectric constant tensor:
#      x y z
#    x 2.131420 0.000000 0.071060 
#    y 0.000000 2.036200 0.000000 
#    z 0.071060 0.000000 1.989820 
# 
# From -- ./inp_files/68453.got.cif
#   From: 2010.05.17/outbox.cif.g08.bks.cpg/sg14_35_cif.got.tgz:68453.got - 2010.06.03 17:49:19.
