data_PCOD9239247
_publ_section_title
;
Structure prediction by ZEFSAII (Michael W. Deem and Ramdas Pophale) SiO2 
 PCOD9239247
Probable space group: P 21/C
;
_chemical_formula_sum "Si O2"
_cell_formula_units_Z 32
_cell_length_a 24.440429
_cell_length_b 5.216862
_cell_length_c 22.012435
_cell_angle_alpha 90.000000
_cell_angle_beta 25.690516
_cell_angle_gamma 90.000000
_cell_volume 1216.705037
_symmetry_space_group_name_H-M "P 21/C"
_symmetry_group_IT_number 14
_symmetry_cell_setting 'monoclinic'
loop_
_space_group_symop_operation_xyz
x,y,z
-x,1/2+y,1/2-z
-x,-y,-z
x,1/2-y,1/2+z
loop_
_atom_site_type_symbol
_atom_site_label
_atom_site_fract_x
_atom_site_fract_y
_atom_site_fract_z
Si Si1 0.596319 0.377753 0.711559
Si Si2 0.087354 0.176895 0.168604
Si Si3 0.426475 0.885029 0.895834
Si Si4 0.340755 0.519485 0.225752
Si Si5 0.064378 0.468684 0.370857
Si Si6 0.582068 0.299044 0.458743
Si Si7 0.142671 0.237764 0.983865
Si Si8 0.116843 0.984753 0.268552
O O1 0.529457 0.654822 0.787337
O O2 0.652695 0.341841 0.587522
O O3 0.676064 0.335710 0.693175
O O4 0.491025 0.158260 0.821683
O O5 0.994358 0.938446 0.246021
O O6 0.150028 0.101412 0.169815
O O7 0.176829 0.223104 0.020637
O O8 0.377857 0.897410 0.014223
O O9 0.316817 0.683120 0.189798
O O10 0.255511 0.270490 0.323447
O O11 0.484538 0.427978 0.074368
O O12 0.942866 0.490919 0.448111
O O13 0.146186 0.699046 0.260634
O O14 0.000000 0.500000 0.500000
O O15 0.140289 0.206613 0.292962
O O16 0.500000 0.500000 0.500000
O O17 0.037461 0.453569 0.080026
#
# Coordination Sequence:
#
# PCOD9239247 Si02
#       8
#     4   4   4   4   4   4   4   4
#     4   9  17  31  51  75 100 131 177 225 274 329
#     4  10  16  33  53  78 104 133 174 212 276 320
#     4   9  17  31  52  74  97 136 179 224 272 326
#     4  10  20  35  51  84 109 143 191 234 280 325
#     4  10  19  33  55  80 106 148 184 216 271 338
#     4  10  19  33  55  76 108 148 190 228 276 335
#     4   9  21  31  56  80 113 138 182 233 272 324
#     4   9  18  33  54  80 104 143 179 221 270 328
#
# _framework density 26.300538
#
# number of rings (size 3 to 8) (size 9 to 14) (size 15 to 20)
#    0.750    1.750    2.500    0.375    0.000    1.000 
#    0.000    0.000    2.750    0.000    0.000    0.000 
#    0.000    0.000    0.000    0.000    0.000    0.000 
#
# Total GULP energy -178379.279247 kJ/mol
# GULP energy per Si atom -5574.352476 kJ/mol
# Density = 2.624068 g / cm^3
# Si number density = 26.300538 Si / 1000 Ang^3
#
#
#
# Elastic Constant Matrix: (Units=GPa)
#
#
# Indices 1 2 3 4 5 6 
#
# 1 117.7174 -8.9420 28.6953 0.0000 50.2973 0.0000
# 2 -8.9420 75.5153 12.8204 0.0000 1.2464 0.0000
# 3 28.6953 12.8204 134.2615 0.0000 38.2861 0.0000
# 4 0.0000 0.0000 0.0000 31.6929 0.0000 15.2445
# 5 50.2973 1.2464 38.2861 0.0000 51.1930 0.0000
# 6 0.0000 0.0000 0.0000 15.2445 0.0000 21.0890
#
#
#
# Elastic Compliance Matrix: (Units=1/GPa)
#
#
# Indices 1 2 3 4 5 6 
#
# 1 0.015057 0.001861 0.001062 0.000000 -0.015633 0.000000
# 2 0.001861 0.013717 -0.001387 0.000000 -0.001125 0.000000
# 3 0.001062 -0.001387 0.009713 0.000000 -0.008274 0.000000
# 4 0.000000 0.000000 0.000000 0.048372 0.000000 -0.034966
# 5 -0.015633 -0.001125 -0.008274 0.000000 0.041109 0.000000
# 6 0.000000 0.000000 0.000000 -0.034966 0.000000 0.072694
#
#
# Mechanical properties :
#
#
# Convention : Reuss Voigt Hill
#
# Bulk Modulus (GPa) = 24.06218 43.62684 33.84451
# Shear Modulus (GPa) = 23.64713 40.45633 32.05173
#
# Velocity S-wave (km/s) = 3.00177 3.92629 3.49474
# Velocity P-wave (km/s) = 4.60250 6.09739 5.40190
#
# Compressibility (1/GPa) = 0.04155899
#
# Stress axis : x y z
#
# Youngs Moduli (GPa) = 66.41455 72.90406 102.95539
#
# Poissons Ratio (x) = -0.13565 -0.10936
# Poissons Ratio (y) = -0.12357 0.14276
# Poissons Ratio (z) = -0.07055 0.10109
#
# Static dielectric constant tensor:
#      x y z
#    x 2.206720 0.000000 -0.127110 
#    y 0.000000 2.503490 0.000000 
#    z -0.127110 0.000000 2.309530 
# 
# From -- ./inp_files/70608.got.cif
#   From: 2010.05.17/outbox.cif.g08.bks.cpg/sg14_36_cif.got.tgz:70608.got - 2010.06.03 17:49:19.
