data_PCOD9239449
_publ_section_title
;
Structure prediction by ZEFSAII (Michael W. Deem and Ramdas Pophale) SiO2 
 PCOD9239449
Probable space group: P 21/C
;
_chemical_formula_sum "Si O2"
_cell_formula_units_Z 32
_cell_length_a 11.072477
_cell_length_b 21.769804
_cell_length_c 13.433813
_cell_angle_alpha 90.000000
_cell_angle_beta 32.895742
_cell_angle_gamma 90.000000
_cell_volume 1758.684937
_symmetry_space_group_name_H-M "P 21/C"
_symmetry_group_IT_number 14
_symmetry_cell_setting 'monoclinic'
loop_
_space_group_symop_operation_xyz
x,y,z
-x,1/2+y,1/2-z
-x,-y,-z
x,1/2-y,1/2+z
loop_
_atom_site_type_symbol
_atom_site_label
_atom_site_fract_x
_atom_site_fract_y
_atom_site_fract_z
Si Si1 0.683136 0.248049 0.791340
Si Si2 0.425059 0.354924 0.039877
Si Si3 0.828757 0.732538 0.097534
Si Si4 0.040945 0.267831 0.268851
Si Si5 0.387335 0.825989 0.865974
Si Si6 0.236333 0.077411 0.865982
Si Si7 0.300590 0.173347 0.974305
Si Si8 0.713518 0.066051 0.191469
O O1 0.653931 0.289343 0.710164
O O2 0.934412 0.223919 0.621138
O O3 0.595697 0.297314 0.932681
O O4 0.512550 0.192386 0.892843
O O5 0.340351 0.385535 0.200298
O O6 0.220612 0.321870 0.121745
O O7 0.547190 0.406445 0.889354
O O8 0.640211 0.681000 0.226300
O O9 0.895270 0.752496 0.161236
O O10 0.707413 0.786835 0.121743
O O11 0.795174 0.295672 0.435644
O O12 0.094887 0.204118 0.175620
O O13 0.332998 0.895872 0.876733
O O14 0.305058 0.006596 0.808322
O O15 0.295702 0.105834 0.932760
O O16 0.968483 0.081311 0.043615
#
# Coordination Sequence:
#
# PCOD9239449 Si02
#       8
#     4   4   4   4   4   4   4   4
#     4   8  18  31  50  79 108 136 181 220 271 340
#     4  10  17  33  55  77 112 142 173 225 277 330
#     4  10  18  34  51  77 111 142 172 228 282 319
#     4  10  19  32  54  82 110 137 186 222 277 342
#     4   9  17  33  54  75 109 146 176 226 275 332
#     4  11  20  35  55  80 118 144 182 233 276 325
#     4  10  19  32  52  79 109 145 172 226 281 327
#     4  10  21  34  54  84 111 147 187 226 271 337
#
# _framework density 18.195414
#
# number of rings (size 3 to 8) (size 9 to 14) (size 15 to 20)
#    0.000    2.250    2.500    2.625    0.000    3.000 
#    4.500    0.000    0.000    1.500    0.000    0.000 
#    0.000    0.000    0.000    0.000    0.000    0.000 
#
# Total GULP energy -178230.909389 kJ/mol
# GULP energy per Si atom -5569.715918 kJ/mol
# Density = 1.815400 g / cm^3
# Si number density = 18.195414 Si / 1000 Ang^3
#
#
#
# Elastic Constant Matrix: (Units=GPa)
#
#
# Indices 1 2 3 4 5 6 
#
# 1 42.3410 31.2874 24.5747 0.0000 -14.2373 0.0000
# 2 31.2874 94.9175 57.8346 0.0000 -9.3290 0.0000
# 3 24.5747 57.8346 120.5519 0.0000 -11.4824 0.0000
# 4 0.0000 0.0000 0.0000 25.1324 0.0000 5.7279
# 5 -14.2373 -9.3290 -11.4824 0.0000 36.0785 0.0000
# 6 0.0000 0.0000 0.0000 5.7279 0.0000 23.6712
#
#
#
# Elastic Compliance Matrix: (Units=1/GPa)
#
#
# Indices 1 2 3 4 5 6 
#
# 1 0.035305 -0.009625 -0.001536 0.000000 0.010954 0.000000
# 2 -0.009625 0.017604 -0.006612 0.000000 -0.001351 0.000000
# 3 -0.001536 -0.006612 0.011921 0.000000 0.001478 0.000000
# 4 0.000000 0.000000 0.000000 0.042112 0.000000 -0.010190
# 5 0.010954 -0.001351 0.001478 0.000000 0.032161 0.000000
# 6 0.000000 0.000000 0.000000 -0.010190 0.000000 0.044711
#
#
# Mechanical properties :
#
#
# Convention : Reuss Voigt Hill
#
# Bulk Modulus (GPa) = 34.14811 53.91153 44.02982
# Shear Modulus (GPa) = 21.82241 26.58401 24.20321
#
# Velocity S-wave (km/s) = 3.46690 3.82649 3.65112
# Velocity P-wave (km/s) = 5.90204 7.01542 6.48268
#
# Compressibility (1/GPa) = 0.02928420
#
# Stress axis : x y z
#
# Youngs Moduli (GPa) = 28.32475 56.80450 83.88344
#
# Poissons Ratio (x) = 0.54673 0.12885
# Poissons Ratio (y) = 0.27262 0.55466
# Poissons Ratio (z) = 0.04351 0.37560
#
# Static dielectric constant tensor:
#      x y z
#    x 1.686270 0.000000 0.023870 
#    y 0.000000 1.639690 0.000000 
#    z 0.023870 0.000000 1.718580 
# 
# From -- ./inp_files/45517.got.cif
#   From: 2010.05.17/outbox.cif.g08.bks.cpg/sg14_23_cif.got.tgz:45517.got - 2010.06.03 17:49:19.
