data_PCOD9239260
_publ_section_title
;
Structure prediction by ZEFSAII (Michael W. Deem and Ramdas Pophale) SiO2 
 PCOD9239260
Probable space group: P 21/C
;
_chemical_formula_sum "Si O2"
_cell_formula_units_Z 30
_cell_length_a 11.271990
_cell_length_b 8.717366
_cell_length_c 14.017381
_cell_angle_alpha 90.000000
_cell_angle_beta 126.227638
_cell_angle_gamma 90.000000
_cell_volume 1111.095851
_symmetry_space_group_name_H-M "P 21/C"
_symmetry_group_IT_number 14
_symmetry_cell_setting 'monoclinic'
loop_
_space_group_symop_operation_xyz
x,y,z
-x,1/2+y,1/2-z
-x,-y,-z
x,1/2-y,1/2+z
loop_
_atom_site_type_symbol
_atom_site_label
_atom_site_fract_x
_atom_site_fract_y
_atom_site_fract_z
Si Si1 0.086873 0.269035 0.462539
Si Si2 0.769688 0.032788 0.477268
Si Si3 0.804335 0.051943 0.808691
Si Si4 0.583802 0.185536 0.837821
Si Si5 0.733947 0.984473 0.056630
Si Si6 0.682235 0.748238 0.200126
Si Si7 0.500000 0.000000 0.500000
Si Si8 0.914147 0.236743 0.693430
O O1 0.222403 0.382060 0.513184
O O2 0.941929 0.363190 0.426082
O O3 0.047731 0.247247 0.330227
O O4 0.139862 0.107197 0.526547
O O5 0.679780 0.158612 0.373638
O O6 0.645849 0.974778 0.493010
O O7 0.897496 0.129718 0.594097
O O8 0.651896 0.081751 0.788162
O O9 0.814162 0.869887 0.790446
O O10 0.795447 0.152556 0.707425
O O11 0.409661 0.197479 0.751639
O O12 0.618391 0.103347 0.956475
O O13 0.705284 0.887922 0.138153
O O14 0.870694 0.093078 0.145359
O O15 0.563589 0.636828 0.094529
#
# Coordination Sequence:
#
# PCOD9239260 Si02
#       8
#     4   4   4   4   4   4   2   4
#     4  10  20  36  64  92 122 162 216 257 318 369
#     4  10  18  37  62  89 124 168 206 267 302 370
#     4  10  23  42  60  90 131 166 204 260 330 381
#     4  10  25  41  58  96 128 164 213 259 323 393
#     4  11  21  38  65  95 119 162 219 262 313 369
#     4  11  22  41  66  87 122 168 210 267 318 372
#     4  10  16  34  60  86 114 152 212 244 310 360
#     4   9  20  35  60  92 123 156 211 266 302 375
#
# _framework density 27.00037
#
# number of rings (size 3 to 8) (size 9 to 14) (size 15 to 20)
#    0.800    1.067    2.667    1.200    1.867    2.133 
#    2.400    1.333    0.000    0.000    0.000    0.000 
#    0.000    0.000    0.000    0.000    0.000    0.000 
#
# Total GULP energy -167026.642518 kJ/mol
# GULP energy per Si atom -5567.554751 kJ/mol
# Density = 2.693892 g / cm^3
# Si number density = 27.000370 Si / 1000 Ang^3
#
#
#
# Elastic Constant Matrix: (Units=GPa)
#
#
# Indices 1 2 3 4 5 6 
#
# 1 114.0588 54.8523 16.0571 0.0000 4.8204 0.0000
# 2 54.8523 165.0848 37.3156 0.0000 7.1480 0.0000
# 3 16.0571 37.3156 73.7253 0.0000 16.7658 0.0000
# 4 0.0000 0.0000 0.0000 30.3007 0.0000 2.6342
# 5 4.8204 7.1480 16.7658 0.0000 28.1535 0.0000
# 6 0.0000 0.0000 0.0000 2.6342 0.0000 35.4469
#
#
#
# Elastic Compliance Matrix: (Units=1/GPa)
#
#
# Indices 1 2 3 4 5 6 
#
# 1 0.010469 -0.003352 -0.000427 0.000000 -0.000687 0.000000
# 2 -0.003352 0.007917 -0.003413 0.000000 0.000596 0.000000
# 3 -0.000427 -0.003413 0.017547 0.000000 -0.009510 0.000000
# 4 0.000000 0.000000 0.000000 0.033217 0.000000 -0.002469
# 5 -0.000687 0.000596 -0.009510 0.000000 0.041149 0.000000
# 6 0.000000 0.000000 0.000000 -0.002469 0.000000 0.028395
#
#
# Mechanical properties :
#
#
# Convention : Reuss Voigt Hill
#
# Bulk Modulus (GPa) = 46.40668 63.25763 54.83215
# Shear Modulus (GPa) = 31.19941 35.08984 33.14462
#
# Velocity S-wave (km/s) = 3.40298 3.60892 3.50746
# Velocity P-wave (km/s) = 5.71534 6.39101 6.06259
#
# Compressibility (1/GPa) = 0.02154862
#
# Stress axis : x y z
#
# Youngs Moduli (GPa) = 95.52345 126.31310 56.99065
#
# Poissons Ratio (x) = 0.42341 0.02434
# Poissons Ratio (y) = 0.32020 0.19448
# Poissons Ratio (z) = 0.04080 0.43105
#
# Static dielectric constant tensor:
#      x y z
#    x 2.193620 0.000000 0.065520 
#    y 0.000000 2.103610 0.000000 
#    z 0.065520 0.000000 2.179890 
# 
# From -- ./inp_files/66696.got.cif
#   From: 2010.05.17/outbox.cif.g08.bks.cpg/sg14_34_cif.got.tgz:66696.got - 2010.06.03 17:49:19.
