data_PCOD9239687
_publ_section_title
;
Structure prediction by ZEFSAII (Michael W. Deem and Ramdas Pophale) SiO2 
 PCOD9239687
Probable space group: P 21/C
;
_chemical_formula_sum "Si O2"
_cell_formula_units_Z 24
_cell_length_a 12.428535
_cell_length_b 9.035096
_cell_length_c 12.473640
_cell_angle_alpha 90.000000
_cell_angle_beta 137.644879
_cell_angle_gamma 90.000000
_cell_volume 943.686582
_symmetry_space_group_name_H-M "P 21/C"
_symmetry_group_IT_number 14
_symmetry_cell_setting 'monoclinic'
loop_
_space_group_symop_operation_xyz
x,y,z
-x,1/2+y,1/2-z
-x,-y,-z
x,1/2-y,1/2+z
loop_
_atom_site_type_symbol
_atom_site_label
_atom_site_fract_x
_atom_site_fract_y
_atom_site_fract_z
Si Si1 0.818011 0.575040 0.974932
Si Si2 0.625186 0.662211 0.252441
Si Si3 0.883598 0.266144 0.923270
Si Si4 0.616402 0.266143 0.576732
Si Si5 0.874814 0.837788 0.747558
Si Si6 0.318014 0.424956 0.474937
O O1 0.848259 0.565961 0.123357
O O2 0.965831 0.669808 0.033759
O O3 0.665201 0.671993 0.827061
O O4 0.808815 0.414332 0.917994
O O5 0.750000 0.632451 0.249999
O O6 0.651744 0.565958 0.376642
O O7 0.454986 0.664500 0.069324
O O8 0.750005 0.196234 0.750001
O O9 0.954987 0.164500 0.069325
O O10 0.465831 0.330178 0.533768
O O11 0.691170 0.414339 0.582000
O O12 0.834799 0.671991 0.672938
#
# Coordination Sequence:
#
# PCOD9239687 Si02
#       6
#     4   4   4   4   4   4
#     4   9  17  31  51  73 100 134 167 196 240 303
#     4   9  18  32  51  74 100 132 166 200 243 295
#     4  10  18  30  52  78  99 125 165 209 245 283
#     4  10  18  30  52  78  99 125 165 209 245 283
#     4   9  18  32  51  74 100 132 166 200 243 295
#     4   9  17  31  51  73 100 134 167 196 240 303
#
# _framework density 25.432172000000001
#
# number of rings (size 3 to 8) (size 9 to 14) (size 15 to 20)
#    0.000    2.667    0.000    5.000    0.000    1.333 
#    0.000    0.000    0.000   34.000    0.000    2.333 
#    0.000    0.000    0.000    0.000    0.000    0.000 
#
# Total GULP energy -134489.162515 kJ/mol
# GULP energy per Si atom -5603.715105 kJ/mol
# Density = 2.537429 g / cm^3
# Si number density = 25.432172 Si / 1000 Ang^3
#
#
#
# Elastic Constant Matrix: (Units=GPa)
#
#
# Indices 1 2 3 4 5 6 
#
# 1 57.3300 19.6053 42.8418 0.0000 -33.0591 0.0000
# 2 19.6053 58.9614 44.5071 0.0000 -5.0979 0.0000
# 3 42.8418 44.5071 252.2060 0.0000 -17.2283 0.0000
# 4 0.0000 0.0000 0.0000 19.5477 0.0000 -5.4160
# 5 -33.0591 -5.0979 -17.2283 0.0000 51.0932 0.0000
# 6 0.0000 0.0000 0.0000 -5.4160 0.0000 7.3373
#
#
#
# Elastic Compliance Matrix: (Units=1/GPa)
#
#
# Indices 1 2 3 4 5 6 
#
# 1 0.033812 -0.007159 -0.003106 0.000000 0.020116 0.000000
# 2 -0.007159 0.021115 -0.002746 0.000000 -0.003451 0.000000
# 3 -0.003106 -0.002746 0.004935 0.000000 -0.000620 0.000000
# 4 0.000000 0.000000 0.000000 0.064309 0.000000 0.047470
# 5 0.020116 -0.003451 -0.000620 0.000000 0.032034 0.000000
# 6 0.000000 0.000000 0.000000 0.047470 0.000000 0.171331
#
#
# Mechanical properties :
#
#
# Convention : Reuss Voigt Hill
#
# Bulk Modulus (GPa) = 29.55088 64.71175 47.13132
# Shear Modulus (GPa) = 13.70470 33.03185 23.36828
#
# Velocity S-wave (km/s) = 2.32388 3.60783 3.03454
# Velocity P-wave (km/s) = 4.34112 6.54640 5.55430
#
# Compressibility (1/GPa) = 0.03383994
#
# Stress axis : x y z
#
# Youngs Moduli (GPa) = 29.57542 47.35973 202.63949
#
# Poissons Ratio (x) = 0.33905 0.62942
# Poissons Ratio (y) = 0.21173 0.55642
# Poissons Ratio (z) = 0.09186 0.13004
#
# Static dielectric constant tensor:
#      x y z
#    x 2.024910 0.000000 0.037310 
#    y 0.000000 1.935270 0.000000 
#    z 0.037310 0.000000 1.986730 
# 
# From -- ./inp_files/29208.got.cif
#   From: 2010.05.17/outbox.cif.g08.bks.cpg/sg14_15_cif.got.tgz:29208.got - 2010.06.03 17:49:19.
