data_PCOD9239368
_publ_section_title
;
Structure prediction by ZEFSAII (Michael W. Deem and Ramdas Pophale) SiO2 
 PCOD9239368
Probable space group: P 21/C
;
_chemical_formula_sum "Si O2"
_cell_formula_units_Z 32
_cell_length_a 7.822110
_cell_length_b 8.612599
_cell_length_c 19.402156
_cell_angle_alpha 90.000000
_cell_angle_beta 72.974202
_cell_angle_gamma 90.000000
_cell_volume 1249.811802
_symmetry_space_group_name_H-M "P 21/C"
_symmetry_group_IT_number 14
_symmetry_cell_setting 'monoclinic'
loop_
_space_group_symop_operation_xyz
x,y,z
-x,1/2+y,1/2-z
-x,-y,-z
x,1/2-y,1/2+z
loop_
_atom_site_type_symbol
_atom_site_label
_atom_site_fract_x
_atom_site_fract_y
_atom_site_fract_z
Si Si1 0.696528 0.762226 0.965764
Si Si2 0.895194 0.816762 0.811107
Si Si3 0.635693 0.076937 0.843018
Si Si4 0.657213 0.093542 0.026521
Si Si5 0.567215 0.393019 0.791677
Si Si6 0.205501 0.972415 0.860800
Si Si7 0.196734 0.338737 0.899401
Si Si8 0.880621 0.329020 0.844373
O O1 0.762902 0.665093 0.023534
O O2 0.736469 0.946520 0.975505
O O3 0.479519 0.771741 0.981374
O O4 0.793494 0.724116 0.882950
O O5 0.045577 0.911624 0.833462
O O6 0.749922 0.937792 0.800216
O O7 0.995107 0.756974 0.731669
O O8 0.478973 0.009101 0.907934
O O9 0.583767 0.205726 0.793658
O O10 0.758995 0.183122 0.880417
O O11 0.796138 0.134949 0.069853
O O12 0.624068 0.445435 0.709653
O O13 0.369265 0.421249 0.844126
O O14 0.730600 0.436221 0.824620
O O15 0.188586 0.154303 0.880538
O O16 0.009857 0.395134 0.887938
#
# Coordination Sequence:
#
# PCOD9239368 Si02
#       8
#     4   4   4   4   4   4   4   4
#     4   9  18  30  42  70  98 127 153 186 249 290
#     4  10  19  30  48  72 100 125 157 198 236 291
#     4   9  16  32  44  65 104 123 153 203 230 269
#     4   9  17  29  45  65 102 129 147 194 243 285
#     4   9  19  30  46  67 100 124 162 197 223 286
#     4  10  17  31  46  72  96 128 162 188 238 287
#     4  11  19  32  50  71  99 130 155 192 243 288
#     4   9  19  31  47  70  98 123 163 194 234 279
#
# _framework density 25.603856
#
# number of rings (size 3 to 8) (size 9 to 14) (size 15 to 20)
#    0.750    1.750    3.750    0.000    3.500    2.000 
#    4.500    0.000    0.000    0.000    0.000    1.750 
#    0.000    0.000    0.000    0.000    0.000    0.000 
#
# Total GULP energy -178260.375429 kJ/mol
# GULP energy per Si atom -5570.636732 kJ/mol
# Density = 2.554558 g / cm^3
# Si number density = 25.603856 Si / 1000 Ang^3
#
#
#
# Elastic Constant Matrix: (Units=GPa)
#
#
# Indices 1 2 3 4 5 6 
#
# 1 102.1461 27.6570 11.2779 0.0000 9.7296 0.0000
# 2 27.6570 191.6136 -53.0770 0.0000 -48.4069 0.0000
# 3 11.2779 -53.0770 97.9153 0.0000 24.5242 0.0000
# 4 0.0000 0.0000 0.0000 31.5757 0.0000 1.4680
# 5 9.7296 -48.4069 24.5242 0.0000 63.7855 0.0000
# 6 0.0000 0.0000 0.0000 1.4680 0.0000 17.1716
#
#
#
# Elastic Compliance Matrix: (Units=1/GPa)
#
#
# Indices 1 2 3 4 5 6 
#
# 1 0.011133 -0.002989 -0.002112 0.000000 -0.003154 0.000000
# 2 -0.002989 0.007872 0.003321 0.000000 0.005153 0.000000
# 3 -0.002112 0.003321 0.012775 0.000000 -0.002069 0.000000
# 4 0.000000 0.000000 0.000000 0.031796 0.000000 -0.002718
# 5 -0.003154 0.005153 -0.002069 0.000000 0.020865 0.000000
# 6 0.000000 0.000000 0.000000 -0.002718 0.000000 0.058468
#
#
# Mechanical properties :
#
#
# Convention : Reuss Voigt Hill
#
# Bulk Modulus (GPa) = 35.43829 40.37676 37.90752
# Shear Modulus (GPa) = 32.07676 49.56103 40.81889
#
# Velocity S-wave (km/s) = 3.54335 4.40442 3.99714
# Velocity P-wave (km/s) = 5.53276 6.45517 6.01168
#
# Compressibility (1/GPa) = 0.02821807
#
# Stress axis : x y z
#
# Youngs Moduli (GPa) = 89.82425 127.03388 78.28070
#
# Poissons Ratio (x) = 0.37969 0.16536
# Poissons Ratio (y) = 0.26847 -0.25995
# Poissons Ratio (z) = 0.18975 -0.42184
#
# Static dielectric constant tensor:
#      x y z
#    x 2.311090 0.000000 0.065510 
#    y 0.000000 1.971760 0.000000 
#    z 0.065510 0.000000 2.101490 
# 
# From -- ./inp_files/55753.got.cif
#   From: 2010.05.17/outbox.cif.g08.bks.cpg/sg14_28_cif.got.tgz:55753.got - 2010.06.03 17:49:19.
