data_PCOD9239613
_publ_section_title
;
Structure prediction by ZEFSAII (Michael W. Deem and Ramdas Pophale) SiO2 
 PCOD9239613
Probable space group: P 21/C
;
_chemical_formula_sum "Si O2"
_cell_formula_units_Z 28
_cell_length_a 5.504845
_cell_length_b 11.719098
_cell_length_c 15.896278
_cell_angle_alpha 90.000000
_cell_angle_beta 93.941033
_cell_angle_gamma 90.000000
_cell_volume 1023.072812
_symmetry_space_group_name_H-M "P 21/C"
_symmetry_group_IT_number 14
_symmetry_cell_setting 'monoclinic'
loop_
_space_group_symop_operation_xyz
x,y,z
-x,1/2+y,1/2-z
-x,-y,-z
x,1/2-y,1/2+z
loop_
_atom_site_type_symbol
_atom_site_label
_atom_site_fract_x
_atom_site_fract_y
_atom_site_fract_z
Si Si1 0.890249 0.170988 0.255559
Si Si2 0.152846 0.439789 0.357319
Si Si3 0.500697 0.355322 0.030282
Si Si4 0.399388 0.105118 0.335809
Si Si5 0.989190 0.682500 0.900038
Si Si6 0.712242 0.881476 0.961466
Si Si7 0.359440 0.937548 0.187436
O O1 0.876669 0.055329 0.196983
O O2 0.629755 0.167391 0.295887
O O3 0.127435 0.154901 0.318698
O O4 0.948605 0.272501 0.191328
O O5 0.224854 0.455440 0.456089
O O6 0.387426 0.377202 0.325543
O O7 0.893369 0.378670 0.342412
O O8 0.452813 0.399820 0.935768
O O9 0.489489 0.215483 0.026694
O O10 0.270026 0.379522 0.087611
O O11 0.775950 0.382418 0.062008
O O12 0.374828 0.988789 0.280535
O O13 0.941524 0.799535 0.949836
O O14 0.649798 0.954619 0.878230
#
# Coordination Sequence:
#
# PCOD9239613 Si02
#       7
#     4   4   4   4   4   4   4
#     4  10  18  31  45  63  85 120 148 177 206 252
#     4  10  18  26  42  63  86 114 146 176 195 248
#     4  10  20  29  42  61  86 120 147 181 213 247
#     4  10  18  31  43  58  85 120 154 174 212 248
#     4  10  19  30  42  64  84 115 150 175 214 245
#     4  10  20  27  44  62  92 112 150 169 212 246
#     4  10  19  28  43  62  84 121 146 173 205 244
#
# _framework density 27.368531999999998
#
# number of rings (size 3 to 8) (size 9 to 14) (size 15 to 20)
#    0.857    1.143    2.857    4.286    2.000    0.000 
#    0.000    0.000    0.000    0.000    0.000    0.000 
#    0.000    0.000    0.000  174.857    0.000    0.000 
#
# Total GULP energy -156707.752890 kJ/mol
# GULP energy per Si atom -5596.705460 kJ/mol
# Density = 2.730624 g / cm^3
# Si number density = 27.368532 Si / 1000 Ang^3
#
#
#
# Elastic Constant Matrix: (Units=GPa)
#
#
# Indices 1 2 3 4 5 6 
#
# 1 245.5662 40.0715 46.6184 0.0000 15.6112 0.0000
# 2 40.0715 66.6214 24.3632 0.0000 -4.2656 0.0000
# 3 46.6184 24.3632 141.3351 0.0000 16.5124 0.0000
# 4 0.0000 0.0000 0.0000 41.2620 0.0000 0.9500
# 5 15.6112 -4.2656 16.5124 0.0000 49.6421 0.0000
# 6 0.0000 0.0000 0.0000 0.9500 0.0000 39.8967
#
#
#
# Elastic Compliance Matrix: (Units=1/GPa)
#
#
# Indices 1 2 3 4 5 6 
#
# 1 0.004769 -0.002608 -0.000959 0.000000 -0.001405 0.000000
# 2 -0.002608 0.017723 -0.002568 0.000000 0.003197 0.000000
# 3 -0.000959 -0.002568 0.008142 0.000000 -0.002627 0.000000
# 4 0.000000 0.000000 0.000000 0.024249 0.000000 -0.000577
# 5 -0.001405 0.003197 -0.002627 0.000000 0.021734 0.000000
# 6 0.000000 0.000000 0.000000 -0.000577 0.000000 0.025078
#
#
# Mechanical properties :
#
#
# Convention : Reuss Voigt Hill
#
# Bulk Modulus (GPa) = 54.45956 75.06988 64.76472
# Shear Modulus (GPa) = 41.63655 48.99146 45.31401
#
# Velocity S-wave (km/s) = 3.90465 4.23551 4.07344
# Velocity P-wave (km/s) = 6.34588 7.16995 6.77047
#
# Compressibility (1/GPa) = 0.01836225
#
# Stress axis : x y z
#
# Youngs Moduli (GPa) = 209.67947 56.42511 122.82720
#
# Poissons Ratio (x) = 0.14714 0.11785
# Poissons Ratio (y) = 0.54677 0.31547
# Poissons Ratio (z) = 0.20118 0.14492
#
# Static dielectric constant tensor:
#      x y z
#    x 2.155180 0.000000 -0.042500 
#    y 0.000000 2.257510 0.000000 
#    z -0.042500 0.000000 2.072790 
# 
# From -- ./inp_files/37575.got.cif
#   From: 2010.05.17/outbox.cif.g08.bks.cpg/sg14_19_cif.got.tgz:37575.got - 2010.06.03 17:49:19.
