data_PCOD9239749
_publ_section_title
;
Structure prediction by ZEFSAII (Michael W. Deem and Ramdas Pophale) SiO2 
 PCOD9239749
Probable space group: P 21/C
;
_chemical_formula_sum "Si O2"
_cell_formula_units_Z 32
_cell_length_a 24.195172
_cell_length_b 10.365404
_cell_length_c 17.190748
_cell_angle_alpha 90.000000
_cell_angle_beta 160.168482
_cell_angle_gamma 90.000000
_cell_volume 1462.636958
_symmetry_space_group_name_H-M "P 21/C"
_symmetry_group_IT_number 14
_symmetry_cell_setting 'monoclinic'
loop_
_space_group_symop_operation_xyz
x,y,z
-x,1/2+y,1/2-z
-x,-y,-z
x,1/2-y,1/2+z
loop_
_atom_site_type_symbol
_atom_site_label
_atom_site_fract_x
_atom_site_fract_y
_atom_site_fract_z
Si Si1 0.757766 0.377852 0.488156
Si Si2 0.881474 0.118070 0.717879
Si Si3 0.586474 0.189477 0.616182
Si Si4 0.945729 0.864956 0.738887
Si Si5 0.320053 0.523051 0.290668
Si Si6 0.832913 0.155333 0.819987
Si Si7 0.177337 0.945522 0.757881
Si Si8 0.791289 0.749908 0.906107
O O1 0.613679 0.379713 0.234754
O O2 0.774882 0.462743 0.588780
O O3 0.770119 0.233764 0.539797
O O4 0.910548 0.392457 0.632471
O O5 0.855528 0.073786 0.772044
O O6 0.069050 0.169901 0.954196
O O7 0.847416 0.996047 0.619047
O O8 0.693213 0.325985 0.753432
O O9 0.671558 0.120523 0.655386
O O10 0.394596 0.208744 0.350811
O O11 0.843496 0.749970 0.565776
O O12 0.026197 0.841406 0.928955
O O13 0.500000 0.500000 0.500000
O O14 0.307906 0.506990 0.367807
O O15 0.207739 0.403733 0.114121
O O16 0.829753 0.295180 0.774814
O O17 0.000000 0.000000 0.500000
#
# Coordination Sequence:
#
# PCOD9239749 Si02
#       8
#     4   4   4   4   4   4   4   4
#     4   9  19  32  52  78 105 140 178 222 273 322
#     4  10  19  34  54  78 107 139 180 230 270 324
#     4   9  18  35  55  76 108 144 177 220 277 331
#     4  10  19  33  55  79 103 141 185 220 269 329
#     4   9  17  31  52  75 103 138 171 215 268 315
#     4   9  19  34  53  76 106 143 176 220 276 326
#     4  10  18  31  54  79 104 134 178 224 261 314
#     4  10  20  34  55  81 105 139 184 225 270 329
#
# _framework density 21.878291999999998
#
# number of rings (size 3 to 8) (size 9 to 14) (size 15 to 20)
#    0.000    2.500    0.000    3.375    0.000    4.000 
#    0.000    7.500    0.000   21.000    0.000    0.000 
#    0.000    0.000    0.000    0.000    0.000    0.000 
#
# Total GULP energy -178158.241199 kJ/mol
# GULP energy per Si atom -5567.445037 kJ/mol
# Density = 2.182850 g / cm^3
# Si number density = 21.878292 Si / 1000 Ang^3
#
#
#
# Elastic Constant Matrix: (Units=GPa)
#
#
# Indices 1 2 3 4 5 6 
#
# 1 193.2868 24.7776 53.3021 0.0000 -26.1897 0.0000
# 2 24.7776 22.2566 2.6906 0.0000 -0.3447 0.0000
# 3 53.3021 2.6906 94.6140 0.0000 -1.6981 0.0000
# 4 0.0000 0.0000 0.0000 20.0479 0.0000 -12.0993
# 5 -26.1897 -0.3447 -1.6981 0.0000 21.7176 0.0000
# 6 0.0000 0.0000 0.0000 -12.0993 0.0000 18.4147
#
#
#
# Elastic Compliance Matrix: (Units=1/GPa)
#
#
# Indices 1 2 3 4 5 6 
#
# 1 0.009073 -0.009376 -0.004658 0.000000 0.010428 0.000000
# 2 -0.009376 0.054783 0.003542 0.000000 -0.010160 0.000000
# 3 -0.004658 0.003542 0.013011 0.000000 -0.004543 0.000000
# 4 0.000000 0.000000 0.000000 0.082657 0.000000 0.054309
# 5 0.010428 -0.010160 -0.004543 0.000000 0.058105 0.000000
# 6 0.000000 0.000000 0.000000 0.054309 0.000000 0.089988
#
#
# Mechanical properties :
#
#
# Convention : Reuss Voigt Hill
#
# Bulk Modulus (GPa) = 17.89445 52.41091 35.15268
# Shear Modulus (GPa) = 14.39976 27.32852 20.86414
#
# Velocity S-wave (km/s) = 2.56828 3.53812 3.09147
# Velocity P-wave (km/s) = 4.12208 6.37955 5.37077
#
# Compressibility (1/GPa) = 0.05588324
#
# Stress axis : x y z
#
# Youngs Moduli (GPa) = 110.21708 18.25385 76.85853
#
# Poissons Ratio (x) = 0.17115 0.35798
# Poissons Ratio (y) = 1.03341 -0.27222
# Poissons Ratio (z) = 0.51335 -0.06465
#
# Static dielectric constant tensor:
#      x y z
#    x 1.868690 0.000000 -0.024980 
#    y 0.000000 1.976080 0.000000 
#    z -0.024980 0.000000 1.803030 
# 
# From -- ./inp_files/62000.got.cif
#   From: 2010.05.17/outbox.cif.g08.bks.cpg/sg14_31_cif.got.tgz:62000.got - 2010.06.03 17:49:19.
