data_PCOD9239286
_publ_section_title
;
Structure prediction by ZEFSAII (Michael W. Deem and Ramdas Pophale) SiO2 
 PCOD9239286
Probable space group: P 21/C
;
_chemical_formula_sum "Si O2"
_cell_formula_units_Z 32
_cell_length_a 18.869171
_cell_length_b 5.139710
_cell_length_c 28.828155
_cell_angle_alpha 90.000000
_cell_angle_beta 44.171722
_cell_angle_gamma 90.000000
_cell_volume 1948.154522
_symmetry_space_group_name_H-M "P 21/C"
_symmetry_group_IT_number 14
_symmetry_cell_setting 'monoclinic'
loop_
_space_group_symop_operation_xyz
x,y,z
-x,1/2+y,1/2-z
-x,-y,-z
x,1/2-y,1/2+z
loop_
_atom_site_type_symbol
_atom_site_label
_atom_site_fract_x
_atom_site_fract_y
_atom_site_fract_z
Si Si1 0.036685 0.251163 0.454074
Si Si2 0.228163 0.275591 0.415505
Si Si3 0.661525 0.967952 0.943894
Si Si4 0.537804 0.830291 0.707585
Si Si5 0.556110 0.026184 0.900991
Si Si6 0.154755 0.723117 0.007772
Si Si7 0.718979 0.033121 0.467196
Si Si8 0.500343 0.023757 0.621914
O O1 0.967730 0.243344 0.440429
O O2 0.000000 0.500000 0.500000
O O3 0.158007 0.276483 0.402035
O O4 0.000000 0.000000 0.500000
O O5 0.346337 0.267943 0.349171
O O6 0.201146 0.513601 0.463231
O O7 0.196531 0.011904 0.456517
O O8 0.638832 0.940631 0.900119
O O9 0.702753 0.252862 0.935291
O O10 0.727370 0.745926 0.938407
O O11 0.551357 0.960365 0.020950
O O12 0.473499 0.580208 0.753784
O O13 0.506291 0.936100 0.671958
O O14 0.565796 0.311927 0.875075
O O15 0.542346 0.809939 0.867904
O O16 0.194186 0.644070 0.039825
O O17 0.615496 0.021204 0.546932
#
# Coordination Sequence:
#
# PCOD9239286 Si02
#       8
#     4   4   4   4   4   4   4   4
#     4   8  16  28  44  65  83 110 148 180 216 267
#     4  10  19  32  46  60  87 118 152 190 224 260
#     4   9  17  26  39  64  86 111 144 175 209 255
#     4  12  24  34  46  65  87 118 161 203 228 249
#     4   9  17  29  43  57  82 114 149 178 209 263
#     4  10  17  28  47  67  88 117 148 178 217 274
#     4  10  17  25  43  64  89 115 141 175 213 261
#     4  10  19  30  44  57  80 119 152 183 221 254
#
# _framework density 16.425802999999998
#
# number of rings (size 3 to 8) (size 9 to 14) (size 15 to 20)
#    0.000    2.250    1.250    3.000    3.500    3.000 
#    0.000    0.000    0.000    0.000    0.000    0.000 
#    0.000    0.000    0.000   22.500    0.000    0.000 
#
# Total GULP energy -178142.191583 kJ/mol
# GULP energy per Si atom -5566.943487 kJ/mol
# Density = 1.638842 g / cm^3
# Si number density = 16.425803 Si / 1000 Ang^3
#
#
#
# Elastic Constant Matrix: (Units=GPa)
#
#
# Indices 1 2 3 4 5 6 
#
# 1 96.4764 -6.3513 23.4085 0.0000 7.3100 0.0000
# 2 -6.3513 71.3278 11.1024 0.0000 1.2320 0.0000
# 3 23.4085 11.1024 19.2358 0.0000 4.6851 0.0000
# 4 0.0000 0.0000 0.0000 14.5201 0.0000 3.8316
# 5 7.3100 1.2320 4.6851 0.0000 6.3986 0.0000
# 6 0.0000 0.0000 0.0000 3.8316 0.0000 25.8520
#
#
#
# Elastic Compliance Matrix: (Units=1/GPa)
#
#
# Indices 1 2 3 4 5 6 
#
# 1 0.016219 0.004881 -0.021678 0.000000 -0.003596 0.000000
# 2 0.004881 0.016971 -0.016528 0.000000 0.003259 0.000000
# 3 -0.021678 -0.016528 0.098703 0.000000 -0.044322 0.000000
# 4 0.000000 0.000000 0.000000 0.071673 0.000000 -0.010623
# 5 -0.003596 0.003259 -0.044322 0.000000 0.192219 0.000000
# 6 0.000000 0.000000 0.000000 -0.010623 0.000000 0.040256
#
#
# Mechanical properties :
#
#
# Convention : Reuss Voigt Hill
#
# Bulk Modulus (GPa) = 15.32797 27.03991 21.18394
# Shear Modulus (GPa) = 9.53399 19.94614 14.74007
#
# Velocity S-wave (km/s) = 2.41182 3.48849 2.99887
# Velocity P-wave (km/s) = 4.13615 5.72046 4.99156
#
# Compressibility (1/GPa) = 0.06524021
#
# Stress axis : x y z
#
# Youngs Moduli (GPa) = 61.65636 58.92493 10.13145
#
# Poissons Ratio (x) = -0.28759 0.21963
# Poissons Ratio (y) = -0.30092 0.16745
# Poissons Ratio (z) = 1.33661 0.97392
#
# Static dielectric constant tensor:
#      x y z
#    x 1.617450 0.000000 -0.002020 
#    y 0.000000 1.560390 0.000000 
#    z -0.002020 0.000000 1.516920 
# 
# From -- ./inp_files/77626.got.cif
#   From: 2010.05.17/outbox.cif.g08.bks.cpg/sg14_39_cif.got.tgz:77626.got - 2010.06.03 17:49:19.
