data_PCOD9239389
_publ_section_title
;
Structure prediction by ZEFSAII (Michael W. Deem and Ramdas Pophale) SiO2 
 PCOD9239389
Probable space group: P 21/C
;
_chemical_formula_sum "Si O2"
_cell_formula_units_Z 32
_cell_length_a 9.663222
_cell_length_b 11.379367
_cell_length_c 21.862396
_cell_angle_alpha 90.000000
_cell_angle_beta 38.654644
_cell_angle_gamma 90.000000
_cell_volume 1501.609288
_symmetry_space_group_name_H-M "P 21/C"
_symmetry_group_IT_number 14
_symmetry_cell_setting 'monoclinic'
loop_
_space_group_symop_operation_xyz
x,y,z
-x,1/2+y,1/2-z
-x,-y,-z
x,1/2-y,1/2+z
loop_
_atom_site_type_symbol
_atom_site_label
_atom_site_fract_x
_atom_site_fract_y
_atom_site_fract_z
Si Si1 0.209816 0.782815 0.181155
Si Si2 0.919077 0.331016 0.965705
Si Si3 0.321999 0.636127 0.511758
Si Si4 0.487164 0.617757 0.809924
Si Si5 0.422170 0.367761 0.775909
Si Si6 0.351811 0.500739 0.673553
Si Si7 0.837385 0.054885 0.361406
Si Si8 0.292583 0.320825 0.140834
O O1 0.279683 0.652858 0.139821
O O2 0.951841 0.772188 0.283939
O O3 0.336681 0.858872 0.187286
O O4 0.230112 0.860386 0.111773
O O5 0.861910 0.397585 0.921651
O O6 0.176087 0.351572 0.888411
O O7 0.859111 0.194858 0.970721
O O8 0.754750 0.376036 0.074548
O O9 0.446572 0.522865 0.443002
O O10 0.524965 0.728104 0.440457
O O11 0.527102 0.483882 0.772729
O O12 0.492906 0.732913 0.763167
O O13 0.660645 0.645890 0.804732
O O14 0.404743 0.419655 0.713029
O O15 0.091799 0.468692 0.750724
O O16 0.703471 0.936298 0.401196
#
# Coordination Sequence:
#
# PCOD9239389 Si02
#       8
#     4   4   4   4   4   4   4   4
#     4  10  19  30  54  81 111 141 169 226 271 329
#     4   9  19  36  61  83 109 147 186 231 276 338
#     4  10  17  31  55  80 106 141 178 211 274 332
#     4  11  22  38  61  79 112 151 191 237 277 330
#     4  11  22  40  58  84 108 151 195 232 278 327
#     4  10  18  34  53  78 112 140 179 217 276 329
#     4   9  18  32  55  84 111 140 175 224 270 336
#     4  10  19  35  54  80 110 143 183 221 276 326
#
# _framework density 21.310471
#
# number of rings (size 3 to 8) (size 9 to 14) (size 15 to 20)
#    0.000    2.000    3.750    2.250    0.000    5.500 
#    0.000    0.625    0.000    0.000    0.000    0.000 
#    0.000    0.000    0.000    0.000    0.000    0.000 
#
# Total GULP energy -178218.896575 kJ/mol
# GULP energy per Si atom -5569.340518 kJ/mol
# Density = 2.126197 g / cm^3
# Si number density = 21.310471 Si / 1000 Ang^3
#
#
#
# Elastic Constant Matrix: (Units=GPa)
#
#
# Indices 1 2 3 4 5 6 
#
# 1 26.5821 24.1670 0.0132 0.0000 2.6005 0.0000
# 2 24.1670 93.1165 15.8558 0.0000 1.6639 0.0000
# 3 0.0132 15.8558 57.8607 0.0000 7.7755 0.0000
# 4 0.0000 0.0000 0.0000 27.4253 0.0000 7.1046
# 5 2.6005 1.6639 7.7755 0.0000 10.2241 0.0000
# 6 0.0000 0.0000 0.0000 7.1046 0.0000 22.4294
#
#
#
# Elastic Compliance Matrix: (Units=1/GPa)
#
#
# Indices 1 2 3 4 5 6 
#
# 1 0.052096 -0.014262 0.005976 0.000000 -0.015474 0.000000
# 2 -0.014262 0.015172 -0.004801 0.000000 0.004809 0.000000
# 3 0.005976 -0.004801 0.020825 0.000000 -0.016576 0.000000
# 4 0.000000 0.000000 0.000000 0.039722 0.000000 -0.012582
# 5 -0.015474 0.004809 -0.016576 0.000000 0.113568 0.000000
# 6 0.000000 0.000000 0.000000 -0.012582 0.000000 0.048570
#
#
# Mechanical properties :
#
#
# Convention : Reuss Voigt Hill
#
# Bulk Modulus (GPa) = 16.15000 28.62571 22.38786
# Shear Modulus (GPa) = 14.84711 21.18398 18.01555
#
# Velocity S-wave (km/s) = 2.64238 3.15630 2.91070
# Velocity P-wave (km/s) = 4.11150 5.17154 4.67168
#
# Compressibility (1/GPa) = 0.06191949
#
# Stress axis : x y z
#
# Youngs Moduli (GPa) = 19.19526 65.90988 48.02008
#
# Poissons Ratio (x) = 0.94000 -0.28696
# Poissons Ratio (y) = 0.27376 0.23053
# Poissons Ratio (z) = -0.11471 0.31642
#
# Static dielectric constant tensor:
#      x y z
#    x 1.796560 0.000000 0.022230 
#    y 0.000000 1.838910 0.000000 
#    z 0.022230 0.000000 1.804680 
# 
# From -- ./inp_files/48719.got.cif
#   From: 2010.05.17/outbox.cif.g08.bks.cpg/sg14_25_cif.got.tgz:48719.got - 2010.06.03 17:49:19.
