data_PCOD9239320
_publ_section_title
;
Structure prediction by ZEFSAII (Michael W. Deem and Ramdas Pophale) SiO2 
 PCOD9239320
Probable space group: P 21/C
;
_chemical_formula_sum "Si O2"
_cell_formula_units_Z 32
_cell_length_a 6.501984
_cell_length_b 26.002653
_cell_length_c 9.271711
_cell_angle_alpha 90.000000
_cell_angle_beta 126.000885
_cell_angle_gamma 90.000000
_cell_volume 1268.166317
_symmetry_space_group_name_H-M "P 21/C"
_symmetry_group_IT_number 14
_symmetry_cell_setting 'monoclinic'
loop_
_space_group_symop_operation_xyz
x,y,z
-x,1/2+y,1/2-z
-x,-y,-z
x,1/2-y,1/2+z
loop_
_atom_site_type_symbol
_atom_site_label
_atom_site_fract_x
_atom_site_fract_y
_atom_site_fract_z
Si Si1 0.664474 0.190776 0.354688
Si Si2 0.973902 0.341641 0.625569
Si Si3 0.979446 0.731416 0.783037
Si Si4 0.919575 0.944149 0.120595
Si Si5 0.555556 0.108913 0.562138
Si Si6 0.642436 0.650209 0.495102
Si Si7 0.564939 0.200039 0.747430
Si Si8 0.122778 0.450501 0.739702
O O1 0.926815 0.215921 0.518305
O O2 0.614280 0.144267 0.445977
O O3 0.486299 0.242520 0.265256
O O4 0.625820 0.164575 0.184646
O O5 0.066423 0.291602 0.749333
O O6 0.717154 0.325977 0.439913
O O7 0.175466 0.347819 0.573843
O O8 0.974818 0.397223 0.696021
O O9 0.225447 0.716552 0.787874
O O10 0.758296 0.694121 0.642564
O O11 0.186878 0.913108 0.257471
O O12 0.699311 0.905674 0.083606
O O13 0.969615 0.998444 0.218445
O O14 0.846979 0.955476 0.922723
O O15 0.427459 0.151214 0.616584
O O16 0.378665 0.062305 0.434271
#
# Coordination Sequence:
#
# PCOD9239320 Si02
#       8
#     4   4   4   4   4   4   4   4
#     4  10  18  27  44  64  90 121 144 179 220 266
#     4   9  16  31  44  65  91 118 143 182 225 260
#     4   9  18  29  45  60  93 119 142 182 221 265
#     4  10  18  31  42  66  96 116 151 182 222 272
#     4  11  17  31  44  66  95 121 147 180 226 269
#     4  10  17  29  44  67  91 113 147 180 220 267
#     4   9  18  30  42  66  94 118 148 179 216 269
#     4  10  19  28  47  65  92 121 147 185 224 266
#
# _framework density 25.233284999999999
#
# number of rings (size 3 to 8) (size 9 to 14) (size 15 to 20)
#    0.000    2.250    7.500    0.375    1.750    0.000 
#    0.000    0.000    0.000    0.000    0.000    1.750 
#    0.000    0.000    0.000    0.000    0.000    0.000 
#
# Total GULP energy -178577.456462 kJ/mol
# GULP energy per Si atom -5580.545514 kJ/mol
# Density = 2.517585 g / cm^3
# Si number density = 25.233285 Si / 1000 Ang^3
#
#
#
# Elastic Constant Matrix: (Units=GPa)
#
#
# Indices 1 2 3 4 5 6 
#
# 1 40.7783 18.7304 3.2753 0.0000 5.6792 0.0000
# 2 18.7304 158.4478 18.3660 0.0000 3.7049 0.0000
# 3 3.2753 18.3660 124.0401 0.0000 1.8513 0.0000
# 4 0.0000 0.0000 0.0000 45.7085 0.0000 6.1565
# 5 5.6792 3.7049 1.8513 0.0000 28.5332 0.0000
# 6 0.0000 0.0000 0.0000 6.1565 0.0000 32.5256
#
#
#
# Elastic Compliance Matrix: (Units=1/GPa)
#
#
# Indices 1 2 3 4 5 6 
#
# 1 0.026601 -0.003009 -0.000184 0.000000 -0.004892 0.000000
# 2 -0.003009 0.006779 -0.000921 0.000000 -0.000222 0.000000
# 3 -0.000184 -0.000921 0.008209 0.000000 -0.000376 0.000000
# 4 0.000000 0.000000 0.000000 0.022450 0.000000 -0.004249
# 5 -0.004892 -0.000222 -0.000376 0.000000 0.036074 0.000000
# 6 0.000000 0.000000 0.000000 -0.004249 0.000000 0.031549
#
#
# Mechanical properties :
#
#
# Convention : Reuss Voigt Hill
#
# Bulk Modulus (GPa) = 29.97498 44.88995 37.43246
# Shear Modulus (GPa) = 33.11050 40.21310 36.66180
#
# Velocity S-wave (km/s) = 3.62633 3.99639 3.81585
# Velocity P-wave (km/s) = 5.42573 6.25487 5.85500
#
# Compressibility (1/GPa) = 0.03336116
#
# Stress axis : x y z
#
# Youngs Moduli (GPa) = 37.59266 147.51800 121.82130
#
# Poissons Ratio (x) = 0.44386 0.02240
# Poissons Ratio (y) = 0.11311 0.11219
# Poissons Ratio (z) = 0.00691 0.13586
#
# Static dielectric constant tensor:
#      x y z
#    x 2.301120 0.000000 -0.001750 
#    y 0.000000 1.983240 0.000000 
#    z -0.001750 0.000000 2.016480 
# 
# From -- ./inp_files/30779.got.cif
#   From: 2010.05.17/outbox.cif.g08.bks.cpg/sg14_16_cif.got.tgz:30779.got - 2010.06.03 17:49:19.
