data_PCOD9239174
_publ_section_title
;
Structure prediction by ZEFSAII (Michael W. Deem and Ramdas Pophale) SiO2 
 PCOD9239174
Probable space group: P 21/C
;
_chemical_formula_sum "Si O2"
_cell_formula_units_Z 32
_cell_length_a 20.943593
_cell_length_b 9.085186
_cell_length_c 16.518314
_cell_angle_alpha 90.000000
_cell_angle_beta 150.800034
_cell_angle_gamma 90.000000
_cell_volume 1533.363697
_symmetry_space_group_name_H-M "P 21/C"
_symmetry_group_IT_number 14
_symmetry_cell_setting 'monoclinic'
loop_
_space_group_symop_operation_xyz
x,y,z
-x,1/2+y,1/2-z
-x,-y,-z
x,1/2-y,1/2+z
loop_
_atom_site_type_symbol
_atom_site_label
_atom_site_fract_x
_atom_site_fract_y
_atom_site_fract_z
Si Si1 0.363165 0.708662 0.698734
Si Si2 0.344823 0.299970 0.967558
Si Si3 0.857943 0.376509 0.765915
Si Si4 0.005901 0.974217 0.227052
Si Si5 0.911961 0.226565 0.549106
Si Si6 0.269041 0.617962 0.934818
Si Si7 0.745130 0.571022 0.495856
Si Si8 0.106177 0.176067 0.615070
O O1 0.242109 0.739792 0.625004
O O2 0.335158 0.808339 0.587337
O O3 0.353635 0.537284 0.659648
O O4 0.507054 0.740907 0.890534
O O5 0.337937 0.471241 0.981938
O O6 0.237266 0.265603 0.779258
O O7 0.306990 0.203921 0.006476
O O8 0.755010 0.244475 0.658370
O O9 0.815059 0.461240 0.637620
O O10 0.853646 0.505389 0.827709
O O11 0.007273 0.318775 0.930775
O O12 0.067862 0.924963 0.380830
O O13 0.121044 0.929127 0.294192
O O14 0.969941 0.142538 0.169184
O O15 0.865173 0.891304 0.069163
O O16 0.003098 0.223372 0.571721
#
# Coordination Sequence:
#
# PCOD9239174 Si02
#       8
#     4   4   4   4   4   4   4   4
#     4   9  20  30  49  74 106 130 158 202 262 300
#     4  11  18  31  48  78 100 131 165 204 250 305
#     4   9  19  33  50  74  96 133 170 210 244 295
#     4  10  16  29  48  77  98 121 164 208 254 286
#     4  10  18  31  49  74  97 135 161 209 252 297
#     4  10  19  30  51  79 102 125 166 214 249 293
#     4   9  17  32  51  70 103 133 161 204 251 304
#     4  10  19  34  53  71  97 136 171 202 249 303
#
# _framework density 20.869150999999999
#
# number of rings (size 3 to 8) (size 9 to 14) (size 15 to 20)
#    0.000    2.250    3.750    1.500    0.000    0.500 
#    0.000    0.000    0.000    7.500    6.500    0.000 
#    0.000    0.000    0.000    0.000    0.000    0.000 
#
# Total GULP energy -178175.669071 kJ/mol
# GULP energy per Si atom -5567.989658 kJ/mol
# Density = 2.082165 g / cm^3
# Si number density = 20.869151 Si / 1000 Ang^3
#
#
#
# Elastic Constant Matrix: (Units=GPa)
#
#
# Indices 1 2 3 4 5 6 
#
# 1 27.9234 20.1089 23.3935 0.0000 12.8420 0.0000
# 2 20.1089 88.8234 31.2617 0.0000 8.1454 0.0000
# 3 23.3935 31.2617 124.5873 0.0000 27.2376 0.0000
# 4 0.0000 0.0000 0.0000 23.3017 0.0000 -0.1561
# 5 12.8420 8.1454 27.2376 0.0000 25.2854 0.0000
# 6 0.0000 0.0000 0.0000 -0.1561 0.0000 16.0828
#
#
#
# Elastic Compliance Matrix: (Units=1/GPa)
#
#
# Indices 1 2 3 4 5 6 
#
# 1 0.055199 -0.009359 -0.003331 0.000000 -0.021432 0.000000
# 2 -0.009359 0.013949 -0.002354 0.000000 0.002795 0.000000
# 3 -0.003331 -0.002354 0.011389 0.000000 -0.009819 0.000000
# 4 0.000000 0.000000 0.000000 0.042918 0.000000 0.000417
# 5 -0.021432 0.002795 -0.009819 0.000000 0.060109 0.000000
# 6 0.000000 0.000000 0.000000 0.000417 0.000000 0.062182
#
#
# Mechanical properties :
#
#
# Convention : Reuss Voigt Hill
#
# Bulk Modulus (GPa) = 19.82163 43.42913 31.62538
# Shear Modulus (GPa) = 17.08517 24.03864 20.56190
#
# Velocity S-wave (km/s) = 2.86436 3.39761 3.14232
# Velocity P-wave (km/s) = 4.52306 6.02055 5.32471
#
# Compressibility (1/GPa) = 0.05044994
#
# Stress axis : x y z
#
# Youngs Moduli (GPa) = 18.11628 71.68856 87.80301
#
# Poissons Ratio (x) = 0.67093 0.29245
# Poissons Ratio (y) = 0.16955 0.20669
# Poissons Ratio (z) = 0.06034 0.16875
#
# Static dielectric constant tensor:
#      x y z
#    x 1.816950 0.000000 -0.034530 
#    y 0.000000 1.793120 0.000000 
#    z -0.034530 0.000000 1.796410 
# 
# From -- ./inp_files/69167.got.cif
#   From: 2010.05.17/outbox.cif.g08.bks.cpg/sg14_35_cif.got.tgz:69167.got - 2010.06.03 17:49:19.
