data_PCOD9239435
_publ_section_title
;
Structure prediction by ZEFSAII (Michael W. Deem and Ramdas Pophale) SiO2 
 PCOD9239435
Probable space group: P 21/C
;
_chemical_formula_sum "Si O2"
_cell_formula_units_Z 32
_cell_length_a 8.703444
_cell_length_b 9.173367
_cell_length_c 18.160764
_cell_angle_alpha 90.000000
_cell_angle_beta 117.844428
_cell_angle_gamma 90.000000
_cell_volume 1282.076377
_symmetry_space_group_name_H-M "P 21/C"
_symmetry_group_IT_number 14
_symmetry_cell_setting 'monoclinic'
loop_
_space_group_symop_operation_xyz
x,y,z
-x,1/2+y,1/2-z
-x,-y,-z
x,1/2-y,1/2+z
loop_
_atom_site_type_symbol
_atom_site_label
_atom_site_fract_x
_atom_site_fract_y
_atom_site_fract_z
Si Si1 0.438563 0.336615 0.142859
Si Si2 0.725859 0.556250 0.756908
Si Si3 0.652503 0.104516 0.105133
Si Si4 0.858419 0.220649 0.358247
Si Si5 0.340084 0.407433 0.851800
Si Si6 0.178809 0.480370 0.971603
Si Si7 0.998625 0.264805 0.236417
Si Si8 0.317344 0.781595 0.043112
O O1 0.372785 0.332090 0.211989
O O2 0.500056 0.200378 0.108062
O O3 0.599214 0.448761 0.177054
O O4 0.282535 0.411423 0.063249
O O5 0.659461 0.537431 0.658527
O O6 0.720295 0.395567 0.792963
O O7 0.928553 0.598833 0.792723
O O8 0.835791 0.183696 0.165307
O O9 0.648026 0.105475 0.015489
O O10 0.772843 0.324144 0.400087
O O11 0.003322 0.112471 0.425151
O O12 0.947258 0.299944 0.309095
O O13 0.170350 0.335185 0.779195
O O14 0.507917 0.305622 0.898030
O O15 0.289760 0.451106 0.923249
O O16 0.187993 0.654236 0.983805
#
# Coordination Sequence:
#
# PCOD9239435 Si02
#       8
#     4   4   4   4   4   4   4   4
#     4  11  21  35  62  89 121 147 207 254 307 355
#     4  11  24  40  56  91 125 167 198 241 311 372
#     4  11  24  39  62  94 122 160 202 259 304 360
#     4  10  21  36  62  90 120 161 201 249 312 358
#     4  10  19  37  60  90 118 160 190 255 316 349
#     4  10  17  32  60  92 118 144 196 263 309 341
#     4  10  25  39  58  82 136 160 196 243 308 374
#     4  11  18  35  63  91 118 149 211 261 295 349
#
# _framework density 24.959510000000002
#
# number of rings (size 3 to 8) (size 9 to 14) (size 15 to 20)
#    0.000    1.500    5.000    1.875    7.000    0.000 
#    0.000    1.250    0.000    0.000    0.000    0.000 
#    0.000    0.000    0.000    0.000    0.000    0.000 
#
# Total GULP energy -179022.732608 kJ/mol
# GULP energy per Si atom -5594.460394 kJ/mol
# Density = 2.490270 g / cm^3
# Si number density = 24.959510 Si / 1000 Ang^3
#
#
#
# Elastic Constant Matrix: (Units=GPa)
#
#
# Indices 1 2 3 4 5 6 
#
# 1 136.4451 22.1926 45.6707 0.0000 -48.4077 0.0000
# 2 22.1926 41.9593 13.7703 0.0000 -15.8410 0.0000
# 3 45.6707 13.7703 98.0806 0.0000 -15.1054 0.0000
# 4 0.0000 0.0000 0.0000 39.7771 0.0000 0.0721
# 5 -48.4077 -15.8410 -15.1054 0.0000 49.6300 0.0000
# 6 0.0000 0.0000 0.0000 0.0721 0.0000 33.4412
#
#
#
# Elastic Compliance Matrix: (Units=1/GPa)
#
#
# Indices 1 2 3 4 5 6 
#
# 1 0.012723 -0.001334 -0.004083 0.000000 0.010742 0.000000
# 2 -0.001334 0.027882 -0.002227 0.000000 0.006920 0.000000
# 3 -0.004083 -0.002227 0.012262 0.000000 -0.000961 0.000000
# 4 0.000000 0.000000 0.000000 0.025140 0.000000 -0.000054
# 5 0.010742 0.006920 -0.000961 0.000000 0.032542 0.000000
# 6 0.000000 0.000000 0.000000 -0.000054 0.000000 0.029903
#
#
# Mechanical properties :
#
#
# Convention : Reuss Voigt Hill
#
# Bulk Modulus (GPa) = 26.61176 48.86135 37.73655
# Shear Modulus (GPa) = 29.71450 37.55975 33.63712
#
# Velocity S-wave (km/s) = 3.45412 3.88342 3.67504
# Velocity P-wave (km/s) = 5.15684 6.30291 5.75846
#
# Compressibility (1/GPa) = 0.03757737
#
# Stress axis : x y z
#
# Youngs Moduli (GPa) = 78.59486 35.86559 81.55564
#
# Poissons Ratio (x) = 0.04786 0.33299
# Poissons Ratio (y) = 0.10487 0.18166
# Poissons Ratio (z) = 0.32090 0.07989
#
# Static dielectric constant tensor:
#      x y z
#    x 1.993430 0.000000 0.002510 
#    y 0.000000 1.995160 0.000000 
#    z 0.002510 0.000000 2.013720 
# 
# From -- ./inp_files/55450.got.cif
#   From: 2010.05.17/outbox.cif.g08.bks.cpg/sg14_28_cif.got.tgz:55450.got - 2010.06.03 17:49:19.
