data_PCOD9239110
_publ_section_title
;
Structure prediction by ZEFSAII (Michael W. Deem and Ramdas Pophale) SiO2 
 PCOD9239110
Probable space group: P 21/C
;
_chemical_formula_sum "Si O2"
_cell_formula_units_Z 24
_cell_length_a 6.920548
_cell_length_b 19.699034
_cell_length_c 9.681744
_cell_angle_alpha 90.000000
_cell_angle_beta 50.902101
_cell_angle_gamma 90.000000
_cell_volume 1024.329415
_symmetry_space_group_name_H-M "P 21/C"
_symmetry_group_IT_number 14
_symmetry_cell_setting 'monoclinic'
loop_
_space_group_symop_operation_xyz
x,y,z
-x,1/2+y,1/2-z
-x,-y,-z
x,1/2-y,1/2+z
loop_
_atom_site_type_symbol
_atom_site_label
_atom_site_fract_x
_atom_site_fract_y
_atom_site_fract_z
Si Si1 0.501230 0.756287 0.167448
Si Si2 0.438487 0.907013 0.235643
Si Si3 0.720768 0.852855 0.383242
Si Si4 0.240889 0.493488 0.029218
Si Si5 0.036663 0.807018 0.013133
Si Si6 0.072937 0.447310 0.586522
O O1 0.399813 0.832535 0.189383
O O2 0.301942 0.725823 0.364186
O O3 0.536790 0.703569 0.026627
O O4 0.791613 0.762751 0.083719
O O5 0.588102 0.885434 0.308589
O O6 0.256175 0.963541 0.381246
O O7 0.630528 0.942898 0.046943
O O8 0.782304 0.911842 0.464902
O O9 0.971778 0.824547 0.200441
O O10 0.043109 0.527836 0.219909
O O11 0.500000 0.500000 0.000000
O O12 0.023891 0.873993 0.921525
O O13 0.000000 0.500000 0.500000
#
# Coordination Sequence:
#
# PCOD9239110 Si02
#       6
#     4   4   4   4   4   4
#     4  10  21  35  51  78 112 141 175 211 264 320
#     4   9  20  30  48  81 104 136 170 218 267 307
#     4   9  18  30  52  78 105 136 175 218 265 309
#     4  10  15  26  49  76 104 128 170 225 269 297
#     4  10  21  34  53  81 107 140 174 215 266 315
#     4  10  15  28  49  78 103 122 168 227 263 293
#
# _framework density 23.429962
#
# number of rings (size 3 to 8) (size 9 to 14) (size 15 to 20)
#    0.000    2.667    5.000    2.000    0.000    5.333 
#    0.000    0.000    0.000    1.000    0.000   10.500 
#    0.000    0.000    0.000    0.000    0.000    0.000 
#
# Total GULP energy -133815.864265 kJ/mol
# GULP energy per Si atom -5575.661011 kJ/mol
# Density = 2.337663 g / cm^3
# Si number density = 23.429962 Si / 1000 Ang^3
#
#
#
# Elastic Constant Matrix: (Units=GPa)
#
#
# Indices 1 2 3 4 5 6 
#
# 1 71.8523 23.1904 20.0282 0.0000 -6.7375 0.0000
# 2 23.1904 81.1808 102.5229 0.0000 -21.9909 0.0000
# 3 20.0282 102.5229 209.9368 0.0000 -16.4444 0.0000
# 4 0.0000 0.0000 0.0000 61.7234 0.0000 -3.1081
# 5 -6.7375 -21.9909 -16.4444 0.0000 4.0173 0.0000
# 6 0.0000 0.0000 0.0000 -3.1081 0.0000 10.5613
#
#
#
# Elastic Compliance Matrix: (Units=1/GPa)
#
#
# Indices 1 2 3 4 5 6 
#
# 1 0.015536 -0.005024 0.001263 0.000000 0.003727 0.000000
# 2 -0.005024 -0.023192 0.001767 0.000000 -0.128147 0.000000
# 3 0.001263 0.001767 0.006923 0.000000 0.040134 0.000000
# 4 0.000000 0.000000 0.000000 0.016445 0.000000 0.004840
# 5 0.003727 -0.128147 0.040134 0.000000 -0.282026 0.000000
# 6 0.000000 0.000000 0.000000 0.004840 0.000000 0.096110
#
#
# Mechanical properties :
#
#
# Convention : Reuss Voigt Hill
#
# Bulk Modulus (GPa) = -211.91757 72.71698 -69.60029
# Shear Modulus (GPa) = -29.79903 29.74228 -0.02838
#
# Velocity S-wave (km/s) = -3.57015 3.56675 -0.11017
# Velocity P-wave (km/s) = 10.37488 6.93293 5.45769
#
# Compressibility (1/GPa) = -0.00471882
#
# Stress axis : x y z
#
# Youngs Moduli (GPa) = 64.36565 -43.11754 144.43732
#
# Poissons Ratio (x) = -0.21660 -0.18243
# Poissons Ratio (y) = 0.32334 -0.25529
# Poissons Ratio (z) = -0.08130 0.07621
#
# Static dielectric constant tensor:
#      x y z
#    x 2.946540 0.000000 0.367010 
#    y 0.000000 1.983170 0.000000 
#    z 0.367010 0.000000 2.052050 
# 
# From -- ./inp_files/26548.got.cif
#   From: 2010.05.17/outbox.cif.g08.bks.cpg/sg14_14_cif.got.tgz:26548.got - 2010.06.03 17:49:19.
