data_PCOD9239132
_publ_section_title
;
Structure prediction by ZEFSAII (Michael W. Deem and Ramdas Pophale) SiO2 
 PCOD9239132
Probable space group: P 21/C
;
_chemical_formula_sum "Si O2"
_cell_formula_units_Z 32
_cell_length_a 14.396980
_cell_length_b 17.100214
_cell_length_c 10.441363
_cell_angle_alpha 90.000000
_cell_angle_beta 32.928591
_cell_angle_gamma 90.000000
_cell_volume 1397.347053
_symmetry_space_group_name_H-M "P 21/C"
_symmetry_group_IT_number 14
_symmetry_cell_setting 'monoclinic'
loop_
_space_group_symop_operation_xyz
x,y,z
-x,1/2+y,1/2-z
-x,-y,-z
x,1/2-y,1/2+z
loop_
_atom_site_type_symbol
_atom_site_label
_atom_site_fract_x
_atom_site_fract_y
_atom_site_fract_z
Si Si1 0.797774 0.143196 0.233314
Si Si2 0.701389 0.930848 0.639002
Si Si3 0.385848 0.503474 0.005611
Si Si4 0.111820 0.948097 0.127192
Si Si5 0.046202 0.788600 0.535511
Si Si6 0.829577 0.449123 0.169897
Si Si7 0.180604 0.266114 0.956377
Si Si8 0.157276 0.400669 0.435999
O O1 0.801010 0.232784 0.190194
O O2 0.968028 0.126905 0.118405
O O3 0.651827 0.094823 0.472706
O O4 0.820554 0.098351 0.072613
O O5 0.579656 0.962694 0.668452
O O6 0.690501 0.837730 0.669357
O O7 0.906114 0.940133 0.367669
O O8 0.696241 0.990743 0.764005
O O9 0.223788 0.452187 0.241311
O O10 0.500000 0.500000 0.000000
O O11 0.200024 0.917383 0.153246
O O12 0.158495 0.039149 0.051634
O O13 0.120860 0.874592 0.473291
O O14 0.919372 0.790790 0.558678
O O15 0.945105 0.750004 0.774073
O O16 0.000000 0.500000 0.000000
O O17 0.257506 0.179866 0.841953
#
# Coordination Sequence:
#
# PCOD9239132 Si02
#       8
#     4   4   4   4   4   4   4   4
#     4  10  18  32  57  82 109 137 187 239 274 321
#     4  11  18  33  49  79 113 141 178 229 273 341
#     4  11  22  38  59  79 110 156 197 231 279 337
#     4  10  15  32  48  79 112 133 173 221 285 330
#     4  11  19  30  49  86 118 145 172 233 290 338
#     4  10  19  27  47  78 115 143 169 217 293 344
#     4  11  20  30  52  86 118 140 181 227 291 339
#     4  10  19  32  59  82 108 142 180 242 279 330
#
# _framework density 22.900538999999998
#
# number of rings (size 3 to 8) (size 9 to 14) (size 15 to 20)
#    0.000    1.500    6.250    3.000    1.750    0.000 
#    0.000    0.000    2.750    3.000    0.000    0.000 
#    0.000    0.000    0.000    0.000    0.000    0.000 
#
# Total GULP energy -178340.174278 kJ/mol
# GULP energy per Si atom -5573.130446 kJ/mol
# Density = 2.284842 g / cm^3
# Si number density = 22.900539 Si / 1000 Ang^3
#
#
#
# Elastic Constant Matrix: (Units=GPa)
#
#
# Indices 1 2 3 4 5 6 
#
# 1 128.0354 12.6326 4.8491 0.0000 16.2489 0.0000
# 2 12.6326 142.7380 -5.2560 0.0000 2.2589 0.0000
# 3 4.8491 -5.2560 25.2247 0.0000 -0.0767 0.0000
# 4 0.0000 0.0000 0.0000 4.7398 0.0000 7.8831
# 5 16.2489 2.2589 -0.0767 0.0000 25.4668 0.0000
# 6 0.0000 0.0000 0.0000 7.8831 0.0000 30.6539
#
#
#
# Elastic Compliance Matrix: (Units=1/GPa)
#
#
# Indices 1 2 3 4 5 6 
#
# 1 0.008646 -0.000746 -0.001834 0.000000 -0.005456 0.000000
# 2 -0.000746 0.007134 0.001630 0.000000 -0.000152 0.000000
# 3 -0.001834 0.001630 0.040339 0.000000 0.001147 0.000000
# 4 0.000000 0.000000 0.000000 0.368662 0.000000 -0.094807
# 5 -0.005456 -0.000152 0.001147 0.000000 0.042765 0.000000
# 6 0.000000 0.000000 0.000000 -0.094807 0.000000 0.057003
#
#
# Mechanical properties :
#
#
# Convention : Reuss Voigt Hill
#
# Bulk Modulus (GPa) = 18.44422 35.60551 27.02487
# Shear Modulus (GPa) = 9.18233 31.09026 20.13629
#
# Velocity S-wave (km/s) = 2.00458 3.68859 2.96851
# Velocity P-wave (km/s) = 3.66461 5.80711 4.85551
#
# Compressibility (1/GPa) = 0.05421753
#
# Stress axis : x y z
#
# Youngs Moduli (GPa) = 115.66268 140.16785 24.78970
#
# Poissons Ratio (x) = 0.10462 0.04547
# Poissons Ratio (y) = 0.08633 -0.04040
# Poissons Ratio (z) = 0.21214 -0.22841
#
# Static dielectric constant tensor:
#      x y z
#    x 1.903850 0.000000 0.052120 
#    y 0.000000 1.929070 0.000000 
#    z 0.052120 0.000000 1.972140 
# 
# From -- ./inp_files/30444.got.cif
#   From: 2010.05.17/outbox.cif.g08.bks.cpg/sg14_16_cif.got.tgz:30444.got - 2010.06.03 17:49:19.
