data_PCOD9239563
_publ_section_title
;
Structure prediction by ZEFSAII (Michael W. Deem and Ramdas Pophale) SiO2 
 PCOD9239563
Probable space group: P 21/C
;
_chemical_formula_sum "Si O2"
_cell_formula_units_Z 28
_cell_length_a 9.996610
_cell_length_b 9.665166
_cell_length_c 14.559775
_cell_angle_alpha 90.000000
_cell_angle_beta 85.032883
_cell_angle_gamma 90.000000
_cell_volume 1401.466402
_symmetry_space_group_name_H-M "P 21/C"
_symmetry_group_IT_number 14
_symmetry_cell_setting 'monoclinic'
loop_
_space_group_symop_operation_xyz
x,y,z
-x,1/2+y,1/2-z
-x,-y,-z
x,1/2-y,1/2+z
loop_
_atom_site_type_symbol
_atom_site_label
_atom_site_fract_x
_atom_site_fract_y
_atom_site_fract_z
Si Si1 0.937830 0.787391 0.715022
Si Si2 0.089572 0.071145 0.106144
Si Si3 0.618770 0.838289 0.941881
Si Si4 0.695858 0.895530 0.295533
Si Si5 0.965251 0.228017 0.965924
Si Si6 0.507844 0.392595 0.361094
Si Si7 0.762459 0.205831 0.345338
O O1 0.900757 0.911089 0.785687
O O2 0.838018 0.666288 0.751873
O O3 0.931717 0.812756 0.605157
O O4 0.098106 0.765810 0.716957
O O5 0.236917 0.087246 0.054549
O O6 0.028964 0.925785 0.079949
O O7 0.005464 0.198535 0.067075
O O8 0.646353 0.701051 0.882004
O O9 0.531518 0.948016 0.888782
O O10 0.553479 0.819375 0.044888
O O11 0.591326 0.883667 0.218436
O O12 0.713264 0.053223 0.324935
O O13 0.818388 0.283139 0.947430
O O14 0.649016 0.317889 0.333398
#
# Coordination Sequence:
#
# PCOD9239563 Si02
#       7
#     4   4   4   4   4   4   4
#     4   9  20  35  59  88 119 148 199 247 294 361
#     4  10  17  36  61  84 111 160 197 248 295 350
#     4  10  22  38  62  87 119 160 212 245 289 371
#     4  11  22  40  64  88 126 160 195 257 309 344
#     4   9  19  33  58  87 115 149 198 243 296 352
#     4  11  22  41  61  89 121 164 208 241 299 367
#     4  10  22  39  59  92 125 152 201 254 298 358
#
# _framework density 19.979071999999999
#
# number of rings (size 3 to 8) (size 9 to 14) (size 15 to 20)
#    0.857    1.143    1.429    2.571    0.000    1.714 
#    2.571    2.857    6.286    0.000    0.000    0.000 
#    0.000    0.000    0.000    0.000    0.000    0.000 
#
# Total GULP energy -155948.647759 kJ/mol
# GULP energy per Si atom -5569.594563 kJ/mol
# Density = 1.993360 g / cm^3
# Si number density = 19.979072 Si / 1000 Ang^3
#
#
#
# Elastic Constant Matrix: (Units=GPa)
#
#
# Indices 1 2 3 4 5 6 
#
# 1 84.5319 16.2635 19.9820 0.0000 -2.6743 0.0000
# 2 16.2635 60.5889 22.9824 0.0000 8.0579 0.0000
# 3 19.9820 22.9824 49.1732 0.0000 4.2746 0.0000
# 4 0.0000 0.0000 0.0000 12.4539 0.0000 1.1251
# 5 -2.6743 8.0579 4.2746 0.0000 25.2277 0.0000
# 6 0.0000 0.0000 0.0000 1.1251 0.0000 17.8567
#
#
#
# Elastic Compliance Matrix: (Units=1/GPa)
#
#
# Indices 1 2 3 4 5 6 
#
# 1 0.013458 -0.002226 -0.004683 0.000000 0.002931 0.000000
# 2 -0.002226 0.021042 -0.008450 0.000000 -0.005525 0.000000
# 3 -0.004683 -0.008450 0.026386 0.000000 -0.002268 0.000000
# 4 0.000000 0.000000 0.000000 0.080756 0.000000 -0.005088
# 5 0.002931 -0.005525 -0.002268 0.000000 0.042099 0.000000
# 6 0.000000 0.000000 0.000000 -0.005088 0.000000 0.056322
#
#
# Mechanical properties :
#
#
# Convention : Reuss Voigt Hill
#
# Bulk Modulus (GPa) = 33.14766 34.75000 33.94883
# Shear Modulus (GPa) = 17.80400 20.11208 18.95804
#
# Velocity S-wave (km/s) = 2.98842 3.17623 3.08376
# Velocity P-wave (km/s) = 5.34179 5.55717 5.45055
#
# Compressibility (1/GPa) = 0.03016804
#
# Stress axis : x y z
#
# Youngs Moduli (GPa) = 74.30606 47.52380 37.89921
#
# Poissons Ratio (x) = 0.10578 0.17749
# Poissons Ratio (y) = 0.16539 0.32024
# Poissons Ratio (z) = 0.34799 0.40157
#
# Static dielectric constant tensor:
#      x y z
#    x 1.714830 0.000000 0.011260 
#    y 0.000000 1.724010 0.000000 
#    z 0.011260 0.000000 1.743930 
# 
# From -- ./inp_files/40689.got.cif
#   From: 2010.05.17/outbox.cif.g08.bks.cpg/sg14_21_cif.got.tgz:40689.got - 2010.06.03 17:49:19.
