data_PCOD9239070
_publ_section_title
;
Structure prediction by ZEFSAII (Michael W. Deem and Ramdas Pophale) SiO2 
 PCOD9239070
Probable space group: P 2/C
;
_chemical_formula_sum "Si O2"
_cell_formula_units_Z 30
_cell_length_a 9.000000
_cell_length_b 15.000000
_cell_length_c 12.000000
_cell_angle_alpha 90.000000
_cell_angle_beta 90.000000
_cell_angle_gamma 90.000000
_cell_volume 1620.000000
_symmetry_space_group_name_H-M "P 2/C"
_symmetry_group_IT_number 13
_symmetry_cell_setting 'monoclinic'
loop_
_space_group_symop_operation_xyz
x,y,z
-x,y,1/2-z
-x,-y,-z
x,-y,1/2+z
loop_
_atom_site_type_symbol
_atom_site_label
_atom_site_fract_x
_atom_site_fract_y
_atom_site_fract_z
Si Si1 0.135072 0.120462 0.543873
Si Si2 0.163095 0.385217 0.985814
Si Si3 0.896636 0.064761 0.359811
Si Si4 0.680425 0.670190 0.231061
Si Si5 0.186026 0.591613 0.052027
Si Si6 0.697108 0.240552 0.352779
Si Si7 0.000000 0.222333 0.750000
Si Si8 0.349345 0.742286 0.911727
O O1 0.264697 0.180710 0.485956
O O2 0.019538 0.093300 0.449254
O O3 0.036324 0.170192 0.636771
O O4 0.181648 0.027814 0.603619
O O5 0.286917 0.372106 0.889234
O O6 0.988613 0.375349 0.946379
O O7 0.177869 0.487253 0.025166
O O8 0.202695 0.313293 0.081490
O O9 0.775385 0.143709 0.357867
O O10 0.000000 0.053410 0.250000
O O11 0.500000 0.694769 0.250000
O O12 0.728473 0.605425 0.331505
O O13 0.829976 0.735613 0.234254
O O14 0.281785 0.651755 0.965826
O O15 0.690793 0.258597 0.219755
O O16 0.529837 0.245280 0.406910
#
# Coordination Sequence:
#
# PCOD9239070 Si02
#       8
#     4   4   4   4   4   4   2   4
#     4  11  23  40  69  92 128 164 217 273 326 393
#     4  11  25  43  65  97 128 173 225 273 324 399
#     4  11  22  41  67  95 121 170 220 267 329 397
#     4  12  24  41  67  94 134 174 217 275 330 395
#     4  11  24  43  67  93 132 171 222 274 329 392
#     4  11  25  41  67  95 132 171 221 268 334 395
#     4  12  22  44  66  98 130 172 218 270 330 404
#     4  11  23  43  65  97 133 171 212 278 332 395
#
# _framework density 18.518519000000001
#
# number of rings (size 3 to 8) (size 9 to 14) (size 15 to 20)
#    0.000    0.800    4.667    2.400    1.867    2.667 
#    0.000    0.000    2.933    0.000    0.000    0.000 
#    0.000    0.000    0.000    0.000    0.000    0.000 
#
# Total GULP energy -167037.179132 kJ/mol
# GULP energy per Si atom -5567.905971 kJ/mol
# Density = 1.847637 g / cm^3
# Si number density = 18.518519 Si / 1000 Ang^3
#
#
#
# Elastic Constant Matrix: (Units=GPa)
#
#
# Indices 1 2 3 4 5 6 
#
# 1 126.9532 39.7869 38.6783 0.0000 -15.0819 0.0000
# 2 39.7869 111.5731 46.0071 0.0000 -5.0390 0.0000
# 3 38.6783 46.0071 123.5431 0.0000 -16.5638 0.0000
# 4 0.0000 0.0000 0.0000 -39.1346 0.0000 5.3930
# 5 -15.0819 -5.0390 -16.5638 0.0000 41.2199 0.0000
# 6 0.0000 0.0000 0.0000 5.3930 0.0000 26.1426
#
#
#
# Elastic Compliance Matrix: (Units=1/GPa)
#
#
# Indices 1 2 3 4 5 6 
#
# 1 0.009492 -0.002581 -0.001678 0.000000 0.002483 0.000000
# 2 -0.002581 0.011294 -0.003530 0.000000 -0.000982 0.000000
# 3 -0.001678 -0.003530 0.010352 0.000000 0.003114 0.000000
# 4 0.000000 0.000000 0.000000 -0.024846 0.000000 0.005126
# 5 0.002483 -0.000982 0.003114 0.000000 0.026300 0.000000
# 6 0.000000 0.000000 0.000000 0.005126 0.000000 0.037194
#
#
# Mechanical properties :
#
#
# Convention : Reuss Voigt Hill
#
# Bulk Modulus (GPa) = 64.26142 67.89047 66.07594
# Shear Modulus (GPa) = 55.21882 21.48539 38.35211
#
# Velocity S-wave (km/s) = 5.46653 3.40988 4.55578
# Velocity P-wave (km/s) = 8.63831 7.22797 7.96442
#
# Compressibility (1/GPa) = 0.01556144
#
# Stress axis : x y z
#
# Youngs Moduli (GPa) = 105.35308 88.54157 96.60431
#
# Poissons Ratio (x) = 0.22852 0.16206
# Poissons Ratio (y) = 0.27190 0.34097
# Poissons Ratio (z) = 0.17674 0.31251
#
# Static dielectric constant tensor:
#      x y z
#    x 1.516840 0.000000 0.135760 
#    y 0.000000 1.684090 0.000000 
#    z 0.135760 0.000000 1.562560 
# 
# From -- ./inp_files/30148.got.cif
#   From: 2010.05.17/outbox.ucp.g08.bks.cvg/sg13_16_cif.got.tgz:30148.got - 2010.06.11 12:23:55.
