data_PCOD9239973
_publ_section_title
;
Structure prediction by ZEFSAII (Michael W. Deem and Ramdas Pophale) SiO2 
 PCOD9239973
Probable space group: P 21/C
;
_chemical_formula_sum "Si O2"
_cell_formula_units_Z 24
_cell_length_a 20.222049
_cell_length_b 5.299377
_cell_length_c 26.482993
_cell_angle_alpha 90.000000
_cell_angle_beta 20.476320
_cell_angle_gamma 90.000000
_cell_volume 992.800443
_symmetry_space_group_name_H-M "P 21/C"
_symmetry_group_IT_number 14
_symmetry_cell_setting 'monoclinic'
loop_
_space_group_symop_operation_xyz
x,y,z
-x,1/2+y,1/2-z
-x,-y,-z
x,1/2-y,1/2+z
loop_
_atom_site_type_symbol
_atom_site_label
_atom_site_fract_x
_atom_site_fract_y
_atom_site_fract_z
Si Si1 0.231400 0.958868 0.112842
Si Si2 0.945500 0.753559 0.569016
Si Si3 0.220635 0.451783 0.156633
Si Si4 0.578698 0.841506 0.383534
Si Si5 0.636017 0.909567 0.094410
Si Si6 0.255630 0.902266 0.421558
O O1 0.123378 0.699225 0.204198
O O2 0.875860 0.690098 0.285140
O O3 0.431582 0.888369 0.998111
O O4 0.288901 0.035574 0.015526
O O5 0.723744 0.732308 0.737452
O O6 0.000000 0.500000 0.500000
O O7 0.055230 0.813675 0.542505
O O8 0.000000 0.000000 0.500000
O O9 0.297530 0.448268 0.158682
O O10 0.420872 0.452152 0.982195
O O11 0.408970 0.892731 0.265712
O O12 0.725000 0.667222 0.061355
O O13 0.684847 0.170982 0.086485
#
# Coordination Sequence:
#
# PCOD9239973 Si02
#       6
#     4   4   4   4   4   4
#     4  10  18  33  59  87 108 145 199 240 285 330
#     4  12  26  38  59  87 123 155 188 239 312 372
#     4   9  20  33  58  89 113 150 191 242 296 328
#     4   9  22  35  58  86 125 144 191 243 298 351
#     4  10  20  36  58  75 117 148 204 237 263 359
#     4  10  22  37  52  83 110 160 187 232 298 332
#
# _framework density 24.174043000000001
#
# number of rings (size 3 to 8) (size 9 to 14) (size 15 to 20)
#    1.000    1.000    0.000    3.500    4.667    1.333 
#    0.000    0.000    0.000    4.000    0.000    0.000 
#    0.000    0.000    0.000    0.000    0.000    0.000 
#
# Total GULP energy -133724.662088 kJ/mol
# GULP energy per Si atom -5571.860920 kJ/mol
# Density = 2.411902 g / cm^3
# Si number density = 24.174043 Si / 1000 Ang^3
#
#
#
# Elastic Constant Matrix: (Units=GPa)
#
#
# Indices 1 2 3 4 5 6 
#
# 1 79.7397 43.0359 14.4141 0.0000 2.0697 0.0000
# 2 43.0359 193.6842 14.6416 0.0000 21.5391 0.0000
# 3 14.4141 14.6416 78.4853 0.0000 0.6780 0.0000
# 4 0.0000 0.0000 0.0000 -1.4214 0.0000 6.3775
# 5 2.0697 21.5391 0.6780 0.0000 19.6098 0.0000
# 6 0.0000 0.0000 0.0000 6.3775 0.0000 40.7592
#
#
#
# Elastic Compliance Matrix: (Units=1/GPa)
#
#
# Indices 1 2 3 4 5 6 
#
# 1 0.014667 -0.003346 -0.002088 0.000000 0.002199 0.000000
# 2 -0.003346 0.006731 -0.000581 0.000000 -0.007020 0.000000
# 3 -0.002088 -0.000581 0.013230 0.000000 0.000401 0.000000
# 4 0.000000 0.000000 0.000000 -0.413358 0.000000 0.064677
# 5 0.002199 -0.007020 0.000401 0.000000 0.058460 0.000000
# 6 0.000000 0.000000 0.000000 0.064677 0.000000 0.014415
#
#
# Mechanical properties :
#
#
# Convention : Reuss Voigt Hill
#
# Bulk Modulus (GPa) = 44.25140 55.12137 49.68638
# Shear Modulus (GPa) = -17.46454 30.44404 6.48975
#
# Velocity S-wave (km/s) = -2.69076 3.55261 1.64025
# Velocity P-wave (km/s) = 2.94813 6.29916 4.91787
#
# Compressibility (1/GPa) = 0.02259816
#
# Stress axis : x y z
#
# Youngs Moduli (GPa) = 68.18080 148.56660 75.58781
#
# Poissons Ratio (x) = 0.49704 0.15786
# Poissons Ratio (y) = 0.22810 0.04389
# Poissons Ratio (z) = 0.14239 0.08626
#
# Static dielectric constant tensor:
#      x y z
#    x 1.656380 0.000000 0.018650 
#    y 0.000000 2.018890 0.000000 
#    z 0.018650 0.000000 1.997090 
# 
# From -- ./inp_files/80450.got.cif
#   From: 2010.05.17/outbox.cif.g08.bks.cpg/sg14_41_cif.got.tgz:80450.got - 2010.06.03 17:49:19.
