data_PCOD9239665
_publ_section_title
;
Structure prediction by ZEFSAII (Michael W. Deem and Ramdas Pophale) SiO2 
 PCOD9239665
Probable space group: P 21/C
;
_chemical_formula_sum "Si O2"
_cell_formula_units_Z 32
_cell_length_a 33.311752
_cell_length_b 7.605057
_cell_length_c 23.137234
_cell_angle_alpha 90.000000
_cell_angle_beta 160.596803
_cell_angle_gamma 90.000000
_cell_volume 1947.282700
_symmetry_space_group_name_H-M "P 21/C"
_symmetry_group_IT_number 14
_symmetry_cell_setting 'monoclinic'
loop_
_space_group_symop_operation_xyz
x,y,z
-x,1/2+y,1/2-z
-x,-y,-z
x,1/2-y,1/2+z
loop_
_atom_site_type_symbol
_atom_site_label
_atom_site_fract_x
_atom_site_fract_y
_atom_site_fract_z
Si Si1 0.136067 0.630605 0.631998
Si Si2 0.635236 0.686825 0.226427
Si Si3 0.373243 0.602981 0.881280
Si Si4 0.890976 0.823163 0.129318
Si Si5 0.048677 0.964654 0.442304
Si Si6 0.954220 0.310887 0.365695
Si Si7 0.110095 0.912100 0.346213
Si Si8 0.282271 0.927556 0.682081
O O1 0.271293 0.610619 0.791657
O O2 0.072001 0.786382 0.509074
O O3 0.125670 0.675963 0.685357
O O4 0.060008 0.454957 0.516265
O O5 0.637262 0.577240 0.169379
O O6 0.756525 0.637461 0.425673
O O7 0.640002 0.897638 0.223784
O O8 0.510876 0.629777 0.087911
O O9 0.345996 0.766021 0.800576
O O10 0.895252 0.622887 0.156684
O O11 0.942661 0.940339 0.251286
O O12 0.985029 0.842443 0.204125
O O13 0.170649 0.992488 0.570809
O O14 0.015557 0.122446 0.439401
O O15 0.882289 0.353587 0.209266
O O16 0.218779 0.860591 0.536836
#
# Coordination Sequence:
#
# PCOD9239665 Si02
#       8
#     4   4   4   4   4   4   4   4
#     4  10  21  35  50  74 102 136 166 205 246 298
#     4  10  20  32  50  78  98 131 162 204 247 298
#     4  10  20  34  52  71 102 132 168 199 249 296
#     4  10  19  30  51  77 106 123 162 209 257 294
#     4  10  19  32  51  79 103 127 161 208 255 297
#     4  11  20  32  52  75 104 131 166 202 250 299
#     4  10  18  30  48  80 100 130 158 206 261 294
#     4   9  19  31  51  76 103 125 157 208 253 295
#
# _framework density 16.433156
#
# number of rings (size 3 to 8) (size 9 to 14) (size 15 to 20)
#    0.000    2.000    1.250    4.500    5.250    0.000 
#    0.000    0.000    0.000    3.000    0.000    0.000 
#    0.000    0.000    0.000    0.000    0.000    0.000 
#
# Total GULP energy -178562.108321 kJ/mol
# GULP energy per Si atom -5580.065885 kJ/mol
# Density = 1.639575 g / cm^3
# Si number density = 16.433156 Si / 1000 Ang^3
#
#
#
# Elastic Constant Matrix: (Units=GPa)
#
#
# Indices 1 2 3 4 5 6 
#
# 1 100.3406 7.2820 36.2197 0.0000 1.3218 0.0000
# 2 7.2820 35.4122 14.4729 0.0000 3.9767 0.0000
# 3 36.2197 14.4729 81.0801 0.0000 4.1216 0.0000
# 4 0.0000 0.0000 0.0000 21.0019 0.0000 0.6052
# 5 1.3218 3.9767 4.1216 0.0000 15.1698 0.0000
# 6 0.0000 0.0000 0.0000 0.6052 0.0000 17.1152
#
#
#
# Elastic Compliance Matrix: (Units=1/GPa)
#
#
# Indices 1 2 3 4 5 6 
#
# 1 0.011888 -0.000344 -0.005274 0.000000 0.000487 0.000000
# 2 -0.000344 0.031137 -0.005061 0.000000 -0.006757 0.000000
# 3 -0.005274 -0.005061 0.015719 0.000000 -0.002485 0.000000
# 4 0.000000 0.000000 0.000000 0.047663 0.000000 -0.001685
# 5 0.000487 -0.006757 -0.002485 0.000000 0.068325 0.000000
# 6 0.000000 0.000000 0.000000 -0.001685 0.000000 0.058487
#
#
# Mechanical properties :
#
#
# Convention : Reuss Voigt Hill
#
# Bulk Modulus (GPa) = 26.74749 36.97581 31.86165
# Shear Modulus (GPa) = 18.72384 21.24793 19.98588
#
# Velocity S-wave (km/s) = 3.37915 3.59972 3.49118
# Velocity P-wave (km/s) = 5.61576 6.31086 5.97343
#
# Compressibility (1/GPa) = 0.03738668
#
# Stress axis : x y z
#
# Youngs Moduli (GPa) = 84.11571 32.11635 63.61654
#
# Poissons Ratio (x) = 0.01104 0.33552
# Poissons Ratio (y) = 0.02893 0.32195
# Poissons Ratio (z) = 0.44364 0.16254
#
# Static dielectric constant tensor:
#      x y z
#    x 1.537550 0.000000 -0.012220 
#    y 0.000000 1.572790 0.000000 
#    z -0.012220 0.000000 1.550610 
# 
# From -- ./inp_files/68098.got.cif
#   From: 2010.05.17/outbox.cif.g08.bks.cpg/sg14_35_cif.got.tgz:68098.got - 2010.06.03 17:49:19.
