data_PCOD9239068
_publ_section_title
;
Structure prediction by ZEFSAII (Michael W. Deem and Ramdas Pophale) SiO2 
 PCOD9239068
Probable space group: P 2/C
;
_chemical_formula_sum "Si O2"
_cell_formula_units_Z 28
_cell_length_a 12.000000
_cell_length_b 15.000000
_cell_length_c 9.000000
_cell_angle_alpha 90.000000
_cell_angle_beta 110.000000
_cell_angle_gamma 90.000000
_cell_volume 1522.302046
_symmetry_space_group_name_H-M "P 2/C"
_symmetry_group_IT_number 13
_symmetry_cell_setting 'monoclinic'
loop_
_space_group_symop_operation_xyz
x,y,z
-x,y,1/2-z
-x,-y,-z
x,-y,1/2+z
loop_
_atom_site_type_symbol
_atom_site_label
_atom_site_fract_x
_atom_site_fract_y
_atom_site_fract_z
Si Si1 0.249115 0.294163 0.906468
Si Si2 0.854999 0.596970 0.388095
Si Si3 0.500490 0.603853 0.569329
Si Si4 0.252253 0.296600 0.411486
Si Si5 0.867708 0.100050 0.116299
Si Si6 0.128629 0.611993 0.603738
Si Si7 0.134452 0.102175 0.750340
O O1 0.166007 0.367989 0.787178
O O2 0.214647 0.191221 0.837078
O O3 0.384134 0.336280 0.965444
O O4 0.203726 0.311707 0.052759
O O5 0.767137 0.665490 0.431809
O O6 0.828337 0.491311 0.394776
O O7 0.991138 0.612439 0.496357
O O8 0.500000 0.594759 0.750000
O O9 0.500000 0.500000 0.500000
O O10 0.618552 0.663415 0.580567
O O11 0.214927 0.189904 0.386197
O O12 0.153408 0.356353 0.281670
O O13 0.000000 0.115646 0.250000
O O14 0.833100 0.998837 0.166304
O O15 0.869720 0.095742 0.934156
O O16 0.000000 0.118994 0.750000
#
# Coordination Sequence:
#
# PCOD9239068 Si02
#       7
#     4   4   4   4   4   4   4
#     4  12  25  41  65  95 134 177 224 272 330 395
#     4  11  22  39  60  98 129 171 213 272 340 398
#     4  12  28  46  69  94 131 188 235 278 322 392
#     4  12  25  41  65  95 134 177 224 272 330 395
#     4  11  24  42  70 103 136 175 220 279 342 405
#     4  11  22  37  64  92 135 169 215 270 334 408
#     4  11  24  42  70 103 136 175 220 279 342 405
#
# _framework density 18.393196
#
# number of rings (size 3 to 8) (size 9 to 14) (size 15 to 20)
#    0.000    0.571    2.857    6.857    6.000    2.286 
#    0.000    0.714    0.000    0.000    0.000    0.000 
#    0.000    0.000    0.000    0.000    0.000    0.000 
#
# Total GULP energy -155899.930533 kJ/mol
# GULP energy per Si atom -5567.854662 kJ/mol
# Density = 1.835133 g / cm^3
# Si number density = 18.393196 Si / 1000 Ang^3
#
#
#
# Elastic Constant Matrix: (Units=GPa)
#
#
# Indices 1 2 3 4 5 6 
#
# 1 104.0918 55.1573 26.2710 0.0000 8.1554 0.0000
# 2 55.1573 189.6816 37.8964 0.0000 8.9360 0.0000
# 3 26.2710 37.8964 81.1000 0.0000 4.4299 0.0000
# 4 0.0000 0.0000 0.0000 45.9186 0.0000 0.3662
# 5 8.1554 8.9360 4.4299 0.0000 34.3677 0.0000
# 6 0.0000 0.0000 0.0000 0.3662 0.0000 40.1497
#
#
#
# Elastic Compliance Matrix: (Units=1/GPa)
#
#
# Indices 1 2 3 4 5 6 
#
# 1 0.011884 -0.002893 -0.002402 0.000000 -0.001758 0.000000
# 2 -0.002893 0.006566 -0.002090 0.000000 -0.000751 0.000000
# 3 -0.002402 -0.002090 0.014124 0.000000 -0.000707 0.000000
# 4 0.000000 0.000000 0.000000 0.021779 0.000000 -0.000199
# 5 -0.001758 -0.000751 -0.000707 0.000000 0.029801 0.000000
# 6 0.000000 0.000000 0.000000 -0.000199 0.000000 0.024909
#
#
# Mechanical properties :
#
#
# Convention : Reuss Voigt Hill
#
# Bulk Modulus (GPa) = 56.16651 68.16920 62.16785
# Shear Modulus (GPa) = 38.53071 41.12379 39.82725
#
# Velocity S-wave (km/s) = 4.58190 4.73357 4.65835
# Velocity P-wave (km/s) = 7.65471 8.18647 7.92505
#
# Compressibility (1/GPa) = 0.01780420
#
# Stress axis : x y z
#
# Youngs Moduli (GPa) = 84.14828 152.29452 70.80293
#
# Poissons Ratio (x) = 0.44059 0.17004
# Poissons Ratio (y) = 0.24344 0.14798
# Poissons Ratio (z) = 0.20210 0.31831
#
# Static dielectric constant tensor:
#      x y z
#    x 1.659130 0.000000 -0.021770 
#    y 0.000000 1.640850 0.000000 
#    z -0.021770 0.000000 1.671730 
# 
# From -- ./inp_files/16549.got.cif
#   From: 2010.05.17/outbox.ucp.g08.bks.cvg/sg13_9_cif.got.tgz:16549.got - 2010.06.11 12:23:55.
