data_PCOD9239041
_publ_section_title
;
Structure prediction by ZEFSAII (Michael W. Deem and Ramdas Pophale) SiO2 
 PCOD9239041
Probable space group: P 2/C
;
_chemical_formula_sum "Si O2"
_cell_formula_units_Z 24
_cell_length_a 15.000000
_cell_length_b 6.000000
_cell_length_c 15.000000
_cell_angle_alpha 90.000000
_cell_angle_beta 120.000000
_cell_angle_gamma 90.000000
_cell_volume 1169.134295
_symmetry_space_group_name_H-M "P 2/C"
_symmetry_group_IT_number 13
_symmetry_cell_setting 'monoclinic'
loop_
_space_group_symop_operation_xyz
x,y,z
-x,y,1/2-z
-x,-y,-z
x,-y,1/2+z
loop_
_atom_site_type_symbol
_atom_site_label
_atom_site_fract_x
_atom_site_fract_y
_atom_site_fract_z
Si Si1 0.048650 0.014322 0.870659
Si Si2 0.406343 0.400461 0.895889
Si Si3 0.309521 0.526763 0.167371
Si Si4 0.448831 0.899130 0.139424
Si Si5 0.919942 0.700290 0.446384
Si Si6 0.724998 0.786916 0.016466
O O1 0.157929 0.137653 0.910312
O O2 0.000000 0.952835 0.750000
O O3 0.966674 0.157911 0.887603
O O4 0.077068 0.822731 0.956117
O O5 0.363203 0.534606 0.788345
O O6 0.458222 0.182687 0.876580
O O7 0.315184 0.355332 0.919896
O O8 0.500000 0.500000 0.000000
O O9 0.388339 0.691927 0.155282
O O10 0.198656 0.638923 0.132028
O O11 0.282771 0.337526 0.082493
O O12 0.500000 0.025618 0.250000
O O13 0.361919 0.023271 0.039481
O O14 0.000000 0.500000 0.500000
#
# Coordination Sequence:
#
# PCOD9239041 Si02
#       6
#     4   4   4   4   4   4
#     4  11  25  44  68 100 129 166 225 270 323 393
#     4  11  24  41  64  99 130 168 217 263 315 380
#     4  11  23  44  64  94 133 169 214 263 319 389
#     4  10  23  41  65  92 132 168 213 261 313 385
#     4  11  23  46  67  95 131 174 212 269 336 383
#     4  12  23  43  68  92 132 175 211 266 324 381
#
# _framework density 20.528009999999998
#
# number of rings (size 3 to 8) (size 9 to 14) (size 15 to 20)
#    0.000    1.000    5.000    1.500    2.333    0.667 
#    6.000    0.000    0.000    0.000    0.000    0.000 
#    0.000    0.000    0.000    0.000    0.000    0.000 
#
# Total GULP energy -133993.738692 kJ/mol
# GULP energy per Si atom -5583.072446 kJ/mol
# Density = 2.048129 g / cm^3
# Si number density = 20.528010 Si / 1000 Ang^3
#
#
#
# Elastic Constant Matrix: (Units=GPa)
#
#
# Indices 1 2 3 4 5 6 
#
# 1 130.6076 11.3743 37.9447 0.0000 3.4969 0.0000
# 2 11.3743 15.8794 15.7541 0.0000 -4.7257 0.0000
# 3 37.9447 15.7541 155.4453 0.0000 -10.7275 0.0000
# 4 0.0000 0.0000 0.0000 24.8993 0.0000 5.0329
# 5 3.4969 -4.7257 -10.7275 0.0000 44.2757 0.0000
# 6 0.0000 0.0000 0.0000 5.0329 0.0000 33.0729
#
#
#
# Elastic Compliance Matrix: (Units=1/GPa)
#
#
# Indices 1 2 3 4 5 6 
#
# 1 0.008631 -0.004964 -0.001716 0.000000 -0.001627 0.000000
# 2 -0.004964 0.074393 -0.005851 0.000000 0.006915 0.000000
# 3 -0.001716 -0.005851 0.007537 0.000000 0.001337 0.000000
# 4 0.000000 0.000000 0.000000 0.041436 0.000000 -0.006306
# 5 -0.001627 0.006915 0.001337 0.000000 0.023776 0.000000
# 6 0.000000 0.000000 0.000000 -0.006306 0.000000 0.031196
#
#
# Mechanical properties :
#
#
# Convention : Reuss Voigt Hill
#
# Bulk Modulus (GPa) = 15.26728 48.00872 31.63800
# Shear Modulus (GPa) = 21.37994 36.24021 28.81007
#
# Velocity S-wave (km/s) = 3.23073 4.20623 3.75033
# Velocity P-wave (km/s) = 4.62280 6.85766 5.84798
#
# Compressibility (1/GPa) = 0.06549955
#
# Stress axis : x y z
#
# Youngs Moduli (GPa) = 115.86196 13.44215 132.67430
#
# Poissons Ratio (x) = 0.06673 0.22768
# Poissons Ratio (y) = 0.57515 0.77623
# Poissons Ratio (z) = 0.19882 0.07864
#
# Static dielectric constant tensor:
#      x y z
#    x 1.727100 0.000000 -0.021280 
#    y 0.000000 1.817170 0.000000 
#    z -0.021280 0.000000 1.715180 
# 
# From -- ./inp_files/52082.got.cif
#   From: 2010.05.17/outbox.ucp.g08.bks.cvg/sg13_27_cif.got.tgz:52082.got - 2010.06.11 12:23:55.
