data_PCOD9239296
_publ_section_title
;
Structure prediction by ZEFSAII (Michael W. Deem and Ramdas Pophale) SiO2 
 PCOD9239296
Probable space group: P 21/C
;
_chemical_formula_sum "Si O2"
_cell_formula_units_Z 30
_cell_length_a 7.291744
_cell_length_b 5.512556
_cell_length_c 29.946178
_cell_angle_alpha 90.000000
_cell_angle_beta 103.139414
_cell_angle_gamma 90.000000
_cell_volume 1172.207348
_symmetry_space_group_name_H-M "P 21/C"
_symmetry_group_IT_number 14
_symmetry_cell_setting 'monoclinic'
loop_
_space_group_symop_operation_xyz
x,y,z
-x,1/2+y,1/2-z
-x,-y,-z
x,1/2-y,1/2+z
loop_
_atom_site_type_symbol
_atom_site_label
_atom_site_fract_x
_atom_site_fract_y
_atom_site_fract_z
Si Si1 0.425052 0.641693 0.565797
Si Si2 0.835043 0.888056 0.797143
Si Si3 0.500000 0.000000 0.500000
Si Si4 0.452401 0.122003 0.299954
Si Si5 0.908142 0.108940 0.319420
Si Si6 0.084013 0.909708 0.578497
Si Si7 0.161775 0.260176 0.511597
Si Si8 0.501127 0.876007 0.846088
O O1 0.559346 0.809622 0.544348
O O2 0.296908 0.803894 0.591589
O O3 0.297268 0.487707 0.524329
O O4 0.508014 0.430118 0.601767
O O5 0.671097 0.898630 0.751267
O O6 0.959055 0.129365 0.803526
O O7 0.717453 0.872767 0.838019
O O8 0.954682 0.643641 0.798760
O O9 0.704554 0.971338 0.489596
O O10 0.677671 0.116078 0.303118
O O11 0.417672 0.882704 0.327778
O O12 0.413044 0.383308 0.319313
O O13 0.978717 0.092163 0.374220
O O14 0.976512 0.734148 0.537724
O O15 0.073578 0.173047 0.553926
#
# Coordination Sequence:
#
# PCOD9239296 Si02
#       8
#     4   4   2   4   4   4   4   4
#     4  11  20  36  55  77 109 152 192 239 292 335
#     4  10  17  27  45  69 114 150 174 210 285 348
#     4  10  24  38  54  78 104 152 194 246 284 340
#     4  10  17  28  43  74 108 153 172 216 280 352
#     4  10  17  28  43  73 105 149 171 221 262 345
#     4  10  20  33  54  82 109 144 194 225 292 343
#     4  10  21  37  55  77 108 148 188 241 287 340
#     4  10  18  27  48  70 105 143 180 225 273 340
#
# _framework density 25.592739000000002
#
# number of rings (size 3 to 8) (size 9 to 14) (size 15 to 20)
#    0.000    1.867    2.667    6.400    1.867    0.000 
#    0.000    0.000    0.000    0.000    0.000    0.000 
#    0.000    6.400    0.000    0.000    0.000    0.000 
#
# Total GULP energy -167174.465547 kJ/mol
# GULP energy per Si atom -5572.482185 kJ/mol
# Density = 2.553449 g / cm^3
# Si number density = 25.592739 Si / 1000 Ang^3
#
#
#
# Elastic Constant Matrix: (Units=GPa)
#
#
# Indices 1 2 3 4 5 6 
#
# 1 36.0949 -7.1275 9.6013 0.0000 1.4689 0.0000
# 2 -7.1275 173.4457 40.6710 0.0000 3.5492 0.0000
# 3 9.6013 40.6710 124.5082 0.0000 4.9548 0.0000
# 4 0.0000 0.0000 0.0000 41.2250 0.0000 6.0212
# 5 1.4689 3.5492 4.9548 0.0000 17.6228 0.0000
# 6 0.0000 0.0000 0.0000 6.0212 0.0000 -2.4446
#
#
#
# Elastic Compliance Matrix: (Units=1/GPa)
#
#
# Indices 1 2 3 4 5 6 
#
# 1 0.028891 0.001876 -0.002761 0.000000 -0.002010 0.000000
# 2 0.001876 0.006374 -0.002194 0.000000 -0.000823 0.000000
# 3 -0.002761 -0.002194 0.009035 0.000000 -0.001868 0.000000
# 4 0.000000 0.000000 0.000000 0.017839 0.000000 0.043939
# 5 -0.002010 -0.000823 -0.001868 0.000000 0.057603 0.000000
# 6 0.000000 0.000000 0.000000 0.043939 0.000000 -0.300837
#
#
# Mechanical properties :
#
#
# Convention : Reuss Voigt Hill
#
# Bulk Modulus (GPa) = 26.21720 46.70427 36.46073
# Shear Modulus (GPa) = -30.82209 30.67424 -0.07393
#
# Velocity S-wave (km/s) = -3.47411 3.46577 -0.17014
# Velocity P-wave (km/s) = 2.41378 5.85697 3.77344
#
# Compressibility (1/GPa) = 0.03814290
#
# Stress axis : x y z
#
# Youngs Moduli (GPa) = 34.61252 156.89063 110.67462
#
# Poissons Ratio (x) = -0.29428 0.30553
# Poissons Ratio (y) = -0.06492 0.24281
# Poissons Ratio (z) = 0.09555 0.34421
#
# Static dielectric constant tensor:
#      x y z
#    x 2.023780 0.000000 -0.026860 
#    y 0.000000 2.177390 0.000000 
#    z -0.026860 0.000000 2.075430 
# 
# From -- ./inp_files/79102.got.cif
#   From: 2010.05.17/outbox.cif.g08.bks.cpg/sg14_40_cif.got.tgz:79102.got - 2010.06.03 17:49:19.
