data_PCOD9239768
_publ_section_title
;
Structure prediction by ZEFSAII (Michael W. Deem and Ramdas Pophale) SiO2 
 PCOD9239768
Probable space group: P 21/C
;
_chemical_formula_sum "Si O2"
_cell_formula_units_Z 32
_cell_length_a 11.636560
_cell_length_b 16.560857
_cell_length_c 8.660474
_cell_angle_alpha 90.000000
_cell_angle_beta 105.927224
_cell_angle_gamma 90.000000
_cell_volume 1604.902001
_symmetry_space_group_name_H-M "P 21/C"
_symmetry_group_IT_number 14
_symmetry_cell_setting 'monoclinic'
loop_
_space_group_symop_operation_xyz
x,y,z
-x,1/2+y,1/2-z
-x,-y,-z
x,1/2-y,1/2+z
loop_
_atom_site_type_symbol
_atom_site_label
_atom_site_fract_x
_atom_site_fract_y
_atom_site_fract_z
Si Si1 0.960387 0.115658 0.166009
Si Si2 0.801887 0.505240 0.786965
Si Si3 0.336430 0.843905 0.668327
Si Si4 0.807619 0.574563 0.111905
Si Si5 0.192405 0.582624 0.667259
Si Si6 0.767650 0.253269 0.135943
Si Si7 0.552406 0.579516 0.107252
Si Si8 0.626880 0.987895 0.963099
O O1 0.912865 0.040050 0.249854
O O2 0.879076 0.192262 0.179091
O O3 0.096745 0.128212 0.262311
O O4 0.927549 0.091972 0.978510
O O5 0.717689 0.432596 0.821858
O O6 0.720646 0.545992 0.623915
O O7 0.839185 0.558578 0.945603
O O8 0.249379 0.785310 0.542623
O O9 0.342857 0.798669 0.834611
O O10 0.448441 0.856524 0.597783
O O11 0.808716 0.490283 0.210131
O O12 0.671746 0.605550 0.064178
O O13 0.215362 0.664635 0.764268
O O14 0.298377 0.563438 0.582317
O O15 0.595072 0.560680 0.297489
O O16 0.500000 0.500000 0.000000
O O17 0.500000 0.000000 0.000000
#
# Coordination Sequence:
#
# PCOD9239768 Si02
#       8
#     4   4   4   4   4   4   4   4
#     4  10  22  35  54  86 117 150 196 243 287 341
#     4  10  19  33  55  86 116 147 190 241 295 339
#     4  11  20  35  57  84 111 152 193 236 287 351
#     4  11  20  36  59  86 119 147 192 247 298 346
#     4  10  20  35  57  84 112 156 194 239 293 342
#     4  11  21  36  57  82 114 153 197 240 282 350
#     4  11  20  35  59  87 118 148 186 240 302 355
#     4  10  18  31  55  90 121 140 183 243 297 344
#
# _framework density 19.938911999999998
#
# number of rings (size 3 to 8) (size 9 to 14) (size 15 to 20)
#    0.000    1.500    5.000    1.500    0.000    0.000 
#    0.000    0.000    2.750    0.000    6.500    0.000 
#    0.000    0.000    0.000    0.000    0.000    0.000 
#
# Total GULP energy -178377.309028 kJ/mol
# GULP energy per Si atom -5574.290907 kJ/mol
# Density = 1.989353 g / cm^3
# Si number density = 19.938912 Si / 1000 Ang^3
#
#
#
# Elastic Constant Matrix: (Units=GPa)
#
#
# Indices 1 2 3 4 5 6 
#
# 1 57.2066 6.7559 -0.5025 0.0000 15.6452 0.0000
# 2 6.7559 42.9991 6.6639 0.0000 -1.0654 0.0000
# 3 -0.5025 6.6639 90.1151 0.0000 -2.0124 0.0000
# 4 0.0000 0.0000 0.0000 25.5871 0.0000 -3.8905
# 5 15.6452 -1.0654 -2.0124 0.0000 27.0952 0.0000
# 6 0.0000 0.0000 0.0000 -3.8905 0.0000 18.3534
#
#
#
# Elastic Compliance Matrix: (Units=1/GPa)
#
#
# Indices 1 2 3 4 5 6 
#
# 1 0.021319 -0.003676 0.000113 0.000000 -0.012446 0.000000
# 2 -0.003676 0.024177 -0.001743 0.000000 0.002944 0.000000
# 3 0.000113 -0.001743 0.011242 0.000000 0.000701 0.000000
# 4 0.000000 0.000000 0.000000 0.040384 0.000000 0.008560
# 5 -0.012446 0.002944 0.000701 0.000000 0.044261 0.000000
# 6 0.000000 0.000000 0.000000 0.008560 0.000000 0.056300
#
#
# Mechanical properties :
#
#
# Convention : Reuss Voigt Hill
#
# Bulk Modulus (GPa) = 21.67903 24.01727 22.84815
# Shear Modulus (GPa) = 22.35431 26.03404 24.19418
#
# Velocity S-wave (km/s) = 3.35198 3.61735 3.48719
# Velocity P-wave (km/s) = 5.08698 5.43310 5.26288
#
# Compressibility (1/GPa) = 0.04612752
#
# Stress axis : x y z
#
# Youngs Moduli (GPa) = 46.90556 41.36200 88.95153
#
# Poissons Ratio (x) = 0.15203 -0.01003
# Poissons Ratio (y) = 0.17240 0.15501
# Poissons Ratio (z) = -0.00529 0.07208
#
# Static dielectric constant tensor:
#      x y z
#    x 1.786980 0.000000 -0.002570 
#    y 0.000000 1.687930 0.000000 
#    z -0.002570 0.000000 1.786920 
# 
# From -- ./inp_files/13786.got.cif
#   From: 2010.05.17/outbox.cif.g08.bks.cpg/sg14_7_cif.got.tgz:13786.got - 2010.06.03 17:49:19.
