data_PCOD9239334
_publ_section_title
;
Structure prediction by ZEFSAII (Michael W. Deem and Ramdas Pophale) SiO2 
 PCOD9239334
Probable space group: P 21/C
;
_chemical_formula_sum "Si O2"
_cell_formula_units_Z 32
_cell_length_a 8.719256
_cell_length_b 10.970850
_cell_length_c 19.835062
_cell_angle_alpha 90.000000
_cell_angle_beta 121.766564
_cell_angle_gamma 90.000000
_cell_volume 1613.148695
_symmetry_space_group_name_H-M "P 21/C"
_symmetry_group_IT_number 14
_symmetry_cell_setting 'monoclinic'
loop_
_space_group_symop_operation_xyz
x,y,z
-x,1/2+y,1/2-z
-x,-y,-z
x,1/2-y,1/2+z
loop_
_atom_site_type_symbol
_atom_site_label
_atom_site_fract_x
_atom_site_fract_y
_atom_site_fract_z
Si Si1 0.463976 0.499905 0.888686
Si Si2 0.889683 0.994641 0.341937
Si Si3 0.183876 0.161133 0.856958
Si Si4 0.559065 0.155187 0.299696
Si Si5 0.848101 0.091790 0.187124
Si Si6 0.244531 0.821461 0.249344
Si Si7 0.173067 0.228810 0.205112
Si Si8 0.755624 0.612254 0.040891
O O1 0.540407 0.375480 0.874296
O O2 0.346018 0.565036 0.804470
O O3 0.335607 0.471115 0.921756
O O4 0.628549 0.586299 0.948305
O O5 0.935309 0.033258 0.275316
O O6 0.886030 0.850014 0.348069
O O7 0.688517 0.045800 0.305245
O O8 0.040157 0.064091 0.420288
O O9 0.253706 0.022342 0.869776
O O10 0.215880 0.223044 0.791294
O O11 0.247266 0.251325 0.930377
O O12 0.965833 0.155580 0.811549
O O13 0.662815 0.273930 0.297312
O O14 0.357831 0.168112 0.223439
O O15 0.746148 0.210383 0.193192
O O16 0.004892 0.139813 0.174878
#
# Coordination Sequence:
#
# PCOD9239334 Si02
#       8
#     4   4   4   4   4   4   4   4
#     4  11  23  35  58  84 118 145 184 239 284 332
#     4  10  19  32  51  82 109 145 181 233 277 333
#     4  10  17  33  54  76 106 145 188 226 270 334
#     4  11  19  33  49  82 109 142 183 226 280 322
#     4   9  17  30  55  76 105 141 192 230 267 322
#     4  10  20  34  53  83 112 141 190 231 278 324
#     4  10  17  29  53  77 108 137 191 230 273 314
#     4  11  20  38  55  83 118 149 184 229 295 335
#
# _framework density 19.836981000000002
#
# number of rings (size 3 to 8) (size 9 to 14) (size 15 to 20)
#    0.000    1.750    5.000    3.750    0.000    0.500 
#    0.000    0.625    0.000    0.000    0.000    2.625 
#    0.000    0.000    0.000    0.000    0.000    0.000 
#
# Total GULP energy -178357.823686 kJ/mol
# GULP energy per Si atom -5573.681990 kJ/mol
# Density = 1.979183 g / cm^3
# Si number density = 19.836981 Si / 1000 Ang^3
#
#
#
# Elastic Constant Matrix: (Units=GPa)
#
#
# Indices 1 2 3 4 5 6 
#
# 1 71.5542 10.3001 3.1822 0.0000 6.6319 0.0000
# 2 10.3001 70.5662 -7.8232 0.0000 3.1781 0.0000
# 3 3.1822 -7.8232 9.6296 0.0000 1.8771 0.0000
# 4 0.0000 0.0000 0.0000 19.1783 0.0000 -0.2959
# 5 6.6319 3.1781 1.8771 0.0000 12.0135 0.0000
# 6 0.0000 0.0000 0.0000 -0.2959 0.0000 25.1962
#
#
#
# Elastic Compliance Matrix: (Units=1/GPa)
#
#
# Indices 1 2 3 4 5 6 
#
# 1 0.015234 -0.002557 -0.005780 0.000000 -0.006830 0.000000
# 2 -0.002557 0.016477 0.015271 0.000000 -0.005334 0.000000
# 3 -0.005780 0.015271 0.122045 0.000000 -0.019919 0.000000
# 4 0.000000 0.000000 0.000000 0.052152 0.000000 0.000612
# 5 -0.006830 -0.005334 -0.019919 0.000000 0.091533 0.000000
# 6 0.000000 0.000000 0.000000 0.000612 0.000000 0.039696
#
#
# Mechanical properties :
#
#
# Convention : Reuss Voigt Hill
#
# Bulk Modulus (GPa) = 5.96570 18.11872 12.04221
# Shear Modulus (GPa) = 13.18766 21.01701 17.10233
#
# Velocity S-wave (km/s) = 2.58117 3.25851 2.93941
# Velocity P-wave (km/s) = 3.44923 4.82812 4.19571
#
# Compressibility (1/GPa) = 0.16762479
#
# Stress axis : x y z
#
# Youngs Moduli (GPa) = 65.64470 60.68890 8.19371
#
# Poissons Ratio (x) = 0.15516 0.04736
# Poissons Ratio (y) = 0.16783 -0.12513
# Poissons Ratio (z) = 0.37941 -0.92678
#
# Static dielectric constant tensor:
#      x y z
#    x 1.745180 0.000000 -0.027060 
#    y 0.000000 1.751470 0.000000 
#    z -0.027060 0.000000 1.686660 
# 
# From -- ./inp_files/65259.got.cif
#   From: 2010.05.17/outbox.cif.g08.bks.cpg/sg14_33_cif.got.tgz:65259.got - 2010.06.03 17:49:19.
