data_PCOD9239011
_publ_section_title
;
Structure prediction by ZEFSAII (Michael W. Deem and Ramdas Pophale) SiO2 
 PCOD9239011
Probable space group: P 2/C
;
_chemical_formula_sum "Si O2"
_cell_formula_units_Z 30
_cell_length_a 21.000000
_cell_length_b 6.000000
_cell_length_c 24.000000
_cell_angle_alpha 90.000000
_cell_angle_beta 150.000000
_cell_angle_gamma 90.000000
_cell_volume 1512.000000
_symmetry_space_group_name_H-M "P 2/C"
_symmetry_group_IT_number 13
_symmetry_cell_setting 'monoclinic'
loop_
_space_group_symop_operation_xyz
x,y,z
-x,y,1/2-z
-x,-y,-z
x,-y,1/2+z
loop_
_atom_site_type_symbol
_atom_site_label
_atom_site_fract_x
_atom_site_fract_y
_atom_site_fract_z
Si Si1 0.000000 0.159013 0.750000
Si Si2 0.845166 0.572626 0.942293
Si Si3 0.394327 0.190244 0.021356
Si Si4 0.687132 0.818510 0.732354
Si Si5 0.114358 0.228038 0.623048
Si Si6 0.212951 0.554949 0.470696
Si Si7 0.730323 0.496747 0.666030
Si Si8 0.805289 0.811341 0.631059
O O1 0.092109 0.305443 0.857246
O O2 0.085275 0.992057 0.778743
O O3 0.734144 0.664014 0.818508
O O4 0.883063 0.346959 0.936450
O O5 0.797150 0.546877 0.969716
O O6 0.966079 0.743437 0.028987
O O7 0.541858 0.124951 0.137198
O O8 0.332337 0.322185 0.028366
O O9 0.362173 0.344942 0.942556
O O10 0.320678 0.957968 0.958289
O O11 0.674866 0.688749 0.664112
O O12 0.799475 0.004123 0.813560
O O13 0.187063 0.360281 0.727259
O O14 0.198759 0.311434 0.431700
O O15 0.815936 0.620306 0.684924
#
# Coordination Sequence:
#
# PCOD9239011 Si02
#       8
#     2   4   4   4   4   4   4   4
#     4  10  22  36  62  94 122 162 204 256 318 382
#     4  10  24  42  61  89 128 166 214 264 311 380
#     4  10  23  41  60  96 126 164 218 256 320 378
#     4  11  23  42  64  88 128 173 213 262 310 373
#     4  10  23  40  63  94 123 165 217 260 320 379
#     4  10  23  40  62  90 127 164 208 261 316 378
#     4  10  22  38  65  96 125 163 205 268 316 375
#     4  10  22  38  61  97 125 164 200 260 322 375
#
# _framework density 19.841270000000002
#
# number of rings (size 3 to 8) (size 9 to 14) (size 15 to 20)
#    0.000    1.867    0.000    2.000    9.333    9.067 
#    0.000    0.000    0.000    0.000    0.000    0.000 
#    0.000    0.000    0.000    0.000    0.000    0.000 
#
# Total GULP energy -167207.137249 kJ/mol
# GULP energy per Si atom -5573.571242 kJ/mol
# Density = 1.979611 g / cm^3
# Si number density = 19.841270 Si / 1000 Ang^3
#
#
#
# Elastic Constant Matrix: (Units=GPa)
#
#
# Indices 1 2 3 4 5 6 
#
# 1 131.3892 29.1587 42.4322 0.0000 -27.4166 0.0000
# 2 29.1587 80.1337 23.2389 0.0000 -6.0562 0.0000
# 3 42.4322 23.2389 60.8568 0.0000 6.4523 0.0000
# 4 0.0000 0.0000 0.0000 9.0870 0.0000 -9.1114
# 5 -27.4166 -6.0562 6.4523 0.0000 39.8949 0.0000
# 6 0.0000 0.0000 0.0000 -9.1114 0.0000 21.8512
#
#
#
# Elastic Compliance Matrix: (Units=1/GPa)
#
#
# Indices 1 2 3 4 5 6 
#
# 1 0.013280 -0.001152 -0.009939 0.000000 0.010558 0.000000
# 2 -0.001152 0.014507 -0.004971 0.000000 0.002215 0.000000
# 3 -0.009939 -0.004971 0.026519 0.000000 -0.011874 0.000000
# 4 0.000000 0.000000 0.000000 0.189115 0.000000 0.078856
# 5 0.010558 0.002215 -0.011874 0.000000 0.034578 0.000000
# 6 0.000000 0.000000 0.000000 0.078856 0.000000 0.078645
#
#
# Mechanical properties :
#
#
# Convention : Reuss Voigt Hill
#
# Bulk Modulus (GPa) = 45.08190 51.33769 48.20979
# Shear Modulus (GPa) = 12.62109 26.00329 19.31219
#
# Velocity S-wave (km/s) = 2.52484 3.62410 3.12322
# Velocity P-wave (km/s) = 5.59199 6.59109 6.11199
#
# Compressibility (1/GPa) = 0.02218185
#
# Stress axis : x y z
#
# Youngs Moduli (GPa) = 75.30402 68.93025 37.70878
#
# Poissons Ratio (x) = 0.07940 0.37477
# Poissons Ratio (y) = 0.08674 0.18747
# Poissons Ratio (z) = 0.74842 0.34269
#
# Static dielectric constant tensor:
#      x y z
#    x 1.748370 0.000000 0.052740 
#    y 0.000000 1.748580 0.000000 
#    z 0.052740 0.000000 1.677640 
# 
# From -- ./inp_files/88364.got.cif
#   From: 2010.05.17/outbox.ucp.g08.bks.cvg/sg13_45_cif.got.tgz:88364.got - 2010.06.11 12:23:55.
