data_PCOD9239248
_publ_section_title
;
Structure prediction by ZEFSAII (Michael W. Deem and Ramdas Pophale) SiO2 
 PCOD9239248
Probable space group: P 21/C
;
_chemical_formula_sum "Si O2"
_cell_formula_units_Z 32
_cell_length_a 24.987673
_cell_length_b 9.112333
_cell_length_c 11.895983
_cell_angle_alpha 90.000000
_cell_angle_beta 27.525884
_cell_angle_gamma 90.000000
_cell_volume 1251.808841
_symmetry_space_group_name_H-M "P 21/C"
_symmetry_group_IT_number 14
_symmetry_cell_setting 'monoclinic'
loop_
_space_group_symop_operation_xyz
x,y,z
-x,1/2+y,1/2-z
-x,-y,-z
x,1/2-y,1/2+z
loop_
_atom_site_type_symbol
_atom_site_label
_atom_site_fract_x
_atom_site_fract_y
_atom_site_fract_z
Si Si1 0.260041 0.367163 0.723480
Si Si2 0.888957 0.880348 0.099044
Si Si3 0.912641 0.977319 0.827534
Si Si4 0.356186 0.048565 0.715335
Si Si5 0.661024 0.875946 0.676277
Si Si6 0.312048 0.649740 0.496175
Si Si7 0.537270 0.636986 0.201874
Si Si8 0.074446 0.725837 0.885413
O O1 0.249445 0.504723 0.661611
O O2 0.372731 0.271392 0.479182
O O3 0.149151 0.264352 0.905450
O O4 0.292618 0.422343 0.787436
O O5 0.921523 0.999442 0.944288
O O6 0.995254 0.850397 0.981860
O O7 0.774672 0.895327 0.387103
O O8 0.003830 0.857081 0.614589
O O9 0.922139 0.113502 0.726565
O O10 0.779498 0.931640 0.057532
O O11 0.422650 0.030703 0.474478
O O12 0.381437 0.207542 0.722355
O O13 0.368654 0.911334 0.775450
O O14 0.559256 0.934514 0.782833
O O15 0.409722 0.687214 0.404425
O O16 0.207260 0.759720 0.668708
#
# Coordination Sequence:
#
# PCOD9239248 Si02
#       8
#     4   4   4   4   4   4   4   4
#     4  10  19  33  57  82 110 142 193 237 274 328
#     4  11  16  34  60  85 109 144 192 237 271 332
#     4  10  17  31  58  85 108 140 187 231 274 329
#     4  10  16  33  55  84 101 136 187 239 261 318
#     4  10  17  32  57  85 104 140 191 237 270 310
#     4  11  21  35  54  83 114 148 182 229 285 339
#     4  10  20  32  54  82 109 144 188 230 275 328
#     4  10  21  33  56  89 115 142 184 230 287 340
#
# _framework density 25.563009000000001
#
# number of rings (size 3 to 8) (size 9 to 14) (size 15 to 20)
#    0.000    1.750    7.500    1.875    0.000    0.500 
#    0.000    2.500    2.750    8.250    0.000    0.000 
#    0.000    0.000    0.000    0.000    0.000    0.000 
#
# Total GULP energy -178840.966903 kJ/mol
# GULP energy per Si atom -5588.780216 kJ/mol
# Density = 2.550483 g / cm^3
# Si number density = 25.563009 Si / 1000 Ang^3
#
#
#
# Elastic Constant Matrix: (Units=GPa)
#
#
# Indices 1 2 3 4 5 6 
#
# 1 166.0034 19.2050 50.8857 0.0000 -6.0900 0.0000
# 2 19.2050 50.9821 28.7600 0.0000 2.4100 0.0000
# 3 50.8857 28.7600 89.5127 0.0000 -21.8189 0.0000
# 4 0.0000 0.0000 0.0000 8.5288 0.0000 0.2029
# 5 -6.0900 2.4100 -21.8189 0.0000 54.9374 0.0000
# 6 0.0000 0.0000 0.0000 0.2029 0.0000 17.9392
#
#
#
# Elastic Compliance Matrix: (Units=1/GPa)
#
#
# Indices 1 2 3 4 5 6 
#
# 1 0.007342 -0.000305 -0.004289 0.000000 -0.000876 0.000000
# 2 -0.000305 0.025042 -0.009022 0.000000 -0.004716 0.000000
# 3 -0.004289 -0.009022 0.018257 0.000000 0.007171 0.000000
# 4 0.000000 0.000000 0.000000 0.117281 0.000000 -0.001326
# 5 -0.000876 -0.004716 0.007171 0.000000 0.021160 0.000000
# 6 0.000000 0.000000 0.000000 -0.001326 0.000000 0.055759
#
#
# Mechanical properties :
#
#
# Convention : Reuss Voigt Hill
#
# Bulk Modulus (GPa) = 42.71979 56.02220 49.37099
# Shear Modulus (GPa) = 17.86503 30.12424 23.99463
#
# Velocity S-wave (km/s) = 2.64647 3.43655 3.06706
# Velocity P-wave (km/s) = 5.10747 6.14080 5.64782
#
# Compressibility (1/GPa) = 0.02340836
#
# Stress axis : x y z
#
# Youngs Moduli (GPa) = 136.20415 39.93297 54.77406
#
# Poissons Ratio (x) = 0.01216 0.23495
# Poissons Ratio (y) = 0.04148 0.49418
# Poissons Ratio (z) = 0.58424 0.36028
#
# Static dielectric constant tensor:
#      x y z
#    x 2.045680 0.000000 0.009250 
#    y 0.000000 2.115660 0.000000 
#    z 0.009250 0.000000 1.989340 
# 
# From -- ./inp_files/35324.got.cif
#   From: 2010.05.17/outbox.cif.g08.bks.cpg/sg14_18_cif.got.tgz:35324.got - 2010.06.03 17:49:19.
