data_PCOD9239628
_publ_section_title
;
Structure prediction by ZEFSAII (Michael W. Deem and Ramdas Pophale) SiO2 
 PCOD9239628
Probable space group: P 21/C
;
_chemical_formula_sum "Si O2"
_cell_formula_units_Z 28
_cell_length_a 9.724581
_cell_length_b 10.431603
_cell_length_c 16.559144
_cell_angle_alpha 90.000000
_cell_angle_beta 133.231190
_cell_angle_gamma 90.000000
_cell_volume 1223.901702
_symmetry_space_group_name_H-M "P 21/C"
_symmetry_group_IT_number 14
_symmetry_cell_setting 'monoclinic'
loop_
_space_group_symop_operation_xyz
x,y,z
-x,1/2+y,1/2-z
-x,-y,-z
x,1/2-y,1/2+z
loop_
_atom_site_type_symbol
_atom_site_label
_atom_site_fract_x
_atom_site_fract_y
_atom_site_fract_z
Si Si1 0.238412 0.334975 0.270821
Si Si2 0.346056 0.884291 0.816302
Si Si3 0.488498 0.000708 0.379638
Si Si4 0.095211 0.095397 0.162372
Si Si5 0.465357 0.779994 0.497779
Si Si6 0.434035 0.820422 0.218207
Si Si7 0.767231 0.520168 0.457032
O O1 0.221965 0.487776 0.257623
O O2 0.067506 0.238340 0.185866
O O3 0.357024 0.301275 0.398746
O O4 0.385791 0.283881 0.261455
O O5 0.324493 0.811248 0.892581
O O6 0.343101 0.782732 0.741510
O O7 0.565939 0.928192 0.903676
O O8 0.265423 0.036685 0.284819
O O9 0.597391 0.126139 0.454311
O O10 0.528208 0.885313 0.456852
O O11 0.515857 0.940928 0.302921
O O12 0.155959 0.094087 0.091234
O O13 0.919624 0.998588 0.088008
O O14 0.279552 0.878633 0.096371
#
# Coordination Sequence:
#
# PCOD9239628 Si02
#       7
#     4   4   4   4   4   4   4
#     4  10  18  28  49  75 103 128 169 215 249 294
#     4  10  18  30  48  75 100 133 167 216 251 299
#     4   8  16  30  50  71 100 133 168 207 245 304
#     4   9  16  30  49  74  95 132 170 206 250 301
#     4   9  17  29  48  75  99 129 170 207 252 294
#     4   9  17  30  48  76 101 128 173 211 250 294
#     4   9  17  29  50  71  99 129 170 210 251 298
#
# _framework density 22.877654
#
# number of rings (size 3 to 8) (size 9 to 14) (size 15 to 20)
#    0.000    2.857    1.429    0.429    2.000    0.000 
#    0.000    0.714   12.571    0.000    0.000    0.000 
#    0.000    0.000    0.000    0.000    0.000    0.000 
#
# Total GULP energy -155999.326111 kJ/mol
# GULP energy per Si atom -5571.404504 kJ/mol
# Density = 2.282558 g / cm^3
# Si number density = 22.877654 Si / 1000 Ang^3
#
#
#
# Elastic Constant Matrix: (Units=GPa)
#
#
# Indices 1 2 3 4 5 6 
#
# 1 39.0309 9.5217 14.6196 0.0000 3.5917 0.0000
# 2 9.5217 115.0569 27.0096 0.0000 -8.1928 0.0000
# 3 14.6196 27.0096 63.8383 0.0000 -9.4197 0.0000
# 4 0.0000 0.0000 0.0000 40.3482 0.0000 -11.4324
# 5 3.5917 -8.1928 -9.4197 0.0000 19.9839 0.0000
# 6 0.0000 0.0000 0.0000 -11.4324 0.0000 25.0190
#
#
#
# Elastic Compliance Matrix: (Units=1/GPa)
#
#
# Indices 1 2 3 4 5 6 
#
# 1 0.029677 -0.001340 -0.007628 0.000000 -0.009479 0.000000
# 2 -0.001340 0.009800 -0.003451 0.000000 0.002632 0.000000
# 3 -0.007628 -0.003451 0.020275 0.000000 0.009513 0.000000
# 4 0.000000 0.000000 0.000000 0.028470 0.000000 0.013009
# 5 -0.009479 0.002632 0.009513 0.000000 0.057307 0.000000
# 6 0.000000 0.000000 0.000000 0.013009 0.000000 0.045914
#
#
# Mechanical properties :
#
#
# Convention : Reuss Voigt Hill
#
# Bulk Modulus (GPa) = 28.64195 35.58087 32.11141
# Shear Modulus (GPa) = 21.93751 28.18857 25.06304
#
# Velocity S-wave (km/s) = 3.09998 3.51400 3.31346
# Velocity P-wave (km/s) = 5.03587 5.66133 5.35774
#
# Compressibility (1/GPa) = 0.03491382
#
# Stress axis : x y z
#
# Youngs Moduli (GPa) = 33.69606 102.04311 49.32115
#
# Poissons Ratio (x) = 0.13676 0.37622
# Poissons Ratio (y) = 0.04516 0.17021
# Poissons Ratio (z) = 0.25703 0.35215
#
# Static dielectric constant tensor:
#      x y z
#    x 1.892310 0.000000 -0.010340 
#    y 0.000000 1.932650 0.000000 
#    z -0.010340 0.000000 1.881870 
# 
# From -- ./inp_files/68454.got.cif
#   From: 2010.05.17/outbox.cif.g08.bks.cpg/sg14_35_cif.got.tgz:68454.got - 2010.06.03 17:49:19.
