data_PCOD9239004
_publ_section_title
;
Structure prediction by ZEFSAII (Michael W. Deem and Ramdas Pophale) SiO2 
 PCOD9239004
Probable space group: P 2/C
;
_chemical_formula_sum "Si O2"
_cell_formula_units_Z 28
_cell_length_a 24.000000
_cell_length_b 12.000000
_cell_length_c 30.000000
_cell_angle_alpha 90.000000
_cell_angle_beta 10.000000
_cell_angle_gamma 90.000000
_cell_volume 1500.320255
_symmetry_space_group_name_H-M "P 2/C"
_symmetry_group_IT_number 13
_symmetry_cell_setting 'monoclinic'
loop_
_space_group_symop_operation_xyz
x,y,z
-x,y,1/2-z
-x,-y,-z
x,-y,1/2+z
loop_
_atom_site_type_symbol
_atom_site_label
_atom_site_fract_x
_atom_site_fract_y
_atom_site_fract_z
Si Si1 0.837124 0.661711 0.426216
Si Si2 0.776277 0.814199 0.612114
Si Si3 0.718882 0.461749 0.392212
Si Si4 0.233282 0.157013 0.669774
Si Si5 0.644407 0.989490 0.007160
Si Si6 0.312806 0.737522 0.260779
Si Si7 0.232024 0.345326 0.242867
O O1 0.471712 0.713903 0.708685
O O2 0.000000 0.666329 0.250000
O O3 0.963933 0.537983 0.343651
O O4 0.016162 0.755839 0.313434
O O5 0.571264 0.917010 0.795796
O O6 0.006944 0.863091 0.391238
O O7 0.029833 0.761028 0.447372
O O8 0.561760 0.361319 0.547240
O O9 0.798239 0.399605 0.282749
O O10 0.440857 0.557803 0.604311
O O11 0.312613 0.049621 0.575820
O O12 0.550459 0.231838 0.430831
O O13 0.485983 0.862267 0.130865
O O14 0.000000 0.983005 0.750000
O O15 0.101988 0.688882 0.469026
#
# Coordination Sequence:
#
# PCOD9239004 Si02
#       7
#     4   4   4   4   4   4   4
#     4  11  21  42  70  99 137 172 232 286 337 402
#     4  12  22  41  71 105 127 182 234 286 338 404
#     4  10  23  43  65 102 140 176 221 288 343 414
#     4  11  21  40  70 101 134 170 228 293 336 396
#     4  12  26  45  66  98 142 181 236 285 339 415
#     4  12  25  43  71 100 142 186 226 279 356 403
#     4  10  21  42  68 101 138 172 227 283 339 413
#
# _framework density 18.662682
#
# number of rings (size 3 to 8) (size 9 to 14) (size 15 to 20)
#    0.000    0.857    5.714    2.143    0.000    2.286 
#    2.571    0.000    0.000    0.000    0.000    0.000 
#    0.000    0.000    0.000    0.000    0.000    0.000 
#
# Total GULP energy -155998.680696 kJ/mol
# GULP energy per Si atom -5571.381453 kJ/mol
# Density = 1.862021 g / cm^3
# Si number density = 18.662682 Si / 1000 Ang^3
#
#
#
# Elastic Constant Matrix: (Units=GPa)
#
#
# Indices 1 2 3 4 5 6 
#
# 1 77.8167 30.7908 46.6697 0.0000 25.8489 0.0000
# 2 30.7908 149.9681 63.4863 0.0000 11.0314 0.0000
# 3 46.6697 63.4863 121.3700 0.0000 17.6484 0.0000
# 4 0.0000 0.0000 0.0000 48.4031 0.0000 0.1629
# 5 25.8489 11.0314 17.6484 0.0000 49.6828 0.0000
# 6 0.0000 0.0000 0.0000 0.1629 0.0000 34.8115
#
#
#
# Elastic Compliance Matrix: (Units=1/GPa)
#
#
# Indices 1 2 3 4 5 6 
#
# 1 0.019273 -0.000933 -0.005794 0.000000 -0.007762 0.000000
# 2 -0.000933 0.008615 -0.004154 0.000000 0.000049 0.000000
# 3 -0.005794 -0.004154 0.012725 0.000000 -0.000583 0.000000
# 4 0.000000 0.000000 0.000000 0.020660 0.000000 -0.000097
# 5 -0.007762 0.000049 -0.000583 0.000000 0.024363 0.000000
# 6 0.000000 0.000000 0.000000 -0.000097 0.000000 0.028727
#
#
# Mechanical properties :
#
#
# Convention : Reuss Voigt Hill
#
# Bulk Modulus (GPa) = 53.05166 70.11648 61.58407
# Shear Modulus (GPa) = 35.10993 40.46000 37.78497
#
# Velocity S-wave (km/s) = 4.34209 4.66119 4.50447
# Velocity P-wave (km/s) = 7.32302 8.16216 7.75395
#
# Compressibility (1/GPa) = 0.01884955
#
# Stress axis : x y z
#
# Youngs Moduli (GPa) = 51.88497 116.07872 78.58420
#
# Poissons Ratio (x) = 0.10833 0.45533
# Poissons Ratio (y) = 0.04842 0.32647
# Poissons Ratio (z) = 0.30063 0.48224
#
# Static dielectric constant tensor:
#      x y z
#    x 1.742870 0.000000 0.000260 
#    y 0.000000 1.656530 0.000000 
#    z 0.000260 0.000000 1.666640 
# 
# From -- ./inp_files/97714.got.cif
#   From: 2010.05.17/outbox.ucp.g08.bks.cvg/sg13_49_cif.got.tgz:97714.got - 2010.06.11 12:23:55.
