data_PCOD9239699
_publ_section_title
;
Structure prediction by ZEFSAII (Michael W. Deem and Ramdas Pophale) SiO2 
 PCOD9239699
Probable space group: P 21/C
;
_chemical_formula_sum "Si O2"
_cell_formula_units_Z 32
_cell_length_a 8.544226
_cell_length_b 22.063457
_cell_length_c 8.164300
_cell_angle_alpha 90.000000
_cell_angle_beta 98.094891
_cell_angle_gamma 90.000000
_cell_volume 1523.759144
_symmetry_space_group_name_H-M "P 21/C"
_symmetry_group_IT_number 14
_symmetry_cell_setting 'monoclinic'
loop_
_space_group_symop_operation_xyz
x,y,z
-x,1/2+y,1/2-z
-x,-y,-z
x,1/2-y,1/2+z
loop_
_atom_site_type_symbol
_atom_site_label
_atom_site_fract_x
_atom_site_fract_y
_atom_site_fract_z
Si Si1 0.026866 0.716443 0.898915
Si Si2 0.137525 0.667620 0.567170
Si Si3 0.448904 0.477269 0.269878
Si Si4 0.573189 0.582380 0.076478
Si Si5 0.285358 0.566889 0.459615
Si Si6 0.702457 0.345253 0.847094
Si Si7 0.477786 0.721291 0.686105
Si Si8 0.311310 0.201228 0.489889
O O1 0.055024 0.690181 0.722282
O O2 0.853332 0.708792 0.945293
O O3 0.067587 0.788085 0.916986
O O4 0.148390 0.681343 0.036104
O O5 0.140971 0.594894 0.544196
O O6 0.323493 0.685911 0.605808
O O7 0.561115 0.532367 0.217940
O O8 0.308581 0.504464 0.361593
O O9 0.560142 0.436332 0.400676
O O10 0.389579 0.447125 0.093346
O O11 0.396213 0.610195 0.049321
O O12 0.684867 0.640685 0.120422
O O13 0.277799 0.615550 0.311625
O O14 0.594365 0.287613 0.785596
O O15 0.554531 0.690785 0.853621
O O16 0.623760 0.738605 0.589543
#
# Coordination Sequence:
#
# PCOD9239699 Si02
#       8
#     4   4   4   4   4   4   4   4
#     4  11  22  34  52  80 114 143 179 214 278 352
#     4  11  20  35  55  79 110 148 180 220 274 345
#     4   9  18  32  54  85 104 135 192 244 272 313
#     4   9  18  34  56  77 108 142 183 231 282 322
#     4  10  18  30  55  80 104 133 182 234 272 308
#     4   9  18  33  53  79 106 144 178 220 276 344
#     4  10  19  32  52  78 107 138 181 216 270 338
#     4  11  21  34  53  82 113 143 175 231 280 324
#
# _framework density 21.000695
#
# number of rings (size 3 to 8) (size 9 to 14) (size 15 to 20)
#    0.000    2.000    0.000    6.750    0.000    0.000 
#    0.000    0.000    0.000   13.500    0.000    0.000 
#    0.000    0.000    0.000    0.000    0.000    0.000 
#
# Total GULP energy -178238.714931 kJ/mol
# GULP energy per Si atom -5569.959842 kJ/mol
# Density = 2.095290 g / cm^3
# Si number density = 21.000695 Si / 1000 Ang^3
#
#
#
# Elastic Constant Matrix: (Units=GPa)
#
#
# Indices 1 2 3 4 5 6 
#
# 1 47.4128 -1.6814 5.3140 0.0000 -18.7009 0.0000
# 2 -1.6814 40.6581 -4.5985 0.0000 -8.6659 0.0000
# 3 5.3140 -4.5985 61.7687 0.0000 -19.1715 0.0000
# 4 0.0000 0.0000 0.0000 39.4347 0.0000 -9.8193
# 5 -18.7009 -8.6659 -19.1715 0.0000 23.1728 0.0000
# 6 0.0000 0.0000 0.0000 -9.8193 0.0000 14.6606
#
#
#
# Elastic Compliance Matrix: (Units=1/GPa)
#
#
# Indices 1 2 3 4 5 6 
#
# 1 0.037914 0.012431 0.011576 0.000000 0.044823 0.000000
# 2 0.012431 0.033145 0.011247 0.000000 0.031732 0.000000
# 3 0.011576 0.011247 0.027227 0.000000 0.036074 0.000000
# 4 0.000000 0.000000 0.000000 0.030434 0.000000 0.020384
# 5 0.044823 0.031732 0.036074 0.000000 0.121039 0.000000
# 6 0.000000 0.000000 0.000000 0.020384 0.000000 0.081863
#
#
# Mechanical properties :
#
#
# Convention : Reuss Voigt Hill
#
# Bulk Modulus (GPa) = 5.92442 16.43420 11.17931
# Shear Modulus (GPa) = 15.75403 25.50731 20.63067
#
# Velocity S-wave (km/s) = 2.74189 3.48888 3.13770
# Velocity P-wave (km/s) = 3.58485 4.90635 4.29671
#
# Compressibility (1/GPa) = 0.16879280
#
# Stress axis : x y z
#
# Youngs Moduli (GPa) = 26.37537 30.17068 36.72785
#
# Poissons Ratio (x) = -0.37504 -0.42515
# Poissons Ratio (y) = -0.32787 -0.41307
# Poissons Ratio (z) = -0.30531 -0.33933
#
# Static dielectric constant tensor:
#      x y z
#    x 1.748330 0.000000 -0.058540 
#    y 0.000000 1.856290 0.000000 
#    z -0.058540 0.000000 1.838330 
# 
# From -- ./inp_files/10697.got.cif
#   From: 2010.05.17/outbox.cif.g08.bks.cpg/sg14_6_cif.got.tgz:10697.got - 2010.06.03 17:49:19.
