data_PCOD9239877
_publ_section_title
;
Structure prediction by ZEFSAII (Michael W. Deem and Ramdas Pophale) SiO2 
 PCOD9239877
Probable space group: P 21/C
;
_chemical_formula_sum "Si O2"
_cell_formula_units_Z 32
_cell_length_a 14.684204
_cell_length_b 8.255149
_cell_length_c 15.576998
_cell_angle_alpha 90.000000
_cell_angle_beta 134.962698
_cell_angle_gamma 90.000000
_cell_volume 1336.062124
_symmetry_space_group_name_H-M "P 21/C"
_symmetry_group_IT_number 14
_symmetry_cell_setting 'monoclinic'
loop_
_space_group_symop_operation_xyz
x,y,z
-x,1/2+y,1/2-z
-x,-y,-z
x,1/2-y,1/2+z
loop_
_atom_site_type_symbol
_atom_site_label
_atom_site_fract_x
_atom_site_fract_y
_atom_site_fract_z
Si Si1 0.541055 0.934459 0.619604
Si Si2 0.216323 0.256573 0.678328
Si Si3 0.058698 0.441750 0.448509
Si Si4 0.596012 0.249326 0.730579
Si Si5 0.014997 0.446767 0.109154
Si Si6 0.214581 0.749089 0.485923
Si Si7 0.460048 0.436635 0.378068
Si Si8 0.818139 0.253462 0.729905
O O1 0.694831 0.903068 0.730887
O O2 0.494944 0.749500 0.601597
O O3 0.500000 0.000000 0.500000
O O4 0.515357 0.083490 0.666273
O O5 0.158646 0.300978 0.546908
O O6 0.098455 0.217290 0.661610
O O7 0.310189 0.101141 0.752047
O O8 0.138333 0.581817 0.455450
O O9 0.000000 0.500000 0.500000
O O10 0.933837 0.375240 0.317222
O O11 0.672208 0.253150 0.869480
O O12 0.507760 0.408157 0.658633
O O13 0.706135 0.250645 0.727903
O O14 0.100447 0.580544 0.211090
O O15 0.000000 0.500000 0.000000
O O16 0.878644 0.400160 0.055572
O O17 0.240760 0.758238 0.403018
O O18 0.500000 0.500000 0.500000
#
# Coordination Sequence:
#
# PCOD9239877 Si02
#       8
#     4   4   4   4   4   4   4   4
#     4  10  20  34  60  95 112 149 211 253 307 371
#     4  10  18  32  58  82 116 160 196 238 308 358
#     4  12  19  37  57  82 124 162 198 246 292 362
#     4  12  20  40  64  82 126 160 196 258 304 364
#     4  12  19  37  57  82 124 162 198 246 292 362
#     4  12  24  36  57  88 122 163 203 243 301 367
#     4  10  20  34  60  95 112 149 211 253 307 371
#     4  12  24  36  57  88 122 163 203 243 301 367
#
# _framework density 23.950980999999999
#
# number of rings (size 3 to 8) (size 9 to 14) (size 15 to 20)
#    0.750    0.000    8.750    0.750    0.000    0.000 
#    0.000    0.000    0.000    1.500    0.000    0.000 
#    0.000    0.000    0.000    0.000    0.000    0.000 
#
# Total GULP energy -178584.903021 kJ/mol
# GULP energy per Si atom -5580.778219 kJ/mol
# Density = 2.389647 g / cm^3
# Si number density = 23.950981 Si / 1000 Ang^3
#
#
#
# Elastic Constant Matrix: (Units=GPa)
#
#
# Indices 1 2 3 4 5 6 
#
# 1 64.4931 21.3561 50.2999 0.0000 -14.1127 0.0000
# 2 21.3561 173.9256 44.6528 0.0000 -0.7804 0.0000
# 3 50.2999 44.6528 163.3012 0.0000 -13.3327 0.0000
# 4 0.0000 0.0000 0.0000 54.2800 0.0000 7.9961
# 5 -14.1127 -0.7804 -13.3327 0.0000 33.9500 0.0000
# 6 0.0000 0.0000 0.0000 7.9961 0.0000 3.9938
#
#
#
# Elastic Compliance Matrix: (Units=1/GPa)
#
#
# Indices 1 2 3 4 5 6 
#
# 1 0.021974 -0.001153 -0.005899 0.000000 0.006791 0.000000
# 2 -0.001153 0.006254 -0.001428 0.000000 -0.000896 0.000000
# 3 -0.005899 -0.001428 0.008397 0.000000 0.000813 0.000000
# 4 0.000000 0.000000 0.000000 0.026130 0.000000 -0.052315
# 5 0.006791 -0.000896 0.000813 0.000000 0.032577 0.000000
# 6 0.000000 0.000000 0.000000 -0.052315 0.000000 0.355127
#
#
# Mechanical properties :
#
#
# Convention : Reuss Voigt Hill
#
# Bulk Modulus (GPa) = 50.85057 70.48195 60.66626
# Shear Modulus (GPa) = 10.54911 37.47218 24.01064
#
# Velocity S-wave (km/s) = 2.10096 3.95971 3.16965
# Velocity P-wave (km/s) = 5.21177 7.09910 6.22735
#
# Compressibility (1/GPa) = 0.01966546
#
# Stress axis : x y z
#
# Youngs Moduli (GPa) = 45.50821 159.90308 119.08497
#
# Poissons Ratio (x) = 0.18442 0.70243
# Poissons Ratio (y) = 0.05249 0.17005
# Poissons Ratio (z) = 0.26843 0.22834
#
# Static dielectric constant tensor:
#      x y z
#    x 1.924690 0.000000 0.045120 
#    y 0.000000 1.908440 0.000000 
#    z 0.045120 0.000000 1.892700 
# 
# From -- ./inp_files/50105.got.cif
#   From: 2010.05.17/outbox.cif.g08.bks.cpg/sg14_26_cif.got.tgz:50105.got - 2010.06.03 17:49:19.
