data_PCOD9239559
_publ_section_title
;
Structure prediction by ZEFSAII (Michael W. Deem and Ramdas Pophale) SiO2 
 PCOD9239559
Probable space group: P 21/C
;
_chemical_formula_sum "Si O2"
_cell_formula_units_Z 32
_cell_length_a 9.178222
_cell_length_b 14.237459
_cell_length_c 15.571703
_cell_angle_alpha 90.000000
_cell_angle_beta 123.716644
_cell_angle_gamma 90.000000
_cell_volume 1692.553362
_symmetry_space_group_name_H-M "P 21/C"
_symmetry_group_IT_number 14
_symmetry_cell_setting 'monoclinic'
loop_
_space_group_symop_operation_xyz
x,y,z
-x,1/2+y,1/2-z
-x,-y,-z
x,1/2-y,1/2+z
loop_
_atom_site_type_symbol
_atom_site_label
_atom_site_fract_x
_atom_site_fract_y
_atom_site_fract_z
Si Si1 0.087185 0.039556 0.644774
Si Si2 0.547944 0.235203 0.345809
Si Si3 0.487059 0.432895 0.258014
Si Si4 0.318441 0.897982 0.023062
Si Si5 0.920502 0.151239 0.443121
Si Si6 0.739256 0.912392 0.777421
Si Si7 0.082356 0.008433 0.835932
Si Si8 0.039154 0.140727 0.986722
O O1 0.285170 0.049344 0.675079
O O2 0.967844 0.110637 0.552474
O O3 0.092225 0.056631 0.747429
O O4 0.032148 0.932647 0.605958
O O5 0.521589 0.320889 0.269510
O O6 0.601503 0.293181 0.449414
O O7 0.714408 0.174507 0.372006
O O8 0.376545 0.172493 0.296435
O O9 0.542065 0.456157 0.375121
O O10 0.614232 0.496627 0.243478
O O11 0.143370 0.889349 0.026031
O O12 0.251098 0.945310 0.915220
O O13 0.021232 0.248875 0.462846
O O14 0.810696 0.882782 0.895131
O O15 0.911985 0.941538 0.782452
O O16 0.061986 0.081545 0.907715
#
# Coordination Sequence:
#
# PCOD9239559 Si02
#       8
#     4   4   4   4   4   4   4   4
#     4  11  24  37  59  83 123 157 187 239 298 357
#     4   9  18  34  61  82 108 153 206 228 269 360
#     4  10  18  36  58  88 107 158 192 233 291 345
#     4   8  17  34  57  83 112 143 188 239 287 334
#     4  10  21  41  56  79 120 165 188 229 307 353
#     4  11  17  34  65  83 111 156 196 236 287 351
#     4  11  20  37  59  90 117 146 195 249 293 334
#     4  10  17  36  60  84 110 150 196 238 283 353
#
# _framework density 18.906347
#
# number of rings (size 3 to 8) (size 9 to 14) (size 15 to 20)
#    0.750    1.250    3.750    1.500    0.000    0.500 
#    9.000    0.625    0.000    0.000    0.000    0.000 
#    0.000    0.000    0.000    0.000    0.000    0.000 
#
# Total GULP energy -178245.228646 kJ/mol
# GULP energy per Si atom -5570.163395 kJ/mol
# Density = 1.886332 g / cm^3
# Si number density = 18.906347 Si / 1000 Ang^3
#
#
#
# Elastic Constant Matrix: (Units=GPa)
#
#
# Indices 1 2 3 4 5 6 
#
# 1 11.8731 8.0333 16.6283 0.0000 5.6777 0.0000
# 2 8.0333 103.4324 25.9123 0.0000 9.6668 0.0000
# 3 16.6283 25.9123 60.8320 0.0000 -2.5265 0.0000
# 4 0.0000 0.0000 0.0000 30.6624 0.0000 17.1234
# 5 5.6777 9.6668 -2.5265 0.0000 20.5499 0.0000
# 6 0.0000 0.0000 0.0000 17.1234 0.0000 11.1441
#
#
#
# Elastic Compliance Matrix: (Units=1/GPa)
#
#
# Indices 1 2 3 4 5 6 
#
# 1 0.189469 0.005233 -0.056586 0.000000 -0.061767 0.000000
# 2 0.005233 0.011672 -0.006725 0.000000 -0.007763 0.000000
# 3 -0.056586 -0.006725 0.035734 0.000000 0.023191 0.000000
# 4 0.000000 0.000000 0.000000 0.229800 0.000000 -0.353097
# 5 -0.061767 -0.007763 0.023191 0.000000 0.072230 0.000000
# 6 0.000000 0.000000 0.000000 -0.353097 0.000000 0.632284
#
#
# Mechanical properties :
#
#
# Convention : Reuss Voigt Hill
#
# Bulk Modulus (GPa) = 8.28359 30.80946 19.54653
# Shear Modulus (GPa) = 3.76624 20.84219 12.30421
#
# Velocity S-wave (km/s) = 1.41293 3.32383 2.55384
# Velocity P-wave (km/s) = 2.65570 5.57330 4.36545
#
# Compressibility (1/GPa) = 0.12072054
#
# Stress axis : x y z
#
# Youngs Moduli (GPa) = 5.27792 85.67541 27.98453
#
# Poissons Ratio (x) = -0.44836 1.58352
# Poissons Ratio (y) = -0.02762 0.18819
# Poissons Ratio (z) = 0.29865 0.57615
#
# Static dielectric constant tensor:
#      x y z
#    x 1.640520 0.000000 0.024900 
#    y 0.000000 1.683270 0.000000 
#    z 0.024900 0.000000 1.662290 
# 
# From -- ./inp_files/41238.got.cif
#   From: 2010.05.17/outbox.cif.g08.bks.cpg/sg14_21_cif.got.tgz:41238.got - 2010.06.03 17:49:19.
