data_PCOD9239505
_publ_section_title
;
Structure prediction by ZEFSAII (Michael W. Deem and Ramdas Pophale) SiO2 
 PCOD9239505
Probable space group: P 21/C
;
_chemical_formula_sum "Si O2"
_cell_formula_units_Z 32
_cell_length_a 9.920274
_cell_length_b 11.401909
_cell_length_c 31.841708
_cell_angle_alpha 90.000000
_cell_angle_beta 25.126471
_cell_angle_gamma 90.000000
_cell_volume 1529.310760
_symmetry_space_group_name_H-M "P 21/C"
_symmetry_group_IT_number 14
_symmetry_cell_setting 'monoclinic'
loop_
_space_group_symop_operation_xyz
x,y,z
-x,1/2+y,1/2-z
-x,-y,-z
x,1/2-y,1/2+z
loop_
_atom_site_type_symbol
_atom_site_label
_atom_site_fract_x
_atom_site_fract_y
_atom_site_fract_z
Si Si1 0.866020 0.158248 0.781272
Si Si2 0.719174 0.369907 0.463518
Si Si3 0.540911 0.170573 0.314727
Si Si4 0.497165 0.529244 0.336507
Si Si5 0.332907 0.136405 0.999009
Si Si6 0.707088 0.599640 0.764441
Si Si7 0.388787 0.703392 0.303206
Si Si8 0.981912 0.321512 0.473578
O O1 0.821105 0.262423 0.760734
O O2 0.172997 0.148354 0.724299
O O3 0.776764 0.036722 0.782483
O O4 0.576637 0.178318 0.895511
O O5 0.631549 0.495422 0.508210
O O6 0.433125 0.319469 0.516801
O O7 0.991727 0.397035 0.352370
O O8 0.847071 0.294272 0.465546
O O9 0.548452 0.210586 0.263875
O O10 0.197154 0.214051 0.428497
O O11 0.592660 0.032581 0.301946
O O12 0.590569 0.599082 0.268289
O O13 0.241164 0.427524 0.398047
O O14 0.304709 0.624704 0.418491
O O15 0.976406 0.166726 0.088960
O O16 0.460520 0.680550 0.809268
#
# Coordination Sequence:
#
# PCOD9239505 Si02
#       8
#     4   4   4   4   4   4   4   4
#     4  10  23  40  63  87 121 160 209 262 295 345
#     4  10  17  34  60  90 116 148 200 264 294 339
#     4  11  23  37  59  90 127 157 201 248 311 366
#     4  10  19  33  61  85 111 151 210 252 293 347
#     4  10  19  35  61  90 115 152 205 257 294 342
#     4  11  24  39  56  94 129 160 196 246 318 369
#     4  12  22  36  60  90 125 158 195 249 313 365
#     4  10  17  35  58  90 111 150 201 261 298 338
#
# _framework density 20.924458000000001
#
# number of rings (size 3 to 8) (size 9 to 14) (size 15 to 20)
#    0.000    1.500    5.000    1.500    3.500    0.000 
#    0.000    2.500    0.000    0.750    0.000    0.000 
#    0.000    0.000    0.000    0.000    0.000    0.000 
#
# Total GULP energy -178693.427174 kJ/mol
# GULP energy per Si atom -5584.169599 kJ/mol
# Density = 2.087683 g / cm^3
# Si number density = 20.924458 Si / 1000 Ang^3
#
#
#
# Elastic Constant Matrix: (Units=GPa)
#
#
# Indices 1 2 3 4 5 6 
#
# 1 170.0278 51.7357 9.7645 0.0000 -11.1530 0.0000
# 2 51.7357 88.4943 10.3790 0.0000 -8.8666 0.0000
# 3 9.7645 10.3790 16.9629 0.0000 -0.1541 0.0000
# 4 0.0000 0.0000 0.0000 16.6747 0.0000 0.6958
# 5 -11.1530 -8.8666 -0.1541 0.0000 26.2299 0.0000
# 6 0.0000 0.0000 0.0000 0.6958 0.0000 37.6148
#
#
#
# Elastic Compliance Matrix: (Units=1/GPa)
#
#
# Indices 1 2 3 4 5 6 
#
# 1 0.007278 -0.003865 -0.001809 0.000000 0.001778 0.000000
# 2 -0.003865 0.014677 -0.006726 0.000000 0.003279 0.000000
# 3 -0.001809 -0.006726 0.064084 0.000000 -0.002666 0.000000
# 4 0.000000 0.000000 0.000000 0.060017 0.000000 -0.001110
# 5 0.001778 0.003279 -0.002666 0.000000 0.039973 0.000000
# 6 0.000000 0.000000 0.000000 -0.001110 0.000000 0.026606
#
#
# Mechanical properties :
#
#
# Convention : Reuss Voigt Hill
#
# Bulk Modulus (GPa) = 16.32894 46.58260 31.45577
# Shear Modulus (GPa) = 19.39139 29.67761 24.53450
#
# Velocity S-wave (km/s) = 3.04753 3.77015 3.42793
# Velocity P-wave (km/s) = 4.49488 6.42360 5.54376
#
# Compressibility (1/GPa) = 0.06124095
#
# Stress axis : x y z
#
# Youngs Moduli (GPa) = 137.40527 68.13494 15.60443
#
# Poissons Ratio (x) = 0.26331 0.02822
# Poissons Ratio (y) = 0.53100 0.10495
# Poissons Ratio (z) = 0.24852 0.45826
#
# Static dielectric constant tensor:
#      x y z
#    x 1.833830 0.000000 0.006970 
#    y 0.000000 1.749940 0.000000 
#    z 0.006970 0.000000 1.788840 
# 
# From -- ./inp_files/79628.got.cif
#   From: 2010.05.17/outbox.cif.g08.bks.cpg/sg14_40_cif.got.tgz:79628.got - 2010.06.03 17:49:19.
