data_PCOD9239602
_publ_section_title
;
Structure prediction by ZEFSAII (Michael W. Deem and Ramdas Pophale) SiO2 
 PCOD9239602
Probable space group: P 21/C
;
_chemical_formula_sum "Si O2"
_cell_formula_units_Z 28
_cell_length_a 16.978335
_cell_length_b 11.808107
_cell_length_c 13.720798
_cell_angle_alpha 90.000000
_cell_angle_beta 156.360640
_cell_angle_gamma 90.000000
_cell_volume 1103.000667
_symmetry_space_group_name_H-M "P 21/C"
_symmetry_group_IT_number 14
_symmetry_cell_setting 'monoclinic'
loop_
_space_group_symop_operation_xyz
x,y,z
-x,1/2+y,1/2-z
-x,-y,-z
x,1/2-y,1/2+z
loop_
_atom_site_type_symbol
_atom_site_label
_atom_site_fract_x
_atom_site_fract_y
_atom_site_fract_z
Si Si1 0.337874 0.069245 0.087617
Si Si2 0.231464 0.632514 0.132400
Si Si3 0.796977 0.140302 0.182094
Si Si4 0.651326 0.616463 0.780524
Si Si5 0.755512 0.947572 0.599050
Si Si6 0.376061 0.234887 0.946883
Si Si7 0.987076 0.855573 0.159558
O O1 0.352318 0.159648 0.016994
O O2 0.239969 0.125394 0.071450
O O3 0.205643 0.966107 0.894019
O O4 0.551925 0.018077 0.355218
O O5 0.138027 0.619983 0.132746
O O6 0.354033 0.517047 0.252619
O O7 0.388103 0.734926 0.303865
O O8 0.081937 0.642041 0.875544
O O9 0.914136 0.245855 0.274585
O O10 0.562382 0.160964 0.929727
O O11 0.782303 0.618655 0.025866
O O12 0.708025 0.675136 0.744351
O O13 0.929628 0.036372 0.804216
O O14 0.722157 0.854746 0.643431
#
# Coordination Sequence:
#
# PCOD9239602 Si02
#       7
#     4   4   4   4   4   4   4
#     4  11  22  37  61  93 120 154 212 253 299 368
#     4  10  17  38  64  90 119 161 207 258 306 346
#     4  10  19  37  62  89 125 156 202 265 297 362
#     4   9  17  35  64  90 112 158 214 251 293 361
#     4  10  23  39  63  87 126 163 200 253 319 357
#     4  11  18  38  63  90 120 157 203 260 306 359
#     4  11  24  38  61  92 127 162 202 251 314 365
#
# _framework density 25.385297999999999
#
# number of rings (size 3 to 8) (size 9 to 14) (size 15 to 20)
#    0.000    1.714    5.714    2.571    2.000    0.571 
#    0.000    2.857    3.143    7.714    0.000    0.000 
#    0.000    0.000    0.000    0.000    0.000    0.000 
#
# Total GULP energy -156825.554778 kJ/mol
# GULP energy per Si atom -5600.912671 kJ/mol
# Density = 2.532752 g / cm^3
# Si number density = 25.385298 Si / 1000 Ang^3
#
#
#
# Elastic Constant Matrix: (Units=GPa)
#
#
# Indices 1 2 3 4 5 6 
#
# 1 147.7904 69.1571 25.2633 0.0000 23.9746 0.0000
# 2 69.1571 104.8480 16.3086 0.0000 16.6628 0.0000
# 3 25.2633 16.3086 47.0225 0.0000 14.2981 0.0000
# 4 0.0000 0.0000 0.0000 21.2539 0.0000 1.3824
# 5 23.9746 16.6628 14.2981 0.0000 35.4308 0.0000
# 6 0.0000 0.0000 0.0000 1.3824 0.0000 63.1036
#
#
#
# Elastic Compliance Matrix: (Units=1/GPa)
#
#
# Indices 1 2 3 4 5 6 
#
# 1 0.010569 -0.006050 -0.002588 0.000000 -0.003262 0.000000
# 2 -0.006050 0.014014 -0.000970 0.000000 -0.002105 0.000000
# 3 -0.002588 -0.000970 0.025444 0.000000 -0.008061 0.000000
# 4 0.000000 0.000000 0.000000 0.047117 0.000000 -0.001032
# 5 -0.003262 -0.002105 -0.008061 0.000000 0.034674 0.000000
# 6 0.000000 0.000000 0.000000 -0.001032 0.000000 0.015870
#
#
# Mechanical properties :
#
#
# Convention : Reuss Voigt Hill
#
# Bulk Modulus (GPa) = 32.45594 57.90209 45.17901
# Shear Modulus (GPa) = 28.22073 36.55310 32.38692
#
# Velocity S-wave (km/s) = 3.33783 3.79876 3.57573
# Velocity P-wave (km/s) = 5.26003 6.48842 5.90625
#
# Compressibility (1/GPa) = 0.03081100
#
# Stress axis : x y z
#
# Youngs Moduli (GPa) = 94.61553 71.35836 39.30164
#
# Poissons Ratio (x) = 0.43174 0.10172
# Poissons Ratio (y) = 0.57246 0.03811
# Poissons Ratio (z) = 0.24487 0.06919
#
# Static dielectric constant tensor:
#      x y z
#    x 1.977170 0.000000 0.019150 
#    y 0.000000 2.027440 0.000000 
#    z 0.019150 0.000000 2.070220 
# 
# From -- ./inp_files/48792.got.cif
#   From: 2010.05.17/outbox.cif.g08.bks.cpg/sg14_25_cif.got.tgz:48792.got - 2010.06.03 17:49:19.
