data_PCOD9239638
_publ_section_title
;
Structure prediction by ZEFSAII (Michael W. Deem and Ramdas Pophale) SiO2 
 PCOD9239638
Probable space group: P 21/C
;
_chemical_formula_sum "Si O2"
_cell_formula_units_Z 32
_cell_length_a 11.341498
_cell_length_b 19.785562
_cell_length_c 8.411392
_cell_angle_alpha 90.000000
_cell_angle_beta 56.616607
_cell_angle_gamma 90.000000
_cell_volume 1576.075434
_symmetry_space_group_name_H-M "P 21/C"
_symmetry_group_IT_number 14
_symmetry_cell_setting 'monoclinic'
loop_
_space_group_symop_operation_xyz
x,y,z
-x,1/2+y,1/2-z
-x,-y,-z
x,1/2-y,1/2+z
loop_
_atom_site_type_symbol
_atom_site_label
_atom_site_fract_x
_atom_site_fract_y
_atom_site_fract_z
Si Si1 0.015964 0.867811 0.759306
Si Si2 0.740275 0.425597 0.064467
Si Si3 0.197960 0.147762 0.607756
Si Si4 0.347275 0.031294 0.604984
Si Si5 0.207550 0.017198 0.177309
Si Si6 0.054998 0.566512 0.553308
Si Si7 0.587099 0.605286 0.629839
Si Si8 0.219839 0.220978 0.930719
O O1 0.150470 0.864942 0.545000
O O2 0.919481 0.929799 0.762949
O O3 0.071220 0.881280 0.897861
O O4 0.909628 0.806862 0.866803
O O5 0.742018 0.470242 0.901052
O O6 0.794652 0.476766 0.157836
O O7 0.579757 0.403274 0.221383
O O8 0.326026 0.094662 0.505284
O O9 0.210145 0.194004 0.757663
O O10 0.208935 0.198810 0.454196
O O11 0.061715 0.100063 0.741947
O O12 0.326932 0.066844 0.790221
O O13 0.500000 0.000000 0.500000
O O14 0.186160 0.958584 0.059861
O O15 0.350272 0.061659 0.060931
O O16 0.000000 0.500000 0.500000
O O17 0.642685 0.682093 0.598998
#
# Coordination Sequence:
#
# PCOD9239638 Si02
#       8
#     4   4   4   4   4   4   4   4
#     4   9  18  32  49  71 103 138 170 211 259 325
#     4  11  19  29  52  80 104 134 174 225 266 299
#     4  10  19  34  57  78 104 139 179 223 259 323
#     4   9  18  32  52  77 101 136 180 218 268 320
#     4  10  18  29  48  78 107 131 172 226 268 300
#     4   9  17  32  53  75 102 135 171 215 272 316
#     4   9  19  35  50  70 109 145 169 209 262 326
#     4   9  20  35  53  75  98 136 177 209 258 313
#
# _framework density 20.303597
#
# number of rings (size 3 to 8) (size 9 to 14) (size 15 to 20)
#    0.000    2.500    0.000    5.250    0.000    3.000 
#    0.000    0.000    0.000   18.000    0.000    0.000 
#    0.000    0.000    0.000    0.000    0.000    0.000 
#
# Total GULP energy -178138.825055 kJ/mol
# GULP energy per Si atom -5566.838283 kJ/mol
# Density = 2.025739 g / cm^3
# Si number density = 20.303597 Si / 1000 Ang^3
#
#
#
# Elastic Constant Matrix: (Units=GPa)
#
#
# Indices 1 2 3 4 5 6 
#
# 1 53.4560 11.0004 21.1598 0.0000 -12.6701 0.0000
# 2 11.0004 65.8507 8.1804 0.0000 -12.9993 0.0000
# 3 21.1598 8.1804 56.5513 0.0000 -21.4209 0.0000
# 4 0.0000 0.0000 0.0000 33.5803 0.0000 7.1519
# 5 -12.6701 -12.9993 -21.4209 0.0000 26.3331 0.0000
# 6 0.0000 0.0000 0.0000 7.1519 0.0000 18.4282
#
#
#
# Elastic Compliance Matrix: (Units=1/GPa)
#
#
# Indices 1 2 3 4 5 6 
#
# 1 0.022802 -0.002081 -0.006452 0.000000 0.004695 0.000000
# 2 -0.002081 0.017057 0.001621 0.000000 0.008737 0.000000
# 3 -0.006452 0.001621 0.027447 0.000000 0.020023 0.000000
# 4 0.000000 0.000000 0.000000 0.032463 0.000000 -0.012599
# 5 0.004695 0.008737 0.020023 0.000000 0.060835 0.000000
# 6 0.000000 0.000000 0.000000 -0.012599 0.000000 0.059154
#
#
# Mechanical properties :
#
#
# Convention : Reuss Voigt Hill
#
# Bulk Modulus (GPa) = 18.69792 28.50436 23.60114
# Shear Modulus (GPa) = 19.88783 24.70280 22.29532
#
# Velocity S-wave (km/s) = 3.13313 3.49187 3.31735
# Velocity P-wave (km/s) = 4.72417 5.50700 5.13054
#
# Compressibility (1/GPa) = 0.05348188
#
# Stress axis : x y z
#
# Youngs Moduli (GPa) = 43.85555 58.62724 36.43349
#
# Poissons Ratio (x) = 0.12198 0.23508
# Poissons Ratio (y) = 0.09125 -0.05905
# Poissons Ratio (z) = 0.28297 -0.09502
#
# Static dielectric constant tensor:
#      x y z
#    x 1.767870 0.000000 0.033220 
#    y 0.000000 1.782060 0.000000 
#    z 0.033220 0.000000 1.797210 
# 
# From -- ./inp_files/14309.got.cif
#   From: 2010.05.17/outbox.cif.g08.bks.cpg/sg14_8_cif.got.tgz:14309.got - 2010.06.03 17:49:19.
