data_PCOD9239706
_publ_section_title
;
Structure prediction by ZEFSAII (Michael W. Deem and Ramdas Pophale) SiO2 
 PCOD9239706
Probable space group: P 21/C
;
_chemical_formula_sum "Si O2"
_cell_formula_units_Z 30
_cell_length_a 7.585500
_cell_length_b 17.004381
_cell_length_c 11.496412
_cell_angle_alpha 90.000000
_cell_angle_beta 109.919516
_cell_angle_gamma 90.000000
_cell_volume 1394.166791
_symmetry_space_group_name_H-M "P 21/C"
_symmetry_group_IT_number 14
_symmetry_cell_setting 'monoclinic'
loop_
_space_group_symop_operation_xyz
x,y,z
-x,1/2+y,1/2-z
-x,-y,-z
x,1/2-y,1/2+z
loop_
_atom_site_type_symbol
_atom_site_label
_atom_site_fract_x
_atom_site_fract_y
_atom_site_fract_z
Si Si1 0.586058 0.375235 0.842682
Si Si2 0.341970 0.354592 0.570273
Si Si3 0.958051 0.904886 0.165600
Si Si4 0.666691 0.549275 0.794641
Si Si5 0.000000 0.000000 0.000000
Si Si6 0.349814 0.902120 0.044678
Si Si7 0.228828 0.727090 0.692934
Si Si8 0.439448 0.315952 0.057066
O O1 0.408158 0.362013 0.716373
O O2 0.658064 0.463735 0.848995
O O3 0.752303 0.317766 0.834856
O O4 0.514780 0.348086 0.952361
O O5 0.157738 0.403530 0.487514
O O6 0.514403 0.387164 0.533523
O O7 0.316953 0.263998 0.525528
O O8 0.838144 0.929958 0.247267
O O9 0.045388 0.818796 0.195559
O O10 0.099452 0.969782 0.150780
O O11 0.487104 0.557177 0.669147
O O12 0.657963 0.615389 0.891782
O O13 0.835257 0.052280 0.032902
O O14 0.290303 0.820052 0.090687
O O15 0.383137 0.710698 0.825774
#
# Coordination Sequence:
#
# PCOD9239706 Si02
#       8
#     4   4   4   4   2   4   4   4
#     4  11  20  36  62  90 112 160 197 238 297 367
#     4  10  20  36  64  88 114 153 205 248 290 353
#     4  10  21  39  60  91 119 153 196 258 299 347
#     4  10  21  37  62  85 123 154 201 248 301 355
#     4  10  18  30  58  90 122 146 186 246 312 340
#     4   9  17  35  58  88 118 151 192 251 295 347
#     4   9  20  38  60  81 119 158 191 237 304 352
#     4  10  21  39  60  84 118 160 195 242 295 367
#
# _framework density 21.518229999999999
#
# number of rings (size 3 to 8) (size 9 to 14) (size 15 to 20)
#    0.000    2.133    1.333    2.000    1.867    2.133 
#    2.400    0.667   14.667    0.000    0.000    0.000 
#    0.000    0.000    0.000    0.000    0.000    0.000 
#
# Total GULP energy -167090.013765 kJ/mol
# GULP energy per Si atom -5569.667126 kJ/mol
# Density = 2.146925 g / cm^3
# Si number density = 21.518230 Si / 1000 Ang^3
#
#
#
# Elastic Constant Matrix: (Units=GPa)
#
#
# Indices 1 2 3 4 5 6 
#
# 1 51.0712 25.8991 13.9556 0.0000 -25.0559 0.0000
# 2 25.8991 147.9374 26.2921 0.0000 -17.2028 0.0000
# 3 13.9556 26.2921 67.8262 0.0000 -29.2843 0.0000
# 4 0.0000 0.0000 0.0000 14.6884 0.0000 -0.1825
# 5 -25.0559 -17.2028 -29.2843 0.0000 32.9349 0.0000
# 6 0.0000 0.0000 0.0000 -0.1825 0.0000 34.1640
#
#
#
# Elastic Compliance Matrix: (Units=1/GPa)
#
#
# Indices 1 2 3 4 5 6 
#
# 1 0.034846 -0.003842 0.007951 0.000000 0.031573 0.000000
# 2 -0.003842 0.007773 -0.002811 0.000000 -0.001362 0.000000
# 3 0.007951 -0.002811 0.026254 0.000000 0.027925 0.000000
# 4 0.000000 0.000000 0.000000 0.068085 0.000000 0.000364
# 5 0.031573 -0.001362 0.027925 0.000000 0.078501 0.000000
# 6 0.000000 0.000000 0.000000 0.000364 0.000000 0.029273
#
#
# Mechanical properties :
#
#
# Convention : Reuss Voigt Hill
#
# Bulk Modulus (GPa) = 13.99185 44.34761 29.16973
# Shear Modulus (GPa) = 18.79994 29.73666 24.26830
#
# Velocity S-wave (km/s) = 2.95901 3.72146 3.36192
# Velocity P-wave (km/s) = 4.26506 6.25458 5.35306
#
# Compressibility (1/GPa) = 0.07147018
#
# Stress axis : x y z
#
# Youngs Moduli (GPa) = 28.69767 128.64350 38.08981
#
# Poissons Ratio (x) = 0.49427 -0.30287
# Poissons Ratio (y) = 0.11026 0.10706
# Poissons Ratio (z) = -0.22819 0.36159
#
# Static dielectric constant tensor:
#      x y z
#    x 0.932860 0.000000 0.191130 
#    y 0.000000 1.118760 0.000000 
#    z 0.191130 0.000000 1.745630 
# 
# From -- ./inp_files/25818.got.cif
#   From: 2010.05.17/outbox.cif.g08.bks.cpg/sg14_13_cif.got.tgz:25818.got - 2010.06.03 17:49:19.
