data_PCOD9239506
_publ_section_title
;
Structure prediction by ZEFSAII (Michael W. Deem and Ramdas Pophale) SiO2 
 PCOD9239506
Probable space group: P 21/C
;
_chemical_formula_sum "Si O2"
_cell_formula_units_Z 32
_cell_length_a 17.264554
_cell_length_b 17.331491
_cell_length_c 10.163601
_cell_angle_alpha 90.000000
_cell_angle_beta 149.516242
_cell_angle_gamma 90.000000
_cell_volume 1542.761174
_symmetry_space_group_name_H-M "P 21/C"
_symmetry_group_IT_number 14
_symmetry_cell_setting 'monoclinic'
loop_
_space_group_symop_operation_xyz
x,y,z
-x,1/2+y,1/2-z
-x,-y,-z
x,1/2-y,1/2+z
loop_
_atom_site_type_symbol
_atom_site_label
_atom_site_fract_x
_atom_site_fract_y
_atom_site_fract_z
Si Si1 0.750000 0.268070 0.750000
Si Si2 0.973844 0.492957 0.728876
Si Si3 0.027798 0.638714 0.490507
Si Si4 0.750000 0.891992 0.750000
Si Si5 0.472202 0.861285 0.509493
Si Si6 0.257705 0.593208 0.452834
Si Si7 0.242295 0.906792 0.547166
Si Si8 0.526156 0.007043 0.271124
O O1 0.896957 0.212710 0.966878
O O2 0.603044 0.212710 0.533123
O O3 0.761517 0.324377 0.642616
O O4 0.738483 0.324377 0.857384
O O5 0.001082 0.428524 0.656623
O O6 0.847722 0.552718 0.488706
O O7 0.898932 0.449490 0.741867
O O8 0.128103 0.541425 0.967134
O O9 0.152479 0.606710 0.777662
O O10 0.873521 0.654333 0.345666
O O11 0.626479 0.845667 0.654334
O O12 0.652278 0.947283 0.511294
O O13 0.347521 0.893290 0.222339
O O14 0.501082 0.928524 0.656625
O O15 0.371897 0.541425 0.532865
O O16 0.398932 0.949491 0.741867
#
# Coordination Sequence:
#
# PCOD9239506 Si02
#       8
#     4   4   4   4   4   4   4   4
#     4  12  25  38  54  89 124 160 172 238 303 346
#     4  11  18  37  64  89 107 150 200 247 267 337
#     4  11  20  36  62  88 114 150 197 235 287 336
#     4  10  17  34  60  93 104 140 204 246 269 320
#     4  11  20  36  62  88 114 150 197 235 287 336
#     4  11  22  37  61  85 120 147 200 232 287 339
#     4  11  22  37  61  85 120 147 200 232 287 339
#     4  11  18  37  64  89 107 150 200 247 267 337
#
# _framework density 20.742031999999998
#
# number of rings (size 3 to 8) (size 9 to 14) (size 15 to 20)
#    0.000    1.000    7.500    2.250    0.000    1.000 
#    0.000    7.500    0.000    0.000    0.000    0.000 
#    0.000    0.000    0.000    0.000    0.000    0.000 
#
# Total GULP energy -178941.861323 kJ/mol
# GULP energy per Si atom -5591.933166 kJ/mol
# Density = 2.069482 g / cm^3
# Si number density = 20.742032 Si / 1000 Ang^3
#
#
#
# Elastic Constant Matrix: (Units=GPa)
#
#
# Indices 1 2 3 4 5 6 
#
# 1 90.7974 30.4797 19.4968 0.0000 36.5420 0.0000
# 2 30.4797 92.8251 22.3287 0.0000 14.2611 0.0000
# 3 19.4968 22.3287 45.8557 0.0000 11.1140 0.0000
# 4 0.0000 0.0000 0.0000 6.9180 0.0000 -2.6377
# 5 36.5420 14.2611 11.1140 0.0000 37.7494 0.0000
# 6 0.0000 0.0000 0.0000 -2.6377 0.0000 47.7629
#
#
#
# Elastic Compliance Matrix: (Units=1/GPa)
#
#
# Indices 1 2 3 4 5 6 
#
# 1 0.019408 -0.003154 -0.002640 0.000000 -0.016818 0.000000
# 2 -0.003154 0.013057 -0.004912 0.000000 -0.000434 0.000000
# 3 -0.002640 -0.004912 0.026116 0.000000 -0.003278 0.000000
# 4 0.000000 0.000000 0.000000 0.147659 0.000000 0.008155
# 5 -0.016818 -0.000434 -0.003278 0.000000 0.043900 0.000000
# 6 0.000000 0.000000 0.000000 0.008155 0.000000 0.021387
#
#
# Mechanical properties :
#
#
# Convention : Reuss Voigt Hill
#
# Bulk Modulus (GPa) = 26.90355 41.56541 34.23448
# Shear Modulus (GPa) = 16.37591 28.96428 22.67010
#
# Velocity S-wave (km/s) = 2.81286 3.74090 3.30957
# Velocity P-wave (km/s) = 4.85266 6.22430 5.58078
#
# Compressibility (1/GPa) = 0.03716981
#
# Stress axis : x y z
#
# Youngs Moduli (GPa) = 51.52606 76.58951 38.29057
#
# Poissons Ratio (x) = 0.24155 0.10108
# Poissons Ratio (y) = 0.16250 0.18807
# Poissons Ratio (z) = 0.13602 0.37619
#
# Static dielectric constant tensor:
#      x y z
#    x 1.800410 0.000000 -0.011430 
#    y 0.000000 1.702000 0.000000 
#    z -0.011430 0.000000 1.743050 
# 
# From -- ./inp_files/34257.got.cif
#   From: 2010.05.17/outbox.cif.g08.bks.cpg/sg14_18_cif.got.tgz:34257.got - 2010.06.03 17:49:19.
