data_PCOD9239557
_publ_section_title
;
Structure prediction by ZEFSAII (Michael W. Deem and Ramdas Pophale) SiO2 
 PCOD9239557
Probable space group: P 21/C
;
_chemical_formula_sum "Si O2"
_cell_formula_units_Z 32
_cell_length_a 10.367816
_cell_length_b 10.211684
_cell_length_c 14.067862
_cell_angle_alpha 90.000000
_cell_angle_beta 63.262472
_cell_angle_gamma 90.000000
_cell_volume 1330.153015
_symmetry_space_group_name_H-M "P 21/C"
_symmetry_group_IT_number 14
_symmetry_cell_setting 'monoclinic'
loop_
_space_group_symop_operation_xyz
x,y,z
-x,1/2+y,1/2-z
-x,-y,-z
x,1/2-y,1/2+z
loop_
_atom_site_type_symbol
_atom_site_label
_atom_site_fract_x
_atom_site_fract_y
_atom_site_fract_z
Si Si1 0.812703 0.070868 0.984733
Si Si2 0.017410 0.700350 0.157194
Si Si3 0.212692 0.288013 0.600601
Si Si4 0.533656 0.251095 0.064142
Si Si5 0.682974 0.415703 0.875356
Si Si6 0.181974 0.349150 0.925334
Si Si7 0.273379 0.065582 0.815700
Si Si8 0.486001 0.112825 0.269244
O O1 0.938825 0.160590 0.902335
O O2 0.813035 0.929568 0.937882
O O3 0.666358 0.149705 0.005347
O O4 0.820983 0.044425 0.095937
O O5 0.889366 0.712275 0.274461
O O6 0.958308 0.615007 0.088261
O O7 0.159888 0.643266 0.158280
O O8 0.383935 0.280264 0.562017
O O9 0.167938 0.174060 0.541468
O O10 0.497089 0.225568 0.186600
O O11 0.595558 0.388875 0.002366
O O12 0.716340 0.546411 0.801834
O O13 0.579352 0.346572 0.830921
O O14 0.324971 0.427244 0.850448
O O15 0.228923 0.205104 0.868990
O O16 0.430907 0.014987 0.797459
#
# Coordination Sequence:
#
# PCOD9239557 Si02
#       8
#     4   4   4   4   4   4   4   4
#     4   9  21  35  57  88 114 147 197 237 289 343
#     4  11  24  34  54  91 116 150 187 244 294 340
#     4  11  21  35  62  84 118 149 190 250 284 335
#     4  10  17  36  59  89 110 152 195 236 288 344
#     4   9  20  37  55  80 121 151 185 236 295 334
#     4  11  21  36  61  89 113 149 203 238 282 344
#     4   8  19  36  62  80 115 152 194 238 283 335
#     4   9  18  36  57  84 119 145 192 240 288 338
#
# _framework density 24.057382
#
# number of rings (size 3 to 8) (size 9 to 14) (size 15 to 20)
#    0.750    1.500    2.500    0.375    3.500    1.000 
#    0.000    0.625    0.000    0.750    0.000    0.000 
#    0.000    0.000    0.000    0.000    0.000    0.000 
#
# Total GULP energy -178544.354189 kJ/mol
# GULP energy per Si atom -5579.511068 kJ/mol
# Density = 2.400263 g / cm^3
# Si number density = 24.057382 Si / 1000 Ang^3
#
#
#
# Elastic Constant Matrix: (Units=GPa)
#
#
# Indices 1 2 3 4 5 6 
#
# 1 122.9350 -1.5973 20.3060 0.0000 3.1093 0.0000
# 2 -1.5973 40.7267 5.3344 0.0000 -6.2323 0.0000
# 3 20.3060 5.3344 104.4778 0.0000 3.0636 0.0000
# 4 0.0000 0.0000 0.0000 31.6708 0.0000 8.7045
# 5 3.1093 -6.2323 3.0636 0.0000 36.3181 0.0000
# 6 0.0000 0.0000 0.0000 8.7045 0.0000 20.9434
#
#
#
# Elastic Compliance Matrix: (Units=1/GPa)
#
#
# Indices 1 2 3 4 5 6 
#
# 1 0.008425 0.000469 -0.001647 0.000000 -0.000502 0.000000
# 2 0.000469 0.025454 -0.001521 0.000000 0.004456 0.000000
# 3 -0.001647 -0.001521 0.009997 0.000000 -0.000963 0.000000
# 4 0.000000 0.000000 0.000000 0.035647 0.000000 -0.014816
# 5 -0.000502 0.004456 -0.000963 0.000000 0.028423 0.000000
# 6 0.000000 0.000000 0.000000 -0.014816 0.000000 0.053905
#
#
# Mechanical properties :
#
#
# Convention : Reuss Voigt Hill
#
# Bulk Modulus (GPa) = 25.98868 35.13619 30.56243
# Shear Modulus (GPa) = 27.76612 34.05954 30.91283
#
# Velocity S-wave (km/s) = 3.40098 3.76674 3.58853
# Velocity P-wave (km/s) = 5.12333 5.79264 5.46823
#
# Compressibility (1/GPa) = 0.03847829
#
# Stress axis : x y z
#
# Youngs Moduli (GPa) = 118.69190 39.28732 100.02600
#
# Poissons Ratio (x) = -0.01844 0.16472
# Poissons Ratio (y) = -0.05571 0.15219
# Poissons Ratio (z) = 0.19545 0.05978
#
# Static dielectric constant tensor:
#      x y z
#    x 1.959300 0.000000 0.008240 
#    y 0.000000 1.951030 0.000000 
#    z 0.008240 0.000000 1.967220 
# 
# From -- ./inp_files/44796.got.cif
#   From: 2010.05.17/outbox.cif.g08.bks.cpg/sg14_23_cif.got.tgz:44796.got - 2010.06.03 17:49:19.
