data_PCOD9239442
_publ_section_title
;
Structure prediction by ZEFSAII (Michael W. Deem and Ramdas Pophale) SiO2 
 PCOD9239442
Probable space group: P 21/C
;
_chemical_formula_sum "Si O2"
_cell_formula_units_Z 32
_cell_length_a 30.040258
_cell_length_b 8.604906
_cell_length_c 24.825438
_cell_angle_alpha 90.000000
_cell_angle_beta 13.071738
_cell_angle_gamma 90.000000
_cell_volume 1451.387377
_symmetry_space_group_name_H-M "P 21/C"
_symmetry_group_IT_number 14
_symmetry_cell_setting 'monoclinic'
loop_
_space_group_symop_operation_xyz
x,y,z
-x,1/2+y,1/2-z
-x,-y,-z
x,1/2-y,1/2+z
loop_
_atom_site_type_symbol
_atom_site_label
_atom_site_fract_x
_atom_site_fract_y
_atom_site_fract_z
Si Si1 0.725469 0.138878 0.552306
Si Si2 0.361466 0.345791 0.274930
Si Si3 0.478857 0.524235 0.805843
Si Si4 0.593462 0.377926 0.848337
Si Si5 0.775853 0.717676 0.396474
Si Si6 0.621599 0.378000 0.392804
Si Si7 0.030382 0.342744 0.228659
Si Si8 0.337286 0.143681 0.080383
O O1 0.680028 0.114172 0.543541
O O2 0.535394 0.099704 0.812652
O O3 0.814377 0.303996 0.462318
O O4 0.895269 0.016469 0.366079
O O5 0.500762 0.405790 0.159100
O O6 0.294849 0.501036 0.321913
O O7 0.480100 0.229019 0.096372
O O8 0.185209 0.252234 0.509370
O O9 0.680479 0.564560 0.536404
O O10 0.398191 0.349364 0.899840
O O11 0.420969 0.284619 0.018966
O O12 0.500000 0.500000 0.000000
O O13 0.706764 0.245683 0.749151
O O14 0.932661 0.783190 0.253899
O O15 0.814995 0.689721 0.287297
O O16 0.500000 0.500000 0.500000
O O17 0.732032 0.496400 0.302825
#
# Coordination Sequence:
#
# PCOD9239442 Si02
#       8
#     4   4   4   4   4   4   4   4
#     4  10  21  33  47  74 106 138 164 191 240 309
#     4  10  17  33  52  76 104 127 162 211 250 288
#     4   9  18  30  48  73 101 129 164 200 244 297
#     4   9  18  29  51  79  97 122 168 212 256 289
#     4   9  18  30  48  73 100 131 162 200 245 296
#     4   9  18  31  49  77 101 122 166 216 255 285
#     4  10  21  33  47  74 107 135 165 192 239 309
#     4  10  17  33  52  74 106 129 158 210 253 284
#
# _framework density 22.047871000000001
#
# number of rings (size 3 to 8) (size 9 to 14) (size 15 to 20)
#    0.000    2.500    2.500    0.000    3.500    1.000 
#    0.000    0.000    0.000    0.000    0.000   35.000 
#    0.000    0.000    0.000    0.000    0.000    0.000 
#
# Total GULP energy -178393.035083 kJ/mol
# GULP energy per Si atom -5574.782346 kJ/mol
# Density = 2.199769 g / cm^3
# Si number density = 22.047871 Si / 1000 Ang^3
#
#
#
# Elastic Constant Matrix: (Units=GPa)
#
#
# Indices 1 2 3 4 5 6 
#
# 1 125.4068 52.3307 8.0453 0.0000 9.3474 0.0000
# 2 52.3307 118.6976 10.0614 0.0000 10.3172 0.0000
# 3 8.0453 10.0614 22.7833 0.0000 1.5661 0.0000
# 4 0.0000 0.0000 0.0000 32.5293 0.0000 12.9953
# 5 9.3474 10.3172 1.5661 0.0000 20.7301 0.0000
# 6 0.0000 0.0000 0.0000 12.9953 0.0000 49.7829
#
#
#
# Elastic Compliance Matrix: (Units=1/GPa)
#
#
# Indices 1 2 3 4 5 6 
#
# 1 0.009937 -0.004044 -0.001561 0.000000 -0.002350 0.000000
# 2 -0.004044 0.010757 -0.003096 0.000000 -0.003296 0.000000
# 3 -0.001561 -0.003096 0.045894 0.000000 -0.001223 0.000000
# 4 0.000000 0.000000 0.000000 0.034321 0.000000 -0.008959
# 5 -0.002350 -0.003296 -0.001223 0.000000 0.051031 0.000000
# 6 0.000000 0.000000 0.000000 -0.008959 0.000000 0.022426
#
#
# Mechanical properties :
#
#
# Convention : Reuss Voigt Hill
#
# Bulk Modulus (GPa) = 20.33130 45.30696 32.81913
# Shear Modulus (GPa) = 24.01956 33.70515 28.86235
#
# Velocity S-wave (km/s) = 3.30423 3.91413 3.62204
# Velocity P-wave (km/s) = 4.87839 6.40478 5.69297
#
# Compressibility (1/GPa) = 0.04918525
#
# Stress axis : x y z
#
# Youngs Moduli (GPa) = 100.63356 92.96516 21.78924
#
# Poissons Ratio (x) = 0.37599 0.03402
# Poissons Ratio (y) = 0.40700 0.06745
# Poissons Ratio (z) = 0.15713 0.28778
#
# Static dielectric constant tensor:
#      x y z
#    x 1.870890 0.000000 0.002690 
#    y 0.000000 1.864480 0.000000 
#    z 0.002690 0.000000 1.802830 
# 
# From -- ./inp_files/75195.got.cif
#   From: 2010.05.17/outbox.cif.g08.bks.cpg/sg14_38_cif.got.tgz:75195.got - 2010.06.03 17:49:19.
