data_PCOD9239541
_publ_section_title
;
Structure prediction by ZEFSAII (Michael W. Deem and Ramdas Pophale) SiO2 
 PCOD9239541
Probable space group: P 21/C
;
_chemical_formula_sum "Si O2"
_cell_formula_units_Z 32
_cell_length_a 8.823435
_cell_length_b 11.253692
_cell_length_c 15.405753
_cell_angle_alpha 90.000000
_cell_angle_beta 53.410993
_cell_angle_gamma 90.000000
_cell_volume 1228.271384
_symmetry_space_group_name_H-M "P 21/C"
_symmetry_group_IT_number 14
_symmetry_cell_setting 'monoclinic'
loop_
_space_group_symop_operation_xyz
x,y,z
-x,1/2+y,1/2-z
-x,-y,-z
x,1/2-y,1/2+z
loop_
_atom_site_type_symbol
_atom_site_label
_atom_site_fract_x
_atom_site_fract_y
_atom_site_fract_z
Si Si1 0.074130 0.269197 0.701920
Si Si2 0.504314 0.610935 0.304834
Si Si3 0.689820 0.280294 0.885272
Si Si4 0.291603 0.819171 0.427690
Si Si5 0.679362 0.949786 0.340368
Si Si6 0.888142 0.836125 0.608852
Si Si7 0.389253 0.121370 0.036679
Si Si8 0.178234 0.437588 0.396745
O O1 0.204633 0.151786 0.648182
O O2 0.064696 0.323630 0.803560
O O3 0.165000 0.365416 0.605752
O O4 0.855730 0.237491 0.766177
O O5 0.362626 0.721207 0.333930
O O6 0.684825 0.596975 0.180359
O O7 0.591958 0.652070 0.366695
O O8 0.373666 0.496413 0.362881
O O9 0.666358 0.421658 0.887465
O O10 0.732306 0.248614 0.971807
O O11 0.495397 0.212371 0.938460
O O12 0.472034 0.903621 0.383080
O O13 0.080493 0.873148 0.492673
O O14 0.802982 0.964274 0.211837
O O15 0.840314 0.703727 0.592384
O O16 0.500000 0.000000 0.000000
O O17 0.000000 0.500000 0.500000
#
# Coordination Sequence:
#
# PCOD9239541 Si02
#       8
#     4   4   4   4   4   4   4   4
#     4   9  19  34  56  86 113 156 192 243 299 362
#     4  10  19  37  56  85 116 153 206 244 300 369
#     4  10  21  34  59  87 118 156 197 251 299 362
#     4  10  17  35  63  82 113 153 199 244 302 367
#     4  11  21  38  59  90 121 155 211 252 302 363
#     4   9  18  36  57  85 112 152 203 239 299 359
#     4  10  21  37  56  86 122 156 197 248 308 362
#     4  11  21  34  62  85 113 162 205 252 292 358
#
# _framework density 26.052873000000002
#
# number of rings (size 3 to 8) (size 9 to 14) (size 15 to 20)
#    0.000    2.000    6.250    0.375    3.500    0.000 
#    2.250    0.625    0.000    0.000    0.000    0.000 
#    0.000    0.000    0.000    0.000    0.000    0.000 
#
# Total GULP energy -178526.186528 kJ/mol
# GULP energy per Si atom -5578.943329 kJ/mol
# Density = 2.599358 g / cm^3
# Si number density = 26.052873 Si / 1000 Ang^3
#
#
#
# Elastic Constant Matrix: (Units=GPa)
#
#
# Indices 1 2 3 4 5 6 
#
# 1 63.3517 19.2912 40.8311 0.0000 -20.1194 0.0000
# 2 19.2912 86.1683 47.8241 0.0000 -25.6949 0.0000
# 3 40.8311 47.8241 203.1201 0.0000 -81.5418 0.0000
# 4 0.0000 0.0000 0.0000 31.7349 0.0000 -5.0471
# 5 -20.1194 -25.6949 -81.5418 0.0000 57.4919 0.0000
# 6 0.0000 0.0000 0.0000 -5.0471 0.0000 31.1702
#
#
#
# Elastic Compliance Matrix: (Units=1/GPa)
#
#
# Indices 1 2 3 4 5 6 
#
# 1 0.018675 -0.002219 -0.002336 0.000000 0.002230 0.000000
# 2 -0.002219 0.013924 -0.001500 0.000000 0.003319 0.000000
# 3 -0.002336 -0.001500 0.011956 0.000000 0.015470 0.000000
# 4 0.000000 0.000000 0.000000 0.032344 0.000000 0.005237
# 5 0.002230 0.003319 0.015470 0.000000 0.041599 0.000000
# 6 0.000000 0.000000 0.000000 0.005237 0.000000 0.032930
#
#
# Mechanical properties :
#
#
# Convention : Reuss Voigt Hill
#
# Bulk Modulus (GPa) = 30.82189 63.17034 46.99612
# Shear Modulus (GPa) = 28.67738 40.39232 34.53485
#
# Velocity S-wave (km/s) = 3.32134 3.94178 3.64478
# Velocity P-wave (km/s) = 5.15408 6.70943 5.98252
#
# Compressibility (1/GPa) = 0.03244447
#
# Stress axis : x y z
#
# Youngs Moduli (GPa) = 53.54870 71.81715 83.63786
#
# Poissons Ratio (x) = 0.15938 0.19541
# Poissons Ratio (y) = 0.11884 0.12543
# Poissons Ratio (z) = 0.12511 0.10771
#
# Static dielectric constant tensor:
#      x y z
#    x 2.262000 0.000000 -0.057520 
#    y 0.000000 2.024630 0.000000 
#    z -0.057520 0.000000 2.127590 
# 
# From -- ./inp_files/67255.got.cif
#   From: 2010.05.17/outbox.cif.g08.bks.cpg/sg14_34_cif.got.tgz:67255.got - 2010.06.03 17:49:19.
