data_PCOD9239450
_publ_section_title
;
Structure prediction by ZEFSAII (Michael W. Deem and Ramdas Pophale) SiO2 
 PCOD9239450
Probable space group: P 21/C
;
_chemical_formula_sum "Si O2"
_cell_formula_units_Z 24
_cell_length_a 8.824953
_cell_length_b 7.424354
_cell_length_c 20.970394
_cell_angle_alpha 90.000000
_cell_angle_beta 42.585195
_cell_angle_gamma 90.000000
_cell_volume 929.746793
_symmetry_space_group_name_H-M "P 21/C"
_symmetry_group_IT_number 14
_symmetry_cell_setting 'monoclinic'
loop_
_space_group_symop_operation_xyz
x,y,z
-x,1/2+y,1/2-z
-x,-y,-z
x,1/2-y,1/2+z
loop_
_atom_site_type_symbol
_atom_site_label
_atom_site_fract_x
_atom_site_fract_y
_atom_site_fract_z
Si Si1 0.320466 0.379498 0.908845
Si Si2 0.113407 0.598153 0.764795
Si Si3 0.286850 0.609582 0.125795
Si Si4 0.052884 0.644827 0.429792
Si Si5 0.500208 0.951632 0.236254
Si Si6 0.240024 0.525210 0.590122
O O1 0.455125 0.395206 0.934615
O O2 0.428813 0.540829 0.832999
O O3 0.388927 0.211006 0.840148
O O4 0.065622 0.328390 0.008349
O O5 0.192573 0.795922 0.719899
O O6 0.257603 0.525496 0.778141
O O7 0.195318 0.486043 0.677908
O O8 0.849066 0.568374 0.847655
O O9 0.212544 0.756586 0.096100
O O10 0.909741 0.579747 0.413132
O O11 0.000000 0.500000 0.500000
O O12 0.312834 0.609094 0.332202
O O13 0.500000 0.500000 0.500000
#
# Coordination Sequence:
#
# PCOD9239450 Si02
#       6
#     4   4   4   4   4   4
#     4  10  20  36  55  83 108 142 181 223 272 320
#     4   9  20  33  54  81 106 141 182 221 269 318
#     4   9  19  33  53  80 105 139 180 220 264 317
#     4  10  19  33  54  83 107 144 181 223 269 323
#     4  10  21  35  54  83 112 140 183 224 270 327
#     4  10  17  33  55  78 108 137 182 226 258 324
#
# _framework density 25.813482
#
# number of rings (size 3 to 8) (size 9 to 14) (size 15 to 20)
#    1.000    1.333    1.667    2.000    4.667    0.000 
#    0.000    0.833    0.000    1.000    0.000    0.000 
#    0.000    0.000    0.000    0.000    0.000    0.000 
#
# Total GULP energy -133622.863869 kJ/mol
# GULP energy per Si atom -5567.619328 kJ/mol
# Density = 2.575473 g / cm^3
# Si number density = 25.813482 Si / 1000 Ang^3
#
#
#
# Elastic Constant Matrix: (Units=GPa)
#
#
# Indices 1 2 3 4 5 6 
#
# 1 94.9552 16.0093 24.6274 0.0000 5.4552 0.0000
# 2 16.0093 49.5037 -2.8897 0.0000 -0.6285 0.0000
# 3 24.6274 -2.8897 135.4811 0.0000 -6.8314 0.0000
# 4 0.0000 0.0000 0.0000 38.7394 0.0000 2.7397
# 5 5.4552 -0.6285 -6.8314 0.0000 45.3805 0.0000
# 6 0.0000 0.0000 0.0000 2.7397 0.0000 25.3032
#
#
#
# Elastic Compliance Matrix: (Units=1/GPa)
#
#
# Indices 1 2 3 4 5 6 
#
# 1 0.011923 -0.004016 -0.002346 0.000000 -0.001842 0.000000
# 2 -0.004016 0.021584 0.001239 0.000000 0.000968 0.000000
# 3 -0.002346 0.001239 0.007909 0.000000 0.001490 0.000000
# 4 0.000000 0.000000 0.000000 0.026013 0.000000 -0.002817
# 5 -0.001842 0.000968 0.001490 0.000000 0.022495 0.000000
# 6 0.000000 0.000000 0.000000 -0.002817 0.000000 0.039826
#
#
# Mechanical properties :
#
#
# Convention : Reuss Voigt Hill
#
# Bulk Modulus (GPa) = 32.08178 39.49267 35.78723
# Shear Modulus (GPa) = 33.24815 38.03081 35.63948
#
# Velocity S-wave (km/s) = 3.59279 3.84251 3.71975
# Velocity P-wave (km/s) = 5.44666 5.91769 5.68705
#
# Compressibility (1/GPa) = 0.03117034
#
# Stress axis : x y z
#
# Youngs Moduli (GPa) = 83.87433 46.33080 126.43714
#
# Poissons Ratio (x) = 0.18607 0.29660
# Poissons Ratio (y) = 0.33684 -0.15668
# Poissons Ratio (z) = 0.19675 -0.05741
#
# Static dielectric constant tensor:
#      x y z
#    x 2.184970 0.000000 0.078510 
#    y 0.000000 2.641290 0.000000 
#    z 0.078510 0.000000 2.111280 
# 
# From -- ./inp_files/65326.got.cif
#   From: 2010.05.17/outbox.cif.g08.bks.cpg/sg14_33_cif.got.tgz:65326.got - 2010.06.03 17:49:19.
