data_PCOD9239843
_publ_section_title
;
Structure prediction by ZEFSAII (Michael W. Deem and Ramdas Pophale) SiO2 
 PCOD9239843
Probable space group: P 21/C
;
_chemical_formula_sum "Si O2"
_cell_formula_units_Z 32
_cell_length_a 11.361815
_cell_length_b 8.122597
_cell_length_c 13.864862
_cell_angle_alpha 90.000000
_cell_angle_beta 61.694676
_cell_angle_gamma 90.000000
_cell_volume 1126.560786
_symmetry_space_group_name_H-M "P 21/C"
_symmetry_group_IT_number 14
_symmetry_cell_setting 'monoclinic'
loop_
_space_group_symop_operation_xyz
x,y,z
-x,1/2+y,1/2-z
-x,-y,-z
x,1/2-y,1/2+z
loop_
_atom_site_type_symbol
_atom_site_label
_atom_site_fract_x
_atom_site_fract_y
_atom_site_fract_z
Si Si1 0.415831 0.634678 0.476283
Si Si2 0.595491 0.849558 0.165675
Si Si3 0.285081 0.675254 0.827383
Si Si4 0.204684 0.856434 0.584123
Si Si5 0.835462 0.534644 0.650398
Si Si6 0.040966 0.517695 0.872442
Si Si7 0.336195 0.302180 0.059736
Si Si8 0.915837 0.625041 0.397017
O O1 0.500000 0.500000 0.500000
O O2 0.389175 0.531995 0.389681
O O3 0.285294 0.696180 0.584947
O O4 0.525844 0.779373 0.436438
O O5 0.441750 0.835658 0.252010
O O6 0.625277 0.717036 0.069919
O O7 0.706149 0.847172 0.207564
O O8 0.250204 0.656038 0.954183
O O9 0.221594 0.849040 0.819769
O O10 0.199241 0.531851 0.809723
O O11 0.045403 0.877912 0.646855
O O12 0.269283 0.021054 0.601601
O O13 0.877986 0.587144 0.524283
O O14 0.971964 0.517602 0.659365
O O15 0.982933 0.695429 0.867132
O O16 0.000000 0.500000 0.000000
O O17 0.220318 0.160694 0.109028
#
# Coordination Sequence:
#
# PCOD9239843 Si02
#       8
#     4   4   4   4   4   4   4   4
#     4  10  20  35  52  76 105 146 183 219 259 320
#     4  10  20  32  50  79 112 142 170 220 285 338
#     4  10  19  30  52  79 115 139 168 229 293 335
#     4  10  18  32  55  79 102 137 185 230 270 318
#     4   9  16  30  49  75 107 135 173 222 275 327
#     4   8  16  30  49  78 106 137 173 222 277 326
#     4   9  19  32  52  77 105 140 188 223 260 322
#     4   8  15  29  51  76 100 134 179 227 262 314
#
# _framework density 28.405035999999999
#
# number of rings (size 3 to 8) (size 9 to 14) (size 15 to 20)
#    0.000    2.750    1.250    0.375    1.750    0.000 
#    0.000    0.000    0.000    9.000    6.500    0.000 
#    0.000    0.000    0.000    0.000    0.000    0.000 
#
# Total GULP energy -178834.448709 kJ/mol
# GULP energy per Si atom -5588.576522 kJ/mol
# Density = 2.834038 g / cm^3
# Si number density = 28.405036 Si / 1000 Ang^3
#
#
#
# Elastic Constant Matrix: (Units=GPa)
#
#
# Indices 1 2 3 4 5 6 
#
# 1 117.7996 40.0140 36.1961 0.0000 -36.6620 0.0000
# 2 40.0140 143.3858 14.3348 0.0000 -8.0919 0.0000
# 3 36.1961 14.3348 94.1892 0.0000 -2.9677 0.0000
# 4 0.0000 0.0000 0.0000 40.0319 0.0000 -3.3443
# 5 -36.6620 -8.0919 -2.9677 0.0000 52.8401 0.0000
# 6 0.0000 0.0000 0.0000 -3.3443 0.0000 41.5997
#
#
#
# Elastic Compliance Matrix: (Units=1/GPa)
#
#
# Indices 1 2 3 4 5 6 
#
# 1 0.013547 -0.002839 -0.004500 0.000000 0.008712 0.000000
# 2 -0.002839 0.007733 -0.000111 0.000000 -0.000792 0.000000
# 3 -0.004500 -0.000111 0.012286 0.000000 -0.002449 0.000000
# 4 0.000000 0.000000 0.000000 0.025149 0.000000 0.002022
# 5 0.008712 -0.000792 -0.002449 0.000000 0.024711 0.000000
# 6 0.000000 0.000000 0.000000 0.002022 0.000000 0.024201
#
#
# Mechanical properties :
#
#
# Convention : Reuss Voigt Hill
#
# Bulk Modulus (GPa) = 53.57010 59.60715 56.58863
# Shear Modulus (GPa) = 38.83549 44.54966 41.69257
#
# Velocity S-wave (km/s) = 3.70158 3.96456 3.83533
# Velocity P-wave (km/s) = 6.09666 6.47976 6.29113
#
# Compressibility (1/GPa) = 0.01866713
#
# Stress axis : x y z
#
# Youngs Moduli (GPa) = 73.81528 129.31806 81.39509
#
# Poissons Ratio (x) = 0.36715 0.36624
# Poissons Ratio (y) = 0.20957 0.00902
# Poissons Ratio (z) = 0.33213 0.01433
#
# Static dielectric constant tensor:
#      x y z
#    x 2.461860 0.000000 0.037110 
#    y 0.000000 2.263420 0.000000 
#    z 0.037110 0.000000 2.299450 
# 
# From -- ./inp_files/67023.got.cif
#   From: 2010.05.17/outbox.cif.g08.bks.cpg/sg14_34_cif.got.tgz:67023.got - 2010.06.03 17:49:19.
