data_PCOD9239016
_publ_section_title
;
Structure prediction by ZEFSAII (Michael W. Deem and Ramdas Pophale) SiO2 
 PCOD9239016
Probable space group: P 2/C
;
_chemical_formula_sum "Si O2"
_cell_formula_units_Z 28
_cell_length_a 30.000000
_cell_length_b 9.000000
_cell_length_c 30.000000
_cell_angle_alpha 90.000000
_cell_angle_beta 170.000000
_cell_angle_gamma 90.000000
_cell_volume 1406.550239
_symmetry_space_group_name_H-M "P 2/C"
_symmetry_group_IT_number 13
_symmetry_cell_setting 'monoclinic'
loop_
_space_group_symop_operation_xyz
x,y,z
-x,y,1/2-z
-x,-y,-z
x,-y,1/2+z
loop_
_atom_site_type_symbol
_atom_site_label
_atom_site_fract_x
_atom_site_fract_y
_atom_site_fract_z
Si Si1 0.167946 0.930567 0.039022
Si Si2 0.162529 0.505040 0.456321
Si Si3 0.500000 0.255333 0.750000
Si Si4 0.735787 0.937918 0.262617
Si Si5 0.996697 0.590502 0.889629
Si Si6 0.298176 0.985603 0.987784
Si Si7 0.444702 0.406661 0.899413
Si Si8 0.500000 0.237698 0.250000
O O1 0.079837 0.759697 0.959847
O O2 0.940267 0.991897 0.781801
O O3 0.223579 0.985320 0.144987
O O4 0.436960 0.956663 0.278571
O O5 0.353365 0.363661 0.639869
O O6 0.017760 0.493145 0.361783
O O7 0.327998 0.654988 0.611960
O O8 0.000000 0.495935 0.250000
O O9 0.696558 0.151172 0.971384
O O10 0.662219 0.759955 0.193068
O O11 0.000000 0.000000 0.500000
O O12 0.500000 0.000000 0.000000
O O13 0.713781 0.594001 0.635241
O O14 0.214401 0.534130 0.139747
O O15 0.332781 0.131724 0.052748
O O16 0.500000 0.500000 0.000000
#
# Coordination Sequence:
#
# PCOD9239016 Si02
#       8
#     4   4   2   4   4   4   4   2
#     4  11  22  41  70  97 128 172 235 284 325 411
#     4  11  24  42  66  96 142 183 226 277 345 411
#     4  10  22  38  68  96 126 176 234 278 326 400
#     4  11  23  44  69 101 134 176 221 289 356 417
#     4  11  23  43  73 101 129 181 235 283 339 411
#     4  11  23  42  65  97 131 179 229 278 338 388
#     4  11  25  47  71 101 137 175 229 295 354 417
#     4  10  28  42  60  96 150 184 216 288 348 414
#
# _framework density 19.906860999999999
#
# number of rings (size 3 to 8) (size 9 to 14) (size 15 to 20)
#    0.000    1.143    1.429    5.571    6.000    1.143 
#    7.714    0.000    0.000    0.000    0.000    0.000 
#    0.000    0.000    0.000    0.000    0.000    0.000 
#
# Total GULP energy -156283.915293 kJ/mol
# GULP energy per Si atom -5581.568403 kJ/mol
# Density = 1.986155 g / cm^3
# Si number density = 19.906861 Si / 1000 Ang^3
#
#
#
# Elastic Constant Matrix: (Units=GPa)
#
#
# Indices 1 2 3 4 5 6 
#
# 1 172.2893 47.6218 64.7374 0.0000 -3.5456 0.0000
# 2 47.6218 95.5259 29.8988 0.0000 -3.8196 0.0000
# 3 64.7374 29.8988 162.1964 0.0000 -10.1193 0.0000
# 4 0.0000 0.0000 0.0000 26.9850 0.0000 -6.7800
# 5 -3.5456 -3.8196 -10.1193 0.0000 68.5696 0.0000
# 6 0.0000 0.0000 0.0000 -6.7800 0.0000 36.6084
#
#
#
# Elastic Compliance Matrix: (Units=1/GPa)
#
#
# Indices 1 2 3 4 5 6 
#
# 1 0.007560 -0.003000 -0.002473 0.000000 -0.000141 0.000000
# 2 -0.003000 0.012307 -0.001048 0.000000 0.000376 0.000000
# 3 -0.002473 -0.001048 0.007402 0.000000 0.000906 0.000000
# 4 0.000000 0.000000 0.000000 0.038866 0.000000 0.007198
# 5 -0.000141 0.000376 0.000906 0.000000 0.014731 0.000000
# 6 0.000000 0.000000 0.000000 0.007198 0.000000 0.028649
#
#
# Mechanical properties :
#
#
# Convention : Reuss Voigt Hill
#
# Bulk Modulus (GPa) = 70.28998 79.39196 74.84097
# Shear Modulus (GPa) = 39.27732 45.61619 42.44675
#
# Velocity S-wave (km/s) = 4.44673 4.79213 4.62266
# Velocity P-wave (km/s) = 7.85815 8.40165 8.13444
#
# Compressibility (1/GPa) = 0.01422678
#
# Stress axis : x y z
#
# Youngs Moduli (GPa) = 132.27756 81.25431 135.09662
#
# Poissons Ratio (x) = 0.24379 0.33411
# Poissons Ratio (y) = 0.39688 0.14154
# Poissons Ratio (z) = 0.32714 0.08513
#
# Static dielectric constant tensor:
#      x y z
#    x 1.723890 0.000000 0.000750 
#    y 0.000000 1.733670 0.000000 
#    z 0.000750 0.000000 1.738280 
# 
# From -- ./inp_files/98131.got.cif
#   From: 2010.05.17/outbox.ucp.g08.bks.cvg/sg13_50_cif.got.tgz:98131.got - 2010.06.11 12:23:55.
