data_PCOD9239840
_publ_section_title
;
Structure prediction by ZEFSAII (Michael W. Deem and Ramdas Pophale) SiO2 
 PCOD9239840
Probable space group: P 21/C
;
_chemical_formula_sum "Si O2"
_cell_formula_units_Z 32
_cell_length_a 7.363369
_cell_length_b 9.392425
_cell_length_c 20.550721
_cell_angle_alpha 90.000000
_cell_angle_beta 51.592312
_cell_angle_gamma 90.000000
_cell_volume 1113.733777
_symmetry_space_group_name_H-M "P 21/C"
_symmetry_group_IT_number 14
_symmetry_cell_setting 'monoclinic'
loop_
_space_group_symop_operation_xyz
x,y,z
-x,1/2+y,1/2-z
-x,-y,-z
x,1/2-y,1/2+z
loop_
_atom_site_type_symbol
_atom_site_label
_atom_site_fract_x
_atom_site_fract_y
_atom_site_fract_z
Si Si1 0.220731 0.610564 0.330391
Si Si2 0.840651 0.793702 0.446894
Si Si3 0.459587 0.868769 0.949431
Si Si4 0.320425 0.849028 0.124026
Si Si5 0.025969 0.160689 0.949184
Si Si6 0.563048 0.960044 0.589854
Si Si7 0.088276 0.028755 0.721499
Si Si8 0.241397 0.100268 0.316370
O O1 0.107788 0.496469 0.406812
O O2 0.498588 0.623229 0.269505
O O3 0.095160 0.762971 0.364307
O O4 0.145722 0.555403 0.275367
O O5 0.674315 0.709902 0.434325
O O6 0.835347 0.710312 0.517270
O O7 0.742211 0.948202 0.489765
O O8 0.236276 0.795815 0.967929
O O9 0.309807 0.892857 0.050114
O O10 0.541123 0.004469 0.889553
O O11 0.079104 0.849052 0.214781
O O12 0.424856 0.692610 0.111705
O O13 0.121532 0.257648 0.869794
O O14 0.699141 0.974339 0.627051
O O15 0.345463 0.065552 0.638903
O O16 0.933864 0.960559 0.698445
#
# Coordination Sequence:
#
# PCOD9239840 Si02
#       8
#     4   4   4   4   4   4   4   4
#     4  11  22  34  55  86 111 141 181 219 272 330
#     4  10  20  32  56  83 114 141 168 227 275 331
#     4  10  18  32  54  87 108 141 168 216 287 337
#     4  10  18  32  56  80 113 138 169 223 269 323
#     4  11  21  35  55  81 116 147 174 219 275 325
#     4   9  21  37  49  79 115 140 180 216 268 324
#     4  11  21  35  52  78 113 148 179 215 266 330
#     4  10  24  34  49  78 113 150 180 212 266 328
#
# _framework density 28.732178000000001
#
# number of rings (size 3 to 8) (size 9 to 14) (size 15 to 20)
#    0.000    1.750    2.500    3.375    7.000    0.000 
#    0.000    0.000    0.000    0.000    0.000   13.125 
#    0.000    0.625    0.000    0.000    0.000    0.000 
#
# Total GULP energy -178669.405285 kJ/mol
# GULP energy per Si atom -5583.418915 kJ/mol
# Density = 2.866678 g / cm^3
# Si number density = 28.732178 Si / 1000 Ang^3
#
#
#
# Elastic Constant Matrix: (Units=GPa)
#
#
# Indices 1 2 3 4 5 6 
#
# 1 187.7100 24.1064 34.0061 0.0000 -5.5351 0.0000
# 2 24.1064 67.1765 23.6667 0.0000 22.9164 0.0000
# 3 34.0061 23.6667 93.8921 0.0000 12.0677 0.0000
# 4 0.0000 0.0000 0.0000 53.4877 0.0000 8.5487
# 5 -5.5351 22.9164 12.0677 0.0000 38.3265 0.0000
# 6 0.0000 0.0000 0.0000 8.5487 0.0000 29.4019
#
#
#
# Elastic Compliance Matrix: (Units=1/GPa)
#
#
# Indices 1 2 3 4 5 6 
#
# 1 0.006095 -0.002522 -0.001958 0.000000 0.003005 0.000000
# 2 -0.002522 0.020858 -0.002808 0.000000 -0.011951 0.000000
# 3 -0.001958 -0.002808 0.012389 0.000000 -0.002505 0.000000
# 4 0.000000 0.000000 0.000000 0.019607 0.000000 -0.005701
# 5 0.003005 -0.011951 -0.002505 0.000000 0.034460 0.000000
# 6 0.000000 0.000000 0.000000 -0.005701 0.000000 0.035669
#
#
# Mechanical properties :
#
#
# Convention : Reuss Voigt Hill
#
# Bulk Modulus (GPa) = 40.37848 56.92633 48.65241
# Shear Modulus (GPa) = 32.91452 42.04319 37.47886
#
# Velocity S-wave (km/s) = 3.38829 3.82943 3.61560
# Velocity P-wave (km/s) = 5.42137 6.27762 5.86514
#
# Compressibility (1/GPa) = 0.02476566
#
# Stress axis : x y z
#
# Youngs Moduli (GPa) = 164.08035 47.94419 80.71506
#
# Poissons Ratio (x) = 0.12093 0.15802
# Poissons Ratio (y) = 0.41387 0.22663
# Poissons Ratio (z) = 0.32123 0.13462
#
# Static dielectric constant tensor:
#      x y z
#    x 2.530920 0.000000 0.053980 
#    y 0.000000 2.529000 0.000000 
#    z 0.053980 0.000000 2.343680 
# 
# From -- ./inp_files/65737.got.cif
#   From: 2010.05.17/outbox.cif.g08.bks.cpg/sg14_33_cif.got.tgz:65737.got - 2010.06.03 17:49:19.
