data_PCOD9239352
_publ_section_title
;
Structure prediction by ZEFSAII (Michael W. Deem and Ramdas Pophale) SiO2 
 PCOD9239352
Probable space group: P 21/C
;
_chemical_formula_sum "Si O2"
_cell_formula_units_Z 32
_cell_length_a 26.100289
_cell_length_b 16.877635
_cell_length_c 23.365736
_cell_angle_alpha 90.000000
_cell_angle_beta 169.706490
_cell_angle_gamma 90.000000
_cell_volume 1839.240351
_symmetry_space_group_name_H-M "P 21/C"
_symmetry_group_IT_number 14
_symmetry_cell_setting 'monoclinic'
loop_
_space_group_symop_operation_xyz
x,y,z
-x,1/2+y,1/2-z
-x,-y,-z
x,1/2-y,1/2+z
loop_
_atom_site_type_symbol
_atom_site_label
_atom_site_fract_x
_atom_site_fract_y
_atom_site_fract_z
Si Si1 0.928950 0.354837 0.140043
Si Si2 0.664372 0.164431 0.236137
Si Si3 0.512971 0.677941 0.020968
Si Si4 0.406878 0.465311 0.606906
Si Si5 0.195595 0.123053 0.046106
Si Si6 0.671235 0.489384 0.009543
Si Si7 0.144242 0.054353 0.705850
Si Si8 0.077312 0.083455 0.114540
O O1 0.172139 0.408586 0.378048
O O2 0.070080 0.326202 0.354654
O O3 0.798014 0.304462 0.943754
O O4 0.670891 0.411380 0.876499
O O5 0.912082 0.116221 0.475531
O O6 0.546239 0.235038 0.067950
O O7 0.409271 0.103825 0.971355
O O8 0.669868 0.673438 0.254769
O O9 0.709469 0.630935 0.191960
O O10 0.211620 0.632685 0.695035
O O11 0.262422 0.496356 0.390112
O O12 0.529409 0.516932 0.793706
O O13 0.439398 0.063948 0.289088
O O14 0.940068 0.067887 0.790087
O O15 0.776642 0.560268 0.165098
O O16 0.000000 0.000000 0.500000
O O17 0.000000 0.000000 0.000000
#
# Coordination Sequence:
#
# PCOD9239352 Si02
#       8
#     4   4   4   4   4   4   4   4
#     4   8  16  30  50  69  96 127 174 206 238 302
#     4  10  21  36  53  80 105 134 172 213 263 318
#     4  12  22  33  52  76 108 140 171 214 265 300
#     4   8  16  29  50  77  94 126 164 212 248 295
#     4  10  17  30  50  74  94 136 175 211 241 291
#     4  10  18  30  49  72 103 129 178 212 237 287
#     4  10  19  36  61  80 100 129 173 219 265 312
#     4  12  21  33  50  77 107 142 178 211 248 300
#
# _framework density 17.398486999999999
#
# number of rings (size 3 to 8) (size 9 to 14) (size 15 to 20)
#    0.000    2.000    2.500    2.250    0.000    0.000 
#    0.000    0.000    5.500    0.000    0.000    0.000 
#    0.000    0.000    0.000    0.000    0.000    0.000 
#
# Total GULP energy -178279.048121 kJ/mol
# GULP energy per Si atom -5571.220254 kJ/mol
# Density = 1.735889 g / cm^3
# Si number density = 17.398487 Si / 1000 Ang^3
#
#
#
# Elastic Constant Matrix: (Units=GPa)
#
#
# Indices 1 2 3 4 5 6 
#
# 1 106.2907 13.3615 43.4318 0.0000 -39.5220 0.0000
# 2 13.3615 18.5947 5.6782 0.0000 -20.4438 0.0000
# 3 43.4318 5.6782 91.2983 0.0000 -11.9540 0.0000
# 4 0.0000 0.0000 0.0000 21.4264 0.0000 -3.3621
# 5 -39.5220 -20.4438 -11.9540 0.0000 76.3041 0.0000
# 6 0.0000 0.0000 0.0000 -3.3621 0.0000 20.9353
#
#
#
# Elastic Compliance Matrix: (Units=1/GPa)
#
#
# Indices 1 2 3 4 5 6 
#
# 1 0.014270 -0.001905 -0.005890 0.000000 0.005958 0.000000
# 2 -0.001905 0.076890 -0.001335 0.000000 0.019405 0.000000
# 3 -0.005890 -0.001335 0.013672 0.000000 -0.001266 0.000000
# 4 0.000000 0.000000 0.000000 0.047878 0.000000 0.007689
# 5 0.005958 0.019405 -0.001266 0.000000 0.021192 0.000000
# 6 0.000000 0.000000 0.000000 0.007689 0.000000 0.049001
#
#
# Mechanical properties :
#
#
# Convention : Reuss Voigt Hill
#
# Bulk Modulus (GPa) = 11.55101 37.90295 24.72698
# Shear Modulus (GPa) = 18.51722 33.98065 26.24893
#
# Velocity S-wave (km/s) = 3.26590 4.42416 3.88840
# Velocity P-wave (km/s) = 4.56891 6.92316 5.86537
#
# Compressibility (1/GPa) = 0.08657252
#
# Stress axis : x y z
#
# Youngs Moduli (GPa) = 70.07949 13.00562 73.14154
#
# Poissons Ratio (x) = 0.02477 0.43078
# Poissons Ratio (y) = 0.13347 0.09766
# Poissons Ratio (z) = 0.41274 0.01737
#
# Static dielectric constant tensor:
#      x y z
#    x 1.636640 0.000000 -0.043040 
#    y 0.000000 1.530210 0.000000 
#    z -0.043040 0.000000 1.615400 
# 
# From -- ./inp_files/75236.got.cif
#   From: 2010.05.17/outbox.cif.g08.bks.cpg/sg14_38_cif.got.tgz:75236.got - 2010.06.03 17:49:19.
