data_PCOD9239738
_publ_section_title
;
Structure prediction by ZEFSAII (Michael W. Deem and Ramdas Pophale) SiO2 
 PCOD9239738
Probable space group: P 21/C
;
_chemical_formula_sum "Si O2"
_cell_formula_units_Z 28
_cell_length_a 17.506232
_cell_length_b 7.842490
_cell_length_c 9.095513
_cell_angle_alpha 90.000000
_cell_angle_beta 63.881297
_cell_angle_gamma 90.000000
_cell_volume 1121.228286
_symmetry_space_group_name_H-M "P 21/C"
_symmetry_group_IT_number 14
_symmetry_cell_setting 'monoclinic'
loop_
_space_group_symop_operation_xyz
x,y,z
-x,1/2+y,1/2-z
-x,-y,-z
x,1/2-y,1/2+z
loop_
_atom_site_type_symbol
_atom_site_label
_atom_site_fract_x
_atom_site_fract_y
_atom_site_fract_z
Si Si1 0.688940 0.487704 0.016191
Si Si2 0.953738 0.661766 0.837393
Si Si3 0.576790 0.571442 0.838244
Si Si4 0.160165 0.520715 0.283520
Si Si5 0.194860 0.132463 0.331591
Si Si6 0.128212 0.538374 0.636483
Si Si7 0.524687 0.950646 0.816261
O O1 0.739173 0.602382 0.093012
O O2 0.602670 0.438724 0.179208
O O3 0.650034 0.558856 0.896311
O O4 0.770940 0.385665 0.879729
O O5 0.925268 0.535640 0.729180
O O6 0.916142 0.850199 0.842498
O O7 0.054657 0.657151 0.764672
O O8 0.899551 0.598125 0.022410
O O9 0.561622 0.761072 0.793566
O O10 0.562399 0.461565 0.703907
O O11 0.500000 0.500000 0.000000
O O12 0.195185 0.328148 0.284539
O O13 0.150289 0.598135 0.453373
O O14 0.203758 0.007581 0.185053
O O15 0.500000 0.000000 0.000000
#
# Coordination Sequence:
#
# PCOD9239738 Si02
#       7
#     4   4   4   4   4   4   4
#     4  10  20  35  55  83 116 147 189 242 285 335
#     4   9  18  31  49  73 105 139 180 230 282 333
#     4  10  22  39  61  90 120 150 187 237 291 351
#     4   9  18  31  50  78 108 140 185 241 287 325
#     4   9  18  31  51  80 108 138 185 239 282 326
#     4  10  18  31  52  77 104 143 185 233 286 334
#     4  11  22  38  63  91 117 153 195 238 290 350
#
# _framework density 24.972614
#
# number of rings (size 3 to 8) (size 9 to 14) (size 15 to 20)
#    0.000    2.286    0.000    4.286    0.000    1.143 
#    0.000    0.000    0.000   27.429    0.000    4.000 
#    0.000    0.000    0.000    0.000    0.000    0.000 
#
# Total GULP energy -156052.831659 kJ/mol
# GULP energy per Si atom -5573.315416 kJ/mol
# Density = 2.491577 g / cm^3
# Si number density = 24.972614 Si / 1000 Ang^3
#
#
#
# Elastic Constant Matrix: (Units=GPa)
#
#
# Indices 1 2 3 4 5 6 
#
# 1 110.6930 4.0245 39.9573 0.0000 7.9259 0.0000
# 2 4.0245 50.1126 0.1607 0.0000 0.7566 0.0000
# 3 39.9573 0.1607 127.6740 0.0000 9.9503 0.0000
# 4 0.0000 0.0000 0.0000 22.4156 0.0000 2.7920
# 5 7.9259 0.7566 9.9503 0.0000 49.4758 0.0000
# 6 0.0000 0.0000 0.0000 2.7920 0.0000 4.8127
#
#
#
# Elastic Compliance Matrix: (Units=1/GPa)
#
#
# Indices 1 2 3 4 5 6 
#
# 1 0.010266 -0.000799 -0.003134 0.000000 -0.001002 0.000000
# 2 -0.000799 0.020022 0.000243 0.000000 -0.000227 0.000000
# 3 -0.003134 0.000243 0.008914 0.000000 -0.001294 0.000000
# 4 0.000000 0.000000 0.000000 0.048086 0.000000 -0.027896
# 5 -0.001002 -0.000227 -0.001294 0.000000 0.020636 0.000000
# 6 0.000000 0.000000 0.000000 -0.027896 0.000000 0.223965
#
#
# Mechanical properties :
#
#
# Convention : Reuss Voigt Hill
#
# Bulk Modulus (GPa) = 31.42596 41.86274 36.64435
# Shear Modulus (GPa) = 14.29074 31.62997 22.96036
#
# Velocity S-wave (km/s) = 2.39478 3.56277 3.03549
# Velocity P-wave (km/s) = 4.50090 5.80727 5.19531
#
# Compressibility (1/GPa) = 0.03182083
#
# Stress axis : x y z
#
# Youngs Moduli (GPa) = 97.40873 49.94534 112.18582
#
# Poissons Ratio (x) = 0.03992 0.35157
# Poissons Ratio (y) = 0.07786 -0.02722
# Poissons Ratio (z) = 0.30526 -0.01212
#
# Static dielectric constant tensor:
#      x y z
#    x 2.056520 0.000000 0.015400 
#    y 0.000000 2.040050 0.000000 
#    z 0.015400 0.000000 2.032520 
# 
# From -- ./inp_files/17540.got.cif
#   From: 2010.05.17/outbox.cif.g08.bks.cpg/sg14_9_cif.got.tgz:17540.got - 2010.06.03 17:49:19.
