data_PCOD9239755
_publ_section_title
;
Structure prediction by ZEFSAII (Michael W. Deem and Ramdas Pophale) SiO2 
 PCOD9239755
Probable space group: P 21/C
;
_chemical_formula_sum "Si O2"
_cell_formula_units_Z 32
_cell_length_a 11.404792
_cell_length_b 17.884398
_cell_length_c 21.099455
_cell_angle_alpha 90.000000
_cell_angle_beta 157.672222
_cell_angle_gamma 90.000000
_cell_volume 1634.961642
_symmetry_space_group_name_H-M "P 21/C"
_symmetry_group_IT_number 14
_symmetry_cell_setting 'monoclinic'
loop_
_space_group_symop_operation_xyz
x,y,z
-x,1/2+y,1/2-z
-x,-y,-z
x,1/2-y,1/2+z
loop_
_atom_site_type_symbol
_atom_site_label
_atom_site_fract_x
_atom_site_fract_y
_atom_site_fract_z
Si Si1 0.632799 0.104002 0.945005
Si Si2 0.630365 0.437452 0.703631
Si Si3 0.368892 0.671547 0.181487
Si Si4 0.368755 0.415716 0.443457
Si Si5 0.368899 0.171542 0.687409
Si Si6 0.368757 0.915716 0.425298
Si Si7 0.630386 0.937457 0.426745
Si Si8 0.632784 0.895993 0.687785
O O1 0.484779 0.125937 0.938623
O O2 0.518513 0.153925 0.829919
O O3 0.520518 0.019472 0.873090
O O4 0.000007 0.104961 0.134177
O O5 0.557835 0.393536 0.731575
O O6 0.505804 0.392986 0.579849
O O7 0.999990 0.446186 0.883205
O O8 0.499990 0.750003 0.270950
O O9 0.518508 0.653932 0.188590
O O10 0.999997 0.674956 0.990550
O O11 0.500000 0.500000 0.500000
O O12 1.000000 0.417377 0.261160
O O13 0.442155 0.106458 0.673734
O O14 0.505807 0.892990 0.425955
O O15 0.484776 0.874059 0.546152
O O16 0.500000 0.000000 0.500000
O O17 0.479518 0.019479 0.352590
#
# Coordination Sequence:
#
# PCOD9239755 Si02
#       8
#     4   4   4   4   4   4   4   4
#     4  11  21  35  58  85 113 145 184 227 273 326
#     4  10  20  36  58  84 113 144 182 227 277 329
#     4  11  24  40  57  79 111 148 185 228 275 326
#     4  10  18  31  54  83 113 142 179 226 276 326
#     4  11  24  40  57  79 111 148 185 228 275 326
#     4  10  18  31  54  83 113 142 179 226 276 326
#     4  10  20  36  58  84 113 144 182 227 277 329
#     4  11  21  35  58  85 113 145 184 227 273 326
#
# _framework density 19.572324999999999
#
# number of rings (size 3 to 8) (size 9 to 14) (size 15 to 20)
#    0.000    1.500    0.000    9.750    0.000    7.000 
#    0.000    1.250    0.000    3.000    0.000    0.000 
#    0.000    0.000    0.000    0.000    0.000    0.000 
#
# Total GULP energy -178787.525106 kJ/mol
# GULP energy per Si atom -5587.110160 kJ/mol
# Density = 1.952778 g / cm^3
# Si number density = 19.572325 Si / 1000 Ang^3
#
#
#
# Elastic Constant Matrix: (Units=GPa)
#
#
# Indices 1 2 3 4 5 6 
#
# 1 82.4328 -5.4691 27.8812 0.0000 1.9148 0.0000
# 2 -5.4691 23.5221 0.8530 0.0000 3.8358 0.0000
# 3 27.8812 0.8530 95.7870 0.0000 6.1899 0.0000
# 4 0.0000 0.0000 0.0000 20.3527 0.0000 6.7864
# 5 1.9148 3.8358 6.1899 0.0000 31.4490 0.0000
# 6 0.0000 0.0000 0.0000 6.7864 0.0000 9.1784
#
#
#
# Elastic Compliance Matrix: (Units=1/GPa)
#
#
# Indices 1 2 3 4 5 6 
#
# 1 0.013719 0.003410 -0.003994 0.000000 -0.000465 0.000000
# 2 0.003410 0.044224 -0.001038 0.000000 -0.005397 0.000000
# 3 -0.003994 -0.001038 0.011737 0.000000 -0.001940 0.000000
# 4 0.000000 0.000000 0.000000 0.065211 0.000000 -0.048216
# 5 -0.000465 -0.005397 -0.001940 0.000000 0.032866 0.000000
# 6 0.000000 0.000000 0.000000 -0.048216 0.000000 0.144603
#
#
# Mechanical properties :
#
#
# Convention : Reuss Voigt Hill
#
# Bulk Modulus (GPa) = 15.05159 27.58577 21.31868
# Shear Modulus (GPa) = 14.80398 24.09448 19.44923
#
# Velocity S-wave (km/s) = 2.75321 3.51244 3.15574
# Velocity P-wave (km/s) = 4.22064 5.52942 4.91875
#
# Compressibility (1/GPa) = 0.06643817
#
# Stress axis : x y z
#
# Youngs Moduli (GPa) = 72.89219 22.61216 85.20151
#
# Poissons Ratio (x) = -0.07712 0.34025
# Poissons Ratio (y) = -0.24859 0.08841
# Poissons Ratio (z) = 0.29110 0.02346
#
# Static dielectric constant tensor:
#      x y z
#    x 1.720430 0.000000 -0.033930 
#    y 0.000000 1.716700 0.000000 
#    z -0.033930 0.000000 1.664560 
# 
# From -- ./inp_files/67573.got.cif
#   From: 2010.05.17/outbox.cif.g08.bks.cpg/sg14_34_cif.got.tgz:67573.got - 2010.06.03 17:49:19.
