data_PCOD9239846
_publ_section_title
;
Structure prediction by ZEFSAII (Michael W. Deem and Ramdas Pophale) SiO2 
 PCOD9239846
Probable space group: P 21/C
;
_chemical_formula_sum "Si O2"
_cell_formula_units_Z 32
_cell_length_a 8.357616
_cell_length_b 11.190642
_cell_length_c 14.213889
_cell_angle_alpha 90.000000
_cell_angle_beta 114.135308
_cell_angle_gamma 90.000000
_cell_volume 1213.172093
_symmetry_space_group_name_H-M "P 21/C"
_symmetry_group_IT_number 14
_symmetry_cell_setting 'monoclinic'
loop_
_space_group_symop_operation_xyz
x,y,z
-x,1/2+y,1/2-z
-x,-y,-z
x,1/2-y,1/2+z
loop_
_atom_site_type_symbol
_atom_site_label
_atom_site_fract_x
_atom_site_fract_y
_atom_site_fract_z
Si Si1 0.583574 0.213243 0.449580
Si Si2 0.148465 0.549802 0.903176
Si Si3 0.183670 0.352817 0.067808
Si Si4 0.725950 0.417611 0.359320
Si Si5 0.599619 0.463348 0.781988
Si Si6 0.774332 0.675583 0.563261
Si Si7 0.860681 0.273235 0.761893
Si Si8 0.969001 0.461878 0.664294
O O1 0.683568 0.136723 0.553303
O O2 0.706431 0.317679 0.435167
O O3 0.404499 0.272983 0.438933
O O4 0.542961 0.116072 0.357863
O O5 0.196704 0.434346 0.976728
O O6 0.064522 0.509995 0.784096
O O7 0.001401 0.616750 0.930204
O O8 0.214979 0.219797 0.041423
O O9 0.326913 0.407546 0.170868
O O10 0.561750 0.505801 0.322329
O O11 0.732134 0.331699 0.267179
O O12 0.896260 0.498942 0.384374
O O13 0.761821 0.389195 0.779623
O O14 0.954015 0.732786 0.649234
O O15 0.796900 0.538007 0.596650
O O16 0.919953 0.325634 0.675245
#
# Coordination Sequence:
#
# PCOD9239846 Si02
#       8
#     4   4   4   4   4   4   4   4
#     4  10  22  34  52  86 118 143 192 248 291 343
#     4  10  19  34  56  82 115 151 182 249 300 341
#     4  10  18  32  55  82 115 141 191 236 302 340
#     4  10  22  35  54  87 117 154 196 235 299 347
#     4  10  19  33  57  81 115 151 181 244 295 339
#     4  11  21  33  54  86 113 153 191 232 293 355
#     4  10  19  37  54  83 118 150 193 238 283 354
#     4  11  20  34  58  79 115 158 191 230 299 345
#
# _framework density 26.377132
#
# number of rings (size 3 to 8) (size 9 to 14) (size 15 to 20)
#    0.000    1.750    2.500    4.500    1.750    1.000 
#    0.000    0.000    0.000    0.750    9.750    7.875 
#    0.000    0.000    0.000    0.000    0.000    0.000 
#
# Total GULP energy -178933.054710 kJ/mol
# GULP energy per Si atom -5591.657960 kJ/mol
# Density = 2.631710 g / cm^3
# Si number density = 26.377132 Si / 1000 Ang^3
#
#
#
# Elastic Constant Matrix: (Units=GPa)
#
#
# Indices 1 2 3 4 5 6 
#
# 1 103.7070 36.9704 17.7144 0.0000 19.6558 0.0000
# 2 36.9704 115.9979 32.7571 0.0000 -6.1498 0.0000
# 3 17.7144 32.7571 72.4411 0.0000 -4.0396 0.0000
# 4 0.0000 0.0000 0.0000 43.0232 0.0000 -6.3162
# 5 19.6558 -6.1498 -4.0396 0.0000 25.5418 0.0000
# 6 0.0000 0.0000 0.0000 -6.3162 0.0000 37.7827
#
#
#
# Elastic Compliance Matrix: (Units=1/GPa)
#
#
# Indices 1 2 3 4 5 6 
#
# 1 0.013882 -0.004490 -0.002038 0.000000 -0.012086 0.000000
# 2 -0.004490 0.011407 -0.003748 0.000000 0.005609 0.000000
# 3 -0.002038 -0.003748 0.016177 0.000000 0.003225 0.000000
# 4 0.000000 0.000000 0.000000 0.023828 0.000000 0.003983
# 5 -0.012086 0.005609 0.003225 0.000000 0.050313 0.000000
# 6 0.000000 0.000000 0.000000 0.003983 0.000000 0.027133
#
#
# Mechanical properties :
#
#
# Convention : Reuss Voigt Hill
#
# Bulk Modulus (GPa) = 47.81198 51.89219 49.85209
# Shear Modulus (GPa) = 29.36613 34.91647 32.14130
#
# Velocity S-wave (km/s) = 3.34026 3.64227 3.49453
# Velocity P-wave (km/s) = 5.74823 6.11589 5.93490
#
# Compressibility (1/GPa) = 0.02091526
#
# Stress axis : x y z
#
# Youngs Moduli (GPa) = 72.03593 87.66220 61.81492
#
# Poissons Ratio (x) = 0.39356 0.12601
# Poissons Ratio (y) = 0.32341 0.23166
# Poissons Ratio (z) = 0.14685 0.32853
#
# Static dielectric constant tensor:
#      x y z
#    x 2.061090 0.000000 -0.034390 
#    y 0.000000 2.117980 0.000000 
#    z -0.034390 0.000000 2.089100 
# 
# From -- ./inp_files/65439.got.cif
#   From: 2010.05.17/outbox.cif.g08.bks.cpg/sg14_33_cif.got.tgz:65439.got - 2010.06.03 17:49:19.
