data_PCOD9239195
_publ_section_title
;
Structure prediction by ZEFSAII (Michael W. Deem and Ramdas Pophale) SiO2 
 PCOD9239195
Probable space group: P 21/C
;
_chemical_formula_sum "Si O2"
_cell_formula_units_Z 32
_cell_length_a 14.762999
_cell_length_b 11.610948
_cell_length_c 12.970487
_cell_angle_alpha 90.000000
_cell_angle_beta 37.768183
_cell_angle_gamma 90.000000
_cell_volume 1361.702019
_symmetry_space_group_name_H-M "P 21/C"
_symmetry_group_IT_number 14
_symmetry_cell_setting 'monoclinic'
loop_
_space_group_symop_operation_xyz
x,y,z
-x,1/2+y,1/2-z
-x,-y,-z
x,1/2-y,1/2+z
loop_
_atom_site_type_symbol
_atom_site_label
_atom_site_fract_x
_atom_site_fract_y
_atom_site_fract_z
Si Si1 0.789757 0.597761 0.471699
Si Si2 0.565122 0.277226 0.015165
Si Si3 0.232173 0.301565 0.277524
Si Si4 0.891738 0.374859 0.917958
Si Si5 0.115735 0.101470 0.482832
Si Si6 0.182350 0.652558 0.623458
Si Si7 0.315227 0.489434 0.056230
Si Si8 0.398608 0.300560 0.855827
O O1 0.785648 0.629570 0.597135
O O2 0.755114 0.466750 0.476361
O O3 0.677040 0.689843 0.524629
O O4 0.949021 0.619927 0.279395
O O5 0.403293 0.259523 0.113280
O O6 0.524686 0.252458 0.171949
O O7 0.710737 0.199269 0.880593
O O8 0.609141 0.407511 0.950772
O O9 0.125246 0.190601 0.378221
O O10 0.212852 0.399116 0.209088
O O11 0.883697 0.461983 0.023898
O O12 0.841360 0.242972 0.949497
O O13 0.783133 0.441932 0.936790
O O14 0.266670 0.143136 0.404810
O O15 0.977015 0.131801 0.679857
O O16 0.436412 0.407732 0.892999
#
# Coordination Sequence:
#
# PCOD9239195 Si02
#       8
#     4   4   4   4   4   4   4   4
#     4   9  18  31  53  77 103 131 169 220 247 298
#     4   9  20  31  50  75 101 136 172 210 245 306
#     4  10  19  35  50  77 111 132 166 211 271 296
#     4   9  16  31  52  81  95 132 178 208 248 298
#     4   8  16  31  51  73 101 130 167 210 248 305
#     4  10  16  30  53  76  99 130 178 211 247 289
#     4  10  20  32  56  77 104 135 169 213 258 312
#     4   9  18  33  50  74  99 132 175 202 252 297
#
# _framework density 23.500001999999999
#
# number of rings (size 3 to 8) (size 9 to 14) (size 15 to 20)
#    0.000    3.000    2.500    0.375    3.500    0.500 
#    0.000    0.000    0.000    6.750    0.000    0.000 
#    0.000    0.000    0.000    0.000    0.000    0.000 
#
# Total GULP energy -178204.207284 kJ/mol
# GULP energy per Si atom -5568.881478 kJ/mol
# Density = 2.344652 g / cm^3
# Si number density = 23.500002 Si / 1000 Ang^3
#
#
#
# Elastic Constant Matrix: (Units=GPa)
#
#
# Indices 1 2 3 4 5 6 
#
# 1 27.6219 25.8509 14.9600 0.0000 2.4245 0.0000
# 2 25.8509 149.7127 9.9846 0.0000 -0.6736 0.0000
# 3 14.9600 9.9846 59.9982 0.0000 -12.2450 0.0000
# 4 0.0000 0.0000 0.0000 29.6120 0.0000 6.5613
# 5 2.4245 -0.6736 -12.2450 0.0000 21.8861 0.0000
# 6 0.0000 0.0000 0.0000 6.5613 0.0000 8.2103
#
#
#
# Elastic Compliance Matrix: (Units=1/GPa)
#
#
# Indices 1 2 3 4 5 6 
#
# 1 0.053259 -0.008271 -0.014856 0.000000 -0.014466 0.000000
# 2 -0.008271 0.008043 0.001085 0.000000 0.001771 0.000000
# 3 -0.014856 0.001085 0.023180 0.000000 0.014648 0.000000
# 4 0.000000 0.000000 0.000000 0.041037 0.000000 -0.032795
# 5 -0.014466 0.001771 0.014648 0.000000 0.055543 0.000000
# 6 0.000000 0.000000 0.000000 -0.032795 0.000000 0.148007
#
#
# Mechanical properties :
#
#
# Convention : Reuss Voigt Hill
#
# Bulk Modulus (GPa) = 24.75238 37.65820 31.20529
# Shear Modulus (GPa) = 12.93264 24.37750 18.65507
#
# Velocity S-wave (km/s) = 2.34845 3.22427 2.82056
# Velocity P-wave (km/s) = 4.23195 5.46999 4.89031
#
# Compressibility (1/GPa) = 0.04040015
#
# Stress axis : x y z
#
# Youngs Moduli (GPa) = 18.77615 124.32956 43.14023
#
# Poissons Ratio (x) = 1.02828 0.64088
# Poissons Ratio (y) = 0.15529 -0.04681
# Poissons Ratio (z) = 0.27893 -0.13491
#
# Static dielectric constant tensor:
#      x y z
#    x 2.123960 0.000000 0.032010 
#    y 0.000000 1.951710 0.000000 
#    z 0.032010 0.000000 1.918980 
# 
# From -- ./inp_files/61208.got.cif
#   From: 2010.05.17/outbox.cif.g08.bks.cpg/sg14_31_cif.got.tgz:61208.got - 2010.06.03 17:49:19.
