data_PCOD9239208
_publ_section_title
;
Structure prediction by ZEFSAII (Michael W. Deem and Ramdas Pophale) SiO2 
 PCOD9239208
Probable space group: P 21/C
;
_chemical_formula_sum "Si O2"
_cell_formula_units_Z 16
_cell_length_a 5.219352
_cell_length_b 6.446857
_cell_length_c 20.005462
_cell_angle_alpha 90.000000
_cell_angle_beta 99.572852
_cell_angle_gamma 90.000000
_cell_volume 663.778427
_symmetry_space_group_name_H-M "P 21/C"
_symmetry_group_IT_number 14
_symmetry_cell_setting 'monoclinic'
loop_
_space_group_symop_operation_xyz
x,y,z
-x,1/2+y,1/2-z
-x,-y,-z
x,1/2-y,1/2+z
loop_
_atom_site_type_symbol
_atom_site_label
_atom_site_fract_x
_atom_site_fract_y
_atom_site_fract_z
Si Si1 0.263750 0.762007 0.200081
Si Si2 0.744067 0.646324 0.992440
Si Si3 0.466225 0.130123 0.653933
Si Si4 0.724736 0.712192 0.631099
O O1 0.399544 0.762831 0.277516
O O2 0.249892 0.524562 0.175134
O O3 0.462673 0.864285 0.155237
O O4 0.980576 0.858426 0.181272
O O5 0.763317 0.811986 0.053476
O O6 0.500000 0.500000 0.000000
O O7 0.664475 0.732549 0.916266
O O8 0.000000 0.500000 0.000000
O O9 0.680425 0.960484 0.639000
#
# Coordination Sequence:
#
# PCOD9239208 Si02
#       4
#     4   4   4   4
#     4  10  20  31  50  76 102 129 160 208 250 294
#     4  10  16  31  51  75  93 127 173 209 233 279
#     4   9  21  31  55  74 102 127 167 206 250 292
#     4   9  19  31  50  75  97 129 165 206 242 290
#
# _framework density 24.104427999999999
#
# number of rings (size 3 to 8) (size 9 to 14) (size 15 to 20)
#    1.500    1.000    2.500    0.000    3.500    0.000 
#    0.000    0.000    0.000    3.000    0.000    0.000 
#    0.000    0.000    0.000    0.000    0.000    0.000 
#
# Total GULP energy -89081.754501 kJ/mol
# GULP energy per Si atom -5567.609656 kJ/mol
# Density = 2.404957 g / cm^3
# Si number density = 24.104428 Si / 1000 Ang^3
#
#
#
# Elastic Constant Matrix: (Units=GPa)
#
#
# Indices 1 2 3 4 5 6 
#
# 1 137.7592 3.0745 36.4835 0.0000 30.3847 0.0000
# 2 3.0745 28.3784 31.2538 0.0000 -4.1283 0.0000
# 3 36.4835 31.2538 203.0553 0.0000 -8.6274 0.0000
# 4 0.0000 0.0000 0.0000 25.6757 0.0000 8.3868
# 5 30.3847 -4.1283 -8.6274 0.0000 33.4741 0.0000
# 6 0.0000 0.0000 0.0000 8.3868 0.0000 0.7180
#
#
#
# Elastic Compliance Matrix: (Units=1/GPa)
#
#
# Indices 1 2 3 4 5 6 
#
# 1 0.009960 -0.000068 -0.002187 0.000000 -0.009613 0.000000
# 2 -0.000068 0.042862 -0.006428 0.000000 0.003691 0.000000
# 3 -0.002187 -0.006428 0.006428 0.000000 0.002850 0.000000
# 4 0.000000 0.000000 0.000000 -0.013835 0.000000 0.161589
# 5 -0.009613 0.003691 0.002850 0.000000 0.039789 0.000000
# 6 0.000000 0.000000 0.000000 0.161589 0.000000 -0.494696
#
#
# Mechanical properties :
#
#
# Convention : Reuss Voigt Hill
#
# Bulk Modulus (GPa) = 23.87635 56.75739 40.31687
# Shear Modulus (GPa) = -13.22184 31.86565 9.32190
#
# Velocity S-wave (km/s) = -2.34460 3.63985 1.96868
# Velocity P-wave (km/s) = 1.61163 6.42357 4.68293
#
# Compressibility (1/GPa) = 0.04188244
#
# Stress axis : x y z
#
# Youngs Moduli (GPa) = 100.39950 23.33076 155.56291
#
# Poissons Ratio (x) = 0.00160 0.34029
# Poissons Ratio (y) = 0.00687 0.99997
# Poissons Ratio (z) = 0.21962 0.14997
#
# Static dielectric constant tensor:
#      x y z
#    x 1.911510 0.000000 -0.062120 
#    y 0.000000 2.019850 0.000000 
#    z -0.062120 0.000000 1.994750 
# 
# From -- ./inp_files/29313.got.cif
#   From: 2010.05.17/outbox.cif.g08.bks.cpg/sg14_15_cif.got.tgz:29313.got - 2010.06.03 17:49:19.
