data_PCOD9239571
_publ_section_title
;
Structure prediction by ZEFSAII (Michael W. Deem and Ramdas Pophale) SiO2 
 PCOD9239571
Probable space group: P 21/C
;
_chemical_formula_sum "Si O2"
_cell_formula_units_Z 28
_cell_length_a 8.351014
_cell_length_b 18.442129
_cell_length_c 15.339545
_cell_angle_alpha 90.000000
_cell_angle_beta 145.604432
_cell_angle_gamma 90.000000
_cell_volume 1334.555877
_symmetry_space_group_name_H-M "P 21/C"
_symmetry_group_IT_number 14
_symmetry_cell_setting 'monoclinic'
loop_
_space_group_symop_operation_xyz
x,y,z
-x,1/2+y,1/2-z
-x,-y,-z
x,1/2-y,1/2+z
loop_
_atom_site_type_symbol
_atom_site_label
_atom_site_fract_x
_atom_site_fract_y
_atom_site_fract_z
Si Si1 0.672687 0.096289 0.221097
Si Si2 0.581683 0.007369 0.772445
Si Si3 0.352918 0.350427 0.246669
Si Si4 0.258239 0.920512 0.316505
Si Si5 0.302140 0.323126 0.419757
Si Si6 0.230523 0.316278 0.007649
Si Si7 0.096358 0.967483 0.424544
O O1 0.909933 0.152504 0.362898
O O2 0.420820 0.065490 0.170865
O O3 0.538357 0.129736 0.074983
O O4 0.854415 0.023619 0.287161
O O5 0.567357 0.082357 0.821264
O O6 0.788329 0.022572 0.783946
O O7 0.281339 0.996910 0.586885
O O8 0.387847 0.314901 0.356772
O O9 0.330628 0.299829 0.151773
O O10 0.054207 0.393011 0.117423
O O11 0.544497 0.876889 0.422835
O O12 0.279564 0.953356 0.421796
O O13 0.992287 0.866576 0.203529
O O14 0.262674 0.249612 0.455851
#
# Coordination Sequence:
#
# PCOD9239571 Si02
#       7
#     4   4   4   4   4   4   4
#     4  11  21  38  65  86 116 159 201 239 302 370
#     4  10  18  36  65  91 113 157 203 246 298 355
#     4   9  19  38  63  83 119 158 194 251 302 343
#     4  10  22  36  62  92 125 146 199 267 288 336
#     4  11  25  40  56  93 125 159 197 246 306 350
#     4  11  21  44  63  80 121 171 205 231 287 381
#     4  10  17  36  65  94 112 152 206 249 293 357
#
# _framework density 20.980763
#
# number of rings (size 3 to 8) (size 9 to 14) (size 15 to 20)
#    0.000    1.714    4.286    2.143    0.000    5.714 
#    2.571   10.000    0.000    0.000    0.000    0.000 
#    0.000    0.000    0.000    0.000    0.000    0.000 
#
# Total GULP energy -156073.030612 kJ/mol
# GULP energy per Si atom -5574.036808 kJ/mol
# Density = 2.093301 g / cm^3
# Si number density = 20.980763 Si / 1000 Ang^3
#
#
#
# Elastic Constant Matrix: (Units=GPa)
#
#
# Indices 1 2 3 4 5 6 
#
# 1 92.1699 16.7718 17.4771 0.0000 -44.8089 0.0000
# 2 16.7718 54.7943 25.1513 0.0000 -27.4028 0.0000
# 3 17.4771 25.1513 63.7881 0.0000 -23.0793 0.0000
# 4 0.0000 0.0000 0.0000 22.3050 0.0000 -7.5820
# 5 -44.8089 -27.4028 -23.0793 0.0000 44.1150 0.0000
# 6 0.0000 0.0000 0.0000 -7.5820 0.0000 35.1280
#
#
#
# Elastic Compliance Matrix: (Units=1/GPa)
#
#
# Indices 1 2 3 4 5 6 
#
# 1 0.023118 0.006390 0.001330 0.000000 0.028147 0.000000
# 2 0.006390 0.029926 -0.005522 0.000000 0.022191 0.000000
# 3 0.001330 -0.005522 0.020645 0.000000 0.008722 0.000000
# 4 0.000000 0.000000 0.000000 0.048383 0.000000 0.010443
# 5 0.028147 0.022191 0.008722 0.000000 0.069605 0.000000
# 6 0.000000 0.000000 0.000000 0.010443 0.000000 0.030721
#
#
# Mechanical properties :
#
#
# Convention : Reuss Voigt Hill
#
# Bulk Modulus (GPa) = 12.80621 36.61697 24.71159
# Shear Modulus (GPa) = 20.48911 30.39974 25.44443
#
# Velocity S-wave (km/s) = 3.12840 3.81062 3.48623
# Velocity P-wave (km/s) = 4.37792 6.07055 5.29234
#
# Compressibility (1/GPa) = 0.07808715
#
# Stress axis : x y z
#
# Youngs Moduli (GPa) = 43.25548 33.41526 48.43697
#
# Poissons Ratio (x) = -0.21351 -0.06444
# Poissons Ratio (y) = -0.27638 0.26745
# Poissons Ratio (z) = -0.05755 0.18451
#
# Static dielectric constant tensor:
#      x y z
#    x 1.826360 0.000000 -0.002080 
#    y 0.000000 1.787980 0.000000 
#    z -0.002080 0.000000 1.768800 
# 
# From -- ./inp_files/41831.got.cif
#   From: 2010.05.17/outbox.cif.g08.bks.cpg/sg14_21_cif.got.tgz:41831.got - 2010.06.03 17:49:19.
