data_PCOD9239322
_publ_section_title
;
Structure prediction by ZEFSAII (Michael W. Deem and Ramdas Pophale) SiO2 
 PCOD9239322
Probable space group: P 21/C
;
_chemical_formula_sum "Si O2"
_cell_formula_units_Z 32
_cell_length_a 23.576996
_cell_length_b 12.891255
_cell_length_c 23.145253
_cell_angle_alpha 90.000000
_cell_angle_beta 17.123854
_cell_angle_gamma 90.000000
_cell_volume 2071.284683
_symmetry_space_group_name_H-M "P 21/C"
_symmetry_group_IT_number 14
_symmetry_cell_setting 'monoclinic'
loop_
_space_group_symop_operation_xyz
x,y,z
-x,1/2+y,1/2-z
-x,-y,-z
x,1/2-y,1/2+z
loop_
_atom_site_type_symbol
_atom_site_label
_atom_site_fract_x
_atom_site_fract_y
_atom_site_fract_z
Si Si1 0.851808 0.595423 0.210504
Si Si2 0.552696 0.030752 0.068843
Si Si3 0.664454 0.590674 0.574183
Si Si4 0.968763 0.778150 0.706794
Si Si5 0.739787 0.129345 0.490217
Si Si6 0.862734 0.897208 0.567424
Si Si7 0.885415 0.311478 0.270375
Si Si8 0.999242 0.438465 0.273318
O O1 0.647735 0.548626 0.430356
O O2 0.923235 0.678344 0.187975
O O3 0.846003 0.633844 0.150641
O O4 0.998486 0.498111 0.070626
O O5 0.342363 0.067132 0.256852
O O6 0.566578 0.973648 0.117089
O O7 0.694788 0.129085 0.934663
O O8 0.797846 0.678489 0.414825
O O9 0.812461 0.512542 0.461595
O O10 0.489929 0.633763 0.781790
O O11 0.985490 0.655063 0.696575
O O12 0.161569 0.828698 0.546564
O O13 0.825779 0.203521 0.356999
O O14 0.817209 0.013324 0.405912
O O15 0.961790 0.811941 0.430076
O O16 0.973059 0.383125 0.236418
#
# Coordination Sequence:
#
# PCOD9239322 Si02
#       8
#     4   4   4   4   4   4   4   4
#     4   9  18  29  45  70  91 116 152 180 220 275
#     4   9  16  28  44  66  92 116 146 181 221 269
#     4   9  17  28  45  66  90 119 146 180 227 268
#     4   9  18  31  45  68  94 115 147 187 222 267
#     4  10  18  30  46  66  92 119 149 184 221 267
#     4  10  17  29  47  65  93 122 143 183 227 261
#     4   9  19  29  43  69  91 115 151 180 218 273
#     4   9  18  30  45  65  91 117 147 183 222 266
#
# _framework density 15.449349
#
# number of rings (size 3 to 8) (size 9 to 14) (size 15 to 20)
#    0.000    2.750    0.000    4.125    0.000    6.000 
#    0.000    0.000    0.000    0.750    0.000    1.750 
#    0.000    0.000    0.000    0.000    0.000    0.000 
#
# Total GULP energy -178326.092485 kJ/mol
# GULP energy per Si atom -5572.690390 kJ/mol
# Density = 1.541419 g / cm^3
# Si number density = 15.449349 Si / 1000 Ang^3
#
#
#
# Elastic Constant Matrix: (Units=GPa)
#
#
# Indices 1 2 3 4 5 6 
#
# 1 51.8804 21.0958 34.1097 0.0000 8.3827 0.0000
# 2 21.0958 60.0502 26.0223 0.0000 8.7913 0.0000
# 3 34.1097 26.0223 79.7093 0.0000 2.0966 0.0000
# 4 0.0000 0.0000 0.0000 10.9035 0.0000 0.1765
# 5 8.3827 8.7913 2.0966 0.0000 19.1084 0.0000
# 6 0.0000 0.0000 0.0000 0.1765 0.0000 15.8416
#
#
#
# Elastic Compliance Matrix: (Units=1/GPa)
#
#
# Indices 1 2 3 4 5 6 
#
# 1 0.029950 -0.004218 -0.011177 0.000000 -0.009972 0.000000
# 2 -0.004218 0.021382 -0.004980 0.000000 -0.007440 0.000000
# 3 -0.011177 -0.004980 0.018819 0.000000 0.005129 0.000000
# 4 0.000000 0.000000 0.000000 0.091730 0.000000 -0.001022
# 5 -0.009972 -0.007440 0.005129 0.000000 0.059568 0.000000
# 6 0.000000 0.000000 0.000000 -0.001022 0.000000 0.063136
#
#
# Mechanical properties :
#
#
# Convention : Reuss Voigt Hill
#
# Bulk Modulus (GPa) = 34.01197 39.34395 36.67796
# Shear Modulus (GPa) = 14.91932 16.53150 15.72541
#
# Velocity S-wave (km/s) = 3.11093 3.27470 3.19387
# Velocity P-wave (km/s) = 5.91327 6.31030 6.11501
#
# Compressibility (1/GPa) = 0.02940141
#
# Stress axis : x y z
#
# Youngs Moduli (GPa) = 33.38887 46.76887 53.13690
#
# Poissons Ratio (x) = 0.19728 0.59392
# Poissons Ratio (y) = 0.14084 0.26460
# Poissons Ratio (z) = 0.37319 0.23289
#
# Static dielectric constant tensor:
#      x y z
#    x 1.513460 0.000000 0.009210 
#    y 0.000000 1.505560 0.000000 
#    z 0.009210 0.000000 1.526760 
# 
# From -- ./inp_files/69907.got.cif
#   From: 2010.05.17/outbox.cif.g08.bks.cpg/sg14_35_cif.got.tgz:69907.got - 2010.06.03 17:49:19.
