data_PCOD9239605
_publ_section_title
;
Structure prediction by ZEFSAII (Michael W. Deem and Ramdas Pophale) SiO2 
 PCOD9239605
Probable space group: P 21/C
;
_chemical_formula_sum "Si O2"
_cell_formula_units_Z 30
_cell_length_a 6.585094
_cell_length_b 13.546235
_cell_length_c 14.706865
_cell_angle_alpha 90.000000
_cell_angle_beta 54.521072
_cell_angle_gamma 90.000000
_cell_volume 1068.318154
_symmetry_space_group_name_H-M "P 21/C"
_symmetry_group_IT_number 14
_symmetry_cell_setting 'monoclinic'
loop_
_space_group_symop_operation_xyz
x,y,z
-x,1/2+y,1/2-z
-x,-y,-z
x,1/2-y,1/2+z
loop_
_atom_site_type_symbol
_atom_site_label
_atom_site_fract_x
_atom_site_fract_y
_atom_site_fract_z
Si Si1 0.282648 0.205643 0.222388
Si Si2 0.998216 0.867346 0.298228
Si Si3 0.064678 0.840979 0.975401
Si Si4 0.316251 0.010199 0.285469
Si Si5 0.248784 0.675121 0.043231
Si Si6 0.483488 0.255589 0.362701
Si Si7 0.869876 0.508336 0.666135
Si Si8 0.000000 0.000000 0.500000
O O1 0.326706 0.087521 0.198935
O O2 0.456491 0.235833 0.261917
O O3 0.212494 0.284987 0.161674
O O4 0.009039 0.204555 0.340281
O O5 0.274905 0.830442 0.197907
O O6 0.924056 0.957282 0.252466
O O7 0.080698 0.931261 0.366216
O O8 0.787694 0.797706 0.040270
O O9 0.048281 0.927712 0.054910
O O10 0.113075 0.894707 0.866885
O O11 0.264039 0.763089 0.963133
O O12 0.235067 0.069365 0.395346
O O13 0.584150 0.963631 0.221307
O O14 0.437252 0.680758 0.077985
O O15 0.214228 0.573082 0.001693
#
# Coordination Sequence:
#
# PCOD9239605 Si02
#       8
#     4   4   4   4   4   4   4   2
#     4   9  20  39  63  92 132 167 219 277 330 393
#     4  11  20  40  65  99 126 177 220 265 342 401
#     4  10  20  38  62 102 142 168 213 277 336 413
#     4  11  24  44  68  93 133 181 218 284 338 388
#     4   9  19  40  66  94 128 181 222 275 339 388
#     4  10  17  38  69  91 135 179 207 276 340 386
#     4  11  22  38  65 101 137 169 218 272 337 413
#     4  10  24  48  66  90 134 180 248 282 318 412
#
# _framework density 28.081522
#
# number of rings (size 3 to 8) (size 9 to 14) (size 15 to 20)
#    0.000    1.867    5.333    0.000    0.000    4.800 
#    7.200   10.667    0.000    0.000    0.000    0.000 
#    0.000    0.000    0.000    0.000    0.000    0.000 
#
# Total GULP energy -167131.917853 kJ/mol
# GULP energy per Si atom -5571.063928 kJ/mol
# Density = 2.801761 g / cm^3
# Si number density = 28.081522 Si / 1000 Ang^3
#
#
#
# Elastic Constant Matrix: (Units=GPa)
#
#
# Indices 1 2 3 4 5 6 
#
# 1 208.9558 77.2783 24.7141 0.0000 20.6139 0.0000
# 2 77.2783 102.5067 11.7243 0.0000 7.3385 0.0000
# 3 24.7141 11.7243 89.9518 0.0000 19.2281 0.0000
# 4 0.0000 0.0000 0.0000 32.2540 0.0000 23.3702
# 5 20.6139 7.3385 19.2281 0.0000 24.3444 0.0000
# 6 0.0000 0.0000 0.0000 23.3702 0.0000 27.0691
#
#
#
# Elastic Compliance Matrix: (Units=1/GPa)
#
#
# Indices 1 2 3 4 5 6 
#
# 1 0.007097 -0.005005 -0.000404 0.000000 -0.004182 0.000000
# 2 -0.005005 0.013547 -0.000510 0.000000 0.000557 0.000000
# 3 -0.000404 -0.000510 0.013461 0.000000 -0.010137 0.000000
# 4 0.000000 0.000000 0.000000 0.082801 0.000000 -0.071486
# 5 -0.004182 0.000557 -0.010137 0.000000 0.052457 0.000000
# 6 0.000000 0.000000 0.000000 -0.071486 0.000000 0.098660
#
#
# Mechanical properties :
#
#
# Convention : Reuss Voigt Hill
#
# Bulk Modulus (GPa) = 44.90542 69.87199 57.38871
# Shear Modulus (GPa) = 17.40451 35.91333 26.65892
#
# Velocity S-wave (km/s) = 2.49225 3.58004 3.08448
# Velocity P-wave (km/s) = 4.93027 6.48266 5.75901
#
# Compressibility (1/GPa) = 0.02226903
#
# Stress axis : x y z
#
# Youngs Moduli (GPa) = 140.90692 73.81782 74.28744
#
# Poissons Ratio (x) = 0.36944 0.02998
# Poissons Ratio (y) = 0.70520 0.03786
# Poissons Ratio (z) = 0.05687 0.03762
#
# Static dielectric constant tensor:
#      x y z
#    x 2.268680 0.000000 0.063970 
#    y 0.000000 2.487800 0.000000 
#    z 0.063970 0.000000 2.368590 
# 
# From -- ./inp_files/53294.got.cif
#   From: 2010.05.17/outbox.cif.g08.bks.cpg/sg14_27_cif.got.tgz:53294.got - 2010.06.03 17:49:19.
