data_PCOD9239051
_publ_section_title
;
Structure prediction by ZEFSAII (Michael W. Deem and Ramdas Pophale) SiO2 
 PCOD9239051
Probable space group: P 2/C
;
_chemical_formula_sum "Si O2"
_cell_formula_units_Z 18
_cell_length_a 9.000000
_cell_length_b 12.000000
_cell_length_c 9.000000
_cell_angle_alpha 90.000000
_cell_angle_beta 120.000000
_cell_angle_gamma 90.000000
_cell_volume 841.776692
_symmetry_space_group_name_H-M "P 2/C"
_symmetry_group_IT_number 13
_symmetry_cell_setting 'monoclinic'
loop_
_space_group_symop_operation_xyz
x,y,z
-x,y,1/2-z
-x,-y,-z
x,-y,1/2+z
loop_
_atom_site_type_symbol
_atom_site_label
_atom_site_fract_x
_atom_site_fract_y
_atom_site_fract_z
Si Si1 0.870106 0.644992 0.458136
Si Si2 0.774577 0.569427 0.744757
Si Si3 0.348093 0.937980 0.508730
Si Si4 0.500000 0.727811 0.750000
Si Si5 0.851222 0.088379 0.879260
O O1 0.803527 0.600081 0.585945
O O2 0.782629 0.563307 0.290132
O O3 0.858844 0.779654 0.428440
O O4 0.071515 0.617664 0.575476
O O5 0.612632 0.642793 0.710196
O O6 0.395248 0.816754 0.597321
O O7 0.193450 0.919462 0.316109
O O8 0.500000 0.000000 0.500000
O O9 0.301051 0.027034 0.610279
O O10 0.000000 0.000000 0.000000
#
# Coordination Sequence:
#
# PCOD9239051 Si02
#       5
#     4   4   4   2   4
#     4  10  24  46  69  98 135 181 237 283 341 417
#     4  10  24  44  70  95 138 181 229 285 348 409
#     4  12  25  44  66 102 141 181 225 290 353 410
#     4  12  24  44  70 100 142 182 232 290 356 412
#     4  12  26  44  72 103 136 185 236 284 346 416
#
# _framework density 21.383343
#
# number of rings (size 3 to 8) (size 9 to 14) (size 15 to 20)
#    0.000    0.889    2.222    3.333    9.333    0.889 
#    8.000    0.000    0.000    0.000    0.000    0.000 
#    0.000    0.000    0.000    0.000    0.000    0.000 
#
# Total GULP energy -100395.557345 kJ/mol
# GULP energy per Si atom -5577.530964 kJ/mol
# Density = 2.133467 g / cm^3
# Si number density = 21.383343 Si / 1000 Ang^3
#
#
#
# Elastic Constant Matrix: (Units=GPa)
#
#
# Indices 1 2 3 4 5 6 
#
# 1 71.1847 33.8503 9.5518 0.0000 0.9837 0.0000
# 2 33.8503 215.9885 56.4823 0.0000 -0.3522 0.0000
# 3 9.5518 56.4823 134.8520 0.0000 -2.4219 0.0000
# 4 0.0000 0.0000 0.0000 44.2679 0.0000 6.1021
# 5 0.9837 -0.3522 -2.4219 0.0000 19.6465 0.0000
# 6 0.0000 0.0000 0.0000 6.1021 0.0000 36.3236
#
#
#
# Elastic Compliance Matrix: (Units=1/GPa)
#
#
# Indices 1 2 3 4 5 6 
#
# 1 0.015193 -0.002355 -0.000104 0.000000 -0.000816 0.000000
# 2 -0.002355 0.005565 -0.002165 0.000000 -0.000049 0.000000
# 3 -0.000104 -0.002165 0.008348 0.000000 0.000995 0.000000
# 4 0.000000 0.000000 0.000000 0.023125 0.000000 -0.003885
# 5 -0.000816 -0.000049 0.000995 0.000000 0.051062 0.000000
# 6 0.000000 0.000000 0.000000 -0.003885 0.000000 0.028183
#
#
# Mechanical properties :
#
#
# Convention : Reuss Voigt Hill
#
# Bulk Modulus (GPa) = 50.36042 69.08823 59.72432
# Shear Modulus (GPa) = 33.93413 41.52365 37.72889
#
# Velocity S-wave (km/s) = 3.98797 4.41145 4.20504
# Velocity P-wave (km/s) = 6.69384 7.63723 7.18105
#
# Compressibility (1/GPa) = 0.01985686
#
# Stress axis : x y z
#
# Youngs Moduli (GPa) = 65.81899 179.69279 119.79501
#
# Poissons Ratio (x) = 0.42320 0.01250
# Poissons Ratio (y) = 0.15501 0.25935
# Poissons Ratio (z) = 0.00687 0.38903
#
# Static dielectric constant tensor:
#      x y z
#    x 1.725440 0.000000 0.072810 
#    y 0.000000 1.673380 0.000000 
#    z 0.072810 0.000000 1.792260 
# 
# From -- ./inp_files/11585.got.cif
#   From: 2010.05.17/outbox.ucp.g08.bks.cvg/sg13_6_cif.got.tgz:11585.got - 2010.06.11 12:23:55.
