data_PCOD9239109
_publ_section_title
;
Structure prediction by ZEFSAII (Michael W. Deem and Ramdas Pophale) SiO2 
 PCOD9239109
Probable space group: P 21/C
;
_chemical_formula_sum "Si O2"
_cell_formula_units_Z 28
_cell_length_a 7.654178
_cell_length_b 31.917734
_cell_length_c 5.525514
_cell_angle_alpha 90.000000
_cell_angle_beta 64.297703
_cell_angle_gamma 90.000000
_cell_volume 1216.345149
_symmetry_space_group_name_H-M "P 21/C"
_symmetry_group_IT_number 14
_symmetry_cell_setting 'monoclinic'
loop_
_space_group_symop_operation_xyz
x,y,z
-x,1/2+y,1/2-z
-x,-y,-z
x,1/2-y,1/2+z
loop_
_atom_site_type_symbol
_atom_site_label
_atom_site_fract_x
_atom_site_fract_y
_atom_site_fract_z
Si Si1 0.328820 0.740110 0.716112
Si Si2 0.029911 0.451285 0.417980
Si Si3 0.953734 0.864199 0.953365
Si Si4 0.890866 0.727476 0.498202
Si Si5 0.646552 0.062557 0.908173
Si Si6 0.192938 0.645264 0.813776
Si Si7 0.342387 0.484590 0.896242
O O1 0.432293 0.750093 0.404056
O O2 0.273808 0.691683 0.752611
O O3 0.129626 0.767983 0.847233
O O4 0.122711 0.412215 0.507506
O O5 0.000000 0.500000 0.500000
O O6 0.808440 0.436953 0.518998
O O7 0.172798 0.456561 0.105364
O O8 0.087690 0.860801 0.633969
O O9 0.830589 0.821167 0.013272
O O10 0.052165 0.859555 0.163060
O O11 0.837276 0.752914 0.289128
O O12 0.645809 0.108854 0.804184
O O13 0.731047 0.028087 0.672129
O O14 0.453278 0.042420 0.128007
O O15 0.500000 0.500000 0.000000
#
# Coordination Sequence:
#
# PCOD9239109 Si02
#       7
#     4   4   4   4   4   4   4
#     4  10  15  26  46  74 117 146 183 240 292 345
#     4  11  22  39  62  89 120 158 203 252 300 364
#     4  11  20  31  52  83 118 152 196 243 298 353
#     4  10  15  27  45  74 116 147 183 242 290 347
#     4  10  24  38  63  86 118 161 202 250 304 364
#     4  11  19  32  52  84 117 152 196 244 292 358
#     4  11  22  43  60  84 121 160 200 253 308 355
#
# _framework density 23.019781999999999
#
# number of rings (size 3 to 8) (size 9 to 14) (size 15 to 20)
#    0.000    1.429    7.143    1.286    2.000    1.143 
#    0.000    0.000    0.000    0.000    0.000    2.000 
#    0.000    0.000    0.000    0.000    0.000    0.000 
#
# Total GULP energy -156097.436231 kJ/mol
# GULP energy per Si atom -5574.908437 kJ/mol
# Density = 2.296739 g / cm^3
# Si number density = 23.019782 Si / 1000 Ang^3
#
#
#
# Elastic Constant Matrix: (Units=GPa)
#
#
# Indices 1 2 3 4 5 6 
#
# 1 52.1278 -2.2248 18.5496 0.0000 5.0638 0.0000
# 2 -2.2248 195.6826 59.4544 0.0000 3.2379 0.0000
# 3 18.5496 59.4544 136.5317 0.0000 38.3960 0.0000
# 4 0.0000 0.0000 0.0000 40.4031 0.0000 13.3904
# 5 5.0638 3.2379 38.3960 0.0000 25.2978 0.0000
# 6 0.0000 0.0000 0.0000 13.3904 0.0000 5.1733
#
#
#
# Elastic Compliance Matrix: (Units=1/GPa)
#
#
# Indices 1 2 3 4 5 6 
#
# 1 0.020445 0.001358 -0.003785 0.000000 0.001478 0.000000
# 2 0.001358 0.006449 -0.004683 0.000000 0.006011 0.000000
# 3 -0.003785 -0.004683 0.016568 0.000000 -0.023789 0.000000
# 4 0.000000 0.000000 0.000000 0.174108 0.000000 -0.450658
# 5 0.001478 0.006011 -0.023789 0.000000 0.074570 0.000000
# 6 0.000000 0.000000 0.000000 -0.450658 0.000000 1.359776
#
#
# Mechanical properties :
#
#
# Convention : Reuss Voigt Hill
#
# Bulk Modulus (GPa) = 34.19748 59.54448 46.87098
# Shear Modulus (GPa) = 2.98350 34.74571 18.86460
#
# Velocity S-wave (km/s) = 1.13968 3.88929 2.86579
# Velocity P-wave (km/s) = 4.07674 6.78908 5.59962
#
# Compressibility (1/GPa) = 0.02924192
#
# Stress axis : x y z
#
# Youngs Moduli (GPa) = 48.91226 155.05762 60.35741
#
# Poissons Ratio (x) = -0.21055 0.22843
# Poissons Ratio (y) = -0.06642 0.28267
# Poissons Ratio (z) = 0.18512 0.72618
#
# Static dielectric constant tensor:
#      x y z
#    x 1.978010 0.000000 0.059920 
#    y 0.000000 1.916520 0.000000 
#    z 0.059920 0.000000 1.899290 
# 
# From -- ./inp_files/2191.got.cif
#   From: 2010.05.17/outbox.cif.g08.bks.cpg/sg14_2_cif.got.tgz:2191.got - 2010.06.03 17:49:19.
