data_PCOD9239452
_publ_section_title
;
Structure prediction by ZEFSAII (Michael W. Deem and Ramdas Pophale) SiO2 
 PCOD9239452
Probable space group: P 21/C
;
_chemical_formula_sum "Si O2"
_cell_formula_units_Z 24
_cell_length_a 10.192837
_cell_length_b 11.699383
_cell_length_c 10.772340
_cell_angle_alpha 90.000000
_cell_angle_beta 135.600156
_cell_angle_gamma 90.000000
_cell_volume 898.785385
_symmetry_space_group_name_H-M "P 21/C"
_symmetry_group_IT_number 14
_symmetry_cell_setting 'monoclinic'
loop_
_space_group_symop_operation_xyz
x,y,z
-x,1/2+y,1/2-z
-x,-y,-z
x,1/2-y,1/2+z
loop_
_atom_site_type_symbol
_atom_site_label
_atom_site_fract_x
_atom_site_fract_y
_atom_site_fract_z
Si Si1 0.654086 0.710110 0.974528
Si Si2 0.640215 0.082388 0.010199
Si Si3 0.369529 0.298286 0.786552
Si Si4 0.224806 0.861910 0.164207
Si Si5 0.703426 0.045553 0.529277
Si Si6 0.106740 0.622801 0.083910
O O1 0.700931 0.798148 0.900089
O O2 0.426817 0.702221 0.828094
O O3 0.747305 0.730840 0.170061
O O4 0.714692 0.582198 0.985673
O O5 0.798023 0.108866 0.217255
O O6 0.510650 0.190316 0.888673
O O7 0.740917 0.068149 0.941584
O O8 0.500000 0.000000 0.000000
O O9 0.487244 0.412481 0.894296
O O10 0.195876 0.934070 0.271389
O O11 0.070747 0.760721 0.057715
O O12 0.776207 0.119970 0.465069
O O13 0.000000 0.500000 0.000000
#
# Coordination Sequence:
#
# PCOD9239452 Si02
#       6
#     4   4   4   4   4   4
#     4  10  19  30  61  93 127 171 217 269 351 412
#     4  11  21  38  68 100 129 171 222 281 354 409
#     4  10  17  33  55  89 134 164 208 278 343 400
#     4  10  19  39  64  92 128 176 214 283 341 401
#     4  11  20  38  61  94 133 180 229 277 351 409
#     4  12  22  38  65  94 130 179 232 271 333 413
#
# _framework density 26.702705000000002
#
# number of rings (size 3 to 8) (size 9 to 14) (size 15 to 20)
#    0.000    1.333    6.667    4.000    0.000    1.333 
#    0.000    0.833   14.667    0.000    0.000    0.000 
#    0.000    0.000    0.000    0.000    0.000    0.000 
#
# Total GULP energy -133639.274559 kJ/mol
# GULP energy per Si atom -5568.303107 kJ/mol
# Density = 2.664193 g / cm^3
# Si number density = 26.702705 Si / 1000 Ang^3
#
#
#
# Elastic Constant Matrix: (Units=GPa)
#
#
# Indices 1 2 3 4 5 6 
#
# 1 71.3300 11.6956 56.2444 0.0000 -34.1303 0.0000
# 2 11.6956 129.7130 20.6339 0.0000 -7.9770 0.0000
# 3 56.2444 20.6339 131.0481 0.0000 -53.6199 0.0000
# 4 0.0000 0.0000 0.0000 26.8471 0.0000 -10.6483
# 5 -34.1303 -7.9770 -53.6199 0.0000 64.4285 0.0000
# 6 0.0000 0.0000 0.0000 -10.6483 0.0000 45.1438
#
#
#
# Elastic Compliance Matrix: (Units=1/GPa)
#
#
# Indices 1 2 3 4 5 6 
#
# 1 0.022618 -0.000530 -0.007200 0.000000 0.005924 0.000000
# 2 -0.000530 0.007920 -0.001112 0.000000 -0.000225 0.000000
# 3 -0.007200 -0.001112 0.014070 0.000000 0.007758 0.000000
# 4 0.000000 0.000000 0.000000 0.041092 0.000000 0.009693
# 5 0.005924 -0.000225 0.007758 0.000000 0.025088 0.000000
# 6 0.000000 0.000000 0.000000 0.009693 0.000000 0.024438
#
#
# Mechanical properties :
#
#
# Convention : Reuss Voigt Hill
#
# Bulk Modulus (GPa) = 37.14036 56.58211 46.86124
# Shear Modulus (GPa) = 30.88607 43.51835 37.20221
#
# Velocity S-wave (km/s) = 3.40467 4.04138 3.73661
# Velocity P-wave (km/s) = 5.42169 6.55840 6.01695
#
# Compressibility (1/GPa) = 0.02692489
#
# Stress axis : x y z
#
# Youngs Moduli (GPa) = 44.21231 126.26095 71.07101
#
# Poissons Ratio (x) = 0.06688 0.51173
# Poissons Ratio (y) = 0.02342 0.07902
# Poissons Ratio (z) = 0.31834 0.14039
#
# Static dielectric constant tensor:
#      x y z
#    x 2.285670 0.000000 0.028130 
#    y 0.000000 2.209570 0.000000 
#    z 0.028130 0.000000 2.101050 
# 
# From -- ./inp_files/29192.got.cif
#   From: 2010.05.17/outbox.cif.g08.bks.cpg/sg14_15_cif.got.tgz:29192.got - 2010.06.03 17:49:19.
