data_PCOD9239570
_publ_section_title
;
Structure prediction by ZEFSAII (Michael W. Deem and Ramdas Pophale) SiO2 
 PCOD9239570
Probable space group: P 21/C
;
_chemical_formula_sum "Si O2"
_cell_formula_units_Z 24
_cell_length_a 9.469645
_cell_length_b 7.709154
_cell_length_c 13.386702
_cell_angle_alpha 90.000000
_cell_angle_beta 102.188079
_cell_angle_gamma 90.000000
_cell_volume 955.240966
_symmetry_space_group_name_H-M "P 21/C"
_symmetry_group_IT_number 14
_symmetry_cell_setting 'monoclinic'
loop_
_space_group_symop_operation_xyz
x,y,z
-x,1/2+y,1/2-z
-x,-y,-z
x,1/2-y,1/2+z
loop_
_atom_site_type_symbol
_atom_site_label
_atom_site_fract_x
_atom_site_fract_y
_atom_site_fract_z
Si Si1 0.122307 0.395404 0.077575
Si Si2 0.611776 0.363950 0.896222
Si Si3 0.378966 0.840553 0.359616
Si Si4 0.932348 0.440223 0.228631
Si Si5 0.153891 0.197045 0.888252
Si Si6 0.457866 0.467705 0.379785
O O1 0.250706 0.529223 0.120296
O O2 0.571396 0.329057 0.355194
O O3 0.041728 0.348322 0.166765
O O4 0.000000 0.500000 0.000000
O O5 0.476515 0.491042 0.856714
O O6 0.635891 0.344644 0.020518
O O7 0.825691 0.753496 0.991629
O O8 0.219609 0.844315 0.290661
O O9 0.451941 0.660855 0.337120
O O10 0.890250 0.622847 0.172040
O O11 0.021156 0.432051 0.344810
O O12 0.300050 0.120312 0.863393
O O13 0.500000 0.500000 0.500000
#
# Coordination Sequence:
#
# PCOD9239570 Si02
#       6
#     4   4   4   4   4   4
#     4  10  20  38  67  92 129 175 215 273 340 384
#     4  10  17  36  65  89 126 166 214 267 327 383
#     4  10  18  34  62  95 125 170 212 264 325 395
#     4  11  22  39  68  94 135 178 215 282 339 392
#     4  11  21  40  63  96 131 173 219 270 331 398
#     4  10  20  33  65  98 119 168 223 259 323 402
#
# _framework density 25.124552000000001
#
# number of rings (size 3 to 8) (size 9 to 14) (size 15 to 20)
#    0.000    1.667    5.000    3.000    0.000    0.000 
#    0.000    3.333   29.333    0.000    0.000    0.000 
#    0.000    0.000    0.000    0.000    0.000    0.000 
#
# Total GULP energy -134296.432955 kJ/mol
# GULP energy per Si atom -5595.684706 kJ/mol
# Density = 2.506737 g / cm^3
# Si number density = 25.124552 Si / 1000 Ang^3
#
#
#
# Elastic Constant Matrix: (Units=GPa)
#
#
# Indices 1 2 3 4 5 6 
#
# 1 99.3697 40.3910 49.4560 0.0000 15.8210 0.0000
# 2 40.3910 125.5711 37.5780 0.0000 1.0886 0.0000
# 3 49.4560 37.5780 95.9979 0.0000 10.8810 0.0000
# 4 0.0000 0.0000 0.0000 53.3489 0.0000 8.3933
# 5 15.8210 1.0886 10.8810 0.0000 44.9457 0.0000
# 6 0.0000 0.0000 0.0000 8.3933 0.0000 33.0448
#
#
#
# Elastic Compliance Matrix: (Units=1/GPa)
#
#
# Indices 1 2 3 4 5 6 
#
# 1 0.014877 -0.002928 -0.006100 0.000000 -0.003689 0.000000
# 2 -0.002928 0.009615 -0.002412 0.000000 0.001382 0.000000
# 3 -0.006100 -0.002412 0.014656 0.000000 -0.001342 0.000000
# 4 0.000000 0.000000 0.000000 0.019525 0.000000 -0.004959
# 5 -0.003689 0.001382 -0.001342 0.000000 0.023839 0.000000
# 6 0.000000 0.000000 0.000000 -0.004959 0.000000 0.031522
#
#
# Mechanical properties :
#
#
# Convention : Reuss Voigt Hill
#
# Bulk Modulus (GPa) = 61.47011 63.97652 62.72331
# Shear Modulus (GPa) = 35.12820 39.16878 37.14849
#
# Velocity S-wave (km/s) = 3.74326 3.95268 3.84939
# Velocity P-wave (km/s) = 6.57282 6.80813 6.69151
#
# Compressibility (1/GPa) = 0.01626807
#
# Stress axis : x y z
#
# Youngs Moduli (GPa) = 67.21894 104.00170 68.23220
#
# Poissons Ratio (x) = 0.30450 0.41621
# Poissons Ratio (y) = 0.19680 0.16458
# Poissons Ratio (z) = 0.41003 0.25086
#
# Static dielectric constant tensor:
#      x y z
#    x 1.827220 0.000000 -0.114680 
#    y 0.000000 2.002780 0.000000 
#    z -0.114680 0.000000 2.039690 
# 
# From -- ./inp_files/57123.got.cif
#   From: 2010.05.17/outbox.cif.g08.bks.cpg/sg14_29_cif.got.tgz:57123.got - 2010.06.03 17:49:19.
