data_PCOD9239936
_publ_section_title
;
Structure prediction by ZEFSAII (Michael W. Deem and Ramdas Pophale) SiO2 
 PCOD9239936
Probable space group: P 21/C
;
_chemical_formula_sum "Si O2"
_cell_formula_units_Z 32
_cell_length_a 8.838374
_cell_length_b 16.595787
_cell_length_c 14.761816
_cell_angle_alpha 90.000000
_cell_angle_beta 142.649117
_cell_angle_gamma 90.000000
_cell_volume 1313.651439
_symmetry_space_group_name_H-M "P 21/C"
_symmetry_group_IT_number 14
_symmetry_cell_setting 'monoclinic'
loop_
_space_group_symop_operation_xyz
x,y,z
-x,1/2+y,1/2-z
-x,-y,-z
x,1/2-y,1/2+z
loop_
_atom_site_type_symbol
_atom_site_label
_atom_site_fract_x
_atom_site_fract_y
_atom_site_fract_z
Si Si1 0.404390 0.165864 0.416774
Si Si2 0.610351 0.961833 0.431307
Si Si3 0.159430 0.076917 0.964705
Si Si4 0.294657 0.307154 0.146314
Si Si5 0.877484 0.378786 0.039688
Si Si6 0.959243 0.764505 0.143371
Si Si7 0.356013 0.828572 0.754581
Si Si8 0.115266 0.434055 0.652542
O O1 0.412511 0.087644 0.486419
O O2 0.674864 0.171796 0.500796
O O3 0.280100 0.235497 0.415882
O O4 0.201686 0.146371 0.242539
O O5 0.650737 0.891512 0.377557
O O6 0.832129 0.027883 0.544464
O O7 0.362909 0.010259 0.283477
O O8 0.434867 0.112431 0.105216
O O9 0.063032 0.080375 0.022625
O O10 0.004704 0.140684 0.831598
O O11 0.109857 0.985607 0.912613
O O12 0.531022 0.248269 0.247966
O O13 0.108875 0.255160 0.994047
O O14 0.146684 0.335826 0.165286
O O15 0.789910 0.377376 0.892272
O O16 0.197298 0.707648 0.262272
#
# Coordination Sequence:
#
# PCOD9239936 Si02
#       8
#     4   4   4   4   4   4   4   4
#     4  10  20  37  57  88 116 157 192 240 292 350
#     4  10  18  34  57  85 117 151 190 239 293 343
#     4  10  19  35  59  87 113 155 194 240 292 352
#     4   9  19  31  55  84 107 147 196 238 280 343
#     4  10  18  33  55  83 113 144 193 242 283 336
#     4   9  20  35  58  77 117 156 194 233 289 349
#     4  10  18  36  54  81 113 151 192 240 284 342
#     4  10  19  33  61  88 119 149 196 242 296 346
#
# _framework density 24.359582
#
# number of rings (size 3 to 8) (size 9 to 14) (size 15 to 20)
#    0.000    2.250    2.500    2.625    0.000    0.000 
#    0.000    6.875    0.000    0.000    0.000    0.000 
#    0.000    0.000    0.000    0.000    0.000    0.000 
#
# Total GULP energy -178565.434878 kJ/mol
# GULP energy per Si atom -5580.169840 kJ/mol
# Density = 2.430414 g / cm^3
# Si number density = 24.359582 Si / 1000 Ang^3
#
#
#
# Elastic Constant Matrix: (Units=GPa)
#
#
# Indices 1 2 3 4 5 6 
#
# 1 84.1819 9.9082 4.9936 0.0000 11.1984 0.0000
# 2 9.9082 64.7985 -2.0935 0.0000 4.9362 0.0000
# 3 4.9936 -2.0935 41.8546 0.0000 -0.3583 0.0000
# 4 0.0000 0.0000 0.0000 30.5397 0.0000 0.2993
# 5 11.1984 4.9362 -0.3583 0.0000 23.0952 0.0000
# 6 0.0000 0.0000 0.0000 0.2993 0.0000 32.0300
#
#
#
# Elastic Compliance Matrix: (Units=1/GPa)
#
#
# Indices 1 2 3 4 5 6 
#
# 1 0.012959 -0.001581 -0.001676 0.000000 -0.005972 0.000000
# 2 -0.001581 0.015905 0.000962 0.000000 -0.002618 0.000000
# 3 -0.001676 0.000962 0.024149 0.000000 0.000982 0.000000
# 4 0.000000 0.000000 0.000000 0.032747 0.000000 -0.000306
# 5 -0.005972 -0.002618 0.000982 0.000000 0.046769 0.000000
# 6 0.000000 0.000000 0.000000 -0.000306 0.000000 0.031224
#
#
# Mechanical properties :
#
#
# Convention : Reuss Voigt Hill
#
# Bulk Modulus (GPa) = 20.65193 24.05018 22.35105
# Shear Modulus (GPa) = 27.10263 29.00141 28.05202
#
# Velocity S-wave (km/s) = 3.33919 3.45418 3.39718
# Velocity P-wave (km/s) = 4.83356 5.07966 4.95814
#
# Compressibility (1/GPa) = 0.04842163
#
# Stress axis : x y z
#
# Youngs Moduli (GPa) = 77.16688 62.87463 41.40999
#
# Poissons Ratio (x) = 0.09939 0.06942
# Poissons Ratio (y) = 0.12198 -0.03982
# Poissons Ratio (z) = 0.12936 -0.06047
#
# Static dielectric constant tensor:
#      x y z
#    x 2.001540 0.000000 0.020020 
#    y 0.000000 1.992270 0.000000 
#    z 0.020020 0.000000 2.073210 
# 
# From -- ./inp_files/56100.got.cif
#   From: 2010.05.17/outbox.cif.g08.bks.cpg/sg14_29_cif.got.tgz:56100.got - 2010.06.03 17:49:19.
