data_PCOD9239641
_publ_section_title
;
Structure prediction by ZEFSAII (Michael W. Deem and Ramdas Pophale) SiO2 
 PCOD9239641
Probable space group: P 21/C
;
_chemical_formula_sum "Si O2"
_cell_formula_units_Z 32
_cell_length_a 14.851556
_cell_length_b 5.410386
_cell_length_c 16.001961
_cell_angle_alpha 90.000000
_cell_angle_beta 87.139042
_cell_angle_gamma 90.000000
_cell_volume 1284.197361
_symmetry_space_group_name_H-M "P 21/C"
_symmetry_group_IT_number 14
_symmetry_cell_setting 'monoclinic'
loop_
_space_group_symop_operation_xyz
x,y,z
-x,1/2+y,1/2-z
-x,-y,-z
x,1/2-y,1/2+z
loop_
_atom_site_type_symbol
_atom_site_label
_atom_site_fract_x
_atom_site_fract_y
_atom_site_fract_z
Si Si1 0.223085 0.240291 0.187665
Si Si2 0.123174 0.732604 0.510102
Si Si3 0.924468 0.732605 0.080707
Si Si4 0.699831 0.258075 0.766005
Si Si5 0.050096 0.149044 0.742866
Si Si6 0.665935 0.255357 0.959700
Si Si7 0.387179 0.256250 0.551775
Si Si8 0.476328 0.760601 0.302125
O O1 0.255989 0.474551 0.239613
O O2 0.121283 0.303862 0.165809
O O3 0.292026 0.238314 0.107266
O O4 0.233235 0.971971 0.228167
O O5 0.113937 0.464107 0.468172
O O6 0.225435 0.755443 0.537722
O O7 0.034399 0.746674 0.573375
O O8 0.105405 0.966222 0.450498
O O9 0.897493 0.765835 0.177075
O O10 0.648510 0.255143 0.859305
O O11 0.631673 0.218095 0.693572
O O12 0.976236 0.365875 0.740742
O O13 0.620214 0.501721 0.996965
O O14 0.618670 0.011100 0.997270
O O15 0.465601 0.249970 0.616609
O O16 0.493692 0.503805 0.251424
#
# Coordination Sequence:
#
# PCOD9239641 Si02
#       8
#     4   4   4   4   4   4   4   4
#     4  10  20  33  47  74 104 144 177 212 265 324
#     4  10  21  38  59  72 106 139 186 236 277 315
#     4  10  23  40  53  80 100 142 185 233 280 322
#     4  10  19  31  50  78 113 141 178 215 269 345
#     4  12  26  39  59  81 111 147 187 234 278 331
#     4  10  18  29  49  75  98 140 172 215 262 313
#     4  10  19  28  48  78 113 137 174 213 266 343
#     4  12  16  30  45  74 117 152 165 212 275 335
#
# _framework density 24.918289999999999
#
# number of rings (size 3 to 8) (size 9 to 14) (size 15 to 20)
#    0.000    1.500    5.000    2.250    7.000    0.000 
#    0.000    0.000    0.000    0.000    0.000    0.000 
#    0.000   34.000    0.000    0.000    0.000    0.000 
#
# Total GULP energy -178856.276350 kJ/mol
# GULP energy per Si atom -5589.258636 kJ/mol
# Density = 2.486158 g / cm^3
# Si number density = 24.918290 Si / 1000 Ang^3
#
#
#
# Elastic Constant Matrix: (Units=GPa)
#
#
# Indices 1 2 3 4 5 6 
#
# 1 60.3680 25.5147 20.1840 0.0000 10.1620 0.0000
# 2 25.5147 185.3561 21.6993 0.0000 16.8542 0.0000
# 3 20.1840 21.6993 46.1357 0.0000 12.3820 0.0000
# 4 0.0000 0.0000 0.0000 25.9213 0.0000 17.5851
# 5 10.1620 16.8542 12.3820 0.0000 27.0106 0.0000
# 6 0.0000 0.0000 0.0000 17.5851 0.0000 38.3422
#
#
#
# Elastic Compliance Matrix: (Units=1/GPa)
#
#
# Indices 1 2 3 4 5 6 
#
# 1 0.020216 -0.001642 -0.007190 0.000000 -0.003285 0.000000
# 2 -0.001642 0.006015 -0.001447 0.000000 -0.002472 0.000000
# 3 -0.007190 -0.001447 0.027975 0.000000 -0.009216 0.000000
# 4 0.000000 0.000000 0.000000 0.056003 0.000000 -0.025685
# 5 -0.003285 -0.002472 -0.009216 0.000000 0.044026 0.000000
# 6 0.000000 0.000000 0.000000 -0.025685 0.000000 0.037861
#
#
# Mechanical properties :
#
#
# Convention : Reuss Voigt Hill
#
# Bulk Modulus (GPa) = 29.72071 47.40619 38.56345
# Shear Modulus (GPa) = 22.33423 33.21894 27.77658
#
# Velocity S-wave (km/s) = 2.99707 3.65515 3.34234
# Velocity P-wave (km/s) = 4.89180 6.07284 5.51403
#
# Compressibility (1/GPa) = 0.03364657
#
# Stress axis : x y z
#
# Youngs Moduli (GPa) = 49.46508 166.24264 35.74619
#
# Poissons Ratio (x) = 0.27303 0.25703
# Poissons Ratio (y) = 0.08124 0.05173
# Poissons Ratio (z) = 0.35568 0.24059
#
# Static dielectric constant tensor:
#      x y z
#    x 2.096620 0.000000 -0.063740 
#    y 0.000000 2.092790 0.000000 
#    z -0.063740 0.000000 2.006930 
# 
# From -- ./inp_files/67865.got.cif
#   From: 2010.05.17/outbox.cif.g08.bks.cpg/sg14_34_cif.got.tgz:67865.got - 2010.06.03 17:49:19.
