data_PCOD9239625
_publ_section_title
;
Structure prediction by ZEFSAII (Michael W. Deem and Ramdas Pophale) SiO2 
 PCOD9239625
Probable space group: P 21/C
;
_chemical_formula_sum "Si O2"
_cell_formula_units_Z 24
_cell_length_a 8.079049
_cell_length_b 8.101510
_cell_length_c 14.135545
_cell_angle_alpha 90.000000
_cell_angle_beta 114.584126
_cell_angle_gamma 90.000000
_cell_volume 841.338019
_symmetry_space_group_name_H-M "P 21/C"
_symmetry_group_IT_number 14
_symmetry_cell_setting 'monoclinic'
loop_
_space_group_symop_operation_xyz
x,y,z
-x,1/2+y,1/2-z
-x,-y,-z
x,1/2-y,1/2+z
loop_
_atom_site_type_symbol
_atom_site_label
_atom_site_fract_x
_atom_site_fract_y
_atom_site_fract_z
Si Si1 0.388045 0.430416 0.611174
Si Si2 0.946890 0.757930 0.510097
Si Si3 0.045443 0.774336 0.814336
Si Si4 0.375467 0.914236 0.312143
Si Si5 0.730151 0.591558 0.684013
Si Si6 0.273745 0.952484 0.604960
O O1 0.331660 0.506349 0.699112
O O2 0.525244 0.566132 0.599770
O O3 0.207684 0.380211 0.509978
O O4 0.508339 0.261803 0.657003
O O5 0.146951 0.795828 0.598899
O O6 0.995353 0.734323 0.411619
O O7 0.838003 0.929823 0.491562
O O8 0.192841 0.634481 0.822457
O O9 0.143761 0.943740 0.819499
O O10 0.860568 0.748856 0.709898
O O11 0.521321 0.050479 0.384841
O O12 0.708675 0.549340 0.791309
#
# Coordination Sequence:
#
# PCOD9239625 Si02
#       6
#     4   4   4   4   4   4
#     4   9  17  30  48  67  92 126 158 186 228 283
#     4   9  16  28  47  69  93 121 155 194 231 271
#     4  10  18  28  48  73  94 118 155 201 233 262
#     4   9  17  29  47  70  94 123 156 191 230 274
#     4   9  18  31  48  69  93 123 157 192 231 276
#     4   8  16  30  46  67  94 124 155 186 231 282
#
# _framework density 28.525988999999999
#
# number of rings (size 3 to 8) (size 9 to 14) (size 15 to 20)
#    0.000    3.000    0.000    2.000    0.000    0.667 
#    0.000    1.667    0.000   17.000    0.000    0.000 
#    0.000    0.000    0.000    0.000    0.000    0.000 
#
# Total GULP energy -134159.600825 kJ/mol
# GULP energy per Si atom -5589.983368 kJ/mol
# Density = 2.846106 g / cm^3
# Si number density = 28.525989 Si / 1000 Ang^3
#
#
#
# Elastic Constant Matrix: (Units=GPa)
#
#
# Indices 1 2 3 4 5 6 
#
# 1 167.8803 59.0632 30.5512 0.0000 43.3707 0.0000
# 2 59.0632 125.4376 33.0237 0.0000 21.5782 0.0000
# 3 30.5512 33.0237 70.9051 0.0000 22.1361 0.0000
# 4 0.0000 0.0000 0.0000 40.1397 0.0000 8.1304
# 5 43.3707 21.5782 22.1361 0.0000 46.0460 0.0000
# 6 0.0000 0.0000 0.0000 8.1304 0.0000 52.6780
#
#
#
# Elastic Compliance Matrix: (Units=1/GPa)
#
#
# Indices 1 2 3 4 5 6 
#
# 1 0.008777 -0.002884 -0.000329 0.000000 -0.006757 0.000000
# 2 -0.002884 0.010310 -0.003411 0.000000 -0.000476 0.000000
# 3 -0.000329 -0.003411 0.017929 0.000000 -0.006711 0.000000
# 4 0.000000 0.000000 0.000000 0.025717 0.000000 -0.003969
# 5 -0.006757 -0.000476 -0.006711 0.000000 0.031531 0.000000
# 6 0.000000 0.000000 0.000000 -0.003969 0.000000 0.019596
#
#
# Mechanical properties :
#
#
# Convention : Reuss Voigt Hill
#
# Bulk Modulus (GPa) = 42.07277 67.72212 54.89745
# Shear Modulus (GPa) = 37.02929 43.87840 40.45385
#
# Velocity S-wave (km/s) = 3.60681 3.92623 3.76991
# Velocity P-wave (km/s) = 5.66801 6.65926 6.18353
#
# Compressibility (1/GPa) = 0.02376834
#
# Stress axis : x y z
#
# Youngs Moduli (GPa) = 113.93846 96.99732 55.77646
#
# Poissons Ratio (x) = 0.27969 0.01836
# Poissons Ratio (y) = 0.32854 0.19024
# Poissons Ratio (z) = 0.03750 0.33083
#
# Static dielectric constant tensor:
#      x y z
#    x 2.287170 0.000000 0.049250 
#    y 0.000000 2.256960 0.000000 
#    z 0.049250 0.000000 2.276950 
# 
# From -- ./inp_files/54630.got.cif
#   From: 2010.05.17/outbox.cif.g08.bks.cpg/sg14_28_cif.got.tgz:54630.got - 2010.06.03 17:49:19.
