data_PCOD9239763
_publ_section_title
;
Structure prediction by ZEFSAII (Michael W. Deem and Ramdas Pophale) SiO2 
 PCOD9239763
Probable space group: P 21/C
;
_chemical_formula_sum "Si O2"
_cell_formula_units_Z 32
_cell_length_a 9.575650
_cell_length_b 9.607791
_cell_length_c 20.439725
_cell_angle_alpha 90.000000
_cell_angle_beta 96.167448
_cell_angle_gamma 90.000000
_cell_volume 1869.588082
_symmetry_space_group_name_H-M "P 21/C"
_symmetry_group_IT_number 14
_symmetry_cell_setting 'monoclinic'
loop_
_space_group_symop_operation_xyz
x,y,z
-x,1/2+y,1/2-z
-x,-y,-z
x,1/2-y,1/2+z
loop_
_atom_site_type_symbol
_atom_site_label
_atom_site_fract_x
_atom_site_fract_y
_atom_site_fract_z
Si Si1 0.746715 0.189775 0.752319
Si Si2 0.595147 0.154689 0.069631
Si Si3 0.485954 0.583878 0.856727
Si Si4 0.479309 0.721940 0.161455
Si Si5 0.726186 0.810352 0.270956
Si Si6 0.177504 0.944275 0.817736
Si Si7 0.876369 0.952568 0.846664
Si Si8 0.658248 0.451673 0.438899
O O1 0.641695 0.103360 0.700924
O O2 0.645101 0.286096 0.791383
O O3 0.843636 0.296579 0.719064
O O4 0.830810 0.080106 0.798297
O O5 0.557609 0.311478 0.087968
O O6 0.680658 0.081059 0.133127
O O7 0.446741 0.078740 0.053162
O O8 0.681350 0.130446 0.007546
O O9 0.503949 0.423059 0.875044
O O10 0.624642 0.632543 0.823839
O O11 0.619491 0.750694 0.210264
O O12 0.428139 0.847566 0.113145
O O13 0.819386 0.688877 0.309014
O O14 0.805897 0.933302 0.235181
O O15 0.044002 0.960557 0.857875
O O16 0.793518 0.986125 0.909343
#
# Coordination Sequence:
#
# PCOD9239763 Si02
#       8
#     4   4   4   4   4   4   4   4
#     4   9  19  30  48  80 106 132 170 212 260 324
#     4  10  21  37  55  77 103 139 185 219 249 303
#     4  10  18  31  55  78 104 135 171 217 265 306
#     4  10  18  31  55  78 104 135 171 217 265 306
#     4  11  19  32  52  84 108 136 166 214 268 320
#     4  11  21  34  53  79 109 140 170 212 266 314
#     4  11  21  34  53  79 109 140 170 212 266 314
#     4  10  21  37  55  77 103 139 185 219 249 303
#
# _framework density 17.116070000000001
#
# number of rings (size 3 to 8) (size 9 to 14) (size 15 to 20)
#    0.000    1.750    5.000    0.750    0.000    1.000 
#    0.000    0.000    0.000    0.000    0.000    1.750 
#    0.000    0.000    0.000    0.000    0.000    0.000 
#
# Total GULP energy -178236.869845 kJ/mol
# GULP energy per Si atom -5569.902183 kJ/mol
# Density = 1.707711 g / cm^3
# Si number density = 17.116070 Si / 1000 Ang^3
#
#
#
# Elastic Constant Matrix: (Units=GPa)
#
#
# Indices 1 2 3 4 5 6 
#
# 1 59.6266 16.8835 -7.5078 0.0000 -16.3995 0.0000
# 2 16.8835 56.3778 -7.3392 0.0000 -4.6780 0.0000
# 3 -7.5078 -7.3392 28.8867 0.0000 -13.0555 0.0000
# 4 0.0000 0.0000 0.0000 13.5713 0.0000 -0.3514
# 5 -16.3995 -4.6780 -13.0555 0.0000 18.8682 0.0000
# 6 0.0000 0.0000 0.0000 -0.3514 0.0000 17.2953
#
#
#
# Elastic Compliance Matrix: (Units=1/GPa)
#
#
# Indices 1 2 3 4 5 6 
#
# 1 0.036616 -0.002048 0.033685 0.000000 0.054625 0.000000
# 2 -0.002048 0.020282 0.008860 0.000000 0.009379 0.000000
# 3 0.033685 0.008860 0.087081 0.000000 0.091728 0.000000
# 4 0.000000 0.000000 0.000000 0.073724 0.000000 0.001498
# 5 0.054625 0.009379 0.091728 0.000000 0.166273 0.000000
# 6 0.000000 0.000000 0.000000 0.001498 0.000000 0.057850
#
#
# Mechanical properties :
#
#
# Convention : Reuss Voigt Hill
#
# Bulk Modulus (GPa) = 4.44497 16.55156 10.49827
# Shear Modulus (GPa) = 11.47253 19.47059 15.47156
#
# Velocity S-wave (km/s) = 2.59178 3.37644 3.00979
# Velocity P-wave (km/s) = 3.39986 4.98915 4.26911
#
# Compressibility (1/GPa) = 0.22497324
#
# Stress axis : x y z
#
# Youngs Moduli (GPa) = 27.31027 49.30394 11.48354
#
# Poissons Ratio (x) = 0.10097 -0.38682
# Poissons Ratio (y) = 0.05593 -0.10174
# Poissons Ratio (z) = -0.91994 -0.43682
#
# Static dielectric constant tensor:
#      x y z
#    x 1.580210 0.000000 -0.021910 
#    y 0.000000 1.584260 0.000000 
#    z -0.021910 0.000000 1.586780 
# 
# From -- ./inp_files/64866.got.cif
#   From: 2010.05.17/outbox.cif.g08.bks.cpg/sg14_33_cif.got.tgz:64866.got - 2010.06.03 17:49:19.
