data_PCOD9239725
_publ_section_title
;
Structure prediction by ZEFSAII (Michael W. Deem and Ramdas Pophale) SiO2 
 PCOD9239725
Probable space group: P 21/C
;
_chemical_formula_sum "Si O2"
_cell_formula_units_Z 24
_cell_length_a 16.269791
_cell_length_b 6.113806
_cell_length_c 23.598694
_cell_angle_alpha 90.000000
_cell_angle_beta 32.034672
_cell_angle_gamma 90.000000
_cell_volume 1245.121133
_symmetry_space_group_name_H-M "P 21/C"
_symmetry_group_IT_number 14
_symmetry_cell_setting 'monoclinic'
loop_
_space_group_symop_operation_xyz
x,y,z
-x,1/2+y,1/2-z
-x,-y,-z
x,1/2-y,1/2+z
loop_
_atom_site_type_symbol
_atom_site_label
_atom_site_fract_x
_atom_site_fract_y
_atom_site_fract_z
Si Si1 0.425211 0.569179 0.957724
Si Si2 0.378082 0.780904 0.786847
Si Si3 0.384907 0.688369 0.589252
Si Si4 0.715399 0.554462 0.076316
Si Si5 0.308463 0.422780 0.733152
Si Si6 0.856048 0.840157 0.084238
O O1 0.521010 0.367331 0.928730
O O2 0.314556 0.478842 0.972660
O O3 0.553443 0.747244 0.860667
O O4 0.332568 0.684589 0.063417
O O5 0.290330 0.683933 0.892288
O O6 0.556160 0.835012 0.691934
O O7 0.367956 0.601010 0.743626
O O8 0.291295 0.001551 0.822669
O O9 0.500000 0.500000 0.500000
O O10 0.271805 0.557929 0.697477
O O11 0.843882 0.698883 0.033319
O O12 0.162351 0.314775 0.850211
O O13 0.000000 0.000000 0.000000
#
# Coordination Sequence:
#
# PCOD9239725 Si02
#       6
#     4   4   4   4   4   4
#     4  10  18  31  50  85 116 138 189 247 290 344
#     4  11  19  33  55  79 113 152 187 226 291 351
#     4   9  18  29  50  81 121 135 182 246 296 340
#     4  11  19  31  55  78 112 156 189 236 291 347
#     4  10  18  32  53  75 116 152 185 234 297 349
#     4  11  24  35  50  81 124 153 198 237 293 366
#
# _framework density 19.275233
#
# number of rings (size 3 to 8) (size 9 to 14) (size 15 to 20)
#    0.000    1.667    5.000    1.000    0.000    2.667 
#    0.000    0.000    0.000    0.000    0.000    0.000 
#  225.000    0.000    0.000    0.000    0.000    0.167 
#
# Total GULP energy -133687.206133 kJ/mol
# GULP energy per Si atom -5570.300256 kJ/mol
# Density = 1.923136 g / cm^3
# Si number density = 19.275233 Si / 1000 Ang^3
#
#
#
# Elastic Constant Matrix: (Units=GPa)
#
#
# Indices 1 2 3 4 5 6 
#
# 1 102.4548 42.6716 49.4398 0.0000 39.2760 0.0000
# 2 42.6716 90.3259 30.6905 0.0000 23.0118 0.0000
# 3 49.4398 30.6905 53.0794 0.0000 19.5308 0.0000
# 4 0.0000 0.0000 0.0000 32.4362 0.0000 10.1213
# 5 39.2760 23.0118 19.5308 0.0000 30.5015 0.0000
# 6 0.0000 0.0000 0.0000 10.1213 0.0000 35.5935
#
#
#
# Elastic Compliance Matrix: (Units=1/GPa)
#
#
# Indices 1 2 3 4 5 6 
#
# 1 0.026914 -0.001407 -0.015559 0.000000 -0.023632 0.000000
# 2 -0.001407 0.015068 -0.005083 0.000000 -0.006301 0.000000
# 3 -0.015559 -0.005083 0.035961 0.000000 0.000844 0.000000
# 4 0.000000 0.000000 0.000000 0.033832 0.000000 -0.009620
# 5 -0.023632 -0.006301 0.000844 0.000000 0.067429 0.000000
# 6 0.000000 0.000000 0.000000 -0.009620 0.000000 0.030831
#
#
# Mechanical properties :
#
#
# Convention : Reuss Voigt Hill
#
# Bulk Modulus (GPa) = 29.54800 54.60709 42.07754
# Shear Modulus (GPa) = 18.83845 27.91011 23.37428
#
# Velocity S-wave (km/s) = 3.12963 3.80936 3.48610
# Velocity P-wave (km/s) = 5.33126 6.90941 6.17099
#
# Compressibility (1/GPa) = 0.03384324
#
# Stress axis : x y z
#
# Youngs Moduli (GPa) = 37.15545 66.36437 27.80816
#
# Poissons Ratio (x) = 0.09341 0.43268
# Poissons Ratio (y) = 0.05230 0.14135
# Poissons Ratio (z) = 0.57811 0.33733
#
# Static dielectric constant tensor:
#      x y z
#    x 1.712260 0.000000 0.072680 
#    y 0.000000 1.725300 0.000000 
#    z 0.072680 0.000000 1.795780 
# 
# From -- ./inp_files/72788.got.cif
#   From: 2010.05.17/outbox.cif.g08.bks.cpg/sg14_37_cif.got.tgz:72788.got - 2010.06.03 17:49:19.
