data_PCOD9239985
_publ_section_title
;
Structure prediction by ZEFSAII (Michael W. Deem and Ramdas Pophale) SiO2 
 PCOD9239985
Probable space group: P 21/C
;
_chemical_formula_sum "Si O2"
_cell_formula_units_Z 20
_cell_length_a 11.382829
_cell_length_b 5.622061
_cell_length_c 23.263429
_cell_angle_alpha 90.000000
_cell_angle_beta 48.768637
_cell_angle_gamma 90.000000
_cell_volume 1119.614869
_symmetry_space_group_name_H-M "P 21/C"
_symmetry_group_IT_number 14
_symmetry_cell_setting 'monoclinic'
loop_
_space_group_symop_operation_xyz
x,y,z
-x,1/2+y,1/2-z
-x,-y,-z
x,1/2-y,1/2+z
loop_
_atom_site_type_symbol
_atom_site_label
_atom_site_fract_x
_atom_site_fract_y
_atom_site_fract_z
Si Si1 0.056203 0.956219 0.204376
Si Si2 0.323541 0.045616 0.483302
Si Si3 0.389842 0.808736 0.065937
Si Si4 0.136599 0.804561 0.455877
Si Si5 0.964664 0.585548 0.417815
O O1 0.243749 0.928357 0.143698
O O2 0.991140 0.707417 0.251079
O O3 0.006117 0.979271 0.153908
O O4 0.492395 0.166841 0.431075
O O5 0.178968 0.226559 0.540603
O O6 0.325323 0.862896 0.536270
O O7 0.289843 0.923886 0.432855
O O8 0.500000 0.000000 0.000000
O O9 0.093035 0.608924 0.517732
O O10 0.118668 0.696283 0.398266
O O11 0.000000 0.000000 0.500000
#
# Coordination Sequence:
#
# PCOD9239985 Si02
#       5
#     4   4   4   4   4
#     4  12  26  40  60  94 135 168 200 257 332 395
#     4  10  18  33  60  91 119 155 205 271 309 348
#     4  11  21  35  61  88 125 159 215 262 303 376
#     4   9  18  31  60  88 117 151 210 273 297 355
#     4  10  19  36  55  94 118 158 208 261 309 371
#
# _framework density 17.863285999999999
#
# number of rings (size 3 to 8) (size 9 to 14) (size 15 to 20)
#    0.000    1.600    4.000    1.200    5.600    0.000 
#    0.000    0.000    0.000    0.000   20.800    0.000 
#    0.000    0.000    0.000    0.000    0.000    0.000 
#
# Total GULP energy -111432.183923 kJ/mol
# GULP energy per Si atom -5571.609196 kJ/mol
# Density = 1.782263 g / cm^3
# Si number density = 17.863286 Si / 1000 Ang^3
#
#
#
# Elastic Constant Matrix: (Units=GPa)
#
#
# Indices 1 2 3 4 5 6 
#
# 1 167.9610 60.1375 45.9359 0.0000 10.4301 0.0000
# 2 60.1375 119.1681 50.3838 0.0000 -0.6065 0.0000
# 3 45.9359 50.3838 81.0393 0.0000 -2.8755 0.0000
# 4 0.0000 0.0000 0.0000 25.6861 0.0000 -0.5326
# 5 10.4301 -0.6065 -2.8755 0.0000 24.5377 0.0000
# 6 0.0000 0.0000 0.0000 -0.5326 0.0000 55.6862
#
#
#
# Elastic Compliance Matrix: (Units=1/GPa)
#
#
# Indices 1 2 3 4 5 6 
#
# 1 0.007998 -0.002824 -0.002913 0.000000 -0.003811 0.000000
# 2 -0.002824 0.012388 -0.006073 0.000000 0.000795 0.000000
# 3 -0.002913 -0.006073 0.017880 0.000000 0.003183 0.000000
# 4 0.000000 0.000000 0.000000 0.038939 0.000000 0.000372
# 5 -0.003811 0.000795 0.003183 0.000000 0.042766 0.000000
# 6 0.000000 0.000000 0.000000 0.000372 0.000000 0.017961
#
#
# Mechanical properties :
#
#
# Convention : Reuss Voigt Hill
#
# Bulk Modulus (GPa) = 68.27937 75.67588 71.97763
# Shear Modulus (GPa) = 30.04161 35.29608 32.66884
#
# Velocity S-wave (km/s) = 4.10537 4.44993 4.28112
# Velocity P-wave (km/s) = 7.79604 8.29810 8.05099
#
# Compressibility (1/GPa) = 0.01464571
#
# Stress axis : x y z
#
# Youngs Moduli (GPa) = 125.02710 80.72084 55.92916
#
# Poissons Ratio (x) = 0.22796 0.16293
# Poissons Ratio (y) = 0.35308 0.33967
# Poissons Ratio (z) = 0.36423 0.49023
#
# Static dielectric constant tensor:
#      x y z
#    x 1.640830 0.000000 0.015080 
#    y 0.000000 1.701740 0.000000 
#    z 0.015080 0.000000 1.577810 
# 
# From -- ./inp_files/49574.got.cif
#   From: 2010.05.17/outbox.cif.g08.bks.cpg/sg14_25_cif.got.tgz:49574.got - 2010.06.03 17:49:19.
