data_PCOD9239373
_publ_section_title
;
Structure prediction by ZEFSAII (Michael W. Deem and Ramdas Pophale) SiO2 
 PCOD9239373
Probable space group: P 21/C
;
_chemical_formula_sum "Si O2"
_cell_formula_units_Z 28
_cell_length_a 5.415187
_cell_length_b 13.956301
_cell_length_c 14.905175
_cell_angle_alpha 90.000000
_cell_angle_beta 114.326257
_cell_angle_gamma 90.000000
_cell_volume 1026.458825
_symmetry_space_group_name_H-M "P 21/C"
_symmetry_group_IT_number 14
_symmetry_cell_setting 'monoclinic'
loop_
_space_group_symop_operation_xyz
x,y,z
-x,1/2+y,1/2-z
-x,-y,-z
x,1/2-y,1/2+z
loop_
_atom_site_type_symbol
_atom_site_label
_atom_site_fract_x
_atom_site_fract_y
_atom_site_fract_z
Si Si1 0.083083 0.155554 0.268480
Si Si2 0.533535 0.092266 0.852240
Si Si3 0.792431 0.448849 0.036636
Si Si4 0.361390 0.805475 0.681259
Si Si5 0.392033 0.125991 0.086762
Si Si6 0.937549 0.047733 0.763795
Si Si7 0.861571 0.272909 0.561565
O O1 0.399151 0.139149 0.331094
O O2 0.987716 0.061422 0.201434
O O3 0.942401 0.167178 0.342408
O O4 0.001892 0.236388 0.183595
O O5 0.618722 0.990253 0.910806
O O6 0.654589 0.070064 0.769382
O O7 0.214343 0.102429 0.826725
O O8 0.633771 0.201870 0.863145
O O9 0.910795 0.454178 0.154133
O O10 0.799450 0.334169 0.019699
O O11 0.500000 0.500000 0.000000
O O12 0.000000 0.500000 0.000000
O O13 0.477369 0.826592 0.802101
O O14 0.586400 0.166601 0.037931
O O15 0.090542 0.169734 0.040292
#
# Coordination Sequence:
#
# PCOD9239373 Si02
#       7
#     4   4   4   4   4   4   4
#     4  10  18  33  50  78 102 146 182 239 311 315
#     4  12  19  31  55  82 111 154 183 231 316 357
#     4  12  26  40  55  83 120 173 209 222 282 360
#     4  10  18  28  43  72 113 133 173 221 283 370
#     4  10  17  31  48  80 106 143 185 226 305 351
#     4  12  20  36  55  77 114 151 202 242 273 365
#     4  10  18  35  52  72 114 142 186 253 266 344
#
# _framework density 27.278251000000001
#
# number of rings (size 3 to 8) (size 9 to 14) (size 15 to 20)
#    0.000    1.143    5.714    6.000    0.000    0.000 
#    0.000    0.000    0.000    0.000    0.000    0.000 
#    0.000   22.857    0.000    0.000    0.000    0.000 
#
# Total GULP energy -156332.523718 kJ/mol
# GULP energy per Si atom -5583.304418 kJ/mol
# Density = 2.721616 g / cm^3
# Si number density = 27.278251 Si / 1000 Ang^3
#
#
#
# Elastic Constant Matrix: (Units=GPa)
#
#
# Indices 1 2 3 4 5 6 
#
# 1 204.7299 39.1600 -9.0384 0.0000 -14.1176 0.0000
# 2 39.1600 179.2253 17.0489 0.0000 -4.7757 0.0000
# 3 -9.0384 17.0489 61.8878 0.0000 -0.6105 0.0000
# 4 0.0000 0.0000 0.0000 44.6631 0.0000 -3.9369
# 5 -14.1176 -4.7757 -0.6105 0.0000 29.2502 0.0000
# 6 0.0000 0.0000 0.0000 -3.9369 0.0000 46.2494
#
#
#
# Elastic Compliance Matrix: (Units=1/GPa)
#
#
# Indices 1 2 3 4 5 6 
#
# 1 0.005331 -0.001209 0.001135 0.000000 0.002399 0.000000
# 2 -0.001209 0.006028 -0.001834 0.000000 0.000362 0.000000
# 3 0.001135 -0.001834 0.016835 0.000000 0.000600 0.000000
# 4 0.000000 0.000000 0.000000 0.022559 0.000000 0.001920
# 5 0.002399 0.000362 0.000600 0.000000 0.035418 0.000000
# 6 0.000000 0.000000 0.000000 0.001920 0.000000 0.021785
#
#
# Mechanical properties :
#
#
# Convention : Reuss Voigt Hill
#
# Bulk Modulus (GPa) = 41.01737 60.02046 50.51891
# Shear Modulus (GPa) = 41.70242 50.61072 46.15657
#
# Velocity S-wave (km/s) = 3.91420 4.31205 4.11793
# Velocity P-wave (km/s) = 5.95796 6.84416 6.41638
#
# Compressibility (1/GPa) = 0.02437992
#
# Stress axis : x y z
#
# Youngs Moduli (GPa) = 187.57136 165.89840 59.39973
#
# Poissons Ratio (x) = 0.20056 -0.06744
# Poissons Ratio (y) = 0.22676 0.10891
# Poissons Ratio (z) = -0.21295 0.30418
#
# Static dielectric constant tensor:
#      x y z
#    x 2.230150 0.000000 -0.037640 
#    y 0.000000 2.163780 0.000000 
#    z -0.037640 0.000000 2.383880 
# 
# From -- ./inp_files/53515.got.cif
#   From: 2010.05.17/outbox.cif.g08.bks.cpg/sg14_27_cif.got.tgz:53515.got - 2010.06.03 17:49:19.
