data_PCOD9239855
_publ_section_title
;
Structure prediction by ZEFSAII (Michael W. Deem and Ramdas Pophale) SiO2 
 PCOD9239855
Probable space group: P 21/C
;
_chemical_formula_sum "Si O2"
_cell_formula_units_Z 28
_cell_length_a 11.843011
_cell_length_b 13.567372
_cell_length_c 13.831484
_cell_angle_alpha 90.000000
_cell_angle_beta 29.050525
_cell_angle_gamma 90.000000
_cell_volume 1079.165511
_symmetry_space_group_name_H-M "P 21/C"
_symmetry_group_IT_number 14
_symmetry_cell_setting 'monoclinic'
loop_
_space_group_symop_operation_xyz
x,y,z
-x,1/2+y,1/2-z
-x,-y,-z
x,1/2-y,1/2+z
loop_
_atom_site_type_symbol
_atom_site_label
_atom_site_fract_x
_atom_site_fract_y
_atom_site_fract_z
Si Si1 0.661734 0.544921 0.462858
Si Si2 0.161037 0.291422 0.795331
Si Si3 0.838963 0.291422 0.704669
Si Si4 0.500000 0.818682 0.250000
Si Si5 0.661734 0.455079 0.962858
Si Si6 0.675349 0.334707 0.496170
Si Si7 0.324651 0.165293 0.503830
O O1 0.500000 0.500000 0.500000
O O2 0.857165 0.610772 0.260964
O O3 0.504332 0.611294 0.652747
O O4 0.731833 0.448168 0.471436
O O5 0.407491 0.317484 0.662953
O O6 0.189372 0.203627 0.697634
O O7 0.000000 0.250000 1.000000
O O8 0.592509 0.317485 0.837047
O O9 0.857165 0.389228 0.760964
O O10 0.810628 0.203627 0.802366
O O11 0.495669 0.888706 0.347253
O O12 0.301113 0.742282 0.433951
O O13 0.698887 0.742282 0.066049
O O14 0.731833 0.551832 0.971436
O O15 0.500000 0.500000 0.000000
#
# Coordination Sequence:
#
# PCOD9239855 Si02
#       7
#     4   4   4   4   4   4   4
#     4   9  18  33  54  80 108 147 188 228 287 342
#     4   9  18  33  54  78 105 140 182 230 285 345
#     4   9  18  33  54  78 105 140 182 230 285 345
#     4  10  18  32  56  78 108 148 190 242 284 334
#     4   9  18  33  54  80 108 147 188 228 287 342
#     4   9  18  33  52  76 107 142 182 231 285 338
#     4   9  18  33  52  76 107 142 182 231 285 338
#
# _framework density 25.945974
#
# number of rings (size 3 to 8) (size 9 to 14) (size 15 to 20)
#    0.000    2.857    0.000    2.571    0.000    1.143 
#    0.000    5.714    0.000    3.429    0.000    0.000 
#    0.000    0.000    0.000    0.000    0.000    0.000 
#
# Total GULP energy -156134.459271 kJ/mol
# GULP energy per Si atom -5576.230688 kJ/mol
# Density = 2.588692 g / cm^3
# Si number density = 25.945974 Si / 1000 Ang^3
#
#
#
# Elastic Constant Matrix: (Units=GPa)
#
#
# Indices 1 2 3 4 5 6 
#
# 1 91.8497 35.1046 49.1840 0.0000 29.9326 0.0000
# 2 35.1046 249.2524 103.4054 0.0000 36.8132 0.0000
# 3 49.1840 103.4054 252.8081 0.0000 46.4915 0.0000
# 4 0.0000 0.0000 0.0000 14.8906 0.0000 7.8717
# 5 29.9326 36.8132 46.4915 0.0000 59.3937 0.0000
# 6 0.0000 0.0000 0.0000 7.8717 0.0000 28.9025
#
#
#
# Elastic Compliance Matrix: (Units=1/GPa)
#
#
# Indices 1 2 3 4 5 6 
#
# 1 0.013623 -0.000521 -0.001442 0.000000 -0.005414 0.000000
# 2 -0.000521 0.005002 -0.001662 0.000000 -0.001537 0.000000
# 3 -0.001442 -0.001662 0.005365 0.000000 -0.002443 0.000000
# 4 0.000000 0.000000 0.000000 0.078451 0.000000 -0.021366
# 5 -0.005414 -0.001537 -0.002443 0.000000 0.022430 0.000000
# 6 0.000000 0.000000 0.000000 -0.021366 0.000000 0.040418
#
#
# Mechanical properties :
#
#
# Convention : Reuss Voigt Hill
#
# Bulk Modulus (GPa) = 59.73422 107.69978 83.71700
# Shear Modulus (GPa) = 28.07120 47.71847 37.89483
#
# Velocity S-wave (km/s) = 3.29281 4.29318 3.82583
# Velocity P-wave (km/s) = 6.12612 8.13477 7.20083
#
# Compressibility (1/GPa) = 0.01674082
#
# Stress axis : x y z
#
# Youngs Moduli (GPa) = 73.40635 199.92789 186.39096
#
# Poissons Ratio (x) = 0.10415 0.26870
# Poissons Ratio (y) = 0.03824 0.30977
# Poissons Ratio (z) = 0.10582 0.33226
#
# Static dielectric constant tensor:
#      x y z
#    x 2.352890 0.000000 -0.189280 
#    y 0.000000 2.103760 0.000000 
#    z -0.189280 0.000000 2.156860 
# 
# From -- ./inp_files/47334.got.cif
#   From: 2010.05.17/outbox.cif.g08.bks.cpg/sg14_24_cif.got.tgz:47334.got - 2010.06.03 17:49:19.
