data_PCOD9239848
_publ_section_title
;
Structure prediction by ZEFSAII (Michael W. Deem and Ramdas Pophale) SiO2 
 PCOD9239848
Probable space group: P 21/C
;
_chemical_formula_sum "Si O2"
_cell_formula_units_Z 32
_cell_length_a 9.341163
_cell_length_b 8.422671
_cell_length_c 27.171917
_cell_angle_alpha 90.000000
_cell_angle_beta 48.342395
_cell_angle_gamma 90.000000
_cell_volume 1597.229637
_symmetry_space_group_name_H-M "P 21/C"
_symmetry_group_IT_number 14
_symmetry_cell_setting 'monoclinic'
loop_
_space_group_symop_operation_xyz
x,y,z
-x,1/2+y,1/2-z
-x,-y,-z
x,1/2-y,1/2+z
loop_
_atom_site_type_symbol
_atom_site_label
_atom_site_fract_x
_atom_site_fract_y
_atom_site_fract_z
Si Si1 0.691409 0.675618 0.747898
Si Si2 0.009331 0.597789 0.844333
Si Si3 0.669972 0.141973 0.211583
Si Si4 0.068467 0.290740 0.891920
Si Si5 0.347057 0.081092 0.879055
Si Si6 0.716282 0.646948 0.411339
Si Si7 0.272437 0.924246 0.998575
Si Si8 0.766172 0.963893 0.796505
O O1 0.518979 0.755239 0.755774
O O2 0.651097 0.489147 0.758886
O O3 0.878977 0.704066 0.671789
O O4 0.709243 0.785500 0.791535
O O5 0.156283 0.741561 0.819101
O O6 0.042546 0.470442 0.880043
O O7 0.069601 0.522557 0.777962
O O8 0.802150 0.677193 0.892165
O O9 0.697830 0.038337 0.155723
O O10 0.242787 0.244945 0.888698
O O11 0.880912 0.213540 0.958164
O O12 0.578026 0.074694 0.831654
O O13 0.261813 0.007933 0.948206
O O14 0.758320 0.555519 0.452134
O O15 0.488483 0.640818 0.454991
O O16 0.808782 0.551925 0.344091
#
# Coordination Sequence:
#
# PCOD9239848 Si02
#       8
#     4   4   4   4   4   4   4   4
#     4   9  17  31  53  81 111 137 172 226 288 343
#     4  11  22  34  55  86 114 144 184 236 291 337
#     4  10  18  32  55  83 113 138 174 232 295 347
#     4  10  19  33  56  82 110 140 179 229 282 335
#     4   9  18  36  60  82 109 145 185 232 289 346
#     4  10  22  39  56  77 110 151 194 228 266 332
#     4  10  21  39  58  76 107 156 197 226 268 333
#     4   9  20  36  56  83 111 145 185 234 288 337
#
# _framework density 20.034689
#
# number of rings (size 3 to 8) (size 9 to 14) (size 15 to 20)
#    0.000    2.250    0.000    4.875    0.000    3.500 
#    0.000    2.500    0.000   10.500    0.000    0.000 
#    0.000    0.000    0.000    0.000    0.000    0.000 
#
# Total GULP energy -178553.863022 kJ/mol
# GULP energy per Si atom -5579.808219 kJ/mol
# Density = 1.998909 g / cm^3
# Si number density = 20.034689 Si / 1000 Ang^3
#
#
#
# Elastic Constant Matrix: (Units=GPa)
#
#
# Indices 1 2 3 4 5 6 
#
# 1 45.9481 37.5378 35.1530 0.0000 4.8998 0.0000
# 2 37.5378 103.3817 37.6545 0.0000 -8.7580 0.0000
# 3 35.1530 37.6545 94.3529 0.0000 7.6917 0.0000
# 4 0.0000 0.0000 0.0000 31.7676 0.0000 -8.2905
# 5 4.8998 -8.7580 7.6917 0.0000 22.7966 0.0000
# 6 0.0000 0.0000 0.0000 -8.2905 0.0000 26.1409
#
#
#
# Elastic Compliance Matrix: (Units=1/GPa)
#
#
# Indices 1 2 3 4 5 6 
#
# 1 0.039538 -0.011852 -0.009190 0.000000 -0.009951 0.000000
# 2 -0.011852 0.015741 -0.002640 0.000000 0.009486 0.000000
# 3 -0.009190 -0.002640 0.015421 0.000000 -0.004242 0.000000
# 4 0.000000 0.000000 0.000000 0.034319 0.000000 0.010884
# 5 -0.009951 0.009486 -0.004242 0.000000 0.051081 0.000000
# 6 0.000000 0.000000 0.000000 0.010884 0.000000 0.041706
#
#
# Mechanical properties :
#
#
# Convention : Reuss Voigt Hill
#
# Bulk Modulus (GPa) = 42.84782 51.59703 47.22242
# Shear Modulus (GPa) = 19.76683 25.03018 22.39851
#
# Velocity S-wave (km/s) = 3.14447 3.53844 3.34726
# Velocity P-wave (km/s) = 5.88361 6.51949 6.20970
#
# Compressibility (1/GPa) = 0.02333841
#
# Stress axis : x y z
#
# Youngs Moduli (GPa) = 25.29202 63.52669 64.84455
#
# Poissons Ratio (x) = 0.75293 0.59589
# Poissons Ratio (y) = 0.29977 0.17116
# Poissons Ratio (z) = 0.23242 0.16769
#
# Static dielectric constant tensor:
#      x y z
#    x 1.734570 0.000000 -0.024650 
#    y 0.000000 1.725490 0.000000 
#    z -0.024650 0.000000 1.727840 
# 
# From -- ./inp_files/76369.got.cif
#   From: 2010.05.17/outbox.cif.g08.bks.cpg/sg14_39_cif.got.tgz:76369.got - 2010.06.03 17:49:19.
