data_PCOD9239851
_publ_section_title
;
Structure prediction by ZEFSAII (Michael W. Deem and Ramdas Pophale) SiO2 
 PCOD9239851
Probable space group: P 21/C
;
_chemical_formula_sum "Si O2"
_cell_formula_units_Z 32
_cell_length_a 10.036142
_cell_length_b 17.208422
_cell_length_c 9.184592
_cell_angle_alpha 90.000000
_cell_angle_beta 56.162779
_cell_angle_gamma 90.000000
_cell_volume 1317.563692
_symmetry_space_group_name_H-M "P 21/C"
_symmetry_group_IT_number 14
_symmetry_cell_setting 'monoclinic'
loop_
_space_group_symop_operation_xyz
x,y,z
-x,1/2+y,1/2-z
-x,-y,-z
x,1/2-y,1/2+z
loop_
_atom_site_type_symbol
_atom_site_label
_atom_site_fract_x
_atom_site_fract_y
_atom_site_fract_z
Si Si1 0.170639 0.008723 0.284686
Si Si2 0.599118 0.567843 0.591674
Si Si3 0.403356 0.763042 0.834608
Si Si4 0.387117 0.170725 0.553819
Si Si5 0.097239 0.940371 0.757798
Si Si6 0.285494 0.654300 0.680212
Si Si7 0.640902 0.507410 0.051453
Si Si8 0.113932 0.115473 0.880466
O O1 0.029252 0.057056 0.297549
O O2 0.159473 0.914954 0.282584
O O3 0.222998 0.033084 0.413598
O O4 0.320859 0.023317 0.088530
O O5 0.463573 0.623811 0.613921
O O6 0.509318 0.512193 0.758074
O O7 0.742800 0.609031 0.588685
O O8 0.539262 0.798625 0.643641
O O9 0.274817 0.721489 0.806912
O O10 0.502801 0.708706 0.887824
O O11 0.304158 0.819240 0.003002
O O12 0.399483 0.077785 0.528565
O O13 0.195895 0.176003 0.716262
O O14 0.273702 0.935499 0.582733
O O15 0.093409 0.029786 0.820313
O O16 0.042499 0.882422 0.918880
#
# Coordination Sequence:
#
# PCOD9239851 Si02
#       8
#     4   4   4   4   4   4   4   4
#     4  10  19  33  54  79 116 146 180 223 282 336
#     4  10  18  32  55  87 115 139 180 236 283 327
#     4  10  20  33  53  80 110 143 181 230 277 321
#     4  10  19  33  52  78 110 138 181 226 276 328
#     4   9  19  32  52  78 113 147 173 212 282 338
#     4  10  19  34  53  81 109 141 180 228 278 323
#     4  10  19  32  55  85 112 139 183 229 287 330
#     4   9  18  34  51  79 111 143 175 224 272 331
#
# _framework density 24.287253
#
# number of rings (size 3 to 8) (size 9 to 14) (size 15 to 20)
#    0.000    2.250    1.250    3.375    0.000    2.000 
#    0.000    1.250    0.000    6.000    0.000    0.000 
#    0.000    0.000    0.000    0.000    0.000    0.000 
#
# Total GULP energy -178500.430484 kJ/mol
# GULP energy per Si atom -5578.138453 kJ/mol
# Density = 2.423197 g / cm^3
# Si number density = 24.287253 Si / 1000 Ang^3
#
#
#
# Elastic Constant Matrix: (Units=GPa)
#
#
# Indices 1 2 3 4 5 6 
#
# 1 75.0906 13.9164 36.0751 0.0000 14.6212 0.0000
# 2 13.9164 36.0025 16.2321 0.0000 9.4265 0.0000
# 3 36.0751 16.2321 146.9829 0.0000 14.6185 0.0000
# 4 0.0000 0.0000 0.0000 44.8625 0.0000 5.4426
# 5 14.6212 9.4265 14.6185 0.0000 37.2581 0.0000
# 6 0.0000 0.0000 0.0000 5.4426 0.0000 24.8338
#
#
#
# Elastic Compliance Matrix: (Units=1/GPa)
#
#
# Indices 1 2 3 4 5 6 
#
# 1 0.016368 -0.003789 -0.003179 0.000000 -0.004217 0.000000
# 2 -0.003789 0.031641 -0.001994 0.000000 -0.005736 0.000000
# 3 -0.003179 -0.001994 0.007940 0.000000 -0.001363 0.000000
# 4 0.000000 0.000000 0.000000 0.022899 0.000000 -0.005019
# 5 -0.004217 -0.005736 -0.001363 0.000000 0.030481 0.000000
# 6 0.000000 0.000000 0.000000 -0.005019 0.000000 0.041368
#
#
# Mechanical properties :
#
#
# Convention : Reuss Voigt Hill
#
# Bulk Modulus (GPa) = 26.29914 43.39146 34.84530
# Shear Modulus (GPa) = 27.57915 34.18104 30.88009
#
# Velocity S-wave (km/s) = 3.37343 3.75556 3.56961
# Velocity P-wave (km/s) = 5.10150 6.05891 5.60070
#
# Compressibility (1/GPa) = 0.03802406
#
# Stress axis : x y z
#
# Youngs Moduli (GPa) = 61.09444 31.60422 125.95069
#
# Poissons Ratio (x) = 0.11976 0.40045
# Poissons Ratio (y) = 0.23150 0.25112
# Poissons Ratio (z) = 0.19425 0.06301
#
# Static dielectric constant tensor:
#      x y z
#    x 1.972480 0.000000 -0.035490 
#    y 0.000000 1.997920 0.000000 
#    z -0.035490 0.000000 2.138120 
# 
# From -- ./inp_files/14282.got.cif
#   From: 2010.05.17/outbox.cif.g08.bks.cpg/sg14_8_cif.got.tgz:14282.got - 2010.06.03 17:49:19.
