data_PCOD9239361
_publ_section_title
;
Structure prediction by ZEFSAII (Michael W. Deem and Ramdas Pophale) SiO2 
 PCOD9239361
Probable space group: P 21/C
;
_chemical_formula_sum "Si O2"
_cell_formula_units_Z 30
_cell_length_a 7.701419
_cell_length_b 11.859791
_cell_length_c 15.303962
_cell_angle_alpha 90.000000
_cell_angle_beta 123.924375
_cell_angle_gamma 90.000000
_cell_volume 1159.877107
_symmetry_space_group_name_H-M "P 21/C"
_symmetry_group_IT_number 14
_symmetry_cell_setting 'monoclinic'
loop_
_space_group_symop_operation_xyz
x,y,z
-x,1/2+y,1/2-z
-x,-y,-z
x,1/2-y,1/2+z
loop_
_atom_site_type_symbol
_atom_site_label
_atom_site_fract_x
_atom_site_fract_y
_atom_site_fract_z
Si Si1 0.694865 0.088017 0.906369
Si Si2 0.382783 0.635391 0.807634
Si Si3 0.834361 0.696197 0.820126
Si Si4 0.682658 0.696156 0.103399
Si Si5 0.500000 0.000000 0.500000
Si Si6 0.179926 0.337660 0.520677
Si Si7 0.999181 0.500167 0.228031
Si Si8 0.736067 0.180757 0.097091
O O1 0.580027 0.125663 0.785332
O O2 0.701453 0.953276 0.921325
O O3 0.615137 0.140986 0.975568
O O4 0.934868 0.129997 0.961344
O O5 0.147462 0.582554 0.756650
O O6 0.367500 0.758131 0.848553
O O7 0.517633 0.549199 0.903491
O O8 0.719264 0.764375 0.711013
O O9 0.768579 0.738616 0.895938
O O10 0.861918 0.566851 0.801914
O O11 0.071588 0.741939 0.877903
O O12 0.466204 0.633391 0.022716
O O13 0.826246 0.580196 0.131784
O O14 0.767396 0.786558 0.058823
O O15 0.148348 0.569856 0.332756
#
# Coordination Sequence:
#
# PCOD9239361 Si02
#       8
#     4   4   4   4   2   4   4   4
#     4  10  17  30  53  81 107 132 170 220 272 319
#     4  10  19  34  52  73 105 142 175 211 261 317
#     4   9  17  29  49  78 105 129 164 218 278 322
#     4  10  19  33  51  73 105 142 178 213 258 320
#     4  10  22  38  52  66 100 148 180 206 246 306
#     4  10  18  29  53  82 106 136 172 217 273 322
#     4   9  16  29  51  78 107 131 163 219 277 319
#     4   9  17  29  51  80 105 131 166 216 274 322
#
# _framework density 25.864806000000002
#
# number of rings (size 3 to 8) (size 9 to 14) (size 15 to 20)
#    0.000    2.400    0.000    7.200    0.000    0.533 
#    0.000    5.333    0.000    3.200    0.000    0.000 
#    0.000    0.000    0.000    0.000    0.000    0.000 
#
# Total GULP energy -167471.507017 kJ/mol
# GULP energy per Si atom -5582.383567 kJ/mol
# Density = 2.580594 g / cm^3
# Si number density = 25.864806 Si / 1000 Ang^3
#
#
#
# Elastic Constant Matrix: (Units=GPa)
#
#
# Indices 1 2 3 4 5 6 
#
# 1 114.7089 32.4024 18.9071 0.0000 -27.4157 0.0000
# 2 32.4024 108.9082 39.5612 0.0000 -27.2786 0.0000
# 3 18.9071 39.5612 141.2615 0.0000 -28.2581 0.0000
# 4 0.0000 0.0000 0.0000 33.8246 0.0000 -3.9040
# 5 -27.4157 -27.2786 -28.2581 0.0000 40.0800 0.0000
# 6 0.0000 0.0000 0.0000 -3.9040 0.0000 34.8538
#
#
#
# Elastic Compliance Matrix: (Units=1/GPa)
#
#
# Indices 1 2 3 4 5 6 
#
# 1 0.010666 -0.001695 0.000321 0.000000 0.006368 0.000000
# 2 -0.001695 0.011772 -0.001978 0.000000 0.005458 0.000000
# 3 0.000321 -0.001978 0.008574 0.000000 0.004918 0.000000
# 4 0.000000 0.000000 0.000000 0.029951 0.000000 0.003355
# 5 0.006368 0.005458 0.004918 0.000000 0.036489 0.000000
# 6 0.000000 0.000000 0.000000 0.003355 0.000000 0.029067
#
#
# Mechanical properties :
#
#
# Convention : Reuss Voigt Hill
#
# Bulk Modulus (GPa) = 41.13898 60.73556 50.93727
# Shear Modulus (GPa) = 35.37946 40.01888 37.69917
#
# Velocity S-wave (km/s) = 3.70247 3.93776 3.82193
# Velocity P-wave (km/s) = 5.84959 6.64887 6.26199
#
# Compressibility (1/GPa) = 0.02430785
#
# Stress axis : x y z
#
# Youngs Moduli (GPa) = 93.75939 84.94777 116.63253
#
# Poissons Ratio (x) = 0.14396 -0.03744
# Poissons Ratio (y) = 0.15890 0.23071
# Poissons Ratio (z) = -0.03010 0.16804
#
# Static dielectric constant tensor:
#      x y z
#    x 1.996900 0.000000 -0.119230 
#    y 0.000000 2.028570 0.000000 
#    z -0.119230 0.000000 1.792300 
# 
# From -- ./inp_files/44667.got.cif
#   From: 2010.05.17/outbox.cif.g08.bks.cpg/sg14_23_cif.got.tgz:44667.got - 2010.06.03 17:49:19.
