data_PCOD9239475
_publ_section_title
;
Structure prediction by ZEFSAII (Michael W. Deem and Ramdas Pophale) SiO2 
 PCOD9239475
Probable space group: P 21/C
;
_chemical_formula_sum "Si O2"
_cell_formula_units_Z 32
_cell_length_a 9.148333
_cell_length_b 19.911751
_cell_length_c 12.107257
_cell_angle_alpha 90.000000
_cell_angle_beta 47.416984
_cell_angle_gamma 90.000000
_cell_volume 1623.867619
_symmetry_space_group_name_H-M "P 21/C"
_symmetry_group_IT_number 14
_symmetry_cell_setting 'monoclinic'
loop_
_space_group_symop_operation_xyz
x,y,z
-x,1/2+y,1/2-z
-x,-y,-z
x,1/2-y,1/2+z
loop_
_atom_site_type_symbol
_atom_site_label
_atom_site_fract_x
_atom_site_fract_y
_atom_site_fract_z
Si Si1 0.124508 0.163218 0.986940
Si Si2 0.699103 0.488514 0.752130
Si Si3 0.010304 0.650593 0.782271
Si Si4 0.539252 0.722902 0.832500
Si Si5 0.564045 0.605782 0.974898
Si Si6 0.878865 0.799289 0.766712
Si Si7 0.868567 0.206475 0.558989
Si Si8 0.099042 0.944499 0.050654
O O1 0.327544 0.178065 0.818501
O O2 0.003271 0.231020 0.025115
O O3 0.011334 0.103862 0.982478
O O4 0.144546 0.159761 0.108494
O O5 0.583839 0.551792 0.864506
O O6 0.927043 0.502835 0.672374
O O7 0.723069 0.478787 0.607913
O O8 0.589191 0.424488 0.859579
O O9 0.787658 0.618904 0.906207
O O10 0.966070 0.724615 0.753253
O O11 0.133867 0.604388 0.635195
O O12 0.123025 0.658745 0.839598
O O13 0.493248 0.676037 0.961149
O O14 0.671380 0.783818 0.810725
O O15 0.340481 0.737057 0.869146
O O16 0.030413 0.827879 0.599107
#
# Coordination Sequence:
#
# PCOD9239475 Si02
#       8
#     4   4   4   4   4   4   4   4
#     4  10  19  36  50  78 114 133 172 228 260 314
#     4   9  18  30  58  82  97 138 183 228 264 311
#     4   9  17  35  51  74 116 134 168 223 258 313
#     4  10  19  35  52  78 108 142 174 216 264 320
#     4   9  17  35  54  82 104 131 182 227 263 312
#     4   9  19  34  50  76 109 140 175 213 254 320
#     4  10  20  33  54  77 107 150 172 201 273 327
#     4  10  17  34  55  82 104 137 177 228 269 306
#
# _framework density 19.706040999999999
#
# number of rings (size 3 to 8) (size 9 to 14) (size 15 to 20)
#    0.000    2.500    5.000    0.000    1.750    2.000 
#    6.750    0.000    0.000    7.500    0.000    0.000 
#    0.000    0.000    0.000    0.000    0.000    0.000 
#
# Total GULP energy -178261.730382 kJ/mol
# GULP energy per Si atom -5570.679074 kJ/mol
# Density = 1.966119 g / cm^3
# Si number density = 19.706041 Si / 1000 Ang^3
#
#
#
# Elastic Constant Matrix: (Units=GPa)
#
#
# Indices 1 2 3 4 5 6 
#
# 1 77.8743 -10.8821 29.9688 0.0000 18.7502 0.0000
# 2 -10.8821 6.7666 1.2309 0.0000 -1.1297 0.0000
# 3 29.9688 1.2309 75.2814 0.0000 13.6328 0.0000
# 4 0.0000 0.0000 0.0000 36.6843 0.0000 10.2307
# 5 18.7502 -1.1297 13.6328 0.0000 18.1470 0.0000
# 6 0.0000 0.0000 0.0000 10.2307 0.0000 9.4562
#
#
#
# Elastic Compliance Matrix: (Units=1/GPa)
#
#
# Indices 1 2 3 4 5 6 
#
# 1 0.025734 0.039679 -0.007553 0.000000 -0.018445 0.000000
# 2 0.039679 0.212018 -0.016469 0.000000 -0.015427 0.000000
# 3 -0.007553 -0.016469 0.017746 0.000000 -0.006553 0.000000
# 4 0.000000 0.000000 0.000000 0.039039 0.000000 -0.042236
# 5 -0.018445 -0.015427 -0.006553 0.000000 0.078126 0.000000
# 6 0.000000 0.000000 0.000000 -0.042236 0.000000 0.151446
#
#
# Mechanical properties :
#
#
# Convention : Reuss Voigt Hill
#
# Bulk Modulus (GPa) = 3.48660 22.28417 12.88538
# Shear Modulus (GPa) = 8.49766 22.16447 15.33106
#
# Velocity S-wave (km/s) = 2.07884 3.35738 2.79227
# Velocity P-wave (km/s) = 2.74504 5.13441 4.11688
#
# Compressibility (1/GPa) = 0.28681275
#
# Stress axis : x y z
#
# Youngs Moduli (GPa) = 38.85973 4.71658 56.35004
#
# Poissons Ratio (x) = -0.18715 0.42561
# Poissons Ratio (y) = -1.54193 0.92803
# Poissons Ratio (z) = 0.29350 0.07768
#
# Static dielectric constant tensor:
#      x y z
#    x 1.689240 0.000000 0.013330 
#    y 0.000000 1.731390 0.000000 
#    z 0.013330 0.000000 1.768610 
# 
# From -- ./inp_files/26961.got.cif
#   From: 2010.05.17/outbox.cif.g08.bks.cpg/sg14_14_cif.got.tgz:26961.got - 2010.06.03 17:49:19.
