data_PCOD9239084
_publ_section_title
;
Structure prediction by ZEFSAII (Michael W. Deem and Ramdas Pophale) SiO2 
 PCOD9239084
Probable space group: P 2/C
;
_chemical_formula_sum "Si O2"
_cell_formula_units_Z 28
_cell_length_a 30.000000
_cell_length_b 9.000000
_cell_length_c 30.000000
_cell_angle_alpha 90.000000
_cell_angle_beta 170.000000
_cell_angle_gamma 90.000000
_cell_volume 1406.550239
_symmetry_space_group_name_H-M "P 2/C"
_symmetry_group_IT_number 13
_symmetry_cell_setting 'monoclinic'
loop_
_space_group_symop_operation_xyz
x,y,z
-x,y,1/2-z
-x,-y,-z
x,-y,1/2+z
loop_
_atom_site_type_symbol
_atom_site_label
_atom_site_fract_x
_atom_site_fract_y
_atom_site_fract_z
Si Si1 0.108807 0.529782 0.232806
Si Si2 0.000000 0.717636 0.750000
Si Si3 0.582750 0.988028 0.709400
Si Si4 0.500000 0.511257 0.250000
Si Si5 0.071685 0.819680 0.721233
Si Si6 0.545426 0.147975 0.073425
Si Si7 0.959190 0.349043 0.932463
Si Si8 0.408569 0.665250 0.746093
O O1 0.395719 0.591300 0.525053
O O2 0.093788 0.351058 0.224872
O O3 0.027537 0.590659 0.104712
O O4 0.883815 0.605359 0.040422
O O5 0.748950 0.616243 0.495614
O O6 0.031192 0.808035 0.734748
O O7 0.559564 0.912280 0.637996
O O8 0.587165 0.842947 0.745604
O O9 0.334997 0.091836 0.472106
O O10 0.836173 0.089089 0.966939
O O11 0.478826 0.403348 0.187526
O O12 0.312013 0.261364 0.832405
O O13 0.813408 0.235174 0.330620
O O14 0.500000 0.000000 0.000000
O O15 0.000000 0.500000 0.000000
#
# Coordination Sequence:
#
# PCOD9239084 Si02
#       8
#     4   2   4   2   4   4   4   4
#     4  12  23  45  69  99 134 183 226 270 332 404
#     4  12  24  44  64 102 136 168 234 288 328 382
#     4  12  26  45  67 100 140 179 221 276 345 403
#     4  12  22  42  70  98 128 176 230 280 332 394
#     4  12  26  42  71  97 137 182 223 277 338 405
#     4  12  27  47  70 101 141 180 220 282 345 405
#     4  12  26  46  72 105 137 173 231 287 325 404
#     4  12  23  44  70  96 131 181 224 275 333 399
#
# _framework density 19.906860999999999
#
# number of rings (size 3 to 8) (size 9 to 14) (size 15 to 20)
#    0.000    0.000    5.714    4.286    4.000    1.143 
#    0.000    0.000    0.000    0.000    0.000    0.000 
#    0.000    0.000    0.000    0.000    0.000    0.000 
#
# Total GULP energy -156501.992454 kJ/mol
# GULP energy per Si atom -5589.356873 kJ/mol
# Density = 1.986155 g / cm^3
# Si number density = 19.906861 Si / 1000 Ang^3
#
#
#
# Elastic Constant Matrix: (Units=GPa)
#
#
# Indices 1 2 3 4 5 6 
#
# 1 34.2217 -1.5522 -6.8364 0.0000 -16.6759 0.0000
# 2 -1.5522 140.5500 63.4624 0.0000 -4.6323 0.0000
# 3 -6.8364 63.4624 151.6217 0.0000 -0.3252 0.0000
# 4 0.0000 0.0000 0.0000 38.2862 0.0000 -22.3648
# 5 -16.6759 -4.6323 -0.3252 0.0000 25.3398 0.0000
# 6 0.0000 0.0000 0.0000 -22.3648 0.0000 33.0882
#
#
#
# Elastic Compliance Matrix: (Units=1/GPa)
#
#
# Indices 1 2 3 4 5 6 
#
# 1 0.043677 0.000638 0.001764 0.000000 0.028883 0.000000
# 2 0.000638 0.008844 -0.003669 0.000000 0.001989 0.000000
# 3 0.001764 -0.003669 0.008212 0.000000 0.000596 0.000000
# 4 0.000000 0.000000 0.000000 0.043160 0.000000 0.029173
# 5 0.028883 0.001989 0.000596 0.000000 0.058842 0.000000
# 6 0.000000 0.000000 0.000000 0.029173 0.000000 0.049940
#
#
# Mechanical properties :
#
#
# Convention : Reuss Voigt Hill
#
# Bulk Modulus (GPa) = 17.18235 48.50455 32.84345
# Shear Modulus (GPa) = 21.31208 37.43081 29.37144
#
# Velocity S-wave (km/s) = 3.27554 4.34094 3.84532
# Velocity P-wave (km/s) = 4.79120 7.03873 6.02077
#
# Compressibility (1/GPa) = 0.05819924
#
# Stress axis : x y z
#
# Youngs Moduli (GPa) = 22.89542 113.07034 121.77636
#
# Poissons Ratio (x) = -0.07209 -0.21486
# Poissons Ratio (y) = -0.01460 0.44676
# Poissons Ratio (z) = -0.04040 0.41482
#
# Static dielectric constant tensor:
#      x y z
#    x 1.750080 0.000000 0.045410 
#    y 0.000000 1.767210 0.000000 
#    z 0.045410 0.000000 1.571110 
# 
# From -- ./inp_files/97985.got.cif
#   From: 2010.05.17/outbox.ucp.g08.bks.cvg/sg13_49_cif.got.tgz:97985.got - 2010.06.11 12:23:55.
