data_PCOD9239458
_publ_section_title
;
Structure prediction by ZEFSAII (Michael W. Deem and Ramdas Pophale) SiO2 
 PCOD9239458
Probable space group: P 21/C
;
_chemical_formula_sum "Si O2"
_cell_formula_units_Z 24
_cell_length_a 13.224674
_cell_length_b 9.229864
_cell_length_c 11.752900
_cell_angle_alpha 90.000000
_cell_angle_beta 39.398529
_cell_angle_gamma 90.000000
_cell_volume 910.544383
_symmetry_space_group_name_H-M "P 21/C"
_symmetry_group_IT_number 14
_symmetry_cell_setting 'monoclinic'
loop_
_space_group_symop_operation_xyz
x,y,z
-x,1/2+y,1/2-z
-x,-y,-z
x,1/2-y,1/2+z
loop_
_atom_site_type_symbol
_atom_site_label
_atom_site_fract_x
_atom_site_fract_y
_atom_site_fract_z
Si Si1 0.280617 0.040586 0.297641
Si Si2 0.915635 0.747391 0.427668
Si Si3 0.718911 0.024196 0.115816
Si Si4 0.058973 0.055146 0.811161
Si Si5 0.377111 0.002316 0.479544
Si Si6 0.619453 0.167985 0.966057
O O1 0.125167 0.144360 0.432631
O O2 0.319323 0.015056 0.397741
O O3 0.278471 0.892020 0.228996
O O4 0.434655 0.121740 0.112553
O O5 0.754453 0.647377 0.563031
O O6 0.041843 0.617592 0.308843
O O7 0.956728 0.849860 0.287909
O O8 0.442594 0.941742 0.677346
O O9 0.888021 0.080618 0.020713
O O10 0.688659 0.088657 0.017462
O O11 0.245485 0.080378 0.673783
O O12 0.381072 0.835438 0.506707
#
# Coordination Sequence:
#
# PCOD9239458 Si02
#       6
#     4   4   4   4   4   4
#     4   9  19  32  56  87 110 140 201 229 264 356
#     4   9  17  34  50  79 107 143 185 232 267 329
#     4   9  19  31  53  77 108 144 182 228 280 324
#     4   9  18  31  52  79 107 146 190 223 275 338
#     4  10  18  33  55  78 110 146 179 232 283 323
#     4  10  17  33  57  84 110 150 186 231 285 329
#
# _framework density 26.357856999999999
#
# number of rings (size 3 to 8) (size 9 to 14) (size 15 to 20)
#    1.000    1.667    1.667    1.000    0.000    0.000 
#    0.000    7.500    0.000    9.000    0.000    0.000 
#    0.000    0.000    0.000    0.000    0.000    0.000 
#
# Total GULP energy -133873.982176 kJ/mol
# GULP energy per Si atom -5578.082591 kJ/mol
# Density = 2.629787 g / cm^3
# Si number density = 26.357857 Si / 1000 Ang^3
#
#
#
# Elastic Constant Matrix: (Units=GPa)
#
#
# Indices 1 2 3 4 5 6 
#
# 1 66.4350 18.9999 64.8321 0.0000 -20.9378 0.0000
# 2 18.9999 82.2310 57.4589 0.0000 17.9991 0.0000
# 3 64.8321 57.4589 184.4552 0.0000 -28.7265 0.0000
# 4 0.0000 0.0000 0.0000 38.2529 0.0000 2.7723
# 5 -20.9378 17.9991 -28.7265 0.0000 51.2957 0.0000
# 6 0.0000 0.0000 0.0000 2.7723 0.0000 13.8535
#
#
#
# Elastic Compliance Matrix: (Units=1/GPa)
#
#
# Indices 1 2 3 4 5 6 
#
# 1 0.024620 -0.002543 -0.006746 0.000000 0.007164 0.000000
# 2 -0.002543 0.020745 -0.007519 0.000000 -0.012528 0.000000
# 3 -0.006746 -0.007519 0.011083 0.000000 0.006092 0.000000
# 4 0.000000 0.000000 0.000000 0.026527 0.000000 -0.005308
# 5 0.007164 -0.012528 0.006092 0.000000 0.030227 0.000000
# 6 0.000000 0.000000 0.000000 -0.005308 0.000000 0.073246
#
#
# Mechanical properties :
#
#
# Convention : Reuss Voigt Hill
#
# Bulk Modulus (GPa) = 43.79792 68.41145 56.10469
# Shear Modulus (GPa) = 21.96112 33.46910 27.71511
#
# Velocity S-wave (km/s) = 2.88964 3.56729 3.24619
# Velocity P-wave (km/s) = 5.27125 6.55580 5.94830
#
# Compressibility (1/GPa) = 0.02283213
#
# Stress axis : x y z
#
# Youngs Moduli (GPa) = 40.61679 48.20459 90.22553
#
# Poissons Ratio (x) = 0.12260 0.60862
# Poissons Ratio (y) = 0.10330 0.67844
# Poissons Ratio (z) = 0.27398 0.36247
#
# Static dielectric constant tensor:
#      x y z
#    x 2.129020 0.000000 -0.033310 
#    y 0.000000 2.012570 0.000000 
#    z -0.033310 0.000000 2.094290 
# 
# From -- ./inp_files/32137.got.cif
#   From: 2010.05.17/outbox.cif.g08.bks.cpg/sg14_17_cif.got.tgz:32137.got - 2010.06.03 17:49:19.
