data_PCOD9239304
_publ_section_title
;
Structure prediction by ZEFSAII (Michael W. Deem and Ramdas Pophale) SiO2 
 PCOD9239304
Probable space group: P 21/C
;
_chemical_formula_sum "Si O2"
_cell_formula_units_Z 30
_cell_length_a 14.879702
_cell_length_b 5.359816
_cell_length_c 14.043534
_cell_angle_alpha 90.000000
_cell_angle_beta 98.968478
_cell_angle_gamma 90.000000
_cell_volume 1106.313539
_symmetry_space_group_name_H-M "P 21/C"
_symmetry_group_IT_number 14
_symmetry_cell_setting 'monoclinic'
loop_
_space_group_symop_operation_xyz
x,y,z
-x,1/2+y,1/2-z
-x,-y,-z
x,1/2-y,1/2+z
loop_
_atom_site_type_symbol
_atom_site_label
_atom_site_fract_x
_atom_site_fract_y
_atom_site_fract_z
Si Si1 0.521960 0.121607 0.702286
Si Si2 0.622463 0.062279 0.433494
Si Si3 0.500000 0.000000 0.000000
Si Si4 0.338057 0.215010 0.378439
Si Si5 0.802553 0.194389 0.922913
Si Si6 0.107213 0.195462 0.567940
Si Si7 0.915088 0.287100 0.632909
Si Si8 0.864351 0.779083 0.656948
O O1 0.470944 0.882411 0.742881
O O2 0.444497 0.170756 0.609045
O O3 0.611801 0.986932 0.680432
O O4 0.551739 0.262860 0.460097
O O5 0.699126 0.216056 0.390499
O O6 0.678380 0.930606 0.525714
O O7 0.593142 0.936308 0.083228
O O8 0.238343 0.286699 0.330538
O O9 0.862337 0.422708 0.894573
O O10 0.825724 0.919344 0.890219
O O11 0.832772 0.181490 0.040692
O O12 0.114150 0.194660 0.453703
O O13 0.006550 0.254813 0.586912
O O14 0.922088 0.540221 0.693616
O O15 0.889568 0.053566 0.693216
#
# Coordination Sequence:
#
# PCOD9239304 Si02
#       8
#     4   4   2   4   4   4   4   4
#     4  11  28  45  60  84 122 161 198 255 315 363
#     4  11  23  38  64  88 116 156 211 253 296 367
#     4  10  20  32  56  82 106 146 184 256 290 344
#     4  11  23  38  64  88 116 156 211 253 296 367
#     4  10  18  29  48  78 110 153 186 231 279 350
#     4  10  17  28  45  77 127 154 172 224 306 353
#     4  10  17  28  45  77 127 154 172 224 306 353
#     4  10  18  29  48  78 110 153 186 231 279 350
#
# _framework density 27.117087999999999
#
# number of rings (size 3 to 8) (size 9 to 14) (size 15 to 20)
#    0.000    1.600    2.667    7.200    7.467    0.000 
#    0.000    0.000    0.000    0.000    0.000    0.000 
#    0.000   36.267    0.000    0.000    0.000    0.000 
#
# Total GULP energy -167432.933838 kJ/mol
# GULP energy per Si atom -5581.097795 kJ/mol
# Density = 2.705537 g / cm^3
# Si number density = 27.117088 Si / 1000 Ang^3
#
#
#
# Elastic Constant Matrix: (Units=GPa)
#
#
# Indices 1 2 3 4 5 6 
#
# 1 126.7483 -9.0008 1.1470 0.0000 8.7252 0.0000
# 2 -9.0008 121.5587 -17.1686 0.0000 -3.9510 0.0000
# 3 1.1470 -17.1686 56.3485 0.0000 -3.0956 0.0000
# 4 0.0000 0.0000 0.0000 7.5017 0.0000 -0.0057
# 5 8.7252 -3.9510 -3.0956 0.0000 21.4537 0.0000
# 6 0.0000 0.0000 0.0000 -0.0057 0.0000 39.5226
#
#
#
# Elastic Compliance Matrix: (Units=1/GPa)
#
#
# Indices 1 2 3 4 5 6 
#
# 1 0.008149 0.000469 -0.000202 0.000000 -0.003257 0.000000
# 2 0.000469 0.008707 0.002743 0.000000 0.001809 0.000000
# 3 -0.000202 0.002743 0.018768 0.000000 0.003295 0.000000
# 4 0.000000 0.000000 0.000000 0.133303 0.000000 0.000019
# 5 -0.003257 0.001809 0.003295 0.000000 0.048745 0.000000
# 6 0.000000 0.000000 0.000000 0.000019 0.000000 0.025302
#
#
# Mechanical properties :
#
#
# Convention : Reuss Voigt Hill
#
# Bulk Modulus (GPa) = 24.01319 28.29009 26.15164
# Shear Modulus (GPa) = 19.93335 35.67413 27.80374
#
# Velocity S-wave (km/s) = 2.71419 3.63100 3.20554
# Velocity P-wave (km/s) = 4.32400 5.29472 4.83379
#
# Compressibility (1/GPa) = 0.04164378
#
# Stress axis : x y z
#
# Youngs Moduli (GPa) = 122.71459 114.84512 53.28346
#
# Poissons Ratio (x) = -0.05386 0.01076
# Poissons Ratio (y) = -0.05755 -0.14615
# Poissons Ratio (z) = 0.02478 -0.31500
#
# Static dielectric constant tensor:
#      x y z
#    x 2.148680 0.000000 0.102740 
#    y 0.000000 2.134970 0.000000 
#    z 0.102740 0.000000 2.003910 
# 
# From -- ./inp_files/3786.got.cif
#   From: 2010.05.17/outbox.cif.g08.bks.cpg/sg14_2_cif.got.tgz:3786.got - 2010.06.03 17:49:19.
