data_PCOD9239212
_publ_section_title
;
Structure prediction by ZEFSAII (Michael W. Deem and Ramdas Pophale) SiO2 
 PCOD9239212
Probable space group: P 21/C
;
_chemical_formula_sum "Si O2"
_cell_formula_units_Z 32
_cell_length_a 11.855057
_cell_length_b 14.196643
_cell_length_c 12.802509
_cell_angle_alpha 90.000000
_cell_angle_beta 36.188918
_cell_angle_gamma 90.000000
_cell_volume 1272.234630
_symmetry_space_group_name_H-M "P 21/C"
_symmetry_group_IT_number 14
_symmetry_cell_setting 'monoclinic'
loop_
_space_group_symop_operation_xyz
x,y,z
-x,1/2+y,1/2-z
-x,-y,-z
x,1/2-y,1/2+z
loop_
_atom_site_type_symbol
_atom_site_label
_atom_site_fract_x
_atom_site_fract_y
_atom_site_fract_z
Si Si1 0.638604 0.795593 0.563719
Si Si2 0.365099 0.491577 0.343753
Si Si3 0.386969 0.342669 0.684852
Si Si4 0.974758 0.648016 0.335270
Si Si5 0.664453 0.621193 0.827202
Si Si6 0.966969 0.139295 0.432229
Si Si7 0.091908 0.645849 0.473633
Si Si8 0.392831 0.614481 0.679470
O O1 0.615003 0.849418 0.689559
O O2 0.621897 0.867543 0.480513
O O3 0.486333 0.710391 0.659669
O O4 0.846298 0.742413 0.410439
O O5 0.436628 0.445867 0.180860
O O6 0.264514 0.589848 0.393906
O O7 0.508776 0.470753 0.331080
O O8 0.185744 0.426862 0.513833
O O9 0.369179 0.228447 0.686164
O O10 0.553232 0.376092 0.482177
O O11 0.188242 0.381817 0.787145
O O12 0.108118 0.658537 0.336310
O O13 0.078031 0.614020 0.153420
O O14 0.889261 0.595629 0.648296
O O15 0.935822 0.251438 0.459092
O O16 0.827717 0.104680 0.626599
#
# Coordination Sequence:
#
# PCOD9239212 Si02
#       8
#     4   4   4   4   4   4   4   4
#     4  10  16  32  54  79 115 148 200 241 279 333
#     4  10  18  35  56  85 126 150 181 244 309 335
#     4  10  17  34  54  81 112 148 200 242 275 338
#     4  10  16  31  54  84 114 153 189 235 281 348
#     4   9  15  28  53  82 111 152 186 231 284 346
#     4  11  20  34  57  86 116 152 201 236 287 346
#     4  10  19  31  57  89 117 152 188 243 300 341
#     4  10  21  33  56  83 117 155 192 244 290 347
#
# _framework density 25.152593
#
# number of rings (size 3 to 8) (size 9 to 14) (size 15 to 20)
#    0.000    2.000   10.000    1.500    0.000    1.000 
#    0.000    0.625    8.250    0.750    3.250    4.375 
#    0.000    0.000    0.000    0.000    0.000    0.000 
#
# Total GULP energy -178998.058326 kJ/mol
# GULP energy per Si atom -5593.689323 kJ/mol
# Density = 2.509534 g / cm^3
# Si number density = 25.152593 Si / 1000 Ang^3
#
#
#
# Elastic Constant Matrix: (Units=GPa)
#
#
# Indices 1 2 3 4 5 6 
#
# 1 47.8979 -5.4889 35.2966 0.0000 38.3898 0.0000
# 2 -5.4889 53.3114 10.6185 0.0000 9.4906 0.0000
# 3 35.2966 10.6185 135.9110 0.0000 33.7065 0.0000
# 4 0.0000 0.0000 0.0000 8.1482 0.0000 -1.4512
# 5 38.3898 9.4906 33.7065 0.0000 53.3947 0.0000
# 6 0.0000 0.0000 0.0000 -1.4512 0.0000 25.2659
#
#
#
# Elastic Compliance Matrix: (Units=1/GPa)
#
#
# Indices 1 2 3 4 5 6 
#
# 1 0.062251 0.015441 -0.006631 0.000000 -0.043316 0.000000
# 2 0.015441 0.023271 -0.002429 0.000000 -0.013705 0.000000
# 3 -0.006631 -0.002429 0.009461 0.000000 -0.000774 0.000000
# 4 0.000000 0.000000 0.000000 0.123995 0.000000 0.007122
# 5 -0.043316 -0.013705 -0.000774 0.000000 0.052796 0.000000
# 6 0.000000 0.000000 0.000000 0.007122 0.000000 0.039988
#
#
# Mechanical properties :
#
#
# Convention : Reuss Voigt Hill
#
# Bulk Modulus (GPa) = 9.28112 35.33030 22.30571
# Shear Modulus (GPa) = 14.92910 30.47470 22.70190
#
# Velocity S-wave (km/s) = 2.43891 3.48457 3.00753
# Velocity P-wave (km/s) = 3.41013 5.50150 4.57687
#
# Compressibility (1/GPa) = 0.10774559
#
# Stress axis : x y z
#
# Youngs Moduli (GPa) = 16.06401 42.97178 105.69241
#
# Poissons Ratio (x) = -0.66353 0.70080
# Poissons Ratio (y) = -0.24805 0.25678
# Poissons Ratio (z) = 0.10651 0.10440
#
# Static dielectric constant tensor:
#      x y z
#    x 2.020110 0.000000 -0.011880 
#    y 0.000000 2.093690 0.000000 
#    z -0.011880 0.000000 1.993870 
# 
# From -- ./inp_files/47536.got.cif
#   From: 2010.05.17/outbox.cif.g08.bks.cpg/sg14_24_cif.got.tgz:47536.got - 2010.06.03 17:49:19.
