data_PCOD9239993
_publ_section_title
;
Structure prediction by ZEFSAII (Michael W. Deem and Ramdas Pophale) SiO2 
 PCOD9239993
Probable space group: P 21/C
;
_chemical_formula_sum "Si O2"
_cell_formula_units_Z 28
_cell_length_a 10.602316
_cell_length_b 15.281718
_cell_length_c 14.729617
_cell_angle_alpha 90.000000
_cell_angle_beta 26.182041
_cell_angle_gamma 90.000000
_cell_volume 1052.989618
_symmetry_space_group_name_H-M "P 21/C"
_symmetry_group_IT_number 14
_symmetry_cell_setting 'monoclinic'
loop_
_space_group_symop_operation_xyz
x,y,z
-x,1/2+y,1/2-z
-x,-y,-z
x,1/2-y,1/2+z
loop_
_atom_site_type_symbol
_atom_site_label
_atom_site_fract_x
_atom_site_fract_y
_atom_site_fract_z
Si Si1 0.973147 0.857823 0.252285
Si Si2 0.340990 0.925671 0.691608
Si Si3 0.951110 0.136136 0.594586
Si Si4 0.852025 0.933405 0.699923
Si Si5 0.194473 0.449476 0.576693
Si Si6 0.522250 0.900051 0.294305
Si Si7 0.957992 0.297280 0.484479
O O1 0.642680 0.886825 0.468386
O O2 0.013740 0.824333 0.328210
O O3 0.039831 0.795239 0.125286
O O4 0.155224 0.946660 0.117978
O O5 0.116003 0.916699 0.755848
O O6 0.374041 0.025471 0.702085
O O7 0.212915 0.878189 0.862662
O O8 0.812348 0.214688 0.627373
O O9 0.209615 0.115001 0.355179
O O10 0.847517 0.037066 0.681583
O O11 0.705639 0.912080 0.890372
O O12 0.181720 0.909814 0.510607
O O13 0.380099 0.427308 0.369768
O O14 0.711377 0.815261 0.198214
#
# Coordination Sequence:
#
# PCOD9239993 Si02
#       7
#     4   4   4   4   4   4   4
#     4  11  20  38  63  82 122 161 191 245 307 350
#     4  11  19  35  62  95 116 149 199 249 295 359
#     4  10  24  42  58  85 123 163 199 241 295 366
#     4  10  22  43  60  80 127 166 196 236 297 370
#     4  10  18  33  63  92 113 153 199 243 299 347
#     4  11  19  36  65  94 115 152 202 250 292 356
#     4  11  23  37  60  93 120 146 203 260 295 341
#
# _framework density 26.590957
#
# number of rings (size 3 to 8) (size 9 to 14) (size 15 to 20)
#    0.000    1.429    5.714    2.143    0.000    3.429 
#    0.000   12.143    0.000    0.000    0.000    0.000 
#    0.000    0.000    0.000    0.000    0.000    0.000 
#
# Total GULP energy -156564.680236 kJ/mol
# GULP energy per Si atom -5591.595723 kJ/mol
# Density = 2.653043 g / cm^3
# Si number density = 26.590957 Si / 1000 Ang^3
#
#
#
# Elastic Constant Matrix: (Units=GPa)
#
#
# Indices 1 2 3 4 5 6 
#
# 1 149.9837 30.4827 57.0032 0.0000 63.9356 0.0000
# 2 30.4827 81.5011 14.7614 0.0000 4.4592 0.0000
# 3 57.0032 14.7614 133.8384 0.0000 35.0668 0.0000
# 4 0.0000 0.0000 0.0000 21.3728 0.0000 10.8602
# 5 63.9356 4.4592 35.0668 0.0000 67.4722 0.0000
# 6 0.0000 0.0000 0.0000 10.8602 0.0000 25.2426
#
#
#
# Elastic Compliance Matrix: (Units=1/GPa)
#
#
# Indices 1 2 3 4 5 6 
#
# 1 0.012907 -0.003830 -0.002242 0.000000 -0.010812 0.000000
# 2 -0.003830 0.013657 -0.000682 0.000000 0.003081 0.000000
# 3 -0.002242 -0.000682 0.009184 0.000000 -0.002604 0.000000
# 4 0.000000 0.000000 0.000000 0.059879 0.000000 -0.025762
# 5 -0.010812 0.003081 -0.002604 0.000000 0.026216 0.000000
# 6 0.000000 0.000000 0.000000 -0.025762 0.000000 0.050699
#
#
# Mechanical properties :
#
#
# Convention : Reuss Voigt Hill
#
# Bulk Modulus (GPa) = 44.96437 63.31306 54.13872
# Shear Modulus (GPa) = 25.84468 40.35590 33.10029
#
# Velocity S-wave (km/s) = 3.12097 3.89994 3.53199
# Velocity P-wave (km/s) = 5.47116 6.64387 6.08583
#
# Compressibility (1/GPa) = 0.02223983
#
# Stress axis : x y z
#
# Youngs Moduli (GPa) = 77.47852 73.22156 108.88508
#
# Poissons Ratio (x) = 0.28042 0.24411
# Poissons Ratio (y) = 0.29672 0.07431
# Poissons Ratio (z) = 0.17370 0.04997
#
# Static dielectric constant tensor:
#      x y z
#    x 2.163730 0.000000 -0.052720 
#    y 0.000000 2.158830 0.000000 
#    z -0.052720 0.000000 2.078490 
# 
# From -- ./inp_files/45269.got.cif
#   From: 2010.05.17/outbox.cif.g08.bks.cpg/sg14_23_cif.got.tgz:45269.got - 2010.06.03 17:49:19.
