data_PCOD9239978
_publ_section_title
;
Structure prediction by ZEFSAII (Michael W. Deem and Ramdas Pophale) SiO2 
 PCOD9239978
Probable space group: P 21/C
;
_chemical_formula_sum "Si O2"
_cell_formula_units_Z 28
_cell_length_a 18.718365
_cell_length_b 8.954034
_cell_length_c 15.156916
_cell_angle_alpha 90.000000
_cell_angle_beta 148.167776
_cell_angle_gamma 90.000000
_cell_volume 1339.878361
_symmetry_space_group_name_H-M "P 21/C"
_symmetry_group_IT_number 14
_symmetry_cell_setting 'monoclinic'
loop_
_space_group_symop_operation_xyz
x,y,z
-x,1/2+y,1/2-z
-x,-y,-z
x,1/2-y,1/2+z
loop_
_atom_site_type_symbol
_atom_site_label
_atom_site_fract_x
_atom_site_fract_y
_atom_site_fract_z
Si Si1 0.770778 0.058132 0.896861
Si Si2 0.231917 0.460161 0.793491
Si Si3 0.140337 0.708318 0.255146
Si Si4 0.389287 0.953197 0.097675
Si Si5 0.644432 0.697188 0.918204
Si Si6 0.010995 0.779090 0.442353
Si Si7 0.073659 0.189759 0.834742
O O1 0.661067 0.088802 0.856278
O O2 0.716522 0.978003 0.752096
O O3 0.852049 0.201211 0.949035
O O4 0.879951 0.947625 0.056539
O O5 0.185101 0.622376 0.778092
O O6 0.102406 0.348482 0.657517
O O7 0.338856 0.394876 0.974356
O O8 0.273570 0.611154 0.412663
O O9 0.049174 0.726845 0.246830
O O10 0.051547 0.652716 0.078909
O O11 0.534436 0.877375 0.239692
O O12 0.393946 0.131963 0.100627
O O13 0.794575 0.704626 0.034073
O O14 0.957449 0.861476 0.298304
#
# Coordination Sequence:
#
# PCOD9239978 Si02
#       7
#     4   4   4   4   4   4   4
#     4  10  18  34  61  90 116 159 201 241 298 365
#     4  10  19  36  64  93 120 149 201 253 297 353
#     4  11  19  35  68  91 124 150 197 250 300 359
#     4  11  23  41  60  86 122 163 200 243 302 355
#     4  10  24  39  59  86 122 158 205 242 296 356
#     4  10  18  33  59  98 122 150 197 245 301 358
#     4  10  19  35  60  93 121 152 196 249 297 349
#
# _framework density 20.89742
#
# number of rings (size 3 to 8) (size 9 to 14) (size 15 to 20)
#    0.000    1.714    4.286    1.714    0.000    0.571 
#    0.000    9.286    0.000    6.857    0.000    0.000 
#    0.000    0.000    0.000    0.000    0.000    0.000 
#
# Total GULP energy -156388.934311 kJ/mol
# GULP energy per Si atom -5585.319083 kJ/mol
# Density = 2.084986 g / cm^3
# Si number density = 20.897420 Si / 1000 Ang^3
#
#
#
# Elastic Constant Matrix: (Units=GPa)
#
#
# Indices 1 2 3 4 5 6 
#
# 1 46.9950 -2.7300 17.4406 0.0000 -15.7619 0.0000
# 2 -2.7300 48.1607 35.9709 0.0000 -5.5379 0.0000
# 3 17.4406 35.9709 120.6012 0.0000 -1.7489 0.0000
# 4 0.0000 0.0000 0.0000 33.9079 0.0000 -7.7235
# 5 -15.7619 -5.5379 -1.7489 0.0000 27.1010 0.0000
# 6 0.0000 0.0000 0.0000 -7.7235 0.0000 14.9934
#
#
#
# Elastic Compliance Matrix: (Units=1/GPa)
#
#
# Indices 1 2 3 4 5 6 
#
# 1 0.030873 0.009139 -0.006909 0.000000 0.019377 0.000000
# 2 0.009139 0.030101 -0.010143 0.000000 0.010811 0.000000
# 3 -0.006909 -0.010143 0.012239 0.000000 -0.005301 0.000000
# 4 0.000000 0.000000 0.000000 0.033412 0.000000 0.017211
# 5 0.019377 0.010811 -0.005301 0.000000 0.050036 0.000000
# 6 0.000000 0.000000 0.000000 0.017211 0.000000 0.075562
#
#
# Mechanical properties :
#
#
# Convention : Reuss Voigt Hill
#
# Bulk Modulus (GPa) = 17.42579 35.23555 26.33067
# Shear Modulus (GPa) = 18.71413 26.20550 22.45981
#
# Velocity S-wave (km/s) = 2.99578 3.54504 3.28192
# Velocity P-wave (km/s) = 4.50811 5.80122 5.19506
#
# Compressibility (1/GPa) = 0.05738620
#
# Stress axis : x y z
#
# Youngs Moduli (GPa) = 32.39077 33.22200 81.70398
#
# Poissons Ratio (x) = -0.30361 0.56453
# Poissons Ratio (y) = -0.29601 0.82870
# Poissons Ratio (z) = 0.22380 0.33696
#
# Static dielectric constant tensor:
#      x y z
#    x 1.754020 0.000000 -0.008490 
#    y 0.000000 1.766810 0.000000 
#    z -0.008490 0.000000 1.771570 
# 
# From -- ./inp_files/50117.got.cif
#   From: 2010.05.17/outbox.cif.g08.bks.cpg/sg14_26_cif.got.tgz:50117.got - 2010.06.03 17:49:19.
