data_PCOD9239660
_publ_section_title
;
Structure prediction by ZEFSAII (Michael W. Deem and Ramdas Pophale) SiO2 
 PCOD9239660
Probable space group: P 21/C
;
_chemical_formula_sum "Si O2"
_cell_formula_units_Z 32
_cell_length_a 5.323147
_cell_length_b 11.283632
_cell_length_c 29.021898
_cell_angle_alpha 90.000000
_cell_angle_beta 100.568947
_cell_angle_gamma 90.000000
_cell_volume 1713.610530
_symmetry_space_group_name_H-M "P 21/C"
_symmetry_group_IT_number 14
_symmetry_cell_setting 'monoclinic'
loop_
_space_group_symop_operation_xyz
x,y,z
-x,1/2+y,1/2-z
-x,-y,-z
x,1/2-y,1/2+z
loop_
_atom_site_type_symbol
_atom_site_label
_atom_site_fract_x
_atom_site_fract_y
_atom_site_fract_z
Si Si1 0.307566 0.363510 0.294772
Si Si2 0.286770 0.368089 0.091890
Si Si3 0.205494 0.216027 0.688958
Si Si4 0.897011 0.631912 0.091890
Si Si5 0.718022 0.136490 0.205228
Si Si6 0.644662 0.364479 0.945453
Si Si7 0.827578 0.216027 0.311042
Si Si8 0.753758 0.364480 0.054547
O O1 0.261124 0.354323 0.237932
O O2 0.309066 0.500000 0.309065
O O3 0.565826 0.287649 0.312933
O O4 0.058880 0.305603 0.308931
O O5 0.228749 0.363526 0.144117
O O6 0.321152 0.501062 0.072822
O O7 0.554118 0.311886 0.084412
O O8 0.035203 0.308382 0.061777
O O9 0.441019 0.305602 0.691069
O O10 0.939962 0.287650 0.687067
O O11 0.614707 0.688115 0.084412
O O12 0.824493 0.498940 0.072822
O O13 0.088352 0.691619 0.061777
O O14 0.059484 0.636475 0.144117
O O15 0.785262 0.145678 0.262068
O O16 0.631076 0.366452 0.000000
#
# Coordination Sequence:
#
# PCOD9239660 Si02
#       8
#     4   4   4   4   4   4   4   4
#     4  10  21  37  53  70 107 139 171 236 261 292
#     4  10  18  30  48  71 105 138 169 207 236 327
#     4  10  21  35  51  80  99 135 193 207 258 324
#     4  10  18  30  48  71 105 138 169 207 236 327
#     4  10  21  37  53  70 107 139 171 236 261 292
#     4  10  19  31  48  77 112 141 161 205 271 323
#     4  10  21  35  51  80  99 135 193 207 258 324
#     4  10  19  31  48  77 112 141 161 205 271 323
#
# _framework density 18.674023999999999
#
# number of rings (size 3 to 8) (size 9 to 14) (size 15 to 20)
#    0.000    2.000    0.000    6.000    3.500    0.000 
#    9.000    0.000    0.000    0.000    0.000    0.000 
#    0.000  116.000    0.000    0.000    0.000    0.000 
#
# Total GULP energy -178159.157671 kJ/mol
# GULP energy per Si atom -5567.473677 kJ/mol
# Density = 1.863152 g / cm^3
# Si number density = 18.674024 Si / 1000 Ang^3
#
#
#
# Elastic Constant Matrix: (Units=GPa)
#
#
# Indices 1 2 3 4 5 6 
#
# 1 160.6504 12.1658 11.1625 0.0000 5.1418 0.0000
# 2 12.1658 38.7969 2.4081 0.0000 0.5505 0.0000
# 3 11.1625 2.4081 89.2212 0.0000 -1.1129 0.0000
# 4 0.0000 0.0000 0.0000 14.7794 0.0000 -0.2418
# 5 5.1418 0.5505 -1.1129 0.0000 29.5163 0.0000
# 6 0.0000 0.0000 0.0000 -0.2418 0.0000 10.4916
#
#
#
# Elastic Compliance Matrix: (Units=1/GPa)
#
#
# Indices 1 2 3 4 5 6 
#
# 1 0.006463 -0.001963 -0.000770 0.000000 -0.001118 0.000000
# 2 -0.001963 0.026422 -0.000470 0.000000 -0.000169 0.000000
# 3 -0.000770 -0.000470 0.011324 0.000000 0.000570 0.000000
# 4 0.000000 0.000000 0.000000 0.067687 0.000000 0.001560
# 5 -0.001118 -0.000169 0.000570 0.000000 0.034099 0.000000
# 6 0.000000 0.000000 0.000000 0.001560 0.000000 0.095350
#
#
# Mechanical properties :
#
#
# Convention : Reuss Voigt Hill
#
# Bulk Modulus (GPa) = 26.45159 37.79349 32.12254
# Shear Modulus (GPa) = 19.20484 28.48628 23.84556
#
# Velocity S-wave (km/s) = 3.21039 3.90994 3.57730
# Velocity P-wave (km/s) = 5.28562 6.37699 5.85678
#
# Compressibility (1/GPa) = 0.03780491
#
# Stress axis : x y z
#
# Youngs Moduli (GPa) = 154.73642 37.84682 88.30683
#
# Poissons Ratio (x) = 0.07429 0.06795
# Poissons Ratio (y) = 0.30373 0.04147
# Poissons Ratio (z) = 0.11907 0.01778
#
# Static dielectric constant tensor:
#      x y z
#    x 1.828850 0.000000 0.007130 
#    y 0.000000 1.711440 0.000000 
#    z 0.007130 0.000000 1.702520 
# 
# From -- ./inp_files/75794.got.cif
#   From: 2010.05.17/outbox.cif.g08.bks.cpg/sg14_38_cif.got.tgz:75794.got - 2010.06.03 17:49:19.
