data_PCOD9239583
_publ_section_title
;
Structure prediction by ZEFSAII (Michael W. Deem and Ramdas Pophale) SiO2 
 PCOD9239583
Probable space group: P 21/C
;
_chemical_formula_sum "Si O2"
_cell_formula_units_Z 32
_cell_length_a 16.923278
_cell_length_b 8.609894
_cell_length_c 9.464190
_cell_angle_alpha 90.000000
_cell_angle_beta 111.526725
_cell_angle_gamma 90.000000
_cell_volume 1282.814311
_symmetry_space_group_name_H-M "P 21/C"
_symmetry_group_IT_number 14
_symmetry_cell_setting 'monoclinic'
loop_
_space_group_symop_operation_xyz
x,y,z
-x,1/2+y,1/2-z
-x,-y,-z
x,1/2-y,1/2+z
loop_
_atom_site_type_symbol
_atom_site_label
_atom_site_fract_x
_atom_site_fract_y
_atom_site_fract_z
Si Si1 0.341698 0.579116 0.448253
Si Si2 0.167905 0.143152 0.140409
Si Si3 0.998435 0.255609 0.439182
Si Si4 0.031270 0.956783 0.327228
Si Si5 0.611350 0.761578 0.859919
Si Si6 0.171716 0.444311 0.323624
Si Si7 0.412924 0.728293 0.763830
Si Si8 0.671790 0.554498 0.134390
O O1 0.372000 0.415326 0.533496
O O2 0.241605 0.575508 0.347538
O O3 0.360679 0.700305 0.586569
O O4 0.391685 0.619637 0.339471
O O5 0.185401 0.310737 0.218465
O O6 0.228212 0.029572 0.269362
O O7 0.065482 0.138116 0.067794
O O8 0.191958 0.118251 0.993797
O O9 0.945724 0.355368 0.293731
O O10 0.951770 0.152923 0.526033
O O11 0.056032 0.131713 0.385624
O O12 0.928384 0.979790 0.244643
O O13 0.511621 0.725456 0.791590
O O14 0.644273 0.809743 0.727494
O O15 0.655686 0.618400 0.968426
O O16 0.384612 0.589108 0.850828
#
# Coordination Sequence:
#
# PCOD9239583 Si02
#       8
#     4   4   4   4   4   4   4   4
#     4  11  23  42  57  82 120 156 197 242 305 351
#     4  10  17  37  62  87 115 154 201 238 285 353
#     4   9  19  34  62  88 122 157 196 241 292 349
#     4   9  19  36  61  89 124 156 199 241 293 348
#     4  11  22  38  61  83 114 154 197 245 296 356
#     4  10  19  38  62  85 119 157 197 247 286 355
#     4  11  24  39  57  85 118 149 196 254 300 346
#     4  11  21  38  60  87 114 150 205 241 292 351
#
# _framework density 24.945153999999999
#
# number of rings (size 3 to 8) (size 9 to 14) (size 15 to 20)
#    0.000    1.750    3.750    1.500    0.000    3.500 
#    2.250    3.750    5.500    0.000    0.000    0.000 
#    0.000    0.000    0.000    0.000    0.000    0.000 
#
# Total GULP energy -178954.700262 kJ/mol
# GULP energy per Si atom -5592.334383 kJ/mol
# Density = 2.488838 g / cm^3
# Si number density = 24.945154 Si / 1000 Ang^3
#
#
#
# Elastic Constant Matrix: (Units=GPa)
#
#
# Indices 1 2 3 4 5 6 
#
# 1 47.9263 14.6420 -3.0453 0.0000 23.4903 0.0000
# 2 14.6420 62.0217 25.3411 0.0000 -10.7982 0.0000
# 3 -3.0453 25.3411 86.6457 0.0000 -12.1183 0.0000
# 4 0.0000 0.0000 0.0000 43.5148 0.0000 1.6536
# 5 23.4903 -10.7982 -12.1183 0.0000 32.4677 0.0000
# 6 0.0000 0.0000 0.0000 1.6536 0.0000 28.2955
#
#
#
# Elastic Compliance Matrix: (Units=1/GPa)
#
#
# Indices 1 2 3 4 5 6 
#
# 1 0.045004 -0.017840 0.001493 0.000000 -0.037936 0.000000
# 2 -0.017840 0.025975 -0.005497 0.000000 0.019494 0.000000
# 3 0.001493 -0.005497 0.013499 0.000000 0.002130 0.000000
# 4 0.000000 0.000000 0.000000 0.023032 0.000000 -0.001346
# 5 -0.037936 0.019494 0.002130 0.000000 0.065525 0.000000
# 6 0.000000 0.000000 0.000000 -0.001346 0.000000 0.035420
#
#
# Mechanical properties :
#
#
# Convention : Reuss Voigt Hill
#
# Bulk Modulus (GPa) = 24.51482 30.05214 27.28348
# Shear Modulus (GPa) = 18.81542 31.49933 25.15737
#
# Velocity S-wave (km/s) = 2.74938 3.55737 3.17915
# Velocity P-wave (km/s) = 4.46404 5.38020 4.94339
#
# Compressibility (1/GPa) = 0.04079165
#
# Stress axis : x y z
#
# Youngs Moduli (GPa) = 22.22012 38.49853 74.07720
#
# Poissons Ratio (x) = 0.68680 -0.11063
# Poissons Ratio (y) = 0.39640 0.40723
# Poissons Ratio (z) = -0.03318 0.21164
#
# Static dielectric constant tensor:
#      x y z
#    x 2.032430 0.000000 -0.003880 
#    y 0.000000 2.027420 0.000000 
#    z -0.003880 0.000000 1.969390 
# 
# From -- ./inp_files/34899.got.cif
#   From: 2010.05.17/outbox.cif.g08.bks.cpg/sg14_18_cif.got.tgz:34899.got - 2010.06.03 17:49:19.
