data_PCOD9239640
_publ_section_title
;
Structure prediction by ZEFSAII (Michael W. Deem and Ramdas Pophale) SiO2 
 PCOD9239640
Probable space group: P 21/C
;
_chemical_formula_sum "Si O2"
_cell_formula_units_Z 28
_cell_length_a 15.956713
_cell_length_b 11.166997
_cell_length_c 13.025434
_cell_angle_alpha 90.000000
_cell_angle_beta 152.813443
_cell_angle_gamma 90.000000
_cell_volume 1060.432335
_symmetry_space_group_name_H-M "P 21/C"
_symmetry_group_IT_number 14
_symmetry_cell_setting 'monoclinic'
loop_
_space_group_symop_operation_xyz
x,y,z
-x,1/2+y,1/2-z
-x,-y,-z
x,1/2-y,1/2+z
loop_
_atom_site_type_symbol
_atom_site_label
_atom_site_fract_x
_atom_site_fract_y
_atom_site_fract_z
Si Si1 0.976062 0.569934 0.809018
Si Si2 0.867175 0.679177 0.293979
Si Si3 0.686662 0.307969 0.894409
Si Si4 0.415474 0.189339 0.922579
Si Si5 0.188832 0.933648 0.049719
Si Si6 0.322312 0.555761 0.416745
Si Si7 0.557356 0.997177 0.380914
O O1 0.893677 0.694982 0.761818
O O2 0.910592 0.536671 0.623226
O O3 0.889708 0.462065 0.782084
O O4 0.190183 0.594793 0.031906
O O5 0.065240 0.613946 0.508992
O O6 0.755880 0.721251 0.274434
O O7 0.731499 0.586698 0.089377
O O8 0.509434 0.279202 0.633652
O O9 0.629275 0.369476 0.937088
O O10 0.798206 0.185038 0.009635
O O11 0.585846 0.172490 0.031899
O O12 0.344285 0.055209 0.862551
O O13 0.397331 0.976981 0.290348
O O14 0.447581 0.530620 0.654345
#
# Coordination Sequence:
#
# PCOD9239640 Si02
#       7
#     4   4   4   4   4   4   4
#     4   9  18  30  46  75 103 123 166 204 244 294
#     4  10  18  31  50  71 100 127 163 207 243 293
#     4  10  18  29  49  74 100 133 162 198 255 288
#     4   9  16  30  46  70 100 132 159 198 251 300
#     4  10  19  30  48  73 101 126 166 206 239 290
#     4   8  17  29  46  68 103 129 160 199 247 297
#     4  10  18  31  49  70  99 130 163 201 243 294
#
# _framework density 26.404326000000001
#
# number of rings (size 3 to 8) (size 9 to 14) (size 15 to 20)
#    0.000    2.571    2.857    0.857    0.000    0.571 
#    0.000    1.429    0.000    0.000    0.000   10.000 
#    0.000    0.000    0.000    0.000    0.000    0.000 
#
# Total GULP energy -156129.502385 kJ/mol
# GULP energy per Si atom -5576.053657 kJ/mol
# Density = 2.634423 g / cm^3
# Si number density = 26.404326 Si / 1000 Ang^3
#
#
#
# Elastic Constant Matrix: (Units=GPa)
#
#
# Indices 1 2 3 4 5 6 
#
# 1 53.9732 75.9031 55.4307 0.0000 26.5149 0.0000
# 2 75.9031 87.3067 23.1018 0.0000 18.6963 0.0000
# 3 55.4307 23.1018 116.0473 0.0000 38.7014 0.0000
# 4 0.0000 0.0000 0.0000 28.0440 0.0000 18.0876
# 5 26.5149 18.6963 38.7014 0.0000 55.0296 0.0000
# 6 0.0000 0.0000 0.0000 18.0876 0.0000 48.3535
#
#
#
# Elastic Compliance Matrix: (Units=1/GPa)
#
#
# Indices 1 2 3 4 5 6 
#
# 1 -0.042755 0.033616 0.013938 0.000000 -0.000623 0.000000
# 2 0.033616 -0.013905 -0.012362 0.000000 -0.002779 0.000000
# 3 0.013938 -0.012362 0.006871 0.000000 -0.007348 0.000000
# 4 0.000000 0.000000 0.000000 0.046997 0.000000 -0.017580
# 5 -0.000623 -0.002779 -0.007348 0.000000 0.024584 0.000000
# 6 0.000000 0.000000 0.000000 -0.017580 0.000000 0.027257
#
#
# Mechanical properties :
#
#
# Convention : Reuss Voigt Hill
#
# Bulk Modulus (GPa) = 48.55653 62.91094 55.73374
# Shear Modulus (GPa) = -345.55629 33.14487 -156.20571
#
# Velocity S-wave (km/s) = -11.45230 3.54684 -7.69984
# Velocity P-wave (km/s) = 12.50776 6.37582 7.60897
#
# Compressibility (1/GPa) = 0.02059455
#
# Stress axis : x y z
#
# Youngs Moduli (GPa) = -23.38911 -71.91609 145.53593
#
# Poissons Ratio (x) = 2.41752 -2.02845
# Poissons Ratio (y) = 0.78624 1.79910
# Poissons Ratio (z) = 0.32599 -0.88902
#
# Static dielectric constant tensor:
#      x y z
#    x 2.182350 0.000000 0.077970 
#    y 0.000000 2.071960 0.000000 
#    z 0.077970 0.000000 2.033060 
# 
# From -- ./inp_files/55206.got.cif
#   From: 2010.05.17/outbox.cif.g08.bks.cpg/sg14_28_cif.got.tgz:55206.got - 2010.06.03 17:49:19.
