data_PCOD9239122
_publ_section_title
;
Structure prediction by ZEFSAII (Michael W. Deem and Ramdas Pophale) SiO2 
 PCOD9239122
Probable space group: P 21/C
;
_chemical_formula_sum "Si O2"
_cell_formula_units_Z 28
_cell_length_a 11.742517
_cell_length_b 21.111127
_cell_length_c 8.405830
_cell_angle_alpha 90.000000
_cell_angle_beta 145.443389
_cell_angle_gamma 90.000000
_cell_volume 1181.965868
_symmetry_space_group_name_H-M "P 21/C"
_symmetry_group_IT_number 14
_symmetry_cell_setting 'monoclinic'
loop_
_space_group_symop_operation_xyz
x,y,z
-x,1/2+y,1/2-z
-x,-y,-z
x,1/2-y,1/2+z
loop_
_atom_site_type_symbol
_atom_site_label
_atom_site_fract_x
_atom_site_fract_y
_atom_site_fract_z
Si Si1 0.390801 0.285697 0.293014
Si Si2 0.423278 0.051948 0.288774
Si Si3 0.824776 0.273749 0.190024
Si Si4 0.353587 0.337627 0.922978
Si Si5 0.831355 0.039368 0.218511
Si Si6 0.649158 0.125864 0.286900
Si Si7 0.154722 0.655562 0.471439
O O1 0.596442 0.250249 0.468638
O O2 0.296039 0.324505 0.039031
O O3 0.289210 0.225234 0.254539
O O4 0.456173 0.335500 0.502339
O O5 0.299608 0.102371 0.252731
O O6 0.593218 0.089067 0.383821
O O7 0.500000 0.000000 0.500000
O O8 0.306830 0.012886 0.022008
O O9 0.904053 0.315502 0.426404
O O10 0.807682 0.319942 0.018298
O O11 0.912186 0.206932 0.236859
O O12 0.598812 0.345770 0.227703
O O13 0.721125 0.081934 0.225635
O O14 0.902666 0.086996 0.160590
O O15 0.000000 0.000000 0.500000
#
# Coordination Sequence:
#
# PCOD9239122 Si02
#       7
#     4   4   4   4   4   4   4
#     4  10  15  28  55  96 113 132 183 274 302 338
#     4  12  22  38  59  85 118 157 203 245 283 358
#     4  10  15  28  61  93 106 134 195 273 286 336
#     4  10  16  29  55  88 113 136 190 257 297 329
#     4  12  26  40  54  82 131 168 199 238 291 361
#     4  12  19  35  62  89 113 154 206 249 302 346
#     4  10  16  33  54  86 112 144 193 246 293 340
#
# _framework density 23.689347999999999
#
# number of rings (size 3 to 8) (size 9 to 14) (size 15 to 20)
#    0.000    1.143   11.429    0.429    0.000    0.000 
#    0.000    2.857    0.000    6.857    0.000    0.000 
#    0.000    0.000    0.000    0.000    0.000    0.000 
#
# Total GULP energy -156442.481695 kJ/mol
# GULP energy per Si atom -5587.231489 kJ/mol
# Density = 2.363543 g / cm^3
# Si number density = 23.689348 Si / 1000 Ang^3
#
#
#
# Elastic Constant Matrix: (Units=GPa)
#
#
# Indices 1 2 3 4 5 6 
#
# 1 77.1043 24.1009 8.5586 0.0000 -12.7712 0.0000
# 2 24.1009 137.0407 20.8824 0.0000 -7.9625 0.0000
# 3 8.5586 20.8824 59.9394 0.0000 -16.3780 0.0000
# 4 0.0000 0.0000 0.0000 63.5342 0.0000 -32.8018
# 5 -12.7712 -7.9625 -16.3780 0.0000 34.1450 0.0000
# 6 0.0000 0.0000 0.0000 -32.8018 0.0000 39.4718
#
#
#
# Elastic Compliance Matrix: (Units=1/GPa)
#
#
# Indices 1 2 3 4 5 6 
#
# 1 0.014487 -0.002272 0.000068 0.000000 0.004921 0.000000
# 2 -0.002272 0.008073 -0.002539 0.000000 -0.000185 0.000000
# 3 0.000068 -0.002539 0.020028 0.000000 0.009040 0.000000
# 4 0.000000 0.000000 0.000000 0.027567 0.000000 0.022909
# 5 0.004921 -0.000185 0.009040 0.000000 0.035421 0.000000
# 6 0.000000 0.000000 0.000000 0.022909 0.000000 0.044372
#
#
# Mechanical properties :
#
#
# Convention : Reuss Voigt Hill
#
# Bulk Modulus (GPa) = 30.20932 42.35202 36.28067
# Shear Modulus (GPa) = 29.33088 42.13301 35.73195
#
# Velocity S-wave (km/s) = 3.52255 4.22188 3.88797
# Velocity P-wave (km/s) = 5.41520 6.45620 5.95848
#
# Compressibility (1/GPa) = 0.03310237
#
# Stress axis : x y z
#
# Youngs Moduli (GPa) = 69.02594 123.87282 49.92893
#
# Poissons Ratio (x) = 0.28147 -0.00338
# Poissons Ratio (y) = 0.15684 0.12675
# Poissons Ratio (z) = -0.00467 0.31446
#
# Static dielectric constant tensor:
#      x y z
#    x 2.143540 0.000000 0.211610 
#    y 0.000000 1.846880 0.000000 
#    z 0.211610 0.000000 2.045480 
# 
# From -- ./inp_files/16690.got.cif
#   From: 2010.05.17/outbox.cif.g08.bks.cpg/sg14_9_cif.got.tgz:16690.got - 2010.06.03 17:49:19.
