data_PCOD9239878
_publ_section_title
;
Structure prediction by ZEFSAII (Michael W. Deem and Ramdas Pophale) SiO2 
 PCOD9239878
Probable space group: P 21/C
;
_chemical_formula_sum "Si O2"
_cell_formula_units_Z 28
_cell_length_a 11.743331
_cell_length_b 16.967183
_cell_length_c 8.297351
_cell_angle_alpha 90.000000
_cell_angle_beta 48.033635
_cell_angle_gamma 90.000000
_cell_volume 1229.258976
_symmetry_space_group_name_H-M "P 21/C"
_symmetry_group_IT_number 14
_symmetry_cell_setting 'monoclinic'
loop_
_space_group_symop_operation_xyz
x,y,z
-x,1/2+y,1/2-z
-x,-y,-z
x,1/2-y,1/2+z
loop_
_atom_site_type_symbol
_atom_site_label
_atom_site_fract_x
_atom_site_fract_y
_atom_site_fract_z
Si Si1 0.208988 0.163011 0.419941
Si Si2 0.563688 0.159824 0.476937
Si Si3 0.650619 0.953928 0.458131
Si Si4 0.889336 0.962823 0.969555
Si Si5 0.814314 0.112840 0.422397
Si Si6 0.093576 0.573898 0.832428
Si Si7 0.623208 0.791487 0.047988
O O1 0.296849 0.100805 0.445697
O O2 0.253318 0.245111 0.460080
O O3 0.032605 0.138947 0.592799
O O4 0.282215 0.160675 0.173641
O O5 0.518840 0.078460 0.425134
O O6 0.739286 0.173625 0.366359
O O7 0.486363 0.229276 0.444485
O O8 0.482504 0.161600 0.728895
O O9 0.715827 0.036702 0.459391
O O10 0.748495 0.931922 0.205941
O O11 0.005046 0.900112 0.779892
O O12 0.841059 0.030829 0.888235
O O13 0.000000 0.000000 0.000000
O O14 0.800450 0.111900 0.629635
O O15 0.000000 0.500000 0.000000
#
# Coordination Sequence:
#
# PCOD9239878 Si02
#       7
#     4   4   4   4   4   4   4
#     4  10  18  38  58  83 109 148 203 234 275 348
#     4  10  21  39  59  77 113 151 206 228 286 341
#     4  10  19  34  62  86 116 148 188 237 289 356
#     4   9  17  33  55  88 117 143 174 223 309 332
#     4  10  20  34  55  91 118 147 175 244 307 332
#     4  10  18  32  58  84 125 139 180 240 304 337
#     4   9  22  38  60  76 108 163 200 240 269 334
#
# _framework density 22.777950000000001
#
# number of rings (size 3 to 8) (size 9 to 14) (size 15 to 20)
#    0.000    2.286    4.286    0.429    4.000    0.000 
#    0.000   12.857    0.000    0.000    0.000    0.000 
#    0.000    0.000    0.000    0.000    0.000    0.000 
#
# Total GULP energy -155970.877589 kJ/mol
# GULP energy per Si atom -5570.388485 kJ/mol
# Density = 2.272611 g / cm^3
# Si number density = 22.777950 Si / 1000 Ang^3
#
#
#
# Elastic Constant Matrix: (Units=GPa)
#
#
# Indices 1 2 3 4 5 6 
#
# 1 148.9397 7.1910 17.1158 0.0000 3.7674 0.0000
# 2 7.1910 22.7384 15.4472 0.0000 -2.4374 0.0000
# 3 17.1158 15.4472 67.1297 0.0000 17.3148 0.0000
# 4 0.0000 0.0000 0.0000 2.4365 0.0000 3.1603
# 5 3.7674 -2.4374 17.3148 0.0000 30.0525 0.0000
# 6 0.0000 0.0000 0.0000 3.1603 0.0000 14.9902
#
#
#
# Elastic Compliance Matrix: (Units=1/GPa)
#
#
# Indices 1 2 3 4 5 6 
#
# 1 0.006944 -0.001221 -0.001456 0.000000 -0.000131 0.000000
# 2 -0.001221 0.057123 -0.016523 0.000000 0.014306 0.000000
# 3 -0.001456 -0.016523 0.022749 0.000000 -0.014264 0.000000
# 4 0.000000 0.000000 0.000000 0.564882 0.000000 -0.119091
# 5 -0.000131 0.014306 -0.014264 0.000000 0.042670 0.000000
# 6 0.000000 0.000000 0.000000 -0.119091 0.000000 0.091817
#
#
# Mechanical properties :
#
#
# Convention : Reuss Voigt Hill
#
# Bulk Modulus (GPa) = 20.65430 35.36841 28.01136
# Shear Modulus (GPa) = 5.94726 22.76611 14.35668
#
# Velocity S-wave (km/s) = 1.61760 3.16489 2.51328
# Velocity P-wave (km/s) = 3.54630 5.37741 4.55482
#
# Compressibility (1/GPa) = 0.04841606
#
# Stress axis : x y z
#
# Youngs Moduli (GPa) = 144.01597 17.50606 43.95784
#
# Poissons Ratio (x) = 0.02138 0.06399
# Poissons Ratio (y) = 0.17585 0.72632
# Poissons Ratio (z) = 0.20964 0.28926
#
# Static dielectric constant tensor:
#      x y z
#    x 1.929540 0.000000 -0.030140 
#    y 0.000000 1.970730 0.000000 
#    z -0.030140 0.000000 1.881740 
# 
# From -- ./inp_files/14122.got.cif
#   From: 2010.05.17/outbox.cif.g08.bks.cpg/sg14_8_cif.got.tgz:14122.got - 2010.06.03 17:49:19.
