data_PCOD9239478
_publ_section_title
;
Structure prediction by ZEFSAII (Michael W. Deem and Ramdas Pophale) SiO2 
 PCOD9239478
Probable space group: P 21/C
;
_chemical_formula_sum "Si O2"
_cell_formula_units_Z 28
_cell_length_a 7.930709
_cell_length_b 13.497844
_cell_length_c 15.351810
_cell_angle_alpha 90.000000
_cell_angle_beta 43.620160
_cell_angle_gamma 90.000000
_cell_volume 1133.720440
_symmetry_space_group_name_H-M "P 21/C"
_symmetry_group_IT_number 14
_symmetry_cell_setting 'monoclinic'
loop_
_space_group_symop_operation_xyz
x,y,z
-x,1/2+y,1/2-z
-x,-y,-z
x,1/2-y,1/2+z
loop_
_atom_site_type_symbol
_atom_site_label
_atom_site_fract_x
_atom_site_fract_y
_atom_site_fract_z
Si Si1 0.070387 0.793792 0.342080
Si Si2 0.866160 0.460922 0.794095
Si Si3 0.389506 0.945624 0.288118
Si Si4 0.818346 0.701836 0.274278
Si Si5 0.290932 0.883777 0.829083
Si Si6 0.504378 0.131690 0.563834
Si Si7 0.852793 0.689437 0.579591
O O1 0.153323 0.904775 0.327671
O O2 0.303074 0.728159 0.289060
O O3 0.864943 0.756519 0.487413
O O4 0.002484 0.755963 0.273269
O O5 0.841471 0.441402 0.700452
O O6 0.749810 0.569679 0.851105
O O7 0.122124 0.412792 0.728446
O O8 0.669716 0.393769 0.920367
O O9 0.369665 0.914569 0.397185
O O10 0.631937 0.887915 0.164458
O O11 0.457638 0.060183 0.252217
O O12 0.560839 0.753474 0.396789
O O13 0.863813 0.742037 0.160439
O O14 0.104261 0.874109 0.978230
#
# Coordination Sequence:
#
# PCOD9239478 Si02
#       7
#     4   4   4   4   4   4   4
#     4   9  20  32  50  81 103 135 168 218 268 303
#     4   9  17  35  55  79 105 140 186 214 251 331
#     4  10  17  34  56  74 105 141 174 214 258 315
#     4  10  19  35  55  78 110 132 177 230 261 307
#     4   8  18  33  52  76 101 139 177 207 257 316
#     4   9  19  32  59  79 100 147 183 212 263 315
#     4   9  19  34  54  77 102 133 182 212 256 313
#
# _framework density 24.697447
#
# number of rings (size 3 to 8) (size 9 to 14) (size 15 to 20)
#    0.857    2.000    0.000    1.286    0.000    2.286 
#    0.000    3.571    0.000    9.429    0.000    0.000 
#    0.000    0.000    0.000    0.000    0.000    0.000 
#
# Total GULP energy -156231.032138 kJ/mol
# GULP energy per Si atom -5579.679719 kJ/mol
# Density = 2.464123 g / cm^3
# Si number density = 24.697447 Si / 1000 Ang^3
#
#
#
# Elastic Constant Matrix: (Units=GPa)
#
#
# Indices 1 2 3 4 5 6 
#
# 1 88.1971 1.3523 18.0574 0.0000 16.0658 0.0000
# 2 1.3523 65.6484 39.1352 0.0000 0.8826 0.0000
# 3 18.0574 39.1352 78.9957 0.0000 14.8735 0.0000
# 4 0.0000 0.0000 0.0000 26.4346 0.0000 -12.1133
# 5 16.0658 0.8826 14.8735 0.0000 8.5918 0.0000
# 6 0.0000 0.0000 0.0000 -12.1133 0.0000 45.4590
#
#
#
# Elastic Compliance Matrix: (Units=1/GPa)
#
#
# Indices 1 2 3 4 5 6 
#
# 1 0.018098 -0.003059 0.005476 0.000000 -0.043008 0.000000
# 2 -0.003059 0.026160 -0.019037 0.000000 0.035988 0.000000
# 3 0.005476 -0.019037 0.033228 0.000000 -0.065807 0.000000
# 4 0.000000 0.000000 0.000000 0.043091 0.000000 0.011482
# 5 -0.043008 0.035988 -0.065807 0.000000 0.307036 0.000000
# 6 0.000000 0.000000 0.000000 0.011482 0.000000 0.025057
#
#
# Mechanical properties :
#
#
# Convention : Reuss Voigt Hill
#
# Bulk Modulus (GPa) = 22.60016 38.88120 30.74068
# Shear Modulus (GPa) = 9.98683 27.71684 18.85184
#
# Velocity S-wave (km/s) = 2.01307 3.35364 2.76581
# Velocity P-wave (km/s) = 3.81758 5.54735 4.76167
#
# Compressibility (1/GPa) = 0.04424748
#
# Stress axis : x y z
#
# Youngs Moduli (GPa) = 55.25413 38.22589 30.09472
#
# Poissons Ratio (x) = 0.11694 -0.16480
# Poissons Ratio (y) = 0.16903 0.57290
# Poissons Ratio (z) = -0.30257 0.72769
#
# Static dielectric constant tensor:
#      x y z
#    x 2.022360 0.000000 -0.025370 
#    y 0.000000 2.023100 0.000000 
#    z -0.025370 0.000000 1.907730 
# 
# From -- ./inp_files/41554.got.cif
#   From: 2010.05.17/outbox.cif.g08.bks.cpg/sg14_21_cif.got.tgz:41554.got - 2010.06.03 17:49:19.
