data_PCOD9239721
_publ_section_title
;
Structure prediction by ZEFSAII (Michael W. Deem and Ramdas Pophale) SiO2 
 PCOD9239721
Probable space group: P 21/C
;
_chemical_formula_sum "Si O2"
_cell_formula_units_Z 28
_cell_length_a 18.087156
_cell_length_b 11.803756
_cell_length_c 13.219591
_cell_angle_alpha 90.000000
_cell_angle_beta 159.154370
_cell_angle_gamma 90.000000
_cell_volume 1004.331608
_symmetry_space_group_name_H-M "P 21/C"
_symmetry_group_IT_number 14
_symmetry_cell_setting 'monoclinic'
loop_
_space_group_symop_operation_xyz
x,y,z
-x,1/2+y,1/2-z
-x,-y,-z
x,1/2-y,1/2+z
loop_
_atom_site_type_symbol
_atom_site_label
_atom_site_fract_x
_atom_site_fract_y
_atom_site_fract_z
Si Si1 0.947818 0.750572 0.303747
Si Si2 0.207296 0.410445 0.655388
Si Si3 0.669871 0.259517 0.064941
Si Si4 0.441798 0.997127 0.274196
Si Si5 0.335720 0.426478 0.440901
Si Si6 0.289696 0.342924 0.175157
Si Si7 0.803989 0.137929 0.555212
O O1 0.778108 0.818372 0.152325
O O2 0.848864 0.657143 0.102832
O O3 0.061565 0.835379 0.370642
O O4 0.128978 0.717158 0.610806
O O5 0.354786 0.423776 0.941217
O O6 0.960143 0.424520 0.332660
O O7 0.296729 0.499465 0.686979
O O8 0.246238 0.281298 0.668625
O O9 0.533812 0.374560 0.888986
O O10 0.525704 0.167483 0.935998
O O11 0.738365 0.250290 0.035370
O O12 0.319935 0.984903 0.013177
O O13 0.251497 0.429129 0.218526
O O14 0.584966 0.415866 0.746589
#
# Coordination Sequence:
#
# PCOD9239721 Si02
#       7
#     4   4   4   4   4   4   4
#     4  11  18  32  48  70 106 134 167 216 262 301
#     4   9  17  33  52  78 110 134 174 224 264 309
#     4  10  19  31  49  75 103 139 174 215 266 313
#     4   9  18  33  53  80 106 137 176 219 269 314
#     4  11  19  31  50  76 106 134 174 214 262 316
#     4  10  19  32  49  78 106 136 173 215 266 317
#     4  10  18  31  50  74  99 134 167 212 263 304
#
# _framework density 27.879238999999998
#
# number of rings (size 3 to 8) (size 9 to 14) (size 15 to 20)
#    0.000    2.000    7.143    1.714    0.000    2.286 
#    0.000    0.000    0.000    0.000    0.000   26.000 
#    0.000    0.000    0.000    0.000    0.000    0.000 
#
# Total GULP energy -156542.502634 kJ/mol
# GULP energy per Si atom -5590.803666 kJ/mol
# Density = 2.781578 g / cm^3
# Si number density = 27.879239 Si / 1000 Ang^3
#
#
#
# Elastic Constant Matrix: (Units=GPa)
#
#
# Indices 1 2 3 4 5 6 
#
# 1 141.9086 26.8444 36.1678 0.0000 -6.3655 0.0000
# 2 26.8444 82.1619 15.4873 0.0000 -6.1534 0.0000
# 3 36.1678 15.4873 135.9704 0.0000 6.0526 0.0000
# 4 0.0000 0.0000 0.0000 29.7174 0.0000 -5.1358
# 5 -6.3655 -6.1534 6.0526 0.0000 47.2337 0.0000
# 6 0.0000 0.0000 0.0000 -5.1358 0.0000 35.8250
#
#
#
# Elastic Compliance Matrix: (Units=1/GPa)
#
#
# Indices 1 2 3 4 5 6 
#
# 1 0.007995 -0.002171 -0.001926 0.000000 0.001041 0.000000
# 2 -0.002171 0.013184 -0.000993 0.000000 0.001552 0.000000
# 3 -0.001926 -0.000993 0.008043 0.000000 -0.001420 0.000000
# 4 0.000000 0.000000 0.000000 0.034505 0.000000 0.004947
# 5 0.001041 0.001552 -0.001420 0.000000 0.021696 0.000000
# 6 0.000000 0.000000 0.000000 0.004947 0.000000 0.028623
#
#
# Mechanical properties :
#
#
# Convention : Reuss Voigt Hill
#
# Bulk Modulus (GPa) = 52.51610 57.44887 54.98249
# Shear Modulus (GPa) = 38.29270 41.32465 39.80868
#
# Velocity S-wave (km/s) = 3.71012 3.85421 3.78285
# Velocity P-wave (km/s) = 6.10174 6.36063 6.23253
#
# Compressibility (1/GPa) = 0.01904178
#
# Stress axis : x y z
#
# Youngs Moduli (GPa) = 125.07788 75.84984 124.33022
#
# Poissons Ratio (x) = 0.16468 0.23942
# Poissons Ratio (y) = 0.27157 0.12349
# Poissons Ratio (z) = 0.24086 0.07534
#
# Static dielectric constant tensor:
#      x y z
#    x 2.231320 0.000000 -0.010450 
#    y 0.000000 2.239350 0.000000 
#    z -0.010450 0.000000 2.172700 
# 
# From -- ./inp_files/45504.got.cif
#   From: 2010.05.17/outbox.cif.g08.bks.cpg/sg14_23_cif.got.tgz:45504.got - 2010.06.03 17:49:19.
