data_PCOD9239120
_publ_section_title
;
Structure prediction by ZEFSAII (Michael W. Deem and Ramdas Pophale) SiO2 
 PCOD9239120
Probable space group: P 21/C
;
_chemical_formula_sum "Si O2"
_cell_formula_units_Z 24
_cell_length_a 8.133543
_cell_length_b 6.821008
_cell_length_c 29.813171
_cell_angle_alpha 90.000000
_cell_angle_beta 34.089088
_cell_angle_gamma 90.000000
_cell_volume 927.038154
_symmetry_space_group_name_H-M "P 21/C"
_symmetry_group_IT_number 14
_symmetry_cell_setting 'monoclinic'
loop_
_space_group_symop_operation_xyz
x,y,z
-x,1/2+y,1/2-z
-x,-y,-z
x,1/2-y,1/2+z
loop_
_atom_site_type_symbol
_atom_site_label
_atom_site_fract_x
_atom_site_fract_y
_atom_site_fract_z
Si Si1 0.706914 0.204722 0.563293
Si Si2 0.854806 0.722545 0.959596
Si Si3 0.216772 0.901342 0.125407
Si Si4 0.662157 0.441845 0.306315
Si Si5 0.189928 0.122109 0.626000
Si Si6 0.090608 0.361313 0.393839
O O1 0.510462 0.370106 0.633947
O O2 0.473371 0.063155 0.591599
O O3 0.953423 0.136746 0.543063
O O4 0.875532 0.299623 0.482817
O O5 0.808580 0.584653 0.927374
O O6 0.545547 0.827607 0.039906
O O7 0.062942 0.903258 0.898204
O O8 0.174664 0.852360 0.187114
O O9 0.008716 0.812039 0.134051
O O10 0.193788 0.138486 0.127457
O O11 0.412059 0.309403 0.339224
O O12 0.906612 0.463738 0.213688
#
# Coordination Sequence:
#
# PCOD9239120 Si02
#       6
#     4   4   4   4   4   4
#     4  10  17  30  51  69  94 125 153 194 237 278
#     4  10  15  28  50  69  88 121 159 191 234 275
#     4  10  17  30  51  69  94 125 153 194 237 278
#     4  10  19  27  42  74 103 118 149 197 242 272
#     4  10  19  27  42  74 103 118 149 197 242 272
#     4  10  15  28  50  69  88 121 159 191 234 275
#
# _framework density 25.888898999999999
#
# number of rings (size 3 to 8) (size 9 to 14) (size 15 to 20)
#    0.000    2.000    6.667    2.000    0.000    1.333 
#    0.000    0.000    0.000    0.000    0.000    9.333 
#    0.000    0.000    0.000    0.000    0.000    0.000 
#
# Total GULP energy -134099.362557 kJ/mol
# GULP energy per Si atom -5587.473440 kJ/mol
# Density = 2.582998 g / cm^3
# Si number density = 25.888899 Si / 1000 Ang^3
#
#
#
# Elastic Constant Matrix: (Units=GPa)
#
#
# Indices 1 2 3 4 5 6 
#
# 1 239.1488 28.4807 101.8387 0.0000 30.5456 0.0000
# 2 28.4807 109.1715 21.8587 0.0000 8.2278 0.0000
# 3 101.8387 21.8587 134.0112 0.0000 17.8283 0.0000
# 4 0.0000 0.0000 0.0000 11.2141 0.0000 1.5669
# 5 30.5456 8.2278 17.8283 0.0000 42.7819 0.0000
# 6 0.0000 0.0000 0.0000 1.5669 0.0000 6.3449
#
#
#
# Elastic Compliance Matrix: (Units=1/GPa)
#
#
# Indices 1 2 3 4 5 6 
#
# 1 0.006505 -0.000597 -0.004492 0.000000 -0.002658 0.000000
# 2 -0.000597 0.009587 -0.000975 0.000000 -0.001011 0.000000
# 3 -0.004492 -0.000975 0.011205 0.000000 -0.001274 0.000000
# 4 0.000000 0.000000 0.000000 0.092361 0.000000 -0.022809
# 5 -0.002658 -0.001011 -0.001274 0.000000 0.025997 0.000000
# 6 0.000000 0.000000 0.000000 -0.022809 0.000000 0.163238
#
#
# Mechanical properties :
#
#
# Convention : Reuss Voigt Hill
#
# Bulk Modulus (GPa) = 65.93404 87.40975 76.67189
# Shear Modulus (GPa) = 15.33371 34.07841 24.70606
#
# Velocity S-wave (km/s) = 2.43634 3.63207 3.09254
# Velocity P-wave (km/s) = 5.78253 7.17119 6.51397
#
# Compressibility (1/GPa) = 0.01516667
#
# Stress axis : x y z
#
# Youngs Moduli (GPa) = 153.72499 104.30566 89.24905
#
# Poissons Ratio (x) = 0.06230 0.40095
# Poissons Ratio (y) = 0.09182 0.08705
# Poissons Ratio (z) = 0.69060 0.10174
#
# Static dielectric constant tensor:
#      x y z
#    x 2.117750 0.000000 0.015650 
#    y 0.000000 2.134230 0.000000 
#    z 0.015650 0.000000 1.980890 
# 
# From -- ./inp_files/39593.got.cif
#   From: 2010.05.17/outbox.cif.g08.bks.cpg/sg14_20_cif.got.tgz:39593.got - 2010.06.03 17:49:19.
