data_PCOD9239579
_publ_section_title
;
Structure prediction by ZEFSAII (Michael W. Deem and Ramdas Pophale) SiO2 
 PCOD9239579
Probable space group: P 21/C
;
_chemical_formula_sum "Si O2"
_cell_formula_units_Z 20
_cell_length_a 7.155199
_cell_length_b 12.463486
_cell_length_c 9.017411
_cell_angle_alpha 90.000000
_cell_angle_beta 65.575130
_cell_angle_gamma 90.000000
_cell_volume 732.192194
_symmetry_space_group_name_H-M "P 21/C"
_symmetry_group_IT_number 14
_symmetry_cell_setting 'monoclinic'
loop_
_space_group_symop_operation_xyz
x,y,z
-x,1/2+y,1/2-z
-x,-y,-z
x,1/2-y,1/2+z
loop_
_atom_site_type_symbol
_atom_site_label
_atom_site_fract_x
_atom_site_fract_y
_atom_site_fract_z
Si Si1 0.918522 0.708930 0.554517
Si Si2 0.202566 0.959070 0.633556
Si Si3 0.239830 0.112329 0.185366
Si Si4 0.206494 0.709984 0.714380
Si Si5 0.490378 0.542262 0.757078
O O1 0.100486 0.664751 0.600049
O O2 0.039420 0.788780 0.401308
O O3 0.802542 0.635957 0.472918
O O4 0.781969 0.779993 0.710204
O O5 0.250932 0.835286 0.664639
O O6 0.292809 0.035809 0.731424
O O7 0.957732 0.959523 0.703139
O O8 0.329318 0.982190 0.444622
O O9 0.448677 0.054537 0.157799
O O10 0.401532 0.648003 0.710068
#
# Coordination Sequence:
#
# PCOD9239579 Si02
#       5
#     4   4   4   4   4
#     4   8  18  34  57  80 117 146 180 226 288 311
#     4   9  21  37  55  86 109 150 185 226 279 335
#     4  10  19  38  57  85 110 152 183 229 272 336
#     4  10  17  37  58  80 115 150 175 240 278 321
#     4  11  20  36  62  82 109 152 193 219 278 342
#
# _framework density 27.315232999999999
#
# number of rings (size 3 to 8) (size 9 to 14) (size 15 to 20)
#    0.000    2.800    4.000    0.600    0.000    0.800 
#    7.200    4.000    0.000    0.000    0.000    0.000 
#    0.000    0.000    0.000    0.000    0.000    0.000 
#
# Total GULP energy -112070.615065 kJ/mol
# GULP energy per Si atom -5603.530753 kJ/mol
# Density = 2.725306 g / cm^3
# Si number density = 27.315233 Si / 1000 Ang^3
#
#
#
# Elastic Constant Matrix: (Units=GPa)
#
#
# Indices 1 2 3 4 5 6 
#
# 1 140.9923 17.7671 27.5264 0.0000 35.4023 0.0000
# 2 17.7671 82.4437 16.0216 0.0000 26.4798 0.0000
# 3 27.5264 16.0216 167.7824 0.0000 34.1832 0.0000
# 4 0.0000 0.0000 0.0000 43.7001 0.0000 20.4284
# 5 35.4023 26.4798 34.1832 0.0000 51.2696 0.0000
# 6 0.0000 0.0000 0.0000 20.4284 0.0000 44.9965
#
#
#
# Elastic Compliance Matrix: (Units=1/GPa)
#
#
# Indices 1 2 3 4 5 6 
#
# 1 0.008588 0.000059 -0.000232 0.000000 -0.005806 0.000000
# 2 0.000059 0.014546 0.000162 0.000000 -0.007662 0.000000
# 3 -0.000232 0.000162 0.006905 0.000000 -0.004528 0.000000
# 4 0.000000 0.000000 0.000000 0.029048 0.000000 -0.013188
# 5 -0.005806 -0.007662 -0.004528 0.000000 0.030490 0.000000
# 6 0.000000 0.000000 0.000000 -0.013188 0.000000 0.028211
#
#
# Mechanical properties :
#
#
# Convention : Reuss Voigt Hill
#
# Bulk Modulus (GPa) = 33.31234 57.09430 45.20332
# Shear Modulus (GPa) = 39.11880 49.98677 44.55279
#
# Velocity S-wave (km/s) = 3.78845 4.28249 4.04302
# Velocity P-wave (km/s) = 5.59986 6.73797 6.19511
#
# Compressibility (1/GPa) = 0.03001891
#
# Stress axis : x y z
#
# Youngs Moduli (GPa) = 116.43715 68.74704 144.82121
#
# Poissons Ratio (x) = -0.00406 0.03355
# Poissons Ratio (y) = -0.00688 -0.02350
# Poissons Ratio (z) = 0.02698 -0.01116
#
# Static dielectric constant tensor:
#      x y z
#    x 2.089510 0.000000 -0.048560 
#    y 0.000000 2.164620 0.000000 
#    z -0.048560 0.000000 2.147110 
# 
# From -- ./inp_files/8179.got.cif
#   From: 2010.05.17/outbox.cif.g08.bks.cpg/sg14_5_cif.got.tgz:8179.got - 2010.06.03 17:49:19.
