data_PCOD9239439
_publ_section_title
;
Structure prediction by ZEFSAII (Michael W. Deem and Ramdas Pophale) SiO2 
 PCOD9239439
Probable space group: P 21/C
;
_chemical_formula_sum "Si O2"
_cell_formula_units_Z 32
_cell_length_a 14.307364
_cell_length_b 16.131869
_cell_length_c 19.723155
_cell_angle_alpha 90.000000
_cell_angle_beta 21.698035
_cell_angle_gamma 90.000000
_cell_volume 1683.013675
_symmetry_space_group_name_H-M "P 21/C"
_symmetry_group_IT_number 14
_symmetry_cell_setting 'monoclinic'
loop_
_space_group_symop_operation_xyz
x,y,z
-x,1/2+y,1/2-z
-x,-y,-z
x,1/2-y,1/2+z
loop_
_atom_site_type_symbol
_atom_site_label
_atom_site_fract_x
_atom_site_fract_y
_atom_site_fract_z
Si Si1 0.543620 0.684634 0.964410
Si Si2 0.597487 0.956327 0.537494
Si Si3 0.712197 0.506083 0.107950
Si Si4 0.698734 0.520004 0.269588
Si Si5 0.207747 0.069569 0.943798
Si Si6 0.579593 0.873836 0.974581
Si Si7 0.121993 0.416453 0.353236
Si Si8 0.939217 0.398164 0.762458
O O1 0.546787 0.623875 0.027115
O O2 0.522360 0.778082 0.002962
O O3 0.790557 0.657595 0.754219
O O4 0.301780 0.661187 0.081452
O O5 0.664677 0.942714 0.570995
O O6 0.352187 0.015939 0.696677
O O7 0.823967 0.010169 0.351921
O O8 0.657956 0.543408 0.218813
O O9 0.510622 0.431158 0.237843
O O10 0.003182 0.479460 0.915500
O O11 0.592035 0.428035 0.358438
O O12 0.561767 0.580670 0.414181
O O13 0.103262 0.108258 0.944697
O O14 0.090076 0.106833 0.090340
O O15 0.119094 0.972388 0.002966
O O16 0.864686 0.879899 0.810620
#
# Coordination Sequence:
#
# PCOD9239439 Si02
#       8
#     4   4   4   4   4   4   4   4
#     4  11  22  38  60  93 123 153 198 259 298 351
#     4  10  18  35  64  90 115 154 196 249 303 351
#     4  10  20  35  66  84 112 154 210 241 287 367
#     4  10  22  42  61  82 115 165 206 242 292 366
#     4  10  17  32  63  91 115 157 194 238 299 364
#     4  11  24  41  62  85 119 163 206 244 301 361
#     4   9  18  33  59  91 119 148 193 245 303 356
#     4  11  19  39  61  89 120 156 200 245 298 363
#
# _framework density 19.013511999999999
#
# number of rings (size 3 to 8) (size 9 to 14) (size 15 to 20)
#    0.000    1.750    5.000    0.750    0.000    1.000 
#    2.250    3.750    0.000    0.000    0.000    0.000 
#    0.000    0.000    0.000    0.000    0.000    0.000 
#
# Total GULP energy -178426.629814 kJ/mol
# GULP energy per Si atom -5575.832182 kJ/mol
# Density = 1.897024 g / cm^3
# Si number density = 19.013512 Si / 1000 Ang^3
#
#
#
# Elastic Constant Matrix: (Units=GPa)
#
#
# Indices 1 2 3 4 5 6 
#
# 1 98.6841 20.1538 13.9743 0.0000 14.6715 0.0000
# 2 20.1538 87.7843 17.7088 0.0000 2.0635 0.0000
# 3 13.9743 17.7088 63.2384 0.0000 -1.1815 0.0000
# 4 0.0000 0.0000 0.0000 7.7913 0.0000 -1.8599
# 5 14.6715 2.0635 -1.1815 0.0000 42.6142 0.0000
# 6 0.0000 0.0000 0.0000 -1.8599 0.0000 9.8366
#
#
#
# Elastic Compliance Matrix: (Units=1/GPa)
#
#
# Indices 1 2 3 4 5 6 
#
# 1 0.011430 -0.002129 -0.002002 0.000000 -0.003887 0.000000
# 2 -0.002129 0.012490 -0.003026 0.000000 0.000044 0.000000
# 3 -0.002002 -0.003026 0.017128 0.000000 0.001311 0.000000
# 4 0.000000 0.000000 0.000000 0.134415 0.000000 0.025416
# 5 -0.003887 0.000044 0.001311 0.000000 0.024839 0.000000
# 6 0.000000 0.000000 0.000000 0.025416 0.000000 0.106466
#
#
# Mechanical properties :
#
#
# Convention : Reuss Voigt Hill
#
# Bulk Modulus (GPa) = 37.40782 39.26452 38.33617
# Shear Modulus (GPa) = 15.15186 25.23976 20.19581
#
# Velocity S-wave (km/s) = 2.82600 3.64739 3.26265
# Velocity P-wave (km/s) = 5.51048 6.19949 5.86511
#
# Compressibility (1/GPa) = 0.02673238
#
# Stress axis : x y z
#
# Youngs Moduli (GPa) = 87.49232 80.06577 58.38545
#
# Poissons Ratio (x) = 0.17044 0.11690
# Poissons Ratio (y) = 0.18625 0.17669
# Poissons Ratio (z) = 0.17518 0.24230
#
# Static dielectric constant tensor:
#      x y z
#    x 1.696670 0.000000 0.011010 
#    y 0.000000 1.624040 0.000000 
#    z 0.011010 0.000000 1.707660 
# 
# From -- ./inp_files/68699.got.cif
#   From: 2010.05.17/outbox.cif.g08.bks.cpg/sg14_35_cif.got.tgz:68699.got - 2010.06.03 17:49:19.
