data_PCOD9239609
_publ_section_title
;
Structure prediction by ZEFSAII (Michael W. Deem and Ramdas Pophale) SiO2 
 PCOD9239609
Probable space group: P 21/C
;
_chemical_formula_sum "Si O2"
_cell_formula_units_Z 26
_cell_length_a 16.609423
_cell_length_b 7.972979
_cell_length_c 21.018605
_cell_angle_alpha 90.000000
_cell_angle_beta 25.106766
_cell_angle_gamma 90.000000
_cell_volume 1181.023647
_symmetry_space_group_name_H-M "P 21/C"
_symmetry_group_IT_number 14
_symmetry_cell_setting 'monoclinic'
loop_
_space_group_symop_operation_xyz
x,y,z
-x,1/2+y,1/2-z
-x,-y,-z
x,1/2-y,1/2+z
loop_
_atom_site_type_symbol
_atom_site_label
_atom_site_fract_x
_atom_site_fract_y
_atom_site_fract_z
Si Si1 0.789109 0.177923 0.971366
Si Si2 0.565683 0.697138 0.453968
Si Si3 0.156794 0.777328 0.279209
Si Si4 0.362000 0.240906 0.245289
Si Si5 0.000000 0.500000 0.000000
Si Si6 0.909711 0.934971 0.777328
Si Si7 0.117837 0.493937 0.480242
O O1 0.890980 0.340816 0.869570
O O2 0.859680 0.020779 0.879204
O O3 0.564482 0.179232 0.124275
O O4 0.850547 0.159963 0.001125
O O5 0.500000 0.500000 0.500000
O O6 0.624319 0.754226 0.341365
O O7 0.746499 0.696032 0.371065
O O8 0.371881 0.785082 0.614327
O O9 0.009148 0.627606 0.385819
O O10 0.139200 0.878330 0.357511
O O11 0.099894 0.913484 0.266606
O O12 0.313487 0.410751 0.317981
O O13 0.183794 0.120637 0.386216
O O14 0.000000 0.500000 0.500000
#
# Coordination Sequence:
#
# PCOD9239609 Si02
#       7
#     4   4   4   4   2   4   4
#     4  12  25  43  68 102 142 178 230 291 347 409
#     4  10  17  39  68  96 122 174 227 277 327 413
#     4  10  20  39  72  95 130 175 236 270 340 408
#     4  11  22  42  69  97 137 172 236 276 343 414
#     4  10  18  34  68  96 124 176 212 282 326 404
#     4  11  22  42  69 101 134 175 230 287 340 407
#     4  11  27  47  62 101 144 182 222 289 347 410
#
# _framework density 22.014802
#
# number of rings (size 3 to 8) (size 9 to 14) (size 15 to 20)
#    0.000    1.231    6.154    1.846    2.154    2.462 
#    5.538    1.538    0.000    0.000    0.000    0.000 
#    0.000    0.000    0.000    0.000    0.000    0.000 
#
# Total GULP energy -144738.622483 kJ/mol
# GULP energy per Si atom -5566.870095 kJ/mol
# Density = 2.196469 g / cm^3
# Si number density = 22.014802 Si / 1000 Ang^3
#
#
#
# Elastic Constant Matrix: (Units=GPa)
#
#
# Indices 1 2 3 4 5 6 
#
# 1 76.0132 12.3353 31.3382 0.0000 -7.9669 0.0000
# 2 12.3353 24.0731 26.5014 0.0000 -1.7643 0.0000
# 3 31.3382 26.5014 137.6038 0.0000 2.8027 0.0000
# 4 0.0000 0.0000 0.0000 22.4519 0.0000 10.6946
# 5 -7.9669 -1.7643 2.8027 0.0000 18.9836 0.0000
# 6 0.0000 0.0000 0.0000 10.6946 0.0000 22.9353
#
#
#
# Elastic Compliance Matrix: (Units=1/GPa)
#
#
# Indices 1 2 3 4 5 6 
#
# 1 0.015751 -0.004427 -0.002870 0.000000 0.006623 0.000000
# 2 -0.004427 0.054752 -0.009631 0.000000 0.004653 0.000000
# 3 -0.002870 -0.009631 0.009848 0.000000 -0.003553 0.000000
# 4 0.000000 0.000000 0.000000 0.057257 0.000000 -0.026699
# 5 0.006623 0.004653 -0.003553 0.000000 0.056413 0.000000
# 6 0.000000 0.000000 0.000000 -0.026699 0.000000 0.056050
#
#
# Mechanical properties :
#
#
# Convention : Reuss Voigt Hill
#
# Bulk Modulus (GPa) = 21.50717 42.00445 31.75581
# Shear Modulus (GPa) = 16.69859 24.04184 20.37021
#
# Velocity S-wave (km/s) = 2.75711 3.30824 3.04517
# Velocity P-wave (km/s) = 4.46387 5.80639 5.17882
#
# Compressibility (1/GPa) = 0.04649612
#
# Stress axis : x y z
#
# Youngs Moduli (GPa) = 63.48761 18.26406 101.54266
#
# Poissons Ratio (x) = 0.08085 0.29138
# Poissons Ratio (y) = 0.28104 0.97801
# Poissons Ratio (z) = 0.18218 0.17591
#
# Static dielectric constant tensor:
#      x y z
#    x 1.852730 0.000000 0.002790 
#    y 0.000000 1.826890 0.000000 
#    z 0.002790 0.000000 1.816680 
# 
# From -- ./inp_files/74250.got.cif
#   From: 2010.05.17/outbox.cif.g08.bks.cpg/sg14_38_cif.got.tgz:74250.got - 2010.06.03 17:49:19.
