data_PCOD9239474
_publ_section_title
;
Structure prediction by ZEFSAII (Michael W. Deem and Ramdas Pophale) SiO2 
 PCOD9239474
Probable space group: P 21/C
;
_chemical_formula_sum "Si O2"
_cell_formula_units_Z 24
_cell_length_a 7.250925
_cell_length_b 10.070775
_cell_length_c 13.701842
_cell_angle_alpha 90.000000
_cell_angle_beta 116.063613
_cell_angle_gamma 90.000000
_cell_volume 898.793541
_symmetry_space_group_name_H-M "P 21/C"
_symmetry_group_IT_number 14
_symmetry_cell_setting 'monoclinic'
loop_
_space_group_symop_operation_xyz
x,y,z
-x,1/2+y,1/2-z
-x,-y,-z
x,1/2-y,1/2+z
loop_
_atom_site_type_symbol
_atom_site_label
_atom_site_fract_x
_atom_site_fract_y
_atom_site_fract_z
Si Si1 0.048629 0.287696 0.472188
Si Si2 0.339932 0.720933 0.746444
Si Si3 0.907406 0.435516 0.616318
Si Si4 0.478935 0.299968 0.013607
Si Si5 0.394164 0.090189 0.844087
Si Si6 0.669585 0.631308 0.213831
O O1 0.874694 0.246865 0.354482
O O2 0.944136 0.310246 0.553149
O O3 0.124184 0.435434 0.459588
O O4 0.253684 0.200580 0.512749
O O5 0.442810 0.601271 0.705324
O O6 0.507811 0.834807 0.760509
O O7 0.356347 0.685583 0.863345
O O8 0.742153 0.464358 0.662486
O O9 0.130362 0.450956 0.718284
O O10 0.459778 0.395235 0.914989
O O11 0.506526 0.155444 0.965296
O O12 0.245049 0.216913 0.788028
#
# Coordination Sequence:
#
# PCOD9239474 Si02
#       6
#     4   4   4   4   4   4
#     4  10  18  30  60  79  98 141 180 219 263 299
#     4   9  17  34  49  76 113 130 172 222 260 314
#     4  10  17  34  55  79 105 137 182 218 255 316
#     4   8  16  35  49  75 106 139 168 215 261 315
#     4   7  18  31  52  79 105 135 176 220 252 303
#     4   8  18  34  52  75 112 140 166 220 268 300
#
# _framework density 26.702463000000002
#
# number of rings (size 3 to 8) (size 9 to 14) (size 15 to 20)
#    2.000    1.000    1.667    0.000    0.000    0.667 
#    6.000    3.333    0.000    0.000    0.000    0.000 
#    0.000    0.000    0.000    0.000    0.000    0.000 
#
# Total GULP energy -133805.328168 kJ/mol
# GULP energy per Si atom -5575.222007 kJ/mol
# Density = 2.664169 g / cm^3
# Si number density = 26.702463 Si / 1000 Ang^3
#
#
#
# Elastic Constant Matrix: (Units=GPa)
#
#
# Indices 1 2 3 4 5 6 
#
# 1 128.4216 -4.7103 12.6596 0.0000 -30.9526 0.0000
# 2 -4.7103 47.7935 -11.0444 0.0000 0.8815 0.0000
# 3 12.6596 -11.0444 160.1502 0.0000 -26.0526 0.0000
# 4 0.0000 0.0000 0.0000 24.7803 0.0000 8.9442
# 5 -30.9526 0.8815 -26.0526 0.0000 33.3391 0.0000
# 6 0.0000 0.0000 0.0000 8.9442 0.0000 28.1221
#
#
#
# Elastic Compliance Matrix: (Units=1/GPa)
#
#
# Indices 1 2 3 4 5 6 
#
# 1 0.010178 0.001028 0.000915 0.000000 0.010137 0.000000
# 2 0.001028 0.021379 0.001668 0.000000 0.001693 0.000000
# 3 0.000915 0.001668 0.007353 0.000000 0.006551 0.000000
# 4 0.000000 0.000000 0.000000 0.045588 0.000000 -0.014499
# 5 0.010137 0.001693 0.006551 0.000000 0.044481 0.000000
# 6 0.000000 0.000000 0.000000 -0.014499 0.000000 0.040171
#
#
# Mechanical properties :
#
#
# Convention : Reuss Voigt Hill
#
# Bulk Modulus (GPa) = 21.67679 36.68611 29.18145
# Shear Modulus (GPa) = 28.20025 39.87899 34.03962
#
# Velocity S-wave (km/s) = 3.25328 3.86872 3.57427
# Velocity P-wave (km/s) = 4.71671 5.80729 5.29018
#
# Compressibility (1/GPa) = 0.04613229
#
# Stress axis : x y z
#
# Youngs Moduli (GPa) = 98.25478 46.77495 136.00638
#
# Poissons Ratio (x) = -0.04807 -0.12451
# Poissons Ratio (y) = -0.10097 -0.22692
# Poissons Ratio (z) = -0.08995 -0.07804
#
# Static dielectric constant tensor:
#      x y z
#    x 2.162040 0.000000 -0.049360 
#    y 0.000000 2.343210 0.000000 
#    z -0.049360 0.000000 2.149570 
# 
# From -- ./inp_files/41324.got.cif
#   From: 2010.05.17/outbox.cif.g08.bks.cpg/sg14_21_cif.got.tgz:41324.got - 2010.06.03 17:49:19.
