data_PCOD9239497
_publ_section_title
;
Structure prediction by ZEFSAII (Michael W. Deem and Ramdas Pophale) SiO2 
 PCOD9239497
Probable space group: P 21/C
;
_chemical_formula_sum "Si O2"
_cell_formula_units_Z 28
_cell_length_a 16.080171
_cell_length_b 9.146512
_cell_length_c 18.045863
_cell_angle_alpha 90.000000
_cell_angle_beta 34.150612
_cell_angle_gamma 90.000000
_cell_volume 1489.955208
_symmetry_space_group_name_H-M "P 21/C"
_symmetry_group_IT_number 14
_symmetry_cell_setting 'monoclinic'
loop_
_space_group_symop_operation_xyz
x,y,z
-x,1/2+y,1/2-z
-x,-y,-z
x,1/2-y,1/2+z
loop_
_atom_site_type_symbol
_atom_site_label
_atom_site_fract_x
_atom_site_fract_y
_atom_site_fract_z
Si Si1 0.156834 0.560436 0.910206
Si Si2 0.595404 0.365628 0.962558
Si Si3 0.192886 0.111011 0.911240
Si Si4 0.396607 0.142982 0.185287
Si Si5 0.594793 0.397891 0.666746
Si Si6 0.333539 0.568384 0.921868
Si Si7 0.862412 0.147814 0.154915
O O1 0.276467 0.484047 0.767376
O O2 0.200601 0.525827 0.963587
O O3 0.154674 0.732923 0.897134
O O4 0.000000 0.500000 0.000000
O O5 0.731608 0.327369 0.809170
O O6 0.500000 0.500000 0.000000
O O7 0.476920 0.234728 0.062443
O O8 0.670038 0.403744 0.987610
O O9 0.269403 0.000838 0.912272
O O10 0.160837 0.013407 0.861787
O O11 0.306765 0.237136 0.802096
O O12 0.031869 0.162707 0.057327
O O13 0.529909 0.071885 0.133475
O O14 0.462201 0.448612 0.817845
O O15 0.619462 0.224823 0.647953
#
# Coordination Sequence:
#
# PCOD9239497 Si02
#       7
#     4   4   4   4   4   4   4
#     4  11  22  39  62  90 127 166 208 256 303 369
#     4  11  21  40  63  94 125 158 204 262 312 365
#     4  11  19  37  59  90 110 165 216 239 298 384
#     4  10  21  36  63  90 121 158 209 252 308 367
#     4  10  17  34  59  87 115 151 210 252 287 362
#     4  10  21  35  62  90 120 160 206 252 305 359
#     4  11  23  35  65  87 119 164 209 250 311 368
#
# _framework density 18.792511000000001
#
# number of rings (size 3 to 8) (size 9 to 14) (size 15 to 20)
#    0.000    1.429    7.143    0.000    0.000    0.571 
#    0.000    2.857    0.000    0.000    0.000    0.000 
#    0.000    0.000    0.000    0.000    0.000    0.000 
#
# Total GULP energy -155885.859725 kJ/mol
# GULP energy per Si atom -5567.352133 kJ/mol
# Density = 1.874974 g / cm^3
# Si number density = 18.792511 Si / 1000 Ang^3
#
#
#
# Elastic Constant Matrix: (Units=GPa)
#
#
# Indices 1 2 3 4 5 6 
#
# 1 92.3512 9.5004 31.5608 0.0000 -23.5540 0.0000
# 2 9.5004 52.1592 11.3113 0.0000 -5.8534 0.0000
# 3 31.5608 11.3113 77.7370 0.0000 -22.5250 0.0000
# 4 0.0000 0.0000 0.0000 30.7913 0.0000 -0.9778
# 5 -23.5540 -5.8534 -22.5250 0.0000 27.4776 0.0000
# 6 0.0000 0.0000 0.0000 -0.9778 0.0000 32.2366
#
#
#
# Elastic Compliance Matrix: (Units=1/GPa)
#
#
# Indices 1 2 3 4 5 6 
#
# 1 0.014403 -0.000900 -0.002878 0.000000 0.009795 0.000000
# 2 -0.000900 0.019978 -0.002009 0.000000 0.001837 0.000000
# 3 -0.002878 -0.002009 0.017687 0.000000 0.011604 0.000000
# 4 0.000000 0.000000 0.000000 0.032508 0.000000 0.000986
# 5 0.009795 0.001837 0.011604 0.000000 0.054693 0.000000
# 6 0.000000 0.000000 0.000000 0.000986 0.000000 0.031051
#
#
# Mechanical properties :
#
#
# Convention : Reuss Voigt Hill
#
# Bulk Modulus (GPa) = 24.69575 36.33248 30.51411
# Shear Modulus (GPa) = 25.58961 29.42609 27.50785
#
# Velocity S-wave (km/s) = 3.69411 3.96136 3.83007
# Velocity P-wave (km/s) = 5.60046 6.34812 5.98597
#
# Compressibility (1/GPa) = 0.04049280
#
# Stress axis : x y z
#
# Youngs Moduli (GPa) = 69.43183 50.05539 56.53828
#
# Poissons Ratio (x) = 0.04505 0.16273
# Poissons Ratio (y) = 0.06248 0.11360
# Poissons Ratio (z) = 0.19985 0.10057
#
# Static dielectric constant tensor:
#      x y z
#    x 1.694010 0.000000 -0.019170 
#    y 0.000000 1.769950 0.000000 
#    z -0.019170 0.000000 1.669990 
# 
# From -- ./inp_files/69048.got.cif
#   From: 2010.05.17/outbox.cif.g08.bks.cpg/sg14_35_cif.got.tgz:69048.got - 2010.06.03 17:49:19.
