data_PCOD9239312
_publ_section_title
;
Structure prediction by ZEFSAII (Michael W. Deem and Ramdas Pophale) SiO2 
 PCOD9239312
Probable space group: P 21/C
;
_chemical_formula_sum "Si O2"
_cell_formula_units_Z 24
_cell_length_a 7.161421
_cell_length_b 9.152643
_cell_length_c 20.176569
_cell_angle_alpha 90.000000
_cell_angle_beta 69.202656
_cell_angle_gamma 90.000000
_cell_volume 1236.321224
_symmetry_space_group_name_H-M "P 21/C"
_symmetry_group_IT_number 14
_symmetry_cell_setting 'monoclinic'
loop_
_space_group_symop_operation_xyz
x,y,z
-x,1/2+y,1/2-z
-x,-y,-z
x,1/2-y,1/2+z
loop_
_atom_site_type_symbol
_atom_site_label
_atom_site_fract_x
_atom_site_fract_y
_atom_site_fract_z
Si Si1 0.395559 0.902867 0.289655
Si Si2 0.130006 0.428064 0.077895
Si Si3 0.714244 0.928082 0.577909
Si Si4 0.974932 0.902868 0.710332
Si Si5 0.912517 0.153071 0.152484
Si Si6 0.217415 0.153078 0.847524
O O1 0.290579 0.748552 0.318928
O O2 0.588485 0.882327 0.220962
O O3 0.433228 0.986344 0.354285
O O4 0.227098 0.999991 0.272873
O O5 0.926514 0.499963 0.073497
O O6 0.141873 0.513685 0.145680
O O7 0.076261 0.260375 0.100080
O O8 0.293077 0.442580 0.999984
O O9 0.723716 0.760389 0.600069
O O10 0.928467 0.748552 0.681075
O O11 0.030458 0.882338 0.779019
O O12 0.879627 0.999998 0.120422
#
# Coordination Sequence:
#
# PCOD9239312 Si02
#       6
#     4   4   4   4   4   4
#     4   9  18  30  47  69  95 123 152 188 230 275
#     4   8  16  30  46  67  93 119 151 189 228 270
#     4   8  16  30  46  67  93 119 151 189 228 270
#     4   9  18  30  47  69  95 123 152 188 230 275
#     4  10  17  28  48  71  92 119 154 193 228 265
#     4  10  17  28  48  71  92 119 154 193 228 265
#
# _framework density 19.412431999999999
#
# number of rings (size 3 to 8) (size 9 to 14) (size 15 to 20)
#    0.000    3.667    0.000    4.000    0.000    0.667 
#    0.000    0.000    0.000   10.000    0.000    0.000 
#    0.000    1.333    0.000    0.000    0.000    0.000 
#
# Total GULP energy -133706.269587 kJ/mol
# GULP energy per Si atom -5571.094566 kJ/mol
# Density = 1.936825 g / cm^3
# Si number density = 19.412432 Si / 1000 Ang^3
#
#
#
# Elastic Constant Matrix: (Units=GPa)
#
#
# Indices 1 2 3 4 5 6 
#
# 1 48.5293 24.9734 29.1229 0.0000 1.0379 0.0000
# 2 24.9734 145.6124 33.2945 0.0000 -0.3149 0.0000
# 3 29.1229 33.2945 123.9573 0.0000 -4.1000 0.0000
# 4 0.0000 0.0000 0.0000 7.6384 0.0000 -0.2788
# 5 1.0379 -0.3149 -4.1000 0.0000 -1.9537 0.0000
# 6 0.0000 0.0000 0.0000 -0.2788 0.0000 1.0183
#
#
#
# Elastic Compliance Matrix: (Units=1/GPa)
#
#
# Indices 1 2 3 4 5 6 
#
# 1 0.024235 -0.003168 -0.004115 0.000000 0.022020 0.000000
# 2 -0.003168 0.007715 -0.001332 0.000000 -0.000131 0.000000
# 3 -0.004115 -0.001332 0.008721 0.000000 -0.020273 0.000000
# 4 0.000000 0.000000 0.000000 0.132238 0.000000 0.036200
# 5 0.022020 -0.000131 -0.020273 0.000000 -0.457581 0.000000
# 6 0.000000 0.000000 0.000000 0.036200 0.000000 0.991950
#
#
# Mechanical properties :
#
#
# Convention : Reuss Voigt Hill
#
# Bulk Modulus (GPa) = 42.65941 54.76453 48.71197
# Shear Modulus (GPa) = 6.82759 16.72114 11.77436
#
# Velocity S-wave (km/s) = 1.87743 2.93808 2.46547
# Velocity P-wave (km/s) = 5.16940 6.30730 5.76649
#
# Compressibility (1/GPa) = 0.02344149
#
# Stress axis : x y z
#
# Youngs Moduli (GPa) = 41.26328 129.61380 114.66190
#
# Poissons Ratio (x) = 0.41061 0.47178
# Poissons Ratio (y) = 0.13072 0.15277
# Poissons Ratio (z) = 0.16978 0.17269
#
# Static dielectric constant tensor:
#      x y z
#    x 1.722000 0.000000 0.001100 
#    y 0.000000 1.704260 0.000000 
#    z 0.001100 0.000000 1.694780 
# 
# From -- ./inp_files/64323.got.cif
#   From: 2010.05.17/outbox.cif.g08.bks.cpg/sg14_33_cif.got.tgz:64323.got - 2010.06.03 17:49:19.
