data_PCOD9239437
_publ_section_title
;
Structure prediction by ZEFSAII (Michael W. Deem and Ramdas Pophale) SiO2 
 PCOD9239437
Probable space group: P 21/C
;
_chemical_formula_sum "Si O2"
_cell_formula_units_Z 28
_cell_length_a 8.874959
_cell_length_b 8.384081
_cell_length_c 28.172728
_cell_angle_alpha 90.000000
_cell_angle_beta 32.023926
_cell_angle_gamma 90.000000
_cell_volume 1111.605089
_symmetry_space_group_name_H-M "P 21/C"
_symmetry_group_IT_number 14
_symmetry_cell_setting 'monoclinic'
loop_
_space_group_symop_operation_xyz
x,y,z
-x,1/2+y,1/2-z
-x,-y,-z
x,1/2-y,1/2+z
loop_
_atom_site_type_symbol
_atom_site_label
_atom_site_fract_x
_atom_site_fract_y
_atom_site_fract_z
Si Si1 0.305022 0.861256 0.330219
Si Si2 0.346698 0.667230 0.079026
Si Si3 0.114981 0.929875 0.030400
Si Si4 0.872252 0.643537 0.389458
Si Si5 0.184679 0.932320 0.522832
Si Si6 0.266459 0.542020 0.660537
Si Si7 0.491818 0.447890 0.692969
O O1 0.504245 0.743480 0.306337
O O2 0.127168 0.746220 0.342411
O O3 0.455124 0.983767 0.255477
O O4 0.075205 0.955349 0.422715
O O5 0.156500 0.593834 0.087917
O O6 0.203869 0.786656 0.154400
O O7 0.592192 0.761511 0.982492
O O8 0.520480 0.528131 0.060181
O O9 0.155575 0.743601 0.009850
O O10 0.118116 0.974435 0.085562
O O11 0.814180 0.997315 0.093549
O O12 0.395587 0.020639 0.939212
O O13 0.870574 0.597338 0.334952
O O14 0.259568 0.516547 0.718519
#
# Coordination Sequence:
#
# PCOD9239437 Si02
#       7
#     4   4   4   4   4   4   4
#     4  10  23  41  56  77 110 166 198 231 295 357
#     4   9  17  31  59  91 115 142 179 237 294 339
#     4  10  18  34  62  87 117 154 183 233 296 353
#     4   9  17  35  60  84 114 146 190 233 296 344
#     4  10  17  32  61  84 114 153 189 225 275 363
#     4  11  19  37  59  93 114 145 191 251 293 333
#     4  11  24  41  58  78 117 156 201 241 288 357
#
# _framework density 25.188798999999999
#
# number of rings (size 3 to 8) (size 9 to 14) (size 15 to 20)
#    0.000    2.000    2.857    3.000    0.000    0.000 
#    2.571    4.286    0.000    0.000    0.000    0.000 
#    0.000    0.000    0.000    0.000    0.000    0.000 
#
# Total GULP energy -156501.908445 kJ/mol
# GULP energy per Si atom -5589.353873 kJ/mol
# Density = 2.513147 g / cm^3
# Si number density = 25.188799 Si / 1000 Ang^3
#
#
#
# Elastic Constant Matrix: (Units=GPa)
#
#
# Indices 1 2 3 4 5 6 
#
# 1 60.7010 15.5901 2.0490 0.0000 6.8963 0.0000
# 2 15.5901 121.1784 4.2728 0.0000 -1.5371 0.0000
# 3 2.0490 4.2728 36.6062 0.0000 -3.4213 0.0000
# 4 0.0000 0.0000 0.0000 29.1004 0.0000 -13.3433
# 5 6.8963 -1.5371 -3.4213 0.0000 30.0194 0.0000
# 6 0.0000 0.0000 0.0000 -13.3433 0.0000 30.8414
#
#
#
# Elastic Compliance Matrix: (Units=1/GPa)
#
#
# Indices 1 2 3 4 5 6 
#
# 1 0.017583 -0.002277 -0.001119 0.000000 -0.004284 0.000000
# 2 -0.002277 0.008584 -0.000793 0.000000 0.000872 0.000000
# 3 -0.001119 -0.000793 0.027789 0.000000 0.003384 0.000000
# 4 0.000000 0.000000 0.000000 0.042868 0.000000 0.018546
# 5 -0.004284 0.000872 0.003384 0.000000 0.034726 0.000000
# 6 0.000000 0.000000 0.000000 0.018546 0.000000 0.040448
#
#
# Mechanical properties :
#
#
# Convention : Reuss Voigt Hill
#
# Bulk Modulus (GPa) = 21.93982 29.14548 25.54265
# Shear Modulus (GPa) = 25.56637 31.09716 28.33177
#
# Velocity S-wave (km/s) = 3.18935 3.51745 3.35741
# Velocity P-wave (km/s) = 4.72140 5.30024 5.01917
#
# Compressibility (1/GPa) = 0.04557922
#
# Stress axis : x y z
#
# Youngs Moduli (GPa) = 56.87169 116.49209 35.98520
#
# Poissons Ratio (x) = 0.26526 0.04026
# Poissons Ratio (y) = 0.12950 0.02854
# Poissons Ratio (z) = 0.06363 0.09238
#
# Static dielectric constant tensor:
#      x y z
#    x 2.127260 0.000000 0.002180 
#    y 0.000000 2.002720 0.000000 
#    z 0.002180 0.000000 2.016590 
# 
# From -- ./inp_files/79452.got.cif
#   From: 2010.05.17/outbox.cif.g08.bks.cpg/sg14_40_cif.got.tgz:79452.got - 2010.06.03 17:49:19.
