data_PCOD9239758
_publ_section_title
;
Structure prediction by ZEFSAII (Michael W. Deem and Ramdas Pophale) SiO2 
 PCOD9239758
Probable space group: P 21/C
;
_chemical_formula_sum "Si O2"
_cell_formula_units_Z 32
_cell_length_a 26.982160
_cell_length_b 8.059503
_cell_length_c 16.436162
_cell_angle_alpha 90.000000
_cell_angle_beta 155.966100
_cell_angle_gamma 90.000000
_cell_volume 1455.711673
_symmetry_space_group_name_H-M "P 21/C"
_symmetry_group_IT_number 14
_symmetry_cell_setting 'monoclinic'
loop_
_space_group_symop_operation_xyz
x,y,z
-x,1/2+y,1/2-z
-x,-y,-z
x,1/2-y,1/2+z
loop_
_atom_site_type_symbol
_atom_site_label
_atom_site_fract_x
_atom_site_fract_y
_atom_site_fract_z
Si Si1 0.073682 0.999880 0.860608
Si Si2 0.499647 0.253490 0.198909
Si Si3 0.750726 0.613184 0.745637
Si Si4 0.258471 0.262988 0.081906
Si Si5 0.999647 0.249862 0.880316
Si Si6 0.750103 0.112978 0.505414
Si Si7 0.741636 0.236795 0.306456
Si Si8 0.500054 0.375445 0.872353
O O1 0.002062 0.096055 0.821797
O O2 0.151512 0.130678 0.926097
O O3 0.002520 0.903397 0.685238
O O4 0.151660 0.869468 0.028852
O O5 0.623608 0.160388 0.358488
O O6 0.499698 0.437208 0.160729
O O7 0.499841 0.250536 0.296204
O O8 0.375553 0.160556 0.986717
O O9 0.735239 0.674132 0.815709
O O10 0.763154 0.414557 0.776128
O O11 0.867605 0.711886 0.881592
O O12 0.237435 0.414348 0.987717
O O13 0.380721 0.165655 0.244241
O O14 0.866722 0.211772 0.719846
O O15 0.735159 0.173899 0.389686
O O16 0.619291 0.333704 0.101887
#
# Coordination Sequence:
#
# PCOD9239758 Si02
#       8
#     4   4   4   4   4   4   4   4
#     4  10  18  31  54  85 116 148 188 236 282 332
#     4  12  25  40  59  84 114 150 192 236 285 340
#     4  10  21  37  59  87 117 148 190 237 282 335
#     4  10  20  35  58  86 116 149 190 236 282 332
#     4  10  18  32  56  84 118 150 186 232 284 334
#     4  10  21  37  59  87 117 148 190 237 282 335
#     4  10  20  35  58  86 116 149 190 236 282 332
#     4  12  23  38  59  81 114 152 190 235 287 340
#
# _framework density 21.982375000000001
#
# number of rings (size 3 to 8) (size 9 to 14) (size 15 to 20)
#    0.000    1.500    0.000    9.000    0.000    3.500 
#    0.000    0.000    0.000   19.500    0.000    0.000 
#    0.000    0.000    0.000    0.000    0.000    0.000 
#
# Total GULP energy -178667.704338 kJ/mol
# GULP energy per Si atom -5583.365761 kJ/mol
# Density = 2.193234 g / cm^3
# Si number density = 21.982375 Si / 1000 Ang^3
#
#
#
# Elastic Constant Matrix: (Units=GPa)
#
#
# Indices 1 2 3 4 5 6 
#
# 1 20.0665 7.2758 38.6275 0.0000 4.9154 0.0000
# 2 7.2758 101.8981 22.8788 0.0000 8.1408 0.0000
# 3 38.6275 22.8788 109.2730 0.0000 41.1368 0.0000
# 4 0.0000 0.0000 0.0000 41.8477 0.0000 8.9142
# 5 4.9154 8.1408 41.1368 0.0000 14.2434 0.0000
# 6 0.0000 0.0000 0.0000 8.9142 0.0000 24.5020
#
#
#
# Elastic Compliance Matrix: (Units=1/GPa)
#
#
# Indices 1 2 3 4 5 6 
#
# 1 0.012364 -0.000362 0.031701 0.000000 -0.095617 0.000000
# 2 -0.000362 0.010289 -0.001609 0.000000 -0.001108 0.000000
# 3 0.031701 -0.001609 -0.023542 0.000000 0.057973 0.000000
# 4 0.000000 0.000000 0.000000 0.025904 0.000000 -0.009424
# 5 -0.095617 -0.001108 0.057973 0.000000 -0.063594 0.000000
# 6 0.000000 0.000000 0.000000 -0.009424 0.000000 0.044242
#
#
# Mechanical properties :
#
#
# Convention : Reuss Voigt Hill
#
# Bulk Modulus (GPa) = 17.07317 40.97800 29.02558
# Shear Modulus (GPa) = -145.88529 26.94897 -59.46816
#
# Velocity S-wave (km/s) = -8.15529 3.50513 -5.20686
# Velocity P-wave (km/s) = 8.99415 5.92141 4.78705
#
# Compressibility (1/GPa) = 0.05857143
#
# Stress axis : x y z
#
# Youngs Moduli (GPa) = 80.87818 97.18729 -42.47698
#
# Poissons Ratio (x) = 0.03514 1.34655
# Poissons Ratio (y) = 0.02924 -0.06835
# Poissons Ratio (z) = -2.56390 0.15639
#
# Static dielectric constant tensor:
#      x y z
#    x 1.798750 0.000000 0.045550 
#    y 0.000000 1.871810 0.000000 
#    z 0.045550 0.000000 1.885020 
# 
# From -- ./inp_files/62676.got.cif
#   From: 2010.05.17/outbox.cif.g08.bks.cpg/sg14_32_cif.got.tgz:62676.got - 2010.06.03 17:49:19.
