data_PCOD9239233
_publ_section_title
;
Structure prediction by ZEFSAII (Michael W. Deem and Ramdas Pophale) SiO2 
 PCOD9239233
Probable space group: P 21/C
;
_chemical_formula_sum "Si O2"
_cell_formula_units_Z 24
_cell_length_a 7.357827
_cell_length_b 12.396251
_cell_length_c 18.093984
_cell_angle_alpha 90.000000
_cell_angle_beta 138.873803
_cell_angle_gamma 90.000000
_cell_volume 1085.462943
_symmetry_space_group_name_H-M "P 21/C"
_symmetry_group_IT_number 14
_symmetry_cell_setting 'monoclinic'
loop_
_space_group_symop_operation_xyz
x,y,z
-x,1/2+y,1/2-z
-x,-y,-z
x,1/2-y,1/2+z
loop_
_atom_site_type_symbol
_atom_site_label
_atom_site_fract_x
_atom_site_fract_y
_atom_site_fract_z
Si Si1 0.181269 0.745541 0.185825
Si Si2 0.798184 0.551175 0.074105
Si Si3 0.500637 0.933555 0.336902
Si Si4 0.721768 0.842586 0.776811
Si Si5 0.732150 0.607592 0.742491
Si Si6 0.149220 0.889553 0.028166
O O1 0.288279 0.832873 0.278511
O O2 0.448594 0.673161 0.244926
O O3 0.119638 0.810688 0.090282
O O4 0.929934 0.668352 0.132058
O O5 0.004001 0.467093 0.176118
O O6 0.500000 0.500000 0.000000
O O7 0.752532 0.560423 0.971278
O O8 0.625458 0.911168 0.294133
O O9 0.336282 0.046542 0.283441
O O10 0.757929 0.735458 0.740091
O O11 0.991042 0.843466 0.910010
O O12 0.468130 0.580704 0.612028
O O13 0.000000 0.000000 0.000000
#
# Coordination Sequence:
#
# PCOD9239233 Si02
#       6
#     4   4   4   4   4   4
#     4  10  20  35  61  93 120 157 200 251 315 364
#     4  12  25  42  57  86 129 169 202 243 302 375
#     4  10  20  38  64  88 117 153 204 258 307 349
#     4  10  18  33  60  95 115 145 198 262 308 348
#     4  10  22  33  62  91 116 156 198 256 304 357
#     4  10  16  32  59  94 119 140 194 261 308 349
#
# _framework density 22.110381
#
# number of rings (size 3 to 8) (size 9 to 14) (size 15 to 20)
#    0.000    2.000    5.000    2.500    4.667    0.000 
#    3.000    0.000    0.000    2.000    0.000    0.000 
#    0.000    0.000    0.000    0.000    0.000    0.000 
#
# Total GULP energy -133771.872729 kJ/mol
# GULP energy per Si atom -5573.828030 kJ/mol
# Density = 2.206006 g / cm^3
# Si number density = 22.110381 Si / 1000 Ang^3
#
#
#
# Elastic Constant Matrix: (Units=GPa)
#
#
# Indices 1 2 3 4 5 6 
#
# 1 27.5530 32.5137 26.5550 0.0000 7.7427 0.0000
# 2 32.5137 158.0476 62.2440 0.0000 26.4314 0.0000
# 3 26.5550 62.2440 156.1311 0.0000 23.1726 0.0000
# 4 0.0000 0.0000 0.0000 44.2816 0.0000 4.4641
# 5 7.7427 26.4314 23.1726 0.0000 29.3979 0.0000
# 6 0.0000 0.0000 0.0000 4.4641 0.0000 15.9598
#
#
#
# Elastic Compliance Matrix: (Units=1/GPa)
#
#
# Indices 1 2 3 4 5 6 
#
# 1 0.051578 -0.008216 -0.005184 0.000000 -0.002112 0.000000
# 2 -0.008216 0.009516 -0.001639 0.000000 -0.005100 0.000000
# 3 -0.005184 -0.001639 0.008515 0.000000 -0.003872 0.000000
# 4 0.000000 0.000000 0.000000 0.023238 0.000000 -0.006500
# 5 -0.002112 -0.005100 -0.003872 0.000000 0.042210 0.000000
# 6 0.000000 0.000000 0.000000 -0.006500 0.000000 0.064475
#
#
# Mechanical properties :
#
#
# Convention : Reuss Voigt Hill
#
# Bulk Modulus (GPa) = 25.29675 64.92856 45.11266
# Shear Modulus (GPa) = 20.59416 32.62247 26.60831
#
# Velocity S-wave (km/s) = 3.05524 3.84531 3.47281
# Velocity P-wave (km/s) = 4.88998 7.01032 6.04386
#
# Compressibility (1/GPa) = 0.03953077
#
# Stress axis : x y z
#
# Youngs Moduli (GPa) = 19.38797 105.08722 117.44216
#
# Poissons Ratio (x) = 0.86341 0.60878
# Poissons Ratio (y) = 0.15929 0.19253
# Poissons Ratio (z) = 0.10050 0.17228
#
# Static dielectric constant tensor:
#      x y z
#    x 1.916430 0.000000 0.013850 
#    y 0.000000 1.871360 0.000000 
#    z 0.013850 0.000000 1.796420 
# 
# From -- ./inp_files/72380.got.cif
#   From: 2010.05.17/outbox.cif.g08.bks.cpg/sg14_37_cif.got.tgz:72380.got - 2010.06.03 17:49:19.
