data_PCOD9239603
_publ_section_title
;
Structure prediction by ZEFSAII (Michael W. Deem and Ramdas Pophale) SiO2 
 PCOD9239603
Probable space group: P 21/C
;
_chemical_formula_sum "Si O2"
_cell_formula_units_Z 24
_cell_length_a 8.525516
_cell_length_b 10.288071
_cell_length_c 12.673633
_cell_angle_alpha 90.000000
_cell_angle_beta 118.060062
_cell_angle_gamma 90.000000
_cell_volume 980.953242
_symmetry_space_group_name_H-M "P 21/C"
_symmetry_group_IT_number 14
_symmetry_cell_setting 'monoclinic'
loop_
_space_group_symop_operation_xyz
x,y,z
-x,1/2+y,1/2-z
-x,-y,-z
x,1/2-y,1/2+z
loop_
_atom_site_type_symbol
_atom_site_label
_atom_site_fract_x
_atom_site_fract_y
_atom_site_fract_z
Si Si1 0.044114 0.559494 0.127322
Si Si2 0.966196 0.512454 0.333530
Si Si3 0.642562 0.894610 0.003254
Si Si4 0.489244 0.775466 0.620869
Si Si5 0.897055 0.194568 0.965168
Si Si6 0.537990 0.497659 0.745772
O O1 0.942646 0.518480 0.201301
O O2 0.014916 0.709254 0.090284
O O3 0.254400 0.536045 0.211873
O O4 0.000000 0.500000 0.000000
O O5 0.163620 0.452290 0.415677
O O6 0.979719 0.649562 0.399252
O O7 0.845623 0.423959 0.370613
O O8 0.581323 0.901020 0.864398
O O9 0.602099 0.764686 0.054632
O O10 0.500000 0.000000 0.000000
O O11 0.277809 0.755151 0.538783
O O12 0.525824 0.651783 0.714071
O O13 0.507526 0.926663 0.658087
#
# Coordination Sequence:
#
# PCOD9239603 Si02
#       6
#     4   4   4   4   4   4
#     4  11  24  40  61  91 129 163 199 257 313 363
#     4  11  21  42  63  90 120 163 211 245 311 373
#     4  10  17  38  65  83 112 164 203 241 302 374
#     4  10  19  39  62  90 118 156 200 252 301 365
#     4  10  23  39  65  91 120 164 208 256 302 367
#     4  10  20  38  64  87 118 157 204 245 304 362
#
# _framework density 24.465997999999999
#
# number of rings (size 3 to 8) (size 9 to 14) (size 15 to 20)
#    0.000    1.667    6.667    0.000    2.333    1.333 
#    6.000    0.833    0.000    0.000    0.000    0.000 
#    0.000    0.000    0.000    0.000    0.000    0.000 
#
# Total GULP energy -133744.260703 kJ/mol
# GULP energy per Si atom -5572.677529 kJ/mol
# Density = 2.441031 g / cm^3
# Si number density = 24.465998 Si / 1000 Ang^3
#
#
#
# Elastic Constant Matrix: (Units=GPa)
#
#
# Indices 1 2 3 4 5 6 
#
# 1 79.7617 -10.8738 16.4215 0.0000 -8.2646 0.0000
# 2 -10.8738 68.2046 20.3724 0.0000 0.8720 0.0000
# 3 16.4215 20.3724 113.8131 0.0000 -17.0327 0.0000
# 4 0.0000 0.0000 0.0000 23.7331 0.0000 -9.2881
# 5 -8.2646 0.8720 -17.0327 0.0000 23.4580 0.0000
# 6 0.0000 0.0000 0.0000 -9.2881 0.0000 19.0859
#
#
#
# Elastic Compliance Matrix: (Units=1/GPa)
#
#
# Indices 1 2 3 4 5 6 
#
# 1 0.013653 0.002722 -0.001966 0.000000 0.003281 0.000000
# 2 0.002722 0.016211 -0.003636 0.000000 -0.002284 0.000000
# 3 -0.001966 -0.003636 0.010812 0.000000 0.007293 0.000000
# 4 0.000000 0.000000 0.000000 0.052048 0.000000 0.025329
# 5 0.003281 -0.002284 0.007293 0.000000 0.049166 0.000000
# 6 0.000000 0.000000 0.000000 0.025329 0.000000 0.064721
#
#
# Mechanical properties :
#
#
# Convention : Reuss Voigt Hill
#
# Bulk Modulus (GPa) = 28.64020 34.84662 31.74341
# Shear Modulus (GPa) = 22.32036 28.97936 25.64986
#
# Velocity S-wave (km/s) = 3.02371 3.44535 3.24139
# Velocity P-wave (km/s) = 4.89101 5.48645 5.19726
#
# Compressibility (1/GPa) = 0.03491596
#
# Stress axis : x y z
#
# Youngs Moduli (GPa) = 73.24273 61.68617 92.48648
#
# Poissons Ratio (x) = -0.16791 0.18184
# Poissons Ratio (y) = -0.19937 0.33631
# Poissons Ratio (z) = 0.14400 0.22431
#
# Static dielectric constant tensor:
#      x y z
#    x 1.998100 0.000000 0.130700 
#    y 0.000000 1.994090 0.000000 
#    z 0.130700 0.000000 2.383550 
# 
# From -- ./inp_files/24286.got.cif
#   From: 2010.05.17/outbox.cif.g08.bks.cpg/sg14_13_cif.got.tgz:24286.got - 2010.06.03 17:49:19.
