data_PCOD9239735
_publ_section_title
;
Structure prediction by ZEFSAII (Michael W. Deem and Ramdas Pophale) SiO2 
 PCOD9239735
Probable space group: P 21/C
;
_chemical_formula_sum "Si O2"
_cell_formula_units_Z 28
_cell_length_a 15.117473
_cell_length_b 8.120735
_cell_length_c 9.490047
_cell_angle_alpha 90.000000
_cell_angle_beta 64.171825
_cell_angle_gamma 90.000000
_cell_volume 1048.662900
_symmetry_space_group_name_H-M "P 21/C"
_symmetry_group_IT_number 14
_symmetry_cell_setting 'monoclinic'
loop_
_space_group_symop_operation_xyz
x,y,z
-x,1/2+y,1/2-z
-x,-y,-z
x,1/2-y,1/2+z
loop_
_atom_site_type_symbol
_atom_site_label
_atom_site_fract_x
_atom_site_fract_y
_atom_site_fract_z
Si Si1 0.797983 0.195448 0.371206
Si Si2 0.692274 0.860934 0.540950
Si Si3 0.991572 0.911310 0.704465
Si Si4 0.572915 0.877746 0.361991
Si Si5 0.442736 0.933971 0.179370
Si Si6 0.289641 0.852594 0.831412
Si Si7 0.092967 0.267570 0.008391
O O1 0.739268 0.340226 0.486864
O O2 0.803506 0.190892 0.200320
O O3 0.903279 0.175613 0.364031
O O4 0.731800 0.038324 0.458907
O O5 0.628351 0.787696 0.456635
O O6 0.793717 0.783599 0.524440
O O7 0.619156 0.908924 0.719396
O O8 0.920928 0.811591 0.645985
O O9 0.945722 0.899056 0.892166
O O10 0.022465 0.091428 0.628145
O O11 0.505402 0.863347 0.267920
O O12 0.500000 0.000000 0.500000
O O13 0.663980 0.973679 0.229833
O O14 0.366884 0.782580 0.216117
O O15 0.500000 0.000000 0.000000
#
# Coordination Sequence:
#
# PCOD9239735 Si02
#       7
#     4   4   4   4   4   4   4
#     4   9  17  31  54  78  99 135 184 231 273 324
#     4   8  18  36  53  73 107 145 182 227 282 345
#     4  10  21  38  63  88 120 157 195 246 300 361
#     4   9  18  34  52  71 104 147 182 219 280 341
#     4  10  19  32  54  81 105 137 186 234 275 326
#     4  10  18  31  52  75 101 135 182 230 266 320
#     4  10  21  40  61  88 120 156 200 248 301 357
#
# _framework density 26.700668
#
# number of rings (size 3 to 8) (size 9 to 14) (size 15 to 20)
#    0.000    2.571    0.000    2.571    0.000    1.714 
#    0.000    7.143    0.000    0.000    0.000    0.000 
#    0.000    0.000    0.000    0.000    0.000    0.000 
#
# Total GULP energy -156300.470910 kJ/mol
# GULP energy per Si atom -5582.159675 kJ/mol
# Density = 2.663990 g / cm^3
# Si number density = 26.700668 Si / 1000 Ang^3
#
#
#
# Elastic Constant Matrix: (Units=GPa)
#
#
# Indices 1 2 3 4 5 6 
#
# 1 132.7292 0.7254 21.4064 0.0000 32.9772 0.0000
# 2 0.7254 16.6830 9.0029 0.0000 -2.8087 0.0000
# 3 21.4064 9.0029 98.0708 0.0000 15.6290 0.0000
# 4 0.0000 0.0000 0.0000 42.4456 0.0000 -6.7717
# 5 32.9772 -2.8087 15.6290 0.0000 32.4198 0.0000
# 6 0.0000 0.0000 0.0000 -6.7717 0.0000 28.7036
#
#
#
# Elastic Compliance Matrix: (Units=1/GPa)
#
#
# Indices 1 2 3 4 5 6 
#
# 1 0.010175 -0.001969 -0.000394 0.000000 -0.010331 0.000000
# 2 -0.001969 0.065934 -0.007423 0.000000 0.011294 0.000000
# 3 -0.000394 -0.007423 0.011918 0.000000 -0.005988 0.000000
# 4 0.000000 0.000000 0.000000 0.024481 0.000000 0.005776
# 5 -0.010331 0.011294 -0.005988 0.000000 0.045219 0.000000
# 6 0.000000 0.000000 0.000000 0.005776 0.000000 0.036201
#
#
# Mechanical properties :
#
#
# Convention : Reuss Voigt Hill
#
# Bulk Modulus (GPa) = 14.60793 34.41696 24.51244
# Shear Modulus (GPa) = 21.15785 35.13701 28.14743
#
# Velocity S-wave (km/s) = 2.81803 3.63155 3.25034
# Velocity P-wave (km/s) = 4.00890 5.52287 4.82563
#
# Compressibility (1/GPa) = 0.06845598
#
# Stress axis : x y z
#
# Youngs Moduli (GPa) = 98.27843 15.16671 83.90413
#
# Poissons Ratio (x) = 0.02987 0.03305
# Poissons Ratio (y) = 0.19353 0.62280
# Poissons Ratio (z) = 0.03871 0.11258
#
# Static dielectric constant tensor:
#      x y z
#    x 2.107230 0.000000 0.066110 
#    y 0.000000 2.561980 0.000000 
#    z 0.066110 0.000000 2.094950 
# 
# From -- ./inp_files/15587.got.cif
#   From: 2010.05.17/outbox.cif.g08.bks.cpg/sg14_8_cif.got.tgz:15587.got - 2010.06.03 17:49:19.
