data_PCOD9239161
_publ_section_title
;
Structure prediction by ZEFSAII (Michael W. Deem and Ramdas Pophale) SiO2 
 PCOD9239161
Probable space group: P 21/C
;
_chemical_formula_sum "Si O2"
_cell_formula_units_Z 32
_cell_length_a 9.762552
_cell_length_b 26.447275
_cell_length_c 8.279084
_cell_angle_alpha 90.000000
_cell_angle_beta 35.197411
_cell_angle_gamma 90.000000
_cell_volume 1232.103185
_symmetry_space_group_name_H-M "P 21/C"
_symmetry_group_IT_number 14
_symmetry_cell_setting 'monoclinic'
loop_
_space_group_symop_operation_xyz
x,y,z
-x,1/2+y,1/2-z
-x,-y,-z
x,1/2-y,1/2+z
loop_
_atom_site_type_symbol
_atom_site_label
_atom_site_fract_x
_atom_site_fract_y
_atom_site_fract_z
Si Si1 0.901560 0.283354 0.751756
Si Si2 0.396118 0.093355 0.733700
Si Si3 0.098455 0.628697 0.975449
Si Si4 0.596351 0.756785 0.642300
Si Si5 0.381801 0.156134 0.067676
Si Si6 0.693153 0.345883 0.698312
Si Si7 0.981984 0.062767 0.895864
Si Si8 0.786772 0.469464 0.924509
O O1 0.908596 0.325802 0.884971
O O2 0.141208 0.250666 0.535844
O O3 0.885628 0.306949 0.587416
O O4 0.644411 0.258244 0.028206
O O5 0.332104 0.127453 0.945686
O O6 0.594089 0.126234 0.452972
O O7 0.198999 0.084795 0.791046
O O8 0.504567 0.041092 0.699620
O O9 0.854479 0.637954 0.111920
O O10 0.111688 0.574945 0.058489
O O11 0.353966 0.637703 0.644645
O O12 0.604588 0.715162 0.490133
O O13 0.523739 0.813617 0.663841
O O14 0.822948 0.391770 0.484048
O O15 0.835280 0.036952 0.184763
O O16 0.089099 0.023022 0.665496
#
# Coordination Sequence:
#
# PCOD9239161 Si02
#       8
#     4   4   4   4   4   4   4   4
#     4  10  19  35  46  67  93 118 161 199 234 277
#     4  10  16  28  42  61  90 129 155 189 226 272
#     4   9  14  27  43  58  82 121 145 182 222 255
#     4  10  21  31  49  68  86 124 164 196 234 277
#     4   9  15  28  42  58  84 110 153 188 222 256
#     4  11  21  31  48  66  92 133 162 194 237 279
#     4  10  17  26  40  61  94 120 166 180 216 282
#     4   9  16  24  38  64  85 125 162 181 214 271
#
# _framework density 25.971851000000001
#
# number of rings (size 3 to 8) (size 9 to 14) (size 15 to 20)
#    0.000    2.250    6.250    1.125    1.750    0.000 
#    0.000    0.000    0.000    0.000    0.000    0.000 
#    0.000    0.000    0.000   42.750    4.000    0.000 
#
# Total GULP energy -178617.622244 kJ/mol
# GULP energy per Si atom -5581.800695 kJ/mol
# Density = 2.591274 g / cm^3
# Si number density = 25.971851 Si / 1000 Ang^3
#
#
#
# Elastic Constant Matrix: (Units=GPa)
#
#
# Indices 1 2 3 4 5 6 
#
# 1 77.0154 38.6955 43.3365 0.0000 -35.7700 0.0000
# 2 38.6955 70.0757 27.8112 0.0000 -17.9567 0.0000
# 3 43.3365 27.8112 127.7043 0.0000 -37.4921 0.0000
# 4 0.0000 0.0000 0.0000 29.9459 0.0000 -16.8347
# 5 -35.7700 -17.9567 -37.4921 0.0000 40.2701 0.0000
# 6 0.0000 0.0000 0.0000 -16.8347 0.0000 17.4818
#
#
#
# Elastic Compliance Matrix: (Units=1/GPa)
#
#
# Indices 1 2 3 4 5 6 
#
# 1 0.027386 -0.009714 -0.001800 0.000000 0.018318 0.000000
# 2 -0.009714 0.019909 -0.001330 0.000000 -0.000989 0.000000
# 3 -0.001800 -0.001330 0.011130 0.000000 0.008170 0.000000
# 4 0.000000 0.000000 0.000000 0.072811 0.000000 0.070116
# 5 0.018318 -0.000989 0.008170 0.000000 0.048269 0.000000
# 6 0.000000 0.000000 0.000000 0.070116 0.000000 0.124723
#
#
# Mechanical properties :
#
#
# Convention : Reuss Voigt Hill
#
# Bulk Modulus (GPa) = 30.54638 54.94242 42.74440
# Shear Modulus (GPa) = 14.67023 28.53636 21.60329
#
# Velocity S-wave (km/s) = 2.37924 3.31832 2.88722
# Velocity P-wave (km/s) = 4.39711 5.99018 5.25437
#
# Compressibility (1/GPa) = 0.03273710
#
# Stress axis : x y z
#
# Youngs Moduli (GPa) = 36.51511 50.22968 89.85059
#
# Poissons Ratio (x) = 0.48793 0.16173
# Poissons Ratio (y) = 0.35471 0.11946
# Poissons Ratio (z) = 0.06573 0.06678
#
# Static dielectric constant tensor:
#      x y z
#    x 2.065900 0.000000 -0.051750 
#    y 0.000000 2.123980 0.000000 
#    z -0.051750 0.000000 2.139440 
# 
# From -- ./inp_files/30821.got.cif
#   From: 2010.05.17/outbox.cif.g08.bks.cpg/sg14_16_cif.got.tgz:30821.got - 2010.06.03 17:49:19.
