data_PCOD9239508
_publ_section_title
;
Structure prediction by ZEFSAII (Michael W. Deem and Ramdas Pophale) SiO2 
 PCOD9239508
Probable space group: P 21/C
;
_chemical_formula_sum "Si O2"
_cell_formula_units_Z 32
_cell_length_a 11.999140
_cell_length_b 18.670548
_cell_length_c 9.978474
_cell_angle_alpha 90.000000
_cell_angle_beta 125.657627
_cell_angle_gamma 90.000000
_cell_volume 1816.362927
_symmetry_space_group_name_H-M "P 21/C"
_symmetry_group_IT_number 14
_symmetry_cell_setting 'monoclinic'
loop_
_space_group_symop_operation_xyz
x,y,z
-x,1/2+y,1/2-z
-x,-y,-z
x,1/2-y,1/2+z
loop_
_atom_site_type_symbol
_atom_site_label
_atom_site_fract_x
_atom_site_fract_y
_atom_site_fract_z
Si Si1 0.973587 0.794337 0.108243
Si Si2 0.381342 0.023699 0.318408
Si Si3 0.094824 0.363140 0.942156
Si Si4 0.245673 0.331374 0.317002
Si Si5 0.918478 0.471384 0.665099
Si Si6 0.248500 0.326213 0.778006
Si Si7 0.118808 0.922874 0.153899
Si Si8 0.380601 0.470371 0.509593
O O1 0.995104 0.709569 0.111450
O O2 0.881370 0.812156 0.173730
O O3 0.110410 0.841766 0.198911
O O4 0.876061 0.818290 0.915595
O O5 0.341549 0.107132 0.302428
O O6 0.418984 0.013792 0.189890
O O7 0.500000 0.000000 0.500000
O O8 0.249816 0.973960 0.260711
O O9 0.193492 0.347421 0.885652
O O10 0.006500 0.431838 0.839637
O O11 0.182365 0.366845 0.139032
O O12 0.310202 0.253840 0.327156
O O13 0.348456 0.386834 0.458270
O O14 0.905981 0.421917 0.523680
O O15 0.769124 0.492963 0.612169
O O16 0.997093 0.538803 0.653086
O O17 0.500000 0.500000 0.500000
#
# Coordination Sequence:
#
# PCOD9239508 Si02
#       8
#     4   4   4   4   4   4   4   4
#     4  10  17  35  57  86 114 143 185 236 290 327
#     4  11  23  39  59  83 110 153 201 233 271 341
#     4  10  20  30  58  91 114 139 187 239 277 342
#     4  10  21  34  56  87 116 147 179 234 294 331
#     4  10  18  35  58  82 109 145 185 226 279 333
#     4  10  18  36  61  82 110 147 195 231 271 344
#     4  10  17  34  61  80 106 144 188 230 274 328
#     4  11  24  40  55  81 122 154 184 235 293 333
#
# _framework density 17.617623999999999
#
# number of rings (size 3 to 8) (size 9 to 14) (size 15 to 20)
#    0.000    1.750    5.000    0.750    1.750    0.500 
#    2.250    1.250    0.000    3.000    0.000    0.000 
#    0.000    0.000    0.000    0.000    0.000    0.000 
#
# Total GULP energy -178331.059659 kJ/mol
# GULP energy per Si atom -5572.845614 kJ/mol
# Density = 1.757753 g / cm^3
# Si number density = 17.617624 Si / 1000 Ang^3
#
#
#
# Elastic Constant Matrix: (Units=GPa)
#
#
# Indices 1 2 3 4 5 6 
#
# 1 84.5857 26.6444 19.4738 0.0000 -5.4357 0.0000
# 2 26.6444 73.7760 9.8288 0.0000 2.7908 0.0000
# 3 19.4738 9.8288 80.6057 0.0000 -11.8293 0.0000
# 4 0.0000 0.0000 0.0000 21.8321 0.0000 -5.8158
# 5 -5.4357 2.7908 -11.8293 0.0000 18.0856 0.0000
# 6 0.0000 0.0000 0.0000 -5.8158 0.0000 15.3584
#
#
#
# Elastic Compliance Matrix: (Units=1/GPa)
#
#
# Indices 1 2 3 4 5 6 
#
# 1 0.014129 -0.004929 -0.002298 0.000000 0.003504 0.000000
# 2 -0.004929 0.015709 -0.001436 0.000000 -0.004845 0.000000
# 3 -0.002298 -0.001436 0.014455 0.000000 0.008985 0.000000
# 4 0.000000 0.000000 0.000000 0.050943 0.000000 0.019291
# 5 0.003504 -0.004845 0.008985 0.000000 0.062971 0.000000
# 6 0.000000 0.000000 0.000000 0.019291 0.000000 0.072416
#
#
# Mechanical properties :
#
#
# Convention : Reuss Voigt Hill
#
# Bulk Modulus (GPa) = 37.08183 38.98459 38.03321
# Shear Modulus (GPa) = 19.45990 23.25656 21.35823
#
# Velocity S-wave (km/s) = 3.32711 3.63722 3.48562
# Velocity P-wave (km/s) = 5.98777 6.30995 6.15097
#
# Compressibility (1/GPa) = 0.02696738
#
# Stress axis : x y z
#
# Youngs Moduli (GPa) = 70.77484 63.65674 69.18010
#
# Poissons Ratio (x) = 0.31378 0.15899
# Poissons Ratio (y) = 0.34886 0.09932
# Poissons Ratio (z) = 0.16266 0.09139
#
# Static dielectric constant tensor:
#      x y z
#    x 1.586410 0.000000 -0.020260 
#    y 0.000000 1.647940 0.000000 
#    z -0.020260 0.000000 1.597560 
# 
# From -- ./inp_files/13879.got.cif
#   From: 2010.05.17/outbox.cif.g08.bks.cpg/sg14_7_cif.got.tgz:13879.got - 2010.06.03 17:49:19.
