data_PCOD9239309
_publ_section_title
;
Structure prediction by ZEFSAII (Michael W. Deem and Ramdas Pophale) SiO2 
 PCOD9239309
Probable space group: P 21/C
;
_chemical_formula_sum "Si O2"
_cell_formula_units_Z 28
_cell_length_a 11.066507
_cell_length_b 19.121782
_cell_length_c 5.549604
_cell_angle_alpha 90.000000
_cell_angle_beta 81.345057
_cell_angle_gamma 90.000000
_cell_volume 1160.986130
_symmetry_space_group_name_H-M "P 21/C"
_symmetry_group_IT_number 14
_symmetry_cell_setting 'monoclinic'
loop_
_space_group_symop_operation_xyz
x,y,z
-x,1/2+y,1/2-z
-x,-y,-z
x,1/2-y,1/2+z
loop_
_atom_site_type_symbol
_atom_site_label
_atom_site_fract_x
_atom_site_fract_y
_atom_site_fract_z
Si Si1 0.715406 0.213248 0.011931
Si Si2 0.985767 0.263859 0.904103
Si Si3 0.573898 0.588842 0.872847
Si Si4 0.012792 0.413828 0.741675
Si Si5 0.858073 0.947669 0.291857
Si Si6 0.356136 0.251129 0.129873
Si Si7 0.523270 0.109606 0.097796
O O1 0.674420 0.253896 0.267418
O O2 0.662116 0.135952 0.049435
O O3 0.861069 0.219470 0.958195
O O4 0.048198 0.237230 0.643692
O O5 0.951164 0.342989 0.850249
O O6 0.712972 0.562186 0.823543
O O7 0.576570 0.674234 0.883692
O O8 0.509960 0.571964 0.639935
O O9 0.508889 0.571184 0.144352
O O10 0.913022 0.474590 0.745694
O O11 0.082869 0.408197 0.461963
O O12 0.101778 0.428812 0.944898
O O13 0.286259 0.250010 0.400657
O O14 0.444213 0.183083 0.112125
#
# Coordination Sequence:
#
# PCOD9239309 Si02
#       7
#     4   4   4   4   4   4   4
#     4  10  18  30  51  78 104 142 186 224 286 342
#     4  10  21  37  58  86 112 144 191 244 296 337
#     4  10  18  29  46  74 105 137 181 219 269 341
#     4  10  21  40  59  81 113 149 200 248 282 344
#     4  10  21  37  60  81 109 159 198 233 292 340
#     4   8  14  23  36  57  92 127 156 195 247 304
#     4  10  17  28  46  73 109 140 173 221 273 338
#
# _framework density 24.117429000000001
#
# number of rings (size 3 to 8) (size 9 to 14) (size 15 to 20)
#    0.000    2.286    0.000    5.143    0.000    0.000 
#    0.000   12.857    0.000    0.000    0.000   33.000 
#    0.000    0.000    0.000    0.000    0.000    0.000 
#
# Total GULP energy -156240.852993 kJ/mol
# GULP energy per Si atom -5580.030464 kJ/mol
# Density = 2.406254 g / cm^3
# Si number density = 24.117429 Si / 1000 Ang^3
#
#
#
# Elastic Constant Matrix: (Units=GPa)
#
#
# Indices 1 2 3 4 5 6 
#
# 1 40.2381 6.1046 40.9517 0.0000 -5.2543 0.0000
# 2 6.1046 44.3773 24.9454 0.0000 4.1686 0.0000
# 3 40.9517 24.9454 254.2293 0.0000 39.3933 0.0000
# 4 0.0000 0.0000 0.0000 30.4080 0.0000 -0.1678
# 5 -5.2543 4.1686 39.3933 0.0000 41.7564 0.0000
# 6 0.0000 0.0000 0.0000 -0.1678 0.0000 18.9508
#
#
#
# Elastic Compliance Matrix: (Units=1/GPa)
#
#
# Indices 1 2 3 4 5 6 
#
# 1 0.033609 -0.001752 -0.006939 0.000000 0.010950 0.000000
# 2 -0.001752 0.023942 -0.001947 0.000000 -0.000774 0.000000
# 3 -0.006939 -0.001947 0.006263 0.000000 -0.006587 0.000000
# 4 0.000000 0.000000 0.000000 0.032888 0.000000 0.000291
# 5 0.010950 -0.000774 -0.006587 0.000000 0.031618 0.000000
# 6 0.000000 0.000000 0.000000 0.000291 0.000000 0.052771
#
#
# Mechanical properties :
#
#
# Convention : Reuss Voigt Hill
#
# Bulk Modulus (GPa) = 23.50754 53.64978 38.57866
# Shear Modulus (GPa) = 23.08979 36.01257 29.55118
#
# Velocity S-wave (km/s) = 3.09753 3.86841 3.50423
# Velocity P-wave (km/s) = 4.74986 6.49972 5.69243
#
# Compressibility (1/GPa) = 0.04253953
#
# Stress axis : x y z
#
# Youngs Moduli (GPa) = 29.75353 41.76716 159.66972
#
# Poissons Ratio (x) = 0.07316 1.10791
# Poissons Ratio (y) = 0.05212 0.31091
# Poissons Ratio (z) = 0.20645 0.08133
#
# Static dielectric constant tensor:
#      x y z
#    x 1.887600 0.000000 0.033200 
#    y 0.000000 1.948150 0.000000 
#    z 0.033200 0.000000 1.988340 
# 
# From -- ./inp_files/2845.got.cif
#   From: 2010.05.17/outbox.cif.g08.bks.cpg/sg14_2_cif.got.tgz:2845.got - 2010.06.03 17:49:19.
