data_PCOD9239199
_publ_section_title
;
Structure prediction by ZEFSAII (Michael W. Deem and Ramdas Pophale) SiO2 
 PCOD9239199
Probable space group: P 21/C
;
_chemical_formula_sum "Si O2"
_cell_formula_units_Z 32
_cell_length_a 12.451199
_cell_length_b 19.019593
_cell_length_c 20.576931
_cell_angle_alpha 90.000000
_cell_angle_beta 23.343824
_cell_angle_gamma 90.000000
_cell_volume 1930.900737
_symmetry_space_group_name_H-M "P 21/C"
_symmetry_group_IT_number 14
_symmetry_cell_setting 'monoclinic'
loop_
_space_group_symop_operation_xyz
x,y,z
-x,1/2+y,1/2-z
-x,-y,-z
x,1/2-y,1/2+z
loop_
_atom_site_type_symbol
_atom_site_label
_atom_site_fract_x
_atom_site_fract_y
_atom_site_fract_z
Si Si1 0.716531 0.682328 0.653767
Si Si2 0.914810 0.172254 0.925487
Si Si3 0.127397 0.667218 0.046770
Si Si4 0.887520 0.940836 0.977719
Si Si5 0.699042 0.461868 0.979850
Si Si6 0.453371 0.963679 0.735868
Si Si7 0.900688 0.962015 0.249224
Si Si8 0.687568 0.842018 0.686726
O O1 0.910030 0.656867 0.606117
O O2 0.772723 0.636223 0.558617
O O3 0.767613 0.765048 0.615511
O O4 0.412548 0.673785 0.849886
O O5 0.979479 0.113971 0.835704
O O6 0.964985 0.254177 0.881486
O O7 0.601061 0.166394 0.117708
O O8 0.171671 0.614579 0.081779
O O9 0.909183 0.638085 0.117035
O O10 0.187522 0.940715 0.843095
O O11 0.938777 0.977109 0.879785
O O12 0.681087 0.991708 0.131298
O O13 0.875743 0.513923 0.837398
O O14 0.636687 0.490461 0.086233
O O15 0.405664 0.457321 0.108647
O O16 0.629733 0.899840 0.664784
#
# Coordination Sequence:
#
# PCOD9239199 Si02
#       8
#     4   4   4   4   4   4   4   4
#     4  10  17  32  52  78 104 130 175 218 248 303
#     4  10  17  33  54  75 102 136 176 206 250 315
#     4  10  20  31  50  80 109 130 164 218 261 303
#     4  10  16  30  55  75  96 130 176 211 244 299
#     4  10  20  34  51  79 106 131 175 219 250 294
#     4  10  17  31  52  76 102 130 168 211 256 300
#     4  10  19  33  56  77  98 138 180 212 246 300
#     4  10  20  29  51  81 106 133 166 212 267 305
#
# _framework density 16.572575000000001
#
# number of rings (size 3 to 8) (size 9 to 14) (size 15 to 20)
#    0.000    2.000    5.000    0.750    0.000    0.500 
#    0.000    1.875    0.000    0.000    0.000    0.000 
#    0.000    0.000    0.000    0.000    0.000    0.000 
#
# Total GULP energy -178201.354705 kJ/mol
# GULP energy per Si atom -5568.792335 kJ/mol
# Density = 1.653486 g / cm^3
# Si number density = 16.572575 Si / 1000 Ang^3
#
#
#
# Elastic Constant Matrix: (Units=GPa)
#
#
# Indices 1 2 3 4 5 6 
#
# 1 33.1038 18.0892 21.8389 0.0000 -2.0747 0.0000
# 2 18.0892 86.0949 18.3821 0.0000 11.3010 0.0000
# 3 21.8389 18.3821 57.7401 0.0000 1.3513 0.0000
# 4 0.0000 0.0000 0.0000 7.7664 0.0000 1.7881
# 5 -2.0747 11.3010 1.3513 0.0000 20.9630 0.0000
# 6 0.0000 0.0000 0.0000 1.7881 0.0000 26.1536
#
#
#
# Elastic Compliance Matrix: (Units=1/GPa)
#
#
# Indices 1 2 3 4 5 6 
#
# 1 0.044570 -0.007456 -0.014703 0.000000 0.009379 0.000000
# 2 -0.007456 0.014653 -0.001645 0.000000 -0.008531 0.000000
# 3 -0.014703 -0.001645 0.023453 0.000000 -0.002080 0.000000
# 4 0.000000 0.000000 0.000000 0.130818 0.000000 -0.008944
# 5 0.009379 -0.008531 -0.002080 0.000000 0.053365 0.000000
# 6 0.000000 0.000000 0.000000 -0.008944 0.000000 0.038847
#
#
# Mechanical properties :
#
#
# Convention : Reuss Voigt Hill
#
# Bulk Modulus (GPa) = 28.51752 32.61769 30.56761
# Shear Modulus (GPa) = 13.69850 18.88516 16.29183
#
# Velocity S-wave (km/s) = 2.87814 3.37937 3.13878
# Velocity P-wave (km/s) = 5.31883 5.91197 5.62322
#
# Compressibility (1/GPa) = 0.03506616
#
# Stress axis : x y z
#
# Youngs Moduli (GPa) = 22.43657 68.24647 42.63920
#
# Poissons Ratio (x) = 0.50886 0.62694
# Poissons Ratio (y) = 0.16729 0.07014
# Poissons Ratio (z) = 0.32989 0.11227
#
# Static dielectric constant tensor:
#      x y z
#    x 1.548770 0.000000 -0.006010 
#    y 0.000000 1.616730 0.000000 
#    z -0.006010 0.000000 1.553080 
# 
# From -- ./inp_files/73981.got.cif
#   From: 2010.05.17/outbox.cif.g08.bks.cpg/sg14_37_cif.got.tgz:73981.got - 2010.06.03 17:49:19.
