data_PCOD9239652
_publ_section_title
;
Structure prediction by ZEFSAII (Michael W. Deem and Ramdas Pophale) SiO2 
 PCOD9239652
Probable space group: P 21/C
;
_chemical_formula_sum "Si O2"
_cell_formula_units_Z 32
_cell_length_a 9.095737
_cell_length_b 22.162465
_cell_length_c 12.230950
_cell_angle_alpha 90.000000
_cell_angle_beta 47.751471
_cell_angle_gamma 90.000000
_cell_volume 1825.097172
_symmetry_space_group_name_H-M "P 21/C"
_symmetry_group_IT_number 14
_symmetry_cell_setting 'monoclinic'
loop_
_space_group_symop_operation_xyz
x,y,z
-x,1/2+y,1/2-z
-x,-y,-z
x,1/2-y,1/2+z
loop_
_atom_site_type_symbol
_atom_site_label
_atom_site_fract_x
_atom_site_fract_y
_atom_site_fract_z
Si Si1 0.728918 0.761905 0.925701
Si Si2 0.272252 0.830799 0.461913
Si Si3 0.727746 0.669201 0.734166
Si Si4 0.268949 0.567343 0.149743
Si Si5 0.731049 0.932657 0.418693
Si Si6 0.728922 0.261905 0.345381
Si Si7 0.973580 0.838333 0.411742
Si Si8 0.026416 0.838333 0.885323
O O1 0.499998 0.775538 0.056344
O O2 0.751091 0.727918 0.799359
O O3 0.805869 0.713477 0.978363
O O4 0.868419 0.819455 0.870052
O O5 0.499999 0.830121 0.303896
O O6 0.259335 0.887607 0.550781
O O7 0.248906 0.772081 0.550451
O O8 0.101849 0.834818 0.456996
O O9 0.740662 0.612393 0.810118
O O10 0.898149 0.665182 0.558846
O O11 0.212151 0.500000 0.143924
O O12 0.129565 0.598330 0.309500
O O13 0.499998 0.566419 0.070320
O O14 0.870431 0.901670 0.439067
O O15 0.868424 0.319455 0.261526
O O16 0.805873 0.213477 0.215767
#
# Coordination Sequence:
#
# PCOD9239652 Si02
#       8
#     4   4   4   4   4   4   4   4
#     4   9  19  33  48  72 105 134 162 198 244 300
#     4   9  18  33  52  74 100 131 165 201 245 295
#     4   9  18  33  52  74 100 131 165 201 245 295
#     4   9  19  36  54  72  98 131 168 209 249 294
#     4   9  19  36  54  72  98 131 168 209 249 294
#     4   9  19  33  48  72 105 134 162 198 244 300
#     4  10  18  29  53  77  97 127 167 204 242 288
#     4  10  18  29  53  77  97 127 167 204 242 288
#
# _framework density 17.533311999999999
#
# number of rings (size 3 to 8) (size 9 to 14) (size 15 to 20)
#    0.000    2.750    0.000    3.000    0.000    9.000 
#    0.000    0.000    0.000   30.000    0.000    0.000 
#    0.000    0.000    0.000    0.000    0.000    0.000 
#
# Total GULP energy -178344.947524 kJ/mol
# GULP energy per Si atom -5573.279610 kJ/mol
# Density = 1.749341 g / cm^3
# Si number density = 17.533312 Si / 1000 Ang^3
#
#
#
# Elastic Constant Matrix: (Units=GPa)
#
#
# Indices 1 2 3 4 5 6 
#
# 1 83.5599 8.6993 10.1655 0.0000 -4.4113 0.0000
# 2 8.6993 49.4461 8.4889 0.0000 -0.7305 0.0000
# 3 10.1655 8.4889 80.3071 0.0000 -6.9116 0.0000
# 4 0.0000 0.0000 0.0000 18.6199 0.0000 -9.1659
# 5 -4.4113 -0.7305 -6.9116 0.0000 27.3629 0.0000
# 6 0.0000 0.0000 0.0000 -9.1659 0.0000 21.2540
#
#
#
# Elastic Compliance Matrix: (Units=1/GPa)
#
#
# Indices 1 2 3 4 5 6 
#
# 1 0.012406 -0.001948 -0.001223 0.000000 0.001639 0.000000
# 2 -0.001948 0.020904 -0.001985 0.000000 -0.000258 0.000000
# 3 -0.001223 -0.001985 0.013080 0.000000 0.003054 0.000000
# 4 0.000000 0.000000 0.000000 0.068180 0.000000 0.029403
# 5 0.001639 -0.000258 0.003054 0.000000 0.037575 0.000000
# 6 0.000000 0.000000 0.000000 0.029403 0.000000 0.059730
#
#
# Mechanical properties :
#
#
# Convention : Reuss Voigt Hill
#
# Bulk Modulus (GPa) = 27.71968 29.78005 28.74986
# Shear Modulus (GPa) = 21.34810 25.84464 23.59637
#
# Velocity S-wave (km/s) = 3.49316 3.84348 3.67250
# Velocity P-wave (km/s) = 5.66689 6.05955 5.86650
#
# Compressibility (1/GPa) = 0.03607545
#
# Stress axis : x y z
#
# Youngs Moduli (GPa) = 80.60838 47.83806 76.45433
#
# Poissons Ratio (x) = 0.09321 0.09353
# Poissons Ratio (y) = 0.15705 0.15178
# Poissons Ratio (z) = 0.09861 0.09497
#
# Static dielectric constant tensor:
#      x y z
#    x 1.624800 0.000000 0.000580 
#    y 0.000000 1.593790 0.000000 
#    z 0.000580 0.000000 1.624960 
# 
# From -- ./inp_files/26963.got.cif
#   From: 2010.05.17/outbox.cif.g08.bks.cpg/sg14_14_cif.got.tgz:26963.got - 2010.06.03 17:49:19.
