data_PCOD9239333
_publ_section_title
;
Structure prediction by ZEFSAII (Michael W. Deem and Ramdas Pophale) SiO2 
 PCOD9239333
Probable space group: P 21/C
;
_chemical_formula_sum "Si O2"
_cell_formula_units_Z 24
_cell_length_a 7.165900
_cell_length_b 5.544498
_cell_length_c 26.024274
_cell_angle_alpha 90.000000
_cell_angle_beta 74.617985
_cell_angle_gamma 90.000000
_cell_volume 996.940265
_symmetry_space_group_name_H-M "P 21/C"
_symmetry_group_IT_number 14
_symmetry_cell_setting 'monoclinic'
loop_
_space_group_symop_operation_xyz
x,y,z
-x,1/2+y,1/2-z
-x,-y,-z
x,1/2-y,1/2+z
loop_
_atom_site_type_symbol
_atom_site_label
_atom_site_fract_x
_atom_site_fract_y
_atom_site_fract_z
Si Si1 0.046862 0.287310 0.814221
Si Si2 0.408849 0.822281 0.671002
Si Si3 0.951015 0.718479 0.365508
Si Si4 0.360692 0.314205 0.701553
Si Si5 0.463192 0.694172 0.047259
Si Si6 0.180912 0.041554 0.022276
O O1 0.199183 0.306391 0.757348
O O2 0.826323 0.298888 0.807765
O O3 0.060628 0.534103 0.845429
O O4 0.058577 0.033434 0.843915
O O5 0.475719 0.564275 0.687856
O O6 0.461943 0.861625 0.607499
O O7 0.473566 0.061332 0.696012
O O8 0.760698 0.705198 0.343158
O O9 0.880496 0.726430 0.429073
O O10 0.258270 0.814507 0.048847
O O11 0.500000 0.500000 0.000000
O O12 0.638277 0.880270 0.025379
O O13 0.000000 0.000000 0.000000
#
# Coordination Sequence:
#
# PCOD9239333 Si02
#       6
#     4   4   4   4   4   4
#     4  10  17  29  53  86 125 152 206 270 322 376
#     4  10  18  30  52  83 124 153 203 264 313 380
#     4  10  18  33  51  83 125 156 207 266 307 388
#     4  10  17  29  52  88 124 152 205 270 319 382
#     4  11  23  41  65  91 132 173 220 278 323 392
#     4  11  25  42  63  94 134 177 223 271 333 393
#
# _framework density 24.07366
#
# number of rings (size 3 to 8) (size 9 to 14) (size 15 to 20)
#    0.000    1.667    3.333    7.000    2.333    0.667 
#    0.000    0.000    0.000    0.000    0.000    7.000 
#    0.000    0.000    0.000    0.000    0.000    0.000 
#
# Total GULP energy -134215.906827 kJ/mol
# GULP energy per Si atom -5592.329451 kJ/mol
# Density = 2.401887 g / cm^3
# Si number density = 24.073660 Si / 1000 Ang^3
#
#
#
# Elastic Constant Matrix: (Units=GPa)
#
#
# Indices 1 2 3 4 5 6 
#
# 1 93.1171 3.7796 24.3366 0.0000 1.4837 0.0000
# 2 3.7796 201.3029 40.6327 0.0000 -13.6703 0.0000
# 3 24.3366 40.6327 148.3567 0.0000 -0.7679 0.0000
# 4 0.0000 0.0000 0.0000 47.7236 0.0000 -13.4474
# 5 1.4837 -13.6703 -0.7679 0.0000 14.6609 0.0000
# 6 0.0000 0.0000 0.0000 -13.4474 0.0000 -9.8597
#
#
#
# Elastic Compliance Matrix: (Units=1/GPa)
#
#
# Indices 1 2 3 4 5 6 
#
# 1 0.011244 0.000089 -0.001875 0.000000 -0.001153 0.000000
# 2 0.000089 0.005625 -0.001528 0.000000 0.005155 0.000000
# 3 -0.001875 -0.001528 0.007462 0.000000 -0.000845 0.000000
# 4 0.000000 0.000000 0.000000 0.015137 0.000000 -0.020645
# 5 -0.001153 0.005155 -0.000845 0.000000 0.073088 0.000000
# 6 0.000000 0.000000 0.000000 -0.020645 0.000000 -0.073266
#
#
# Mechanical properties :
#
#
# Convention : Reuss Voigt Hill
#
# Bulk Modulus (GPa) = 56.48959 64.47494 60.48226
# Shear Modulus (GPa) = 96.48997 35.44016 65.96507
#
# Velocity S-wave (km/s) = 6.33784 3.84103 5.24031
# Velocity P-wave (km/s) = 8.77917 6.81996 7.86084
#
# Compressibility (1/GPa) = 0.01770238
#
# Stress axis : x y z
#
# Youngs Moduli (GPa) = 88.93702 177.79124 134.00709
#
# Poissons Ratio (x) = -0.01583 0.25124
# Poissons Ratio (y) = -0.00792 0.20482
# Poissons Ratio (z) = 0.16674 0.27174
#
# Static dielectric constant tensor:
#      x y z
#    x 1.881310 0.000000 -0.011020 
#    y 0.000000 2.101170 0.000000 
#    z -0.011020 0.000000 1.944690 
# 
# From -- ./inp_files/75936.got.cif
#   From: 2010.05.17/outbox.cif.g08.bks.cpg/sg14_38_cif.got.tgz:75936.got - 2010.06.03 17:49:19.
