data_PCOD9239584
_publ_section_title
;
Structure prediction by ZEFSAII (Michael W. Deem and Ramdas Pophale) SiO2 
 PCOD9239584
Probable space group: P 21/C
;
_chemical_formula_sum "Si O2"
_cell_formula_units_Z 24
_cell_length_a 16.115823
_cell_length_b 8.491348
_cell_length_c 18.157503
_cell_angle_alpha 90.000000
_cell_angle_beta 28.826113
_cell_angle_gamma 90.000000
_cell_volume 1198.036731
_symmetry_space_group_name_H-M "P 21/C"
_symmetry_group_IT_number 14
_symmetry_cell_setting 'monoclinic'
loop_
_space_group_symop_operation_xyz
x,y,z
-x,1/2+y,1/2-z
-x,-y,-z
x,1/2-y,1/2+z
loop_
_atom_site_type_symbol
_atom_site_label
_atom_site_fract_x
_atom_site_fract_y
_atom_site_fract_z
Si Si1 0.222793 0.168567 0.846975
Si Si2 0.042589 0.056748 0.285622
Si Si3 0.677386 0.146790 0.303162
Si Si4 0.911606 0.153418 0.530438
Si Si5 0.008725 0.813561 0.835550
Si Si6 0.390531 0.157514 0.094733
O O1 0.342294 0.302532 0.716988
O O2 0.042479 0.201106 0.943706
O O3 0.311415 0.005145 0.757155
O O4 0.157675 0.176008 0.981338
O O5 0.017502 0.102177 0.221235
O O6 0.217041 0.129940 0.183399
O O7 0.898056 0.120784 0.454774
O O8 0.045578 0.869841 0.292562
O O9 0.498418 0.195869 0.478588
O O10 0.823624 0.123437 0.251820
O O11 0.741565 0.296340 0.205013
O O12 0.000000 0.000000 0.500000
O O13 0.500000 0.000000 0.000000
#
# Coordination Sequence:
#
# PCOD9239584 Si02
#       6
#     4   4   4   4   4   4
#     4  10  22  37  62  91 124 157 211 254 301 370
#     4  11  24  38  62  92 125 158 205 259 314 363
#     4  11  21  39  67  91 121 160 209 255 303 370
#     4  10  17  37  62  87 115 167 207 244 292 376
#     4  11  23  40  60  94 125 158 205 259 308 366
#     4  11  22  42  65  87 121 169 209 246 312 377
#
# _framework density 20.032775000000001
#
# number of rings (size 3 to 8) (size 9 to 14) (size 15 to 20)
#    0.000    1.333    5.000    3.500    7.000    0.000 
#    0.000    3.333    0.000    0.000    0.000    0.000 
#    0.000    0.000    0.000    0.000    0.000    0.000 
#
# Total GULP energy -133958.136637 kJ/mol
# GULP energy per Si atom -5581.589027 kJ/mol
# Density = 1.998718 g / cm^3
# Si number density = 20.032775 Si / 1000 Ang^3
#
#
#
# Elastic Constant Matrix: (Units=GPa)
#
#
# Indices 1 2 3 4 5 6 
#
# 1 76.6658 22.4960 44.0263 0.0000 35.3087 0.0000
# 2 22.4960 82.6554 33.5157 0.0000 13.1406 0.0000
# 3 44.0263 33.5157 125.6302 0.0000 28.8987 0.0000
# 4 0.0000 0.0000 0.0000 44.0137 0.0000 7.0664
# 5 35.3087 13.1406 28.8987 0.0000 36.5009 0.0000
# 6 0.0000 0.0000 0.0000 7.0664 0.0000 24.5363
#
#
#
# Elastic Compliance Matrix: (Units=1/GPa)
#
#
# Indices 1 2 3 4 5 6 
#
# 1 0.025334 -0.002149 -0.003479 0.000000 -0.020978 0.000000
# 2 -0.002149 0.013933 -0.002798 0.000000 -0.000722 0.000000
# 3 -0.003479 -0.002798 0.010906 0.000000 -0.004262 0.000000
# 4 0.000000 0.000000 0.000000 0.023822 0.000000 -0.006861
# 5 -0.020978 -0.000722 -0.004262 0.000000 0.051323 0.000000
# 6 0.000000 0.000000 0.000000 -0.006861 0.000000 0.042732
#
#
# Mechanical properties :
#
#
# Convention : Reuss Voigt Hill
#
# Bulk Modulus (GPa) = 30.01199 53.89195 41.95197
# Shear Modulus (GPa) = 25.50922 33.33773 29.42348
#
# Velocity S-wave (km/s) = 3.57231 4.08384 3.83661
# Velocity P-wave (km/s) = 5.65943 7.01408 6.37285
#
# Compressibility (1/GPa) = 0.03332001
#
# Stress axis : x y z
#
# Youngs Moduli (GPa) = 39.47316 71.77436 91.69426
#
# Poissons Ratio (x) = 0.15426 0.31901
# Poissons Ratio (y) = 0.08483 0.25654
# Poissons Ratio (z) = 0.13733 0.20081
#
# Static dielectric constant tensor:
#      x y z
#    x 1.671510 0.000000 0.012910 
#    y 0.000000 1.764970 0.000000 
#    z 0.012910 0.000000 1.779630 
# 
# From -- ./inp_files/54508.got.cif
#   From: 2010.05.17/outbox.cif.g08.bks.cpg/sg14_28_cif.got.tgz:54508.got - 2010.06.03 17:49:19.
