data_PCOD9239337
_publ_section_title
;
Structure prediction by ZEFSAII (Michael W. Deem and Ramdas Pophale) SiO2 
 PCOD9239337
Probable space group: P 21/C
;
_chemical_formula_sum "Si O2"
_cell_formula_units_Z 28
_cell_length_a 8.571050
_cell_length_b 23.378202
_cell_length_c 7.166504
_cell_angle_alpha 90.000000
_cell_angle_beta 56.267710
_cell_angle_gamma 90.000000
_cell_volume 1194.231523
_symmetry_space_group_name_H-M "P 21/C"
_symmetry_group_IT_number 14
_symmetry_cell_setting 'monoclinic'
loop_
_space_group_symop_operation_xyz
x,y,z
-x,1/2+y,1/2-z
-x,-y,-z
x,1/2-y,1/2+z
loop_
_atom_site_type_symbol
_atom_site_label
_atom_site_fract_x
_atom_site_fract_y
_atom_site_fract_z
Si Si1 0.209568 0.313863 0.561182
Si Si2 0.193669 0.556841 0.012774
Si Si3 0.798060 0.930410 0.551986
Si Si4 0.838992 0.690013 0.964395
Si Si5 0.496774 0.606391 0.542070
Si Si6 0.791614 0.330669 0.818336
Si Si7 0.740202 0.209520 0.780513
O O1 0.272090 0.248449 0.495314
O O2 0.176895 0.318936 0.803553
O O3 0.358500 0.362059 0.412541
O O4 0.006704 0.323775 0.608044
O O5 0.199291 0.490187 0.058051
O O6 0.346460 0.568558 0.749327
O O7 0.240250 0.601268 0.149155
O O8 0.989189 0.569511 0.053544
O O9 0.792148 0.873478 0.428175
O O10 0.618810 0.926261 0.808112
O O11 0.052383 0.705462 0.769437
O O12 0.391016 0.663066 0.532470
O O13 0.685474 0.276059 0.802932
O O14 0.766631 0.314490 0.054298
#
# Coordination Sequence:
#
# PCOD9239337 Si02
#       7
#     4   4   4   4   4   4   4
#     4   9  17  27  48  67  98 114 156 187 237 268
#     4  10  18  29  44  66  96 124 152 189 228 271
#     4  10  18  29  44  66  96 124 152 189 228 271
#     4   9  16  32  44  71  92 125 145 194 230 281
#     4  10  17  30  46  74  87 124 152 198 222 280
#     4   9  16  32  44  71  92 125 145 194 230 281
#     4   9  17  27  48  67  98 114 156 187 237 268
#
# _framework density 23.446038999999999
#
# number of rings (size 3 to 8) (size 9 to 14) (size 15 to 20)
#    0.000    2.571    5.714    0.429    0.000    4.571 
#    0.000    0.000    0.000    0.000    0.000   33.000 
#    0.000    0.000    0.000    0.000    0.000    0.000 
#
# Total GULP energy -156001.366416 kJ/mol
# GULP energy per Si atom -5571.477372 kJ/mol
# Density = 2.339267 g / cm^3
# Si number density = 23.446039 Si / 1000 Ang^3
#
#
#
# Elastic Constant Matrix: (Units=GPa)
#
#
# Indices 1 2 3 4 5 6 
#
# 1 -238.8893 -934.5307 -62.6819 0.0000 284.1455 0.0000
# 2 -934.5307-3145.6577 -297.0709 0.0000 1030.9374 0.0000
# 3 -62.6819 -297.0709 47.8451 0.0000 67.6277 0.0000
# 4 0.0000 0.0000 0.0000 27.5078 0.0000 7.1679
# 5 284.1455 1030.9374 67.6277 0.0000 -289.6253 0.0000
# 6 0.0000 0.0000 0.0000 7.1679 0.0000 10.1760
#
#
#
# Elastic Compliance Matrix: (Units=1/GPa)
#
#
# Indices 1 2 3 4 5 6 
#
# 1 0.038284 -0.006472 -0.007936 0.000000 0.012671 0.000000
# 2 -0.006472 0.003203 0.003209 0.000000 0.005802 0.000000
# 3 -0.007936 0.003209 0.019013 0.000000 0.008076 0.000000
# 4 0.000000 0.000000 0.000000 0.044526 0.000000 -0.031364
# 5 0.012671 0.005802 0.008076 0.000000 0.031516 0.000000
# 6 0.000000 0.000000 0.000000 -0.031364 0.000000 0.120362
#
#
# Mechanical properties :
#
#
# Convention : Reuss Voigt Hill
#
# Bulk Modulus (GPa) = 26.24454 -658.36322 -316.05934
# Shear Modulus (GPa) = 17.12320 -186.54951 -84.71316
#
# Velocity S-wave (km/s) = 2.70538 -8.92962 -6.01744
# Velocity P-wave (km/s) = 4.58003 19.69077 13.54160
#
# Compressibility (1/GPa) = 0.03810316
#
# Stress axis : x y z
#
# Youngs Moduli (GPa) = 26.12063 312.20021 52.59593
#
# Poissons Ratio (x) = 2.02041 0.41739
# Poissons Ratio (y) = 0.16904 -0.16878
# Poissons Ratio (z) = 0.20729 -1.00184
#
# Static dielectric constant tensor:
#      x y z
#    x 1.996080 0.000000 -0.030410 
#    y 0.000000 2.007200 0.000000 
#    z -0.030410 0.000000 1.901960 
# 
# From -- ./inp_files/30568.got.cif
#   From: 2010.05.17/outbox.cif.g08.bks.cpg/sg14_16_cif.got.tgz:30568.got - 2010.06.03 17:49:19.
