data_PCOD9239711
_publ_section_title
;
Structure prediction by ZEFSAII (Michael W. Deem and Ramdas Pophale) SiO2 
 PCOD9239711
Probable space group: P 21/C
;
_chemical_formula_sum "Si O2"
_cell_formula_units_Z 24
_cell_length_a 5.706980
_cell_length_b 16.690332
_cell_length_c 9.463753
_cell_angle_alpha 90.000000
_cell_angle_beta 101.460111
_cell_angle_gamma 90.000000
_cell_volume 883.463954
_symmetry_space_group_name_H-M "P 21/C"
_symmetry_group_IT_number 14
_symmetry_cell_setting 'monoclinic'
loop_
_space_group_symop_operation_xyz
x,y,z
-x,1/2+y,1/2-z
-x,-y,-z
x,1/2-y,1/2+z
loop_
_atom_site_type_symbol
_atom_site_label
_atom_site_fract_x
_atom_site_fract_y
_atom_site_fract_z
Si Si1 0.150353 0.692429 0.604500
Si Si2 0.873961 0.122152 0.409267
Si Si3 0.895391 0.583519 0.792833
Si Si4 0.652630 0.840872 0.679917
Si Si5 0.575117 0.786446 0.373729
Si Si6 0.767348 0.035977 0.056764
O O1 0.088980 0.781865 0.547605
O O2 0.333007 0.711409 0.755755
O O3 0.237609 0.629311 0.494435
O O4 0.953664 0.642881 0.669991
O O5 0.598677 0.114937 0.326351
O O6 0.901917 0.077389 0.562758
O O7 0.109947 0.113453 0.338865
O O8 0.684611 0.627262 0.850390
O O9 0.824209 0.500025 0.717843
O O10 0.578247 0.782394 0.541382
O O11 0.712393 0.788803 0.823729
O O12 0.500000 0.000000 0.000000
O O13 0.000000 0.000000 0.000000
#
# Coordination Sequence:
#
# PCOD9239711 Si02
#       6
#     4   4   4   4   4   4
#     4  10  18  32  46  72 103 130 169 208 261 306
#     4  10  20  30  48  70 100 132 168 208 252 306
#     4  10  18  32  46  72 103 130 169 208 261 306
#     4  10  20  30  48  70 102 134 166 216 254 304
#     4  10  18  31  48  70 108 127 174 206 262 307
#     4  10  20  30  48  70 101 137 160 210 266 310
#
# _framework density 27.165797000000001
#
# number of rings (size 3 to 8) (size 9 to 14) (size 15 to 20)
#    0.000    2.000    5.000    0.000    0.000    0.000 
#    0.000    0.000    0.000    0.000    0.000    1.167 
#    0.000   40.000    0.000    0.000    0.000    0.000 
#
# Total GULP energy -134059.844471 kJ/mol
# GULP energy per Si atom -5585.826853 kJ/mol
# Density = 2.710397 g / cm^3
# Si number density = 27.165797 Si / 1000 Ang^3
#
#
#
# Elastic Constant Matrix: (Units=GPa)
#
#
# Indices 1 2 3 4 5 6 
#
# 1 180.2192 57.9452 27.8937 0.0000 2.0136 0.0000
# 2 57.9452 121.4567 29.8228 0.0000 -0.5540 0.0000
# 3 27.8937 29.8228 55.5839 0.0000 -9.1478 0.0000
# 4 0.0000 0.0000 0.0000 52.6990 0.0000 -2.1602
# 5 2.0136 -0.5540 -9.1478 0.0000 49.6920 0.0000
# 6 0.0000 0.0000 0.0000 -2.1602 0.0000 40.2578
#
#
#
# Elastic Compliance Matrix: (Units=1/GPa)
#
#
# Indices 1 2 3 4 5 6 
#
# 1 0.006747 -0.002722 -0.002037 0.000000 -0.000679 0.000000
# 2 -0.002722 0.010616 -0.004427 0.000000 -0.000586 0.000000
# 3 -0.002037 -0.004427 0.022062 0.000000 0.004095 0.000000
# 4 0.000000 0.000000 0.000000 0.019018 0.000000 0.001020
# 5 -0.000679 -0.000586 0.004095 0.000000 0.020899 0.000000
# 6 0.000000 0.000000 0.000000 0.001020 0.000000 0.024895
#
#
# Mechanical properties :
#
#
# Convention : Reuss Voigt Hill
#
# Bulk Modulus (GPa) = 47.49678 65.39813 56.44745
# Shear Modulus (GPa) = 38.57288 44.63629 41.60458
#
# Velocity S-wave (km/s) = 3.77225 4.05792 3.91769
# Velocity P-wave (km/s) = 6.04112 6.78834 6.42560
#
# Compressibility (1/GPa) = 0.02105406
#
# Stress axis : x y z
#
# Youngs Moduli (GPa) = 148.21896 94.19654 45.32668
#
# Poissons Ratio (x) = 0.25637 0.09234
# Poissons Ratio (y) = 0.40340 0.20064
# Poissons Ratio (z) = 0.30195 0.41697
#
# Static dielectric constant tensor:
#      x y z
#    x 2.281730 0.000000 -0.027500 
#    y 0.000000 2.191680 0.000000 
#    z -0.027500 0.000000 2.201900 
# 
# From -- ./inp_files/21433.got.cif
#   From: 2010.05.17/outbox.cif.g08.bks.cpg/sg14_11_cif.got.tgz:21433.got - 2010.06.03 17:49:19.
