data_PCOD9239056
_publ_section_title
;
Structure prediction by ZEFSAII (Michael W. Deem and Ramdas Pophale) SiO2 
 PCOD9239056
Probable space group: P 2/C
;
_chemical_formula_sum "Si O2"
_cell_formula_units_Z 32
_cell_length_a 24.000000
_cell_length_b 9.000000
_cell_length_c 15.000000
_cell_angle_alpha 90.000000
_cell_angle_beta 30.000000
_cell_angle_gamma 90.000000
_cell_volume 1620.000000
_symmetry_space_group_name_H-M "P 2/C"
_symmetry_group_IT_number 13
_symmetry_cell_setting 'monoclinic'
loop_
_space_group_symop_operation_xyz
x,y,z
-x,y,1/2-z
-x,-y,-z
x,-y,1/2+z
loop_
_atom_site_type_symbol
_atom_site_label
_atom_site_fract_x
_atom_site_fract_y
_atom_site_fract_z
Si Si1 0.901917 0.077905 0.690065
Si Si2 0.173155 0.769042 0.633631
Si Si3 0.495693 0.171008 0.473575
Si Si4 0.052226 0.361943 0.481392
Si Si5 0.826178 0.451901 0.532967
Si Si6 0.566268 0.690190 0.248379
Si Si7 0.344037 0.627502 0.862536
Si Si8 0.283670 0.741189 0.149339
O O1 0.803345 0.130642 0.760032
O O2 0.961917 0.234620 0.634488
O O3 0.860025 0.946183 0.815793
O O4 0.000000 0.000000 0.500000
O O5 0.131595 0.705765 0.789618
O O6 0.132108 0.671599 0.601621
O O7 0.306838 0.749311 0.439951
O O8 0.478811 0.257392 0.592001
O O9 0.599433 0.237643 0.271887
O O10 0.393149 0.194872 0.546510
O O11 0.500000 0.000000 0.500000
O O12 0.100499 0.434293 0.506712
O O13 0.000000 0.500000 0.500000
O O14 0.750353 0.556339 0.572684
O O15 0.767472 0.361309 0.698261
O O16 0.500000 0.734366 0.250000
O O17 0.570720 0.510658 0.246535
O O18 0.308988 0.667311 0.014725
#
# Coordination Sequence:
#
# PCOD9239056 Si02
#       8
#     4   4   4   4   4   4   4   4
#     4  10  25  47  70 102 142 190 232 298 369 423
#     4  10  24  46  70 103 148 187 232 300 366 423
#     4  12  28  43  69 108 141 189 236 287 362 435
#     4  11  23  44  75 106 140 187 247 298 357 426
#     4  11  23  44  76 106 139 190 243 297 351 436
#     4  11  24  42  72 105 140 190 237 286 352 428
#     4  11  26  44  72 104 143 188 236 296 353 424
#     4  12  24  47  73 101 151 181 236 298 357 419
#
# _framework density 19.753086
#
# number of rings (size 3 to 8) (size 9 to 14) (size 15 to 20)
#    0.000    1.000    3.750    3.000    7.000    1.500 
#    0.000    1.250    0.000    0.000    0.000    0.000 
#    0.000    0.000    0.000    0.000    0.000    0.000 
#
# Total GULP energy -178186.541994 kJ/mol
# GULP energy per Si atom -5568.329437 kJ/mol
# Density = 1.970813 g / cm^3
# Si number density = 19.753086 Si / 1000 Ang^3
#
#
#
# Elastic Constant Matrix: (Units=GPa)
#
#
# Indices 1 2 3 4 5 6 
#
# 1 198.1389 57.0703 38.3213 0.0000 15.0906 0.0000
# 2 57.0703 147.1629 39.1145 0.0000 3.8255 0.0000
# 3 38.3213 39.1145 77.4888 0.0000 24.9873 0.0000
# 4 0.0000 0.0000 0.0000 52.7759 0.0000 7.2953
# 5 15.0906 3.8255 24.9873 0.0000 46.9893 0.0000
# 6 0.0000 0.0000 0.0000 7.2953 0.0000 47.8454
#
#
#
# Elastic Compliance Matrix: (Units=1/GPa)
#
#
# Indices 1 2 3 4 5 6 
#
# 1 0.005978 -0.001827 -0.001766 0.000000 -0.000832 0.000000
# 2 -0.001827 0.008531 -0.004065 0.000000 0.002054 0.000000
# 3 -0.001766 -0.004065 0.018757 0.000000 -0.009076 0.000000
# 4 0.000000 0.000000 0.000000 0.019356 0.000000 -0.002951
# 5 -0.000832 0.002054 -0.009076 0.000000 0.026208 0.000000
# 6 0.000000 0.000000 0.000000 -0.002951 0.000000 0.021351
#
#
# Mechanical properties :
#
#
# Convention : Reuss Voigt Hill
#
# Bulk Modulus (GPa) = 55.70954 76.86700 66.28827
# Shear Modulus (GPa) = 41.15919 48.74108 44.95013
#
# Velocity S-wave (km/s) = 4.56969 4.97280 4.77550
# Velocity P-wave (km/s) = 7.49046 8.48352 8.00241
#
# Compressibility (1/GPa) = 0.01795025
#
# Stress axis : x y z
#
# Youngs Moduli (GPa) = 167.27452 117.22160 53.31391
#
# Poissons Ratio (x) = 0.21422 0.09413
# Poissons Ratio (y) = 0.30568 0.21671
# Poissons Ratio (z) = 0.29535 0.47647
#
# Static dielectric constant tensor:
#      x y z
#    x 1.691950 0.000000 -0.037290 
#    y 0.000000 1.748130 0.000000 
#    z -0.037290 0.000000 1.761630 
# 
# From -- ./inp_files/58781.got.cif
#   From: 2010.05.17/outbox.ucp.g08.bks.cvg/sg13_30_cif.got.tgz:58781.got - 2010.06.11 12:23:55.
