data_PCOD9239164
_publ_section_title
;
Structure prediction by ZEFSAII (Michael W. Deem and Ramdas Pophale) SiO2 
 PCOD9239164
Probable space group: P 21/C
;
_chemical_formula_sum "Si O2"
_cell_formula_units_Z 30
_cell_length_a 18.469217
_cell_length_b 16.233893
_cell_length_c 10.313362
_cell_angle_alpha 90.000000
_cell_angle_beta 158.496710
_cell_angle_gamma 90.000000
_cell_volume 1133.470340
_symmetry_space_group_name_H-M "P 21/C"
_symmetry_group_IT_number 14
_symmetry_cell_setting 'monoclinic'
loop_
_space_group_symop_operation_xyz
x,y,z
-x,1/2+y,1/2-z
-x,-y,-z
x,1/2-y,1/2+z
loop_
_atom_site_type_symbol
_atom_site_label
_atom_site_fract_x
_atom_site_fract_y
_atom_site_fract_z
Si Si1 0.686786 0.473465 0.054669
Si Si2 0.500000 0.500000 0.000000
Si Si3 0.703370 0.165506 0.865835
Si Si4 0.809940 0.842321 0.828467
Si Si5 0.714362 0.223657 0.149582
Si Si6 0.813009 0.748443 0.080678
Si Si7 0.768865 0.079510 0.413065
Si Si8 0.060407 0.094094 0.335948
O O1 0.729296 0.570523 0.144480
O O2 0.657190 0.446575 0.858252
O O3 0.889864 0.429978 0.445419
O O4 0.523303 0.458284 0.890449
O O5 0.379037 0.576467 0.742042
O O6 0.642286 0.209963 0.631840
O O7 0.650018 0.224960 0.894937
O O8 0.937382 0.143305 0.239797
O O9 0.762048 0.771230 0.644743
O O10 0.740974 0.818811 0.860023
O O11 0.044085 0.863484 0.230333
O O12 0.667407 0.136188 0.137671
O O13 0.950510 0.236161 0.530236
O O14 0.788364 0.659497 0.970365
O O15 0.848847 0.994754 0.482782
#
# Coordination Sequence:
#
# PCOD9239164 Si02
#       8
#     4   2   4   4   4   4   4   4
#     4  10  18  35  56  76 104 153 196 232 284 343
#     4  10  24  40  62  72 110 158 202 250 288 328
#     4  10  22  39  58  89 117 153 198 242 289 339
#     4  10  18  29  52  81 113 146 181 217 288 346
#     4  10  21  33  61  90 115 149 193 239 290 347
#     4  10  16  28  48  86 116 142 170 225 283 351
#     4  10  17  31  59  86 113 147 184 237 292 356
#     4   9  16  29  56  83 117 144 178 229 284 350
#
# _framework density 26.467389000000001
#
# number of rings (size 3 to 8) (size 9 to 14) (size 15 to 20)
#    0.000    2.133    2.667    3.200    3.733    0.533 
#    0.000    4.667    0.000    0.000    0.000    0.000 
#    0.000    0.000    0.000    0.000    0.000    0.000 
#
# Total GULP energy -167209.299195 kJ/mol
# GULP energy per Si atom -5573.643306 kJ/mol
# Density = 2.640715 g / cm^3
# Si number density = 26.467389 Si / 1000 Ang^3
#
#
#
# Elastic Constant Matrix: (Units=GPa)
#
#
# Indices 1 2 3 4 5 6 
#
# 1 164.1908 32.8408 23.6818 0.0000 -38.8579 0.0000
# 2 32.8408 98.3044 18.8430 0.0000 -25.8579 0.0000
# 3 23.6818 18.8430 54.1052 0.0000 -5.6174 0.0000
# 4 0.0000 0.0000 0.0000 30.6143 0.0000 -9.0071
# 5 -38.8579 -25.8579 -5.6174 0.0000 29.4533 0.0000
# 6 0.0000 0.0000 0.0000 -9.0071 0.0000 53.2926
#
#
#
# Elastic Compliance Matrix: (Units=1/GPa)
#
#
# Indices 1 2 3 4 5 6 
#
# 1 0.009302 0.000716 -0.003042 0.000000 0.012321 0.000000
# 2 0.000716 0.013953 -0.003880 0.000000 0.012455 0.000000
# 3 -0.003042 -0.003880 0.020807 0.000000 -0.003451 0.000000
# 4 0.000000 0.000000 0.000000 0.034374 0.000000 0.005810
# 5 0.012321 0.012455 -0.003451 0.000000 0.060483 0.000000
# 6 0.000000 0.000000 0.000000 0.005810 0.000000 0.019746
#
#
# Mechanical properties :
#
#
# Convention : Reuss Voigt Hill
#
# Bulk Modulus (GPa) = 31.59430 51.92574 41.76002
# Shear Modulus (GPa) = 27.52923 38.75436 33.14180
#
# Velocity S-wave (km/s) = 3.22859 3.83068 3.54245
# Velocity P-wave (km/s) = 5.08540 6.26313 5.70474
#
# Compressibility (1/GPa) = 0.03165128
#
# Stress axis : x y z
#
# Youngs Moduli (GPa) = 107.50673 71.66944 48.06126
#
# Poissons Ratio (x) = -0.05134 0.14619
# Poissons Ratio (y) = -0.07702 0.18647
# Poissons Ratio (z) = 0.32700 0.27806
#
# Static dielectric constant tensor:
#      x y z
#    x 2.064620 0.000000 0.147980 
#    y 0.000000 2.088130 0.000000 
#    z 0.147980 0.000000 2.184720 
# 
# From -- ./inp_files/18136.got.cif
#   From: 2010.05.17/outbox.cif.g08.bks.cpg/sg14_10_cif.got.tgz:18136.got - 2010.06.03 17:49:19.
