data_PCOD9239282
_publ_section_title
;
Structure prediction by ZEFSAII (Michael W. Deem and Ramdas Pophale) SiO2 
 PCOD9239282
Probable space group: P 21/C
;
_chemical_formula_sum "Si O2"
_cell_formula_units_Z 20
_cell_length_a 15.275678
_cell_length_b 9.249619
_cell_length_c 11.895238
_cell_angle_alpha 90.000000
_cell_angle_beta 154.640952
_cell_angle_gamma 90.000000
_cell_volume 719.837998
_symmetry_space_group_name_H-M "P 21/C"
_symmetry_group_IT_number 14
_symmetry_cell_setting 'monoclinic'
loop_
_space_group_symop_operation_xyz
x,y,z
-x,1/2+y,1/2-z
-x,-y,-z
x,1/2-y,1/2+z
loop_
_atom_site_type_symbol
_atom_site_label
_atom_site_fract_x
_atom_site_fract_y
_atom_site_fract_z
Si Si1 0.060983 0.407127 0.679036
Si Si2 0.420513 0.510317 0.253460
Si Si3 0.852166 0.115959 0.260796
Si Si4 0.353562 0.690951 0.786955
Si Si5 0.758363 0.771030 0.291148
O O1 0.160776 0.261638 0.741763
O O2 0.000000 0.500000 0.500000
O O3 0.840530 0.396518 0.483255
O O4 0.244131 0.476026 0.960402
O O5 0.648045 0.463662 0.479694
O O6 0.408086 0.680379 0.263566
O O7 0.353755 0.411779 0.284659
O O8 0.750438 0.229472 0.228032
O O9 0.022634 0.212215 0.392819
O O10 0.000000 0.000000 0.500000
O O11 0.580668 0.649076 0.094156
#
# Coordination Sequence:
#
# PCOD9239282 Si02
#       5
#     4   4   4   4   4
#     4  11  28  44  60 102 145 170 220 282 328 399
#     4  11  22  40  73 101 125 185 224 265 349 395
#     4  10  16  36  68 103 125 161 231 284 310 400
#     4  10  21  41  70  95 128 177 226 271 333 402
#     4  10  21  43  69  97 135 169 223 283 324 401
#
# _framework density 27.784027999999999
#
# number of rings (size 3 to 8) (size 9 to 14) (size 15 to 20)
#    0.000    1.600    4.000    1.200    2.800    2.400 
#    7.200    0.000    0.000    0.000    0.000    0.000 
#    0.000    0.000    0.000    0.000    0.000    0.000 
#
# Total GULP energy -111355.106506 kJ/mol
# GULP energy per Si atom -5567.755325 kJ/mol
# Density = 2.772079 g / cm^3
# Si number density = 27.784028 Si / 1000 Ang^3
#
#
#
# Elastic Constant Matrix: (Units=GPa)
#
#
# Indices 1 2 3 4 5 6 
#
# 1 64.2890 17.6762 65.9796 0.0000 28.5490 0.0000
# 2 17.6762 75.2848 56.7470 0.0000 0.7866 0.0000
# 3 65.9796 56.7470 364.6006 0.0000 45.3790 0.0000
# 4 0.0000 0.0000 0.0000 54.1432 0.0000 12.4876
# 5 28.5490 0.7866 45.3790 0.0000 72.0054 0.0000
# 6 0.0000 0.0000 0.0000 12.4876 0.0000 32.8839
#
#
#
# Elastic Compliance Matrix: (Units=1/GPa)
#
#
# Indices 1 2 3 4 5 6 
#
# 1 0.022324 -0.003163 -0.002659 0.000000 -0.007141 0.000000
# 2 -0.003163 0.015632 -0.002165 0.000000 0.002448 0.000000
# 3 -0.002659 -0.002165 0.003718 0.000000 -0.001266 0.000000
# 4 0.000000 0.000000 0.000000 0.020242 0.000000 -0.007687
# 5 -0.007141 0.002448 -0.001266 0.000000 0.017490 0.000000
# 6 0.000000 0.000000 0.000000 -0.007687 0.000000 0.033329
#
#
# Mechanical properties :
#
#
# Convention : Reuss Voigt Hill
#
# Bulk Modulus (GPa) = 38.90925 87.22001 63.06463
# Shear Modulus (GPa) = 36.42265 56.05794 46.24029
#
# Velocity S-wave (km/s) = 3.62459 4.49668 4.08398
# Velocity P-wave (km/s) = 5.61707 7.64333 6.70716
#
# Compressibility (1/GPa) = 0.02570083
#
# Stress axis : x y z
#
# Youngs Moduli (GPa) = 44.79429 63.97114 268.93236
#
# Poissons Ratio (x) = 0.20233 0.71505
# Poissons Ratio (y) = 0.14168 0.58232
# Poissons Ratio (z) = 0.11910 0.13852
#
# Static dielectric constant tensor:
#      x y z
#    x 2.315190 0.000000 -0.088240 
#    y 0.000000 2.448710 0.000000 
#    z -0.088240 0.000000 2.384240 
# 
# From -- ./inp_files/48955.got.cif
#   From: 2010.05.17/outbox.cif.g08.bks.cpg/sg14_25_cif.got.tgz:48955.got - 2010.06.03 17:49:19.
