data_PCOD9239883
_publ_section_title
;
Structure prediction by ZEFSAII (Michael W. Deem and Ramdas Pophale) SiO2 
 PCOD9239883
Probable space group: P 21/C
;
_chemical_formula_sum "Si O2"
_cell_formula_units_Z 28
_cell_length_a 14.034971
_cell_length_b 6.932168
_cell_length_c 21.511635
_cell_angle_alpha 90.000000
_cell_angle_beta 30.313900
_cell_angle_gamma 90.000000
_cell_volume 1056.377691
_symmetry_space_group_name_H-M "P 21/C"
_symmetry_group_IT_number 14
_symmetry_cell_setting 'monoclinic'
loop_
_space_group_symop_operation_xyz
x,y,z
-x,1/2+y,1/2-z
-x,-y,-z
x,1/2-y,1/2+z
loop_
_atom_site_type_symbol
_atom_site_label
_atom_site_fract_x
_atom_site_fract_y
_atom_site_fract_z
Si Si1 0.062858 0.924769 0.341250
Si Si2 0.340841 0.987115 0.273599
Si Si3 0.860684 0.317544 0.465367
Si Si4 0.721745 0.863470 0.121503
Si Si5 0.150749 0.505523 0.663852
Si Si6 0.247941 0.103137 0.572483
Si Si7 0.515219 0.649019 0.852029
O O1 0.174354 0.861037 0.338807
O O2 0.017531 0.153163 0.376828
O O3 0.188201 0.893207 0.208514
O O4 0.860494 0.843684 0.431851
O O5 0.532542 0.885712 0.186113
O O6 0.258656 0.138919 0.370628
O O7 0.404157 0.136899 0.182281
O O8 0.873576 0.497226 0.504091
O O9 0.666636 0.204304 0.588351
O O10 0.828784 0.390095 0.412971
O O11 0.661765 0.949021 0.222998
O O12 0.920397 0.480909 0.800020
O O13 0.260284 0.304081 0.600293
O O14 0.432990 0.982271 0.452735
#
# Coordination Sequence:
#
# PCOD9239883 Si02
#       7
#     4   4   4   4   4   4   4
#     4   9  18  35  52  81 109 140 178 236 252 312
#     4   9  19  36  55  75 110 139 184 223 271 317
#     4  10  18  34  57  79 108 146 180 217 273 320
#     4   9  20  35  57  73 108 150 173 218 279 324
#     4  10  18  32  59  79 106 144 179 216 273 326
#     4   9  17  32  56  75 107 143 178 213 272 323
#     4   8  18  34  52  74 108 144 175 222 268 319
#
# _framework density 26.505669000000001
#
# number of rings (size 3 to 8) (size 9 to 14) (size 15 to 20)
#    1.714    1.143    1.429    0.000    2.000    0.571 
#    0.000    7.857    0.000    0.000    0.000    0.000 
#    0.000    0.000    0.000    0.000    0.000    0.000 
#
# Total GULP energy -156013.485195 kJ/mol
# GULP energy per Si atom -5571.910186 kJ/mol
# Density = 2.644534 g / cm^3
# Si number density = 26.505669 Si / 1000 Ang^3
#
#
#
# Elastic Constant Matrix: (Units=GPa)
#
#
# Indices 1 2 3 4 5 6 
#
# 1 60.0150 15.8977 19.3500 0.0000 -5.6727 0.0000
# 2 15.8977 89.0016 28.5133 0.0000 11.4746 0.0000
# 3 19.3500 28.5133 102.2140 0.0000 14.5299 0.0000
# 4 0.0000 0.0000 0.0000 39.2409 0.0000 2.4081
# 5 -5.6727 11.4746 14.5299 0.0000 27.0363 0.0000
# 6 0.0000 0.0000 0.0000 2.4081 0.0000 17.6284
#
#
#
# Elastic Compliance Matrix: (Units=1/GPa)
#
#
# Indices 1 2 3 4 5 6 
#
# 1 0.019468 -0.003211 -0.003859 0.000000 0.007521 0.000000
# 2 -0.003211 0.013213 -0.002366 0.000000 -0.005010 0.000000
# 3 -0.003859 -0.002366 0.012068 0.000000 -0.006291 0.000000
# 4 0.000000 0.000000 0.000000 0.025699 0.000000 -0.003511
# 5 0.007521 -0.005010 -0.006291 0.000000 0.044073 0.000000
# 6 0.000000 0.000000 0.000000 -0.003511 0.000000 0.057206
#
#
# Mechanical properties :
#
#
# Convention : Reuss Voigt Hill
#
# Bulk Modulus (GPa) = 38.64265 42.08364 40.36314
# Shear Modulus (GPa) = 25.09726 29.27911 27.18818
#
# Velocity S-wave (km/s) = 3.08045 3.32721 3.20621
# Velocity P-wave (km/s) = 5.22139 5.53824 5.38215
#
# Compressibility (1/GPa) = 0.02587814
#
# Stress axis : x y z
#
# Youngs Moduli (GPa) = 51.36589 75.68209 82.86221
#
# Poissons Ratio (x) = 0.24300 0.31976
# Poissons Ratio (y) = 0.16493 0.19604
# Poissons Ratio (z) = 0.19822 0.17905
#
# Static dielectric constant tensor:
#      x y z
#    x 2.094150 0.000000 0.017280 
#    y 0.000000 2.142760 0.000000 
#    z 0.017280 0.000000 2.205650 
# 
# From -- ./inp_files/68000.got.cif
#   From: 2010.05.17/outbox.cif.g08.bks.cpg/sg14_34_cif.got.tgz:68000.got - 2010.06.03 17:49:19.
