data_PCOD9239219
_publ_section_title
;
Structure prediction by ZEFSAII (Michael W. Deem and Ramdas Pophale) SiO2 
 PCOD9239219
Probable space group: P 21/C
;
_chemical_formula_sum "Si O2"
_cell_formula_units_Z 16
_cell_length_a 7.487402
_cell_length_b 5.147750
_cell_length_c 23.374695
_cell_angle_alpha 90.000000
_cell_angle_beta 130.930252
_cell_angle_gamma 90.000000
_cell_volume 680.665008
_symmetry_space_group_name_H-M "P 21/C"
_symmetry_group_IT_number 14
_symmetry_cell_setting 'monoclinic'
loop_
_space_group_symop_operation_xyz
x,y,z
-x,1/2+y,1/2-z
-x,-y,-z
x,1/2-y,1/2+z
loop_
_atom_site_type_symbol
_atom_site_label
_atom_site_fract_x
_atom_site_fract_y
_atom_site_fract_z
Si Si1 0.683647 0.564130 0.163476
Si Si2 0.667490 0.855247 0.781707
Si Si3 0.191028 0.328187 0.072307
Si Si4 0.437289 0.567418 0.422397
O O1 0.798141 0.568383 0.250072
O O2 0.705820 0.329375 0.123291
O O3 0.700041 0.831215 0.134623
O O4 0.411309 0.524075 0.125612
O O5 0.511699 0.591245 0.739391
O O6 0.840324 0.795143 0.871565
O O7 0.308851 0.111994 0.055944
O O8 0.000000 0.500000 0.000000
O O9 0.500000 0.500000 0.500000
#
# Coordination Sequence:
#
# PCOD9239219 Si02
#       4
#     4   4   4   4
#     4   9  18  32  52  74 104 141 186 219 276 335
#     4  10  16  32  49  75 106 140 180 223 278 342
#     4   9  20  31  52  83 113 134 182 241 288 315
#     4  10  19  32  51  76 106 141 186 222 274 344
#
# _framework density 23.506425
#
# number of rings (size 3 to 8) (size 9 to 14) (size 15 to 20)
#    1.500    1.000    2.500    0.750    0.000    1.000 
#    0.000    0.000    0.000    0.000    6.500    0.000 
#    0.000    0.000    0.000    0.000    0.000    0.250 
#
# Total GULP energy -89122.971411 kJ/mol
# GULP energy per Si atom -5570.185713 kJ/mol
# Density = 2.345292 g / cm^3
# Si number density = 23.506425 Si / 1000 Ang^3
#
#
#
# Elastic Constant Matrix: (Units=GPa)
#
#
# Indices 1 2 3 4 5 6 
#
# 1 48.7993 31.9781 75.5094 0.0000 -19.3060 0.0000
# 2 31.9781 168.0115 65.1709 0.0000 -25.0560 0.0000
# 3 75.5094 65.1709 192.2445 0.0000 -53.2178 0.0000
# 4 0.0000 0.0000 0.0000 41.6876 0.0000 -14.5257
# 5 -19.3060 -25.0560 -53.2178 0.0000 45.5692 0.0000
# 6 0.0000 0.0000 0.0000 -14.5257 0.0000 16.0917
#
#
#
# Elastic Compliance Matrix: (Units=1/GPa)
#
#
# Indices 1 2 3 4 5 6 
#
# 1 0.053353 -0.002493 -0.021032 0.000000 -0.003330 0.000000
# 2 -0.002493 0.007045 -0.000930 0.000000 0.001732 0.000000
# 3 -0.021032 -0.000930 0.016506 0.000000 0.009855 0.000000
# 4 0.000000 0.000000 0.000000 0.034995 0.000000 0.031589
# 5 -0.003330 0.001732 0.009855 0.000000 0.032995 0.000000
# 6 0.000000 0.000000 0.000000 0.031589 0.000000 0.090659
#
#
# Mechanical properties :
#
#
# Convention : Reuss Voigt Hill
#
# Bulk Modulus (GPa) = 35.72231 83.81911 59.77071
# Shear Modulus (GPa) = 17.01871 36.42950 26.72410
#
# Velocity S-wave (km/s) = 2.69365 3.94098 3.37543
# Velocity P-wave (km/s) = 4.99040 7.51291 6.37761
#
# Compressibility (1/GPa) = 0.02799371
#
# Stress axis : x y z
#
# Youngs Moduli (GPa) = 18.74316 141.93653 60.58419
#
# Poissons Ratio (x) = 0.35384 1.27423
# Poissons Ratio (y) = 0.04673 0.05633
# Poissons Ratio (z) = 0.39421 0.13197
#
# Static dielectric constant tensor:
#      x y z
#    x 1.962740 0.000000 -0.025070 
#    y 0.000000 1.892180 0.000000 
#    z -0.025070 0.000000 1.976740 
# 
# From -- ./inp_files/71497.got.cif
#   From: 2010.05.17/outbox.cif.g08.bks.cpg/sg14_36_cif.got.tgz:71497.got - 2010.06.03 17:49:19.
