data_PCOD9239314
_publ_section_title
;
Structure prediction by ZEFSAII (Michael W. Deem and Ramdas Pophale) SiO2 
 PCOD9239314
Probable space group: P 21/C
;
_chemical_formula_sum "Si O2"
_cell_formula_units_Z 32
_cell_length_a 6.930557
_cell_length_b 9.591415
_cell_length_c 19.991388
_cell_angle_alpha 90.000000
_cell_angle_beta 67.229114
_cell_angle_gamma 90.000000
_cell_volume 1225.329602
_symmetry_space_group_name_H-M "P 21/C"
_symmetry_group_IT_number 14
_symmetry_cell_setting 'monoclinic'
loop_
_space_group_symop_operation_xyz
x,y,z
-x,1/2+y,1/2-z
-x,-y,-z
x,1/2-y,1/2+z
loop_
_atom_site_type_symbol
_atom_site_label
_atom_site_fract_x
_atom_site_fract_y
_atom_site_fract_z
Si Si1 0.580695 0.811927 0.039919
Si Si2 0.188245 0.798506 0.923131
Si Si3 0.674088 0.426501 0.276021
Si Si4 0.808832 0.503645 0.698793
Si Si5 0.380761 0.620789 0.153595
Si Si6 0.839784 0.489824 0.116807
Si Si7 0.980891 0.715214 0.581214
Si Si8 0.376651 0.108713 0.106919
O O1 0.416430 0.686034 0.073994
O O2 0.765010 0.803190 0.068840
O O3 0.471016 0.958988 0.070503
O O4 0.681508 0.814610 0.953199
O O5 0.124591 0.888367 0.866765
O O6 0.101165 0.642196 0.935420
O O7 0.439748 0.797202 0.886561
O O8 0.138857 0.851387 0.005489
O O9 0.436127 0.468920 0.288122
O O10 0.649068 0.269695 0.305178
O O11 0.819223 0.426769 0.192798
O O12 0.758265 0.549223 0.314217
O O13 0.783901 0.470437 0.781128
O O14 0.946304 0.635341 0.655728
O O15 0.605118 0.544849 0.132732
O O16 0.991138 0.621045 0.094328
#
# Coordination Sequence:
#
# PCOD9239314 Si02
#       8
#     4   4   4   4   4   4   4   4
#     4   9  17  33  51  78 103 134 168 214 259 307
#     4  11  20  31  50  77 103 136 170 210 258 307
#     4   9  15  29  49  75  99 126 174 218 252 296
#     4  10  17  28  48  73  98 129 170 215 250 295
#     4   9  16  29  49  73 101 128 168 221 255 293
#     4  10  19  30  49  76 104 133 168 220 264 295
#     4  11  20  33  48  76 109 134 169 213 262 309
#     4   9  18  31  53  78 101 134 174 208 257 314
#
# _framework density 26.115421999999999
#
# number of rings (size 3 to 8) (size 9 to 14) (size 15 to 20)
#    0.000    2.250    6.250    0.750    0.000    0.000 
#    0.000    2.500    0.000    1.500    0.000    0.000 
#    0.000    0.000    0.000    0.000    0.000    0.000 
#
# Total GULP energy -178470.261459 kJ/mol
# GULP energy per Si atom -5577.195671 kJ/mol
# Density = 2.605598 g / cm^3
# Si number density = 26.115422 Si / 1000 Ang^3
#
#
#
# Elastic Constant Matrix: (Units=GPa)
#
#
# Indices 1 2 3 4 5 6 
#
# 1 56.4743 18.6714 -3.5318 0.0000 -14.0998 0.0000
# 2 18.6714 95.6072 10.1942 0.0000 1.3109 0.0000
# 3 -3.5318 10.1942 98.4583 0.0000 -13.7111 0.0000
# 4 0.0000 0.0000 0.0000 39.9762 0.0000 -1.0153
# 5 -14.0998 1.3109 -13.7111 0.0000 25.4124 0.0000
# 6 0.0000 0.0000 0.0000 -1.0153 0.0000 10.1596
#
#
#
# Elastic Compliance Matrix: (Units=1/GPa)
#
#
# Indices 1 2 3 4 5 6 
#
# 1 0.023404 -0.005149 0.003479 0.000000 0.015129 0.000000
# 2 -0.005149 0.011745 -0.002036 0.000000 -0.004561 0.000000
# 3 0.003479 -0.002036 0.011651 0.000000 0.008322 0.000000
# 4 0.000000 0.000000 0.000000 0.025079 0.000000 0.002506
# 5 0.015129 -0.004561 0.008322 0.000000 0.052470 0.000000
# 6 0.000000 0.000000 0.000000 0.002506 0.000000 0.098679
#
#
# Mechanical properties :
#
#
# Convention : Reuss Voigt Hill
#
# Bulk Modulus (GPa) = 25.38795 33.46749 29.42772
# Shear Modulus (GPa) = 20.52810 30.12336 25.32573
#
# Velocity S-wave (km/s) = 2.80670 3.39996 3.11748
# Velocity P-wave (km/s) = 4.49956 5.31564 4.92453
#
# Compressibility (1/GPa) = 0.03938876
#
# Stress axis : x y z
#
# Youngs Moduli (GPa) = 42.72729 85.14499 85.82912
#
# Poissons Ratio (x) = 0.43842 -0.29864
# Poissons Ratio (y) = 0.22001 0.17474
# Poissons Ratio (z) = -0.14867 0.17335
#
# Static dielectric constant tensor:
#      x y z
#    x 2.182180 0.000000 0.024030 
#    y 0.000000 2.060730 0.000000 
#    z 0.024030 0.000000 2.085550 
# 
# From -- ./inp_files/72981.got.cif
#   From: 2010.05.17/outbox.cif.g08.bks.cpg/sg14_37_cif.got.tgz:72981.got - 2010.06.03 17:49:19.
