data_PCOD9239600
_publ_section_title
;
Structure prediction by ZEFSAII (Michael W. Deem and Ramdas Pophale) SiO2 
 PCOD9239600
Probable space group: P 21/C
;
_chemical_formula_sum "Si O2"
_cell_formula_units_Z 28
_cell_length_a 18.433629
_cell_length_b 10.866751
_cell_length_c 16.958055
_cell_angle_alpha 90.000000
_cell_angle_beta 24.541407
_cell_angle_gamma 90.000000
_cell_volume 1410.917434
_symmetry_space_group_name_H-M "P 21/C"
_symmetry_group_IT_number 14
_symmetry_cell_setting 'monoclinic'
loop_
_space_group_symop_operation_xyz
x,y,z
-x,1/2+y,1/2-z
-x,-y,-z
x,1/2-y,1/2+z
loop_
_atom_site_type_symbol
_atom_site_label
_atom_site_fract_x
_atom_site_fract_y
_atom_site_fract_z
Si Si1 0.876224 0.169187 0.466130
Si Si2 0.856500 0.817230 0.371765
Si Si3 0.111367 0.626304 0.878316
Si Si4 0.702193 0.078402 0.484292
Si Si5 0.998228 0.888593 0.938665
Si Si6 0.696725 0.585122 0.607072
Si Si7 0.860757 0.061343 0.813329
O O1 0.791084 0.151732 0.635616
O O2 0.752052 0.157776 0.513143
O O3 0.005598 0.285625 0.333674
O O4 0.017157 0.059175 0.316428
O O5 0.733329 0.706041 0.518025
O O6 0.992910 0.839470 0.307948
O O7 0.750749 0.938914 0.459232
O O8 0.217985 0.599617 0.692596
O O9 0.997688 0.750508 0.976240
O O10 0.000000 0.500000 0.000000
O O11 0.498755 0.087761 0.668583
O O12 0.826385 0.108537 0.288224
O O13 0.837962 0.912398 0.037191
O O14 0.000000 0.000000 0.000000
O O15 0.732978 0.471228 0.511411
#
# Coordination Sequence:
#
# PCOD9239600 Si02
#       7
#     4   4   4   4   4   4   4
#     4   9  18  34  60  90 119 165 216 261 319 387
#     4  10  17  38  62  88 128 175 220 268 333 395
#     4  10  20  36  68  94 126 174 221 267 329 393
#     4  11  23  40  67  98 126 177 227 269 336 400
#     4  12  24  43  68  96 136 177 217 281 343 393
#     4  11  23  40  67  97 133 173 227 279 330 407
#     4   9  17  35  61  88 120 170 214 263 325 384
#
# _framework density 19.845244000000001
#
# number of rings (size 3 to 8) (size 9 to 14) (size 15 to 20)
#    0.000    1.714    5.714    0.857    0.000    2.857 
#    0.000    0.714    6.286    0.000    0.000    0.000 
#    0.000    0.000    0.000    0.000    0.000    0.000 
#
# Total GULP energy -155962.176501 kJ/mol
# GULP energy per Si atom -5570.077732 kJ/mol
# Density = 1.980008 g / cm^3
# Si number density = 19.845244 Si / 1000 Ang^3
#
#
#
# Elastic Constant Matrix: (Units=GPa)
#
#
# Indices 1 2 3 4 5 6 
#
# 1 83.3844 25.5921 56.7056 0.0000 20.6828 0.0000
# 2 25.5921 107.3288 28.7324 0.0000 0.6318 0.0000
# 3 56.7056 28.7324 112.6853 0.0000 -8.3969 0.0000
# 4 0.0000 0.0000 0.0000 19.8118 0.0000 5.5039
# 5 20.6828 0.6318 -8.3969 0.0000 23.1839 0.0000
# 6 0.0000 0.0000 0.0000 5.5039 0.0000 21.1723
#
#
#
# Elastic Compliance Matrix: (Units=1/GPa)
#
#
# Indices 1 2 3 4 5 6 
#
# 1 0.037465 -0.003034 -0.021134 0.000000 -0.040995 0.000000
# 2 -0.003034 0.010280 -0.000939 0.000000 0.002087 0.000000
# 3 -0.021134 -0.000939 0.021742 0.000000 0.026755 0.000000
# 4 0.000000 0.000000 0.000000 0.054404 0.000000 -0.014143
# 5 -0.040995 0.002087 0.026755 0.000000 0.089339 0.000000
# 6 0.000000 0.000000 0.000000 -0.014143 0.000000 0.050908
#
#
# Mechanical properties :
#
#
# Convention : Reuss Voigt Hill
#
# Bulk Modulus (GPa) = 51.88722 58.38431 55.13576
# Shear Modulus (GPa) = 15.58719 25.65816 20.62268
#
# Velocity S-wave (km/s) = 2.80561 3.59961 3.22712
# Velocity P-wave (km/s) = 6.05788 6.83812 6.45979
#
# Compressibility (1/GPa) = 0.01927257
#
# Stress axis : x y z
#
# Youngs Moduli (GPa) = 26.69185 97.27927 45.99309
#
# Poissons Ratio (x) = 0.29517 0.97202
# Poissons Ratio (y) = 0.08099 0.04317
# Poissons Ratio (z) = 0.56411 0.09131
#
# Static dielectric constant tensor:
#      x y z
#    x 1.733400 0.000000 0.061030 
#    y 0.000000 1.798340 0.000000 
#    z 0.061030 0.000000 1.675420 
# 
# From -- ./inp_files/61243.got.cif
#   From: 2010.05.17/outbox.cif.g08.bks.cpg/sg14_31_cif.got.tgz:61243.got - 2010.06.03 17:49:19.
