data_PCOD9239071
_publ_section_title
;
Structure prediction by ZEFSAII (Michael W. Deem and Ramdas Pophale) SiO2 
 PCOD9239071
Probable space group: P 2/C
;
_chemical_formula_sum "Si O2"
_cell_formula_units_Z 28
_cell_length_a 30.000000
_cell_length_b 9.000000
_cell_length_c 30.000000
_cell_angle_alpha 90.000000
_cell_angle_beta 10.000000
_cell_angle_gamma 90.000000
_cell_volume 1406.550239
_symmetry_space_group_name_H-M "P 2/C"
_symmetry_group_IT_number 13
_symmetry_cell_setting 'monoclinic'
loop_
_space_group_symop_operation_xyz
x,y,z
-x,y,1/2-z
-x,-y,-z
x,-y,1/2+z
loop_
_atom_site_type_symbol
_atom_site_label
_atom_site_fract_x
_atom_site_fract_y
_atom_site_fract_z
Si Si1 0.265276 0.034419 0.764294
Si Si2 0.069685 0.596504 0.732117
Si Si3 0.431154 0.225122 0.737960
Si Si4 0.344474 0.899150 0.786615
Si Si5 0.931073 0.504274 0.120030
Si Si6 0.574348 0.662665 0.354760
Si Si7 0.149057 0.304063 0.718215
O O1 0.289558 0.209242 0.750802
O O2 0.500000 0.000000 0.500000
O O3 0.296043 0.953062 0.782448
O O4 0.000000 0.000000 0.000000
O O5 0.318666 0.706662 0.483665
O O6 0.128953 0.452821 0.706216
O O7 0.000000 0.548893 0.750000
O O8 0.827698 0.690826 0.990443
O O9 0.494882 0.271150 0.624540
O O10 0.385842 0.046930 0.776855
O O11 0.594276 0.792638 0.542662
O O12 0.097570 0.802873 0.044618
O O13 0.685295 0.396728 0.367605
O O14 0.850411 0.643684 0.230144
O O15 0.204278 0.457209 0.871872
O O16 0.000000 0.500000 0.000000
#
# Coordination Sequence:
#
# PCOD9239071 Si02
#       7
#     4   4   4   4   4   4   4
#     4  11  24  39  61  89 131 177 236 279 319 392
#     4  12  25  46  77 103 130 175 224 280 346 421
#     4  11  22  48  70  98 133 174 227 271 341 409
#     4  11  26  42  70  96 136 186 216 284 352 390
#     4  12  25  38  64  93 138 181 227 276 328 390
#     4  11  22  42  61  90 127 181 226 279 317 387
#     4  12  24  45  68 102 142 176 228 280 343 409
#
# _framework density 19.906860999999999
#
# number of rings (size 3 to 8) (size 9 to 14) (size 15 to 20)
#    0.000    0.571    2.857    5.143    6.000    4.571 
#    0.000    4.286    0.000    0.000    0.000    0.000 
#    0.000    0.000    0.000    0.000    0.000    0.000 
#
# Total GULP energy -156414.915166 kJ/mol
# GULP energy per Si atom -5586.246970 kJ/mol
# Density = 1.986155 g / cm^3
# Si number density = 19.906861 Si / 1000 Ang^3
#
#
#
# Elastic Constant Matrix: (Units=GPa)
#
#
# Indices 1 2 3 4 5 6 
#
# 1 77.7191 41.0483 30.1288 0.0000 -8.6034 0.0000
# 2 41.0483 116.0450 54.1799 0.0000 3.0781 0.0000
# 3 30.1288 54.1799 162.8973 0.0000 -3.4946 0.0000
# 4 0.0000 0.0000 0.0000 47.4606 0.0000 -1.9008
# 5 -8.6034 3.0781 -3.4946 0.0000 31.9372 0.0000
# 6 0.0000 0.0000 0.0000 -1.9008 0.0000 25.3289
#
#
#
# Elastic Compliance Matrix: (Units=1/GPa)
#
#
# Indices 1 2 3 4 5 6 
#
# 1 0.016780 -0.005524 -0.001160 0.000000 0.004926 0.000000
# 2 -0.005524 0.012079 -0.003060 0.000000 -0.002987 0.000000
# 3 -0.001160 -0.003060 0.007388 0.000000 0.000791 0.000000
# 4 0.000000 0.000000 0.000000 0.021134 0.000000 0.001586
# 5 0.004926 -0.002987 0.000791 0.000000 0.033013 0.000000
# 6 0.000000 0.000000 0.000000 0.001586 0.000000 0.039600
#
#
# Mechanical properties :
#
#
# Convention : Reuss Voigt Hill
#
# Bulk Modulus (GPa) = 59.67356 67.48615 63.57986
# Shear Modulus (GPa) = 32.24383 36.36564 34.30473
#
# Velocity S-wave (km/s) = 4.02896 4.27873 4.15572
# Velocity P-wave (km/s) = 7.18921 7.64098 7.41854
#
# Compressibility (1/GPa) = 0.01675784
#
# Stress axis : x y z
#
# Youngs Moduli (GPa) = 59.59585 82.78611 135.35155
#
# Poissons Ratio (x) = 0.45733 0.15707
# Poissons Ratio (y) = 0.32923 0.41417
# Poissons Ratio (z) = 0.06916 0.25332
#
# Static dielectric constant tensor:
#      x y z
#    x 1.559390 0.000000 -0.061510 
#    y 0.000000 1.737860 0.000000 
#    z -0.061510 0.000000 1.677790 
# 
# From -- ./inp_files/98025.got.cif
#   From: 2010.05.17/outbox.ucp.g08.bks.cvg/sg13_50_cif.got.tgz:98025.got - 2010.06.11 12:23:55.
