data_PCOD9239538
_publ_section_title
;
Structure prediction by ZEFSAII (Michael W. Deem and Ramdas Pophale) SiO2 
 PCOD9239538
Probable space group: P 21/C
;
_chemical_formula_sum "Si O2"
_cell_formula_units_Z 28
_cell_length_a 15.874133
_cell_length_b 8.483057
_cell_length_c 21.885203
_cell_angle_alpha 90.000000
_cell_angle_beta 152.812908
_cell_angle_gamma 90.000000
_cell_volume 1346.516874
_symmetry_space_group_name_H-M "P 21/C"
_symmetry_group_IT_number 14
_symmetry_cell_setting 'monoclinic'
loop_
_space_group_symop_operation_xyz
x,y,z
-x,1/2+y,1/2-z
-x,-y,-z
x,1/2-y,1/2+z
loop_
_atom_site_type_symbol
_atom_site_label
_atom_site_fract_x
_atom_site_fract_y
_atom_site_fract_z
Si Si1 0.889650 0.879534 0.054709
Si Si2 0.337625 0.553374 0.490786
Si Si3 0.812611 0.166700 0.936332
Si Si4 0.728639 0.064929 0.289714
Si Si5 0.770960 0.369071 0.020049
Si Si6 0.615209 0.885877 0.333866
Si Si7 0.100959 0.577946 0.225076
O O1 0.048092 0.761462 0.180113
O O2 0.818336 0.976879 0.066702
O O3 0.720931 0.767367 0.924855
O O4 0.918188 0.002556 0.017042
O O5 0.524122 0.460110 0.628694
O O6 0.327078 0.740060 0.501084
O O7 0.274421 0.545864 0.380057
O O8 0.791493 0.267289 0.860319
O O9 0.598260 0.137517 0.816443
O O10 0.874277 0.277645 0.031681
O O11 0.861391 0.024204 0.319874
O O12 0.720651 0.948715 0.342308
O O13 0.928093 0.488463 0.144754
O O14 0.625749 0.481990 0.892947
#
# Coordination Sequence:
#
# PCOD9239538 Si02
#       7
#     4   4   4   4   4   4   4
#     4  10  20  35  63  86 114 156 194 248 288 344
#     4  11  20  40  61  80 115 164 202 225 280 370
#     4  10  18  35  61  86 110 145 199 238 293 349
#     4  11  22  36  61  87 117 149 193 254 297 338
#     4   9  20  34  60  83 110 151 194 234 286 346
#     4  10  17  35  62  88 107 143 201 248 288 345
#     4  11  24  37  54  90 123 151 191 243 299 343
#
# _framework density 20.794391000000001
#
# number of rings (size 3 to 8) (size 9 to 14) (size 15 to 20)
#    0.000    1.714    4.286    2.143    0.000    5.714 
#    0.000    1.429    0.000    0.857    0.000    0.000 
#    0.000    0.000    0.000    0.000    0.000    0.000 
#
# Total GULP energy -155934.447143 kJ/mol
# GULP energy per Si atom -5569.087398 kJ/mol
# Density = 2.074706 g / cm^3
# Si number density = 20.794391 Si / 1000 Ang^3
#
#
#
# Elastic Constant Matrix: (Units=GPa)
#
#
# Indices 1 2 3 4 5 6 
#
# 1 50.3868 6.3286 -1.2039 0.0000 -11.0140 0.0000
# 2 6.3286 89.9977 22.0298 0.0000 -9.5042 0.0000
# 3 -1.2039 22.0298 66.7891 0.0000 -18.3597 0.0000
# 4 0.0000 0.0000 0.0000 11.7183 0.0000 4.5420
# 5 -11.0140 -9.5042 -18.3597 0.0000 23.8653 0.0000
# 6 0.0000 0.0000 0.0000 4.5420 0.0000 17.5915
#
#
#
# Elastic Compliance Matrix: (Units=1/GPa)
#
#
# Indices 1 2 3 4 5 6 
#
# 1 0.023115 -0.001308 0.004613 0.000000 0.013695 0.000000
# 2 -0.001308 0.012254 -0.003665 0.000000 0.001457 0.000000
# 3 0.004613 -0.003665 0.020860 0.000000 0.016717 0.000000
# 4 0.000000 0.000000 0.000000 0.094826 0.000000 -0.024483
# 5 0.013695 0.001457 0.016717 0.000000 0.061663 0.000000
# 6 0.000000 0.000000 0.000000 -0.024483 0.000000 0.063167
#
#
# Mechanical properties :
#
#
# Convention : Reuss Voigt Hill
#
# Bulk Modulus (GPa) = 18.01548 29.05364 23.53456
# Shear Modulus (GPa) = 16.94290 22.63630 19.78960
#
# Velocity S-wave (km/s) = 2.85754 3.30294 3.08828
# Velocity P-wave (km/s) = 4.42377 5.34304 4.90499
#
# Compressibility (1/GPa) = 0.05550782
#
# Stress axis : x y z
#
# Youngs Moduli (GPa) = 43.26264 81.60336 47.93898
#
# Poissons Ratio (x) = 0.10676 -0.22114
# Poissons Ratio (y) = 0.05660 0.17570
# Poissons Ratio (z) = -0.19957 0.29909
#
# Static dielectric constant tensor:
#      x y z
#    x 1.751500 0.000000 -0.023920 
#    y 0.000000 1.816510 0.000000 
#    z -0.023920 0.000000 1.758640 
# 
# From -- ./inp_files/68366.got.cif
#   From: 2010.05.17/outbox.cif.g08.bks.cpg/sg14_35_cif.got.tgz:68366.got - 2010.06.03 17:49:19.
