data_PCOD9239053
_publ_section_title
;
Structure prediction by ZEFSAII (Michael W. Deem and Ramdas Pophale) SiO2 
 PCOD9239053
Probable space group: P 2/C
;
_chemical_formula_sum "Si O2"
_cell_formula_units_Z 20
_cell_length_a 9.000000
_cell_length_b 12.000000
_cell_length_c 18.000000
_cell_angle_alpha 90.000000
_cell_angle_beta 150.000000
_cell_angle_gamma 90.000000
_cell_volume 972.000000
_symmetry_space_group_name_H-M "P 2/C"
_symmetry_group_IT_number 13
_symmetry_cell_setting 'monoclinic'
loop_
_space_group_symop_operation_xyz
x,y,z
-x,y,1/2-z
-x,-y,-z
x,-y,1/2+z
loop_
_atom_site_type_symbol
_atom_site_label
_atom_site_fract_x
_atom_site_fract_y
_atom_site_fract_z
Si Si1 0.297728 0.774488 0.511469
Si Si2 0.469304 0.117602 0.945355
Si Si3 0.172762 0.613648 0.574193
Si Si4 0.787412 0.063864 0.825952
Si Si5 0.075353 0.186126 0.139934
O O1 0.299517 0.798155 0.425566
O O2 0.191640 0.658013 0.498199
O O3 0.631661 0.790308 0.685367
O O4 0.087295 0.865445 0.459109
O O5 0.313860 0.086778 0.801860
O O6 0.787854 0.169298 0.065299
O O7 0.500000 0.000000 0.000000
O O8 0.500000 0.598222 0.750000
O O9 0.035743 0.713050 0.565069
O O10 0.000000 0.500000 0.500000
O O11 0.500000 0.095635 0.750000
O O12 0.865368 0.934762 0.870414
#
# Coordination Sequence:
#
# PCOD9239053 Si02
#       5
#     4   4   4   4   4
#     4  11  23  39  63  95 130 172 212 265 328 384
#     4  12  23  37  62  99 140 167 206 257 326 401
#     4  10  24  45  67  90 124 173 230 277 317 376
#     4  12  23  37  60  98 136 174 209 259 327 404
#     4  11  22  39  63  92 131 171 211 264 326 393
#
# _framework density 20.576132000000001
#
# number of rings (size 3 to 8) (size 9 to 14) (size 15 to 20)
#    0.000    0.800    4.000    4.200    0.000    4.800 
#    0.000    1.000    0.000    2.400    0.000    0.000 
#    0.000    0.000    0.000    0.000    0.000    0.000 
#
# Total GULP energy -111758.681028 kJ/mol
# GULP energy per Si atom -5587.934051 kJ/mol
# Density = 2.052930 g / cm^3
# Si number density = 20.576132 Si / 1000 Ang^3
#
#
#
# Elastic Constant Matrix: (Units=GPa)
#
#
# Indices 1 2 3 4 5 6 
#
# 1 174.5411 81.2743 78.2799 0.0000 -0.7125 0.0000
# 2 81.2743 138.2550 58.4144 0.0000 4.8504 0.0000
# 3 78.2799 58.4144 50.2618 0.0000 0.3555 0.0000
# 4 0.0000 0.0000 0.0000 30.3872 0.0000 14.5007
# 5 -0.7125 4.8504 0.3555 0.0000 41.7390 0.0000
# 6 0.0000 0.0000 0.0000 14.5007 0.0000 33.1309
#
#
#
# Elastic Compliance Matrix: (Units=1/GPa)
#
#
# Indices 1 2 3 4 5 6 
#
# 1 0.019502 0.002670 -0.033478 0.000000 0.000308 0.000000
# 2 0.002670 0.014673 -0.021200 0.000000 -0.001479 0.000000
# 3 -0.033478 -0.021200 0.096668 0.000000 0.001069 0.000000
# 4 0.000000 0.000000 0.000000 0.041596 0.000000 -0.018206
# 5 0.000308 -0.001479 0.001069 0.000000 0.024126 0.000000
# 6 0.000000 0.000000 0.000000 -0.018206 0.000000 0.038152
#
#
# Mechanical properties :
#
#
# Convention : Reuss Voigt Hill
#
# Bulk Modulus (GPa) = 37.27863 88.77724 63.02793
# Shear Modulus (GPa) = 14.38115 30.72403 22.55259
#
# Velocity S-wave (km/s) = 2.64658 3.86837 3.31426
# Velocity P-wave (km/s) = 5.24366 7.94933 6.73379
#
# Compressibility (1/GPa) = 0.02682502
#
# Stress axis : x y z
#
# Youngs Moduli (GPa) = 51.27644 68.15295 10.34468
#
# Poissons Ratio (x) = -0.18195 0.34632
# Poissons Ratio (y) = -0.13690 0.21931
# Poissons Ratio (z) = 1.71665 1.44487
#
# Static dielectric constant tensor:
#      x y z
#    x 1.765410 0.000000 -0.038580 
#    y 0.000000 1.707760 0.000000 
#    z -0.038580 0.000000 1.439800 
# 
# From -- ./inp_files/16007.got.cif
#   From: 2010.05.17/outbox.ucp.g08.bks.cvg/sg13_9_cif.got.tgz:16007.got - 2010.06.11 12:23:55.
