data_PCOD9239507
_publ_section_title
;
Structure prediction by ZEFSAII (Michael W. Deem and Ramdas Pophale) SiO2 
 PCOD9239507
Probable space group: P 21/C
;
_chemical_formula_sum "Si O2"
_cell_formula_units_Z 28
_cell_length_a 8.568491
_cell_length_b 9.509984
_cell_length_c 13.961527
_cell_angle_alpha 90.000000
_cell_angle_beta 94.333809
_cell_angle_gamma 90.000000
_cell_volume 1134.419027
_symmetry_space_group_name_H-M "P 21/C"
_symmetry_group_IT_number 14
_symmetry_cell_setting 'monoclinic'
loop_
_space_group_symop_operation_xyz
x,y,z
-x,1/2+y,1/2-z
-x,-y,-z
x,1/2-y,1/2+z
loop_
_atom_site_type_symbol
_atom_site_label
_atom_site_fract_x
_atom_site_fract_y
_atom_site_fract_z
Si Si1 0.495097 0.810348 0.704886
Si Si2 0.557772 0.924583 0.405118
Si Si3 0.837745 0.869488 0.713404
Si Si4 0.559505 0.158788 0.003813
Si Si5 0.845210 0.200353 0.772141
Si Si6 0.873639 0.881868 0.490611
Si Si7 0.088262 0.644854 0.502505
O O1 0.677796 0.795882 0.746543
O O2 0.476044 0.727098 0.602229
O O3 0.329860 0.767121 0.747764
O O4 0.495790 0.979361 0.684532
O O5 0.518271 0.762720 0.422851
O O6 0.741623 0.937564 0.416369
O O7 0.500000 0.000000 0.500000
O O8 0.816814 0.854719 0.596482
O O9 0.002736 0.795021 0.749309
O O10 0.847532 0.038325 0.734205
O O11 0.743221 0.152824 0.037090
O O12 0.500000 0.000000 0.000000
O O13 0.873013 0.188289 0.887330
O O14 0.960372 0.748122 0.454929
O O15 0.000000 0.000000 0.500000
O O16 0.000000 0.500000 0.500000
#
# Coordination Sequence:
#
# PCOD9239507 Si02
#       7
#     4   4   4   4   4   4   4
#     4  10  22  43  65  92 132 168 216 271 326 394
#     4  10  17  34  60  93 120 156 203 254 323 384
#     4  11  23  44  68  86 137 177 216 278 329 388
#     4  10  19  34  59  95 130 157 205 260 325 395
#     4  10  25  44  63  96 125 176 230 265 324 410
#     4  11  20  35  64  93 120 161 208 267 322 381
#     4  10  22  37  58  90 130 157 203 271 322 373
#
# _framework density 24.682236
#
# number of rings (size 3 to 8) (size 9 to 14) (size 15 to 20)
#    0.000    1.714    2.857    4.286    2.000    2.286 
#    0.000    7.143    0.000    0.000    0.000    0.000 
#    0.000    0.000    0.000    0.000    0.000    0.000 
#
# Total GULP energy -156431.650544 kJ/mol
# GULP energy per Si atom -5586.844662 kJ/mol
# Density = 2.462606 g / cm^3
# Si number density = 24.682236 Si / 1000 Ang^3
#
#
#
# Elastic Constant Matrix: (Units=GPa)
#
#
# Indices 1 2 3 4 5 6 
#
# 1 217.7568 76.1199 23.9243 0.0000 -6.0687 0.0000
# 2 76.1199 155.8383 6.5579 0.0000 -12.1721 0.0000
# 3 23.9243 6.5579 75.7177 0.0000 -9.7627 0.0000
# 4 0.0000 0.0000 0.0000 24.3980 0.0000 1.0591
# 5 -6.0687 -12.1721 -9.7627 0.0000 27.3465 0.0000
# 6 0.0000 0.0000 0.0000 1.0591 0.0000 48.8027
#
#
#
# Elastic Compliance Matrix: (Units=1/GPa)
#
#
# Indices 1 2 3 4 5 6 
#
# 1 0.005726 -0.002771 -0.001640 0.000000 -0.000548 0.000000
# 2 -0.002771 0.007992 0.000590 0.000000 0.003153 0.000000
# 3 -0.001640 0.000590 0.014320 0.000000 0.005011 0.000000
# 4 0.000000 0.000000 0.000000 0.041026 0.000000 -0.000890
# 5 -0.000548 0.003153 0.005011 0.000000 0.039638 0.000000
# 6 0.000000 0.000000 0.000000 -0.000890 0.000000 0.020510
#
#
# Mechanical properties :
#
#
# Convention : Reuss Voigt Hill
#
# Bulk Modulus (GPa) = 49.02875 73.61299 61.32087
# Shear Modulus (GPa) = 34.80653 42.95681 38.88167
#
# Velocity S-wave (km/s) = 3.75932 4.17633 3.97330
# Velocity P-wave (km/s) = 6.22498 7.29004 6.77846
#
# Compressibility (1/GPa) = 0.02039619
#
# Stress axis : x y z
#
# Youngs Moduli (GPa) = 174.65300 125.13118 69.83202
#
# Poissons Ratio (x) = 0.34668 0.11451
# Poissons Ratio (y) = 0.48388 -0.04118
# Poissons Ratio (z) = 0.28640 -0.07380
#
# Static dielectric constant tensor:
#      x y z
#    x 1.945260 0.000000 -0.096820 
#    y 0.000000 1.922310 0.000000 
#    z -0.096820 0.000000 1.875750 
# 
# From -- ./inp_files/54860.got.cif
#   From: 2010.05.17/outbox.cif.g08.bks.cpg/sg14_28_cif.got.tgz:54860.got - 2010.06.03 17:49:19.
