data_PCOD9239306
_publ_section_title
;
Structure prediction by ZEFSAII (Michael W. Deem and Ramdas Pophale) SiO2 
 PCOD9239306
Probable space group: P 21/C
;
_chemical_formula_sum "Si O2"
_cell_formula_units_Z 32
_cell_length_a 6.966070
_cell_length_b 23.586470
_cell_length_c 12.948690
_cell_angle_alpha 90.000000
_cell_angle_beta 98.071438
_cell_angle_gamma 90.000000
_cell_volume 2106.458687
_symmetry_space_group_name_H-M "P 21/C"
_symmetry_group_IT_number 14
_symmetry_cell_setting 'monoclinic'
loop_
_space_group_symop_operation_xyz
x,y,z
-x,1/2+y,1/2-z
-x,-y,-z
x,1/2-y,1/2+z
loop_
_atom_site_type_symbol
_atom_site_label
_atom_site_fract_x
_atom_site_fract_y
_atom_site_fract_z
Si Si1 0.470649 0.343916 0.692749
Si Si2 0.706998 0.439171 0.594460
Si Si3 0.579707 0.727507 0.927371
Si Si4 0.942535 0.729095 0.576704
Si Si5 0.354829 0.180245 0.791357
Si Si6 0.098214 0.380751 0.562847
Si Si7 0.364068 0.775674 0.606737
Si Si8 0.626759 0.934425 0.091379
O O1 0.602721 0.394756 0.662071
O O2 0.482385 0.290278 0.615813
O O3 0.246254 0.362424 0.664865
O O4 0.543244 0.320463 0.807096
O O5 0.583747 0.438008 0.478389
O O6 0.689702 0.503493 0.632390
O O7 0.922799 0.418318 0.589261
O O8 0.619430 0.692058 0.827396
O O9 0.776962 0.734220 0.007476
O O10 0.415482 0.707052 0.993847
O O11 0.843619 0.705547 0.674298
O O12 0.976573 0.675351 0.502963
O O13 0.138731 0.763513 0.607653
O O14 0.522894 0.216554 0.861302
O O15 0.369649 0.114989 0.824188
O O16 0.228410 0.414260 0.489036
#
# Coordination Sequence:
#
# PCOD9239306 Si02
#       8
#     4   4   4   4   4   4   4   4
#     4   9  19  29  43  68  91 114 149 181 219 267
#     4  10  17  28  46  66  92 119 145 183 223 264
#     4   9  18  30  44  64  91 118 146 181 220 265
#     4   9  17  28  45  66  88 114 146 180 221 267
#     4   9  18  31  44  65  93 118 146 183 223 266
#     4   9  16  29  45  65  91 117 143 178 224 270
#     4  10  18  30  47  67  91 119 148 183 223 265
#     4   9  18  29  44  68  91 116 150 182 220 268
#
# _framework density 15.191373
#
# number of rings (size 3 to 8) (size 9 to 14) (size 15 to 20)
#    0.000    2.750    0.000    4.125    0.000    6.000 
#    0.000    0.000    0.000    0.750    0.000    1.750 
#    0.000    0.000    0.000    0.000    0.000    0.000 
#
# Total GULP energy -178282.870830 kJ/mol
# GULP energy per Si atom -5571.339713 kJ/mol
# Density = 1.515680 g / cm^3
# Si number density = 15.191373 Si / 1000 Ang^3
#
#
#
# Elastic Constant Matrix: (Units=GPa)
#
#
# Indices 1 2 3 4 5 6 
#
# 1 61.1274 24.5668 28.5574 0.0000 1.6706 0.0000
# 2 24.5668 82.7407 28.9869 0.0000 -0.7194 0.0000
# 3 28.5574 28.9869 71.0007 0.0000 -3.8643 0.0000
# 4 0.0000 0.0000 0.0000 12.2057 0.0000 -1.2156
# 5 1.6706 -0.7194 -3.8643 0.0000 9.2921 0.0000
# 6 0.0000 0.0000 0.0000 -1.2156 0.0000 18.1326
#
#
#
# Elastic Compliance Matrix: (Units=1/GPa)
#
#
# Indices 1 2 3 4 5 6 
#
# 1 0.021620 -0.003847 -0.007523 0.000000 -0.007314 0.000000
# 2 -0.003847 0.014804 -0.004498 0.000000 -0.000033 0.000000
# 3 -0.007523 -0.004498 0.019442 0.000000 0.009090 0.000000
# 4 0.000000 0.000000 0.000000 0.082480 0.000000 0.005529
# 5 -0.007314 -0.000033 0.009090 0.000000 0.112711 0.000000
# 6 0.000000 0.000000 0.000000 0.005529 0.000000 0.055520
#
#
# Mechanical properties :
#
#
# Convention : Reuss Voigt Hill
#
# Bulk Modulus (GPa) = 41.44570 42.12124 41.78347
# Shear Modulus (GPa) = 14.43599 16.77657 15.60628
#
# Velocity S-wave (km/s) = 3.08600 3.32678 3.20865
# Velocity P-wave (km/s) = 6.32767 6.52257 6.42586
#
# Compressibility (1/GPa) = 0.02412796
#
# Stress axis : x y z
#
# Youngs Moduli (GPa) = 46.25341 67.54997 51.43630
#
# Poissons Ratio (x) = 0.25988 0.38697
# Poissons Ratio (y) = 0.17795 0.23137
# Poissons Ratio (z) = 0.34798 0.30386
#
# Static dielectric constant tensor:
#      x y z
#    x 1.513480 0.000000 -0.000890 
#    y 0.000000 1.501900 0.000000 
#    z -0.000890 0.000000 1.503080 
# 
# From -- ./inp_files/22110.got.cif
#   From: 2010.05.17/outbox.cif.g08.bks.cpg/sg14_12_cif.got.tgz:22110.got - 2010.06.03 17:49:19.
