data_PCOD9239172
_publ_section_title
;
Structure prediction by ZEFSAII (Michael W. Deem and Ramdas Pophale) SiO2 
 PCOD9239172
Probable space group: P 21/C
;
_chemical_formula_sum "Si O2"
_cell_formula_units_Z 32
_cell_length_a 8.623106
_cell_length_b 11.460991
_cell_length_c 21.960385
_cell_angle_alpha 90.000000
_cell_angle_beta 140.457045
_cell_angle_gamma 90.000000
_cell_volume 1381.755004
_symmetry_space_group_name_H-M "P 21/C"
_symmetry_group_IT_number 14
_symmetry_cell_setting 'monoclinic'
loop_
_space_group_symop_operation_xyz
x,y,z
-x,1/2+y,1/2-z
-x,-y,-z
x,1/2-y,1/2+z
loop_
_atom_site_type_symbol
_atom_site_label
_atom_site_fract_x
_atom_site_fract_y
_atom_site_fract_z
Si Si1 0.053547 0.843790 0.562920
Si Si2 0.229756 0.008090 0.369284
Si Si3 0.300678 0.133043 0.889663
Si Si4 0.233009 0.698049 0.735380
Si Si5 0.334403 0.563528 0.319279
Si Si6 0.518325 0.678905 0.145309
Si Si7 0.575075 0.817633 0.471839
Si Si8 0.546287 0.489855 0.778260
O O1 0.141669 0.771525 0.649314
O O2 0.226934 0.801442 0.560296
O O3 0.768526 0.818473 0.474751
O O4 0.173534 0.971509 0.613269
O O5 0.307950 0.874330 0.390507
O O6 0.950763 0.033405 0.272211
O O7 0.402123 0.071570 0.372543
O O8 0.290293 0.077127 0.448951
O O9 0.406985 0.007951 0.901546
O O10 0.348340 0.212380 0.843892
O O11 0.411794 0.205378 0.980156
O O12 0.011913 0.135103 0.815408
O O13 0.419692 0.602341 0.767546
O O14 0.340531 0.795826 0.814800
O O15 0.462019 0.515105 0.296934
O O16 0.577347 0.627397 0.230145
#
# Coordination Sequence:
#
# PCOD9239172 Si02
#       8
#     4   4   4   4   4   4   4   4
#     4   8  16  29  41  67  98 129 157 194 254 290
#     4  10  16  29  48  71 100 129 167 200 253 305
#     4  10  19  30  48  70 102 128 170 202 249 299
#     4  10  17  30  45  68  99 129 162 207 245 290
#     4  11  19  31  49  75  99 133 167 204 254 297
#     4   9  16  29  45  71  97 130 162 199 251 296
#     4   9  17  31  46  69 105 130 158 209 251 301
#     4   9  18  29  45  65 105 126 164 202 248 293
#
# _framework density 23.158954000000001
#
# number of rings (size 3 to 8) (size 9 to 14) (size 15 to 20)
#    0.750    1.750    5.000    1.500    0.000    0.500 
#    0.000    0.000    0.000    0.000    0.000    4.375 
#    0.000    0.000    0.000    6.500    0.000    0.000 
#
# Total GULP energy -178243.722144 kJ/mol
# GULP energy per Si atom -5570.116317 kJ/mol
# Density = 2.310624 g / cm^3
# Si number density = 23.158954 Si / 1000 Ang^3
#
#
#
# Elastic Constant Matrix: (Units=GPa)
#
#
# Indices 1 2 3 4 5 6 
#
# 1 140.5729 50.4550 8.6398 0.0000 28.7221 0.0000
# 2 50.4550 142.6641 24.1305 0.0000 12.2187 0.0000
# 3 8.6398 24.1305 38.1507 0.0000 18.9738 0.0000
# 4 0.0000 0.0000 0.0000 24.9066 0.0000 -0.1372
# 5 28.7221 12.2187 18.9738 0.0000 21.5679 0.0000
# 6 0.0000 0.0000 0.0000 -0.1372 0.0000 58.4671
#
#
#
# Elastic Compliance Matrix: (Units=1/GPa)
#
#
# Indices 1 2 3 4 5 6 
#
# 1 0.013539 -0.004735 0.013444 0.000000 -0.027175 0.000000
# 2 -0.004735 0.009505 -0.009596 0.000000 0.009362 0.000000
# 3 0.013444 -0.009596 0.063001 0.000000 -0.067891 0.000000
# 4 0.000000 0.000000 0.000000 0.040150 0.000000 0.000094
# 5 -0.027175 0.009362 -0.067891 0.000000 0.136975 0.000000
# 6 0.000000 0.000000 0.000000 0.000094 0.000000 0.017104
#
#
# Mechanical properties :
#
#
# Convention : Reuss Voigt Hill
#
# Bulk Modulus (GPa) = 11.86642 54.20428 33.03535
# Shear Modulus (GPa) = 16.12172 36.86581 26.49376
#
# Velocity S-wave (km/s) = 2.64130 3.99414 3.38597
# Velocity P-wave (km/s) = 3.79960 6.68783 5.43893
#
# Compressibility (1/GPa) = 0.08427140
#
# Stress axis : x y z
#
# Youngs Moduli (GPa) = 73.85899 105.20500 15.87265
#
# Poissons Ratio (x) = 0.49813 -0.21339
# Poissons Ratio (y) = 0.34971 0.15232
# Poissons Ratio (z) = -0.99293 1.00956
#
# Static dielectric constant tensor:
#      x y z
#    x 1.928850 0.000000 -0.025000 
#    y 0.000000 1.954680 0.000000 
#    z -0.025000 0.000000 2.005160 
# 
# From -- ./inp_files/79564.got.cif
#   From: 2010.05.17/outbox.cif.g08.bks.cpg/sg14_40_cif.got.tgz:79564.got - 2010.06.03 17:49:19.
