data_PCOD9239991
_publ_section_title
;
Structure prediction by ZEFSAII (Michael W. Deem and Ramdas Pophale) SiO2 
 PCOD9239991
Probable space group: P 21/C
;
_chemical_formula_sum "Si O2"
_cell_formula_units_Z 22
_cell_length_a 6.731395
_cell_length_b 9.549813
_cell_length_c 21.435861
_cell_angle_alpha 90.000000
_cell_angle_beta 143.108203
_cell_angle_gamma 90.000000
_cell_volume 827.205405
_symmetry_space_group_name_H-M "P 21/C"
_symmetry_group_IT_number 14
_symmetry_cell_setting 'monoclinic'
loop_
_space_group_symop_operation_xyz
x,y,z
-x,1/2+y,1/2-z
-x,-y,-z
x,1/2-y,1/2+z
loop_
_atom_site_type_symbol
_atom_site_label
_atom_site_fract_x
_atom_site_fract_y
_atom_site_fract_z
Si Si1 0.941544 0.023577 0.594983
Si Si2 0.570057 0.111828 0.203360
Si Si3 0.061339 0.311595 0.684869
Si Si4 0.281848 0.351761 0.066719
Si Si5 0.500000 0.000000 0.000000
Si Si6 0.407475 0.819953 0.099062
O O1 0.075446 0.912399 0.677519
O O2 0.680901 0.953810 0.482723
O O3 0.896135 0.167127 0.619669
O O4 0.231478 0.057646 0.616468
O O5 0.331815 0.159495 0.198766
O O6 0.551860 0.233581 0.147386
O O7 0.427693 0.963531 0.144114
O O8 0.288707 0.275112 0.801789
O O9 0.816077 0.443162 0.622116
O O10 0.939128 0.260763 0.974797
O O11 0.421857 0.876274 0.032238
#
# Coordination Sequence:
#
# PCOD9239991 Si02
#       6
#     4   4   4   4   2   4
#     4   9  18  34  60  98 132 164 217 293 335 388
#     4  10  19  36  64 101 128 168 231 292 340 392
#     4  10  22  41  67  99 134 182 230 286 349 411
#     4  10  18  33  62  98 129 166 214 289 348 386
#     4  12  24  44  68  92 154 192 218 274 356 450
#     4  11  22  40  67 100 136 179 235 280 351 416
#
# _framework density 26.595571
#
# number of rings (size 3 to 8) (size 9 to 14) (size 15 to 20)
#    0.000    1.818    5.455    0.545    0.000    0.000 
#    0.000    9.091    0.000    2.182    0.000    0.000 
#    0.000    0.000    0.000    0.000    0.000    0.000 
#
# Total GULP energy -122687.875073 kJ/mol
# GULP energy per Si atom -5576.721594 kJ/mol
# Density = 2.653504 g / cm^3
# Si number density = 26.595571 Si / 1000 Ang^3
#
#
#
# Elastic Constant Matrix: (Units=GPa)
#
#
# Indices 1 2 3 4 5 6 
#
# 1 70.2491 32.7551 28.7396 0.0000 -7.9411 0.0000
# 2 32.7551 88.7068 55.2074 0.0000 -7.4020 0.0000
# 3 28.7396 55.2074 128.1501 0.0000 -21.2719 0.0000
# 4 0.0000 0.0000 0.0000 76.6402 0.0000 -5.0619
# 5 -7.9411 -7.4020 -21.2719 0.0000 32.2019 0.0000
# 6 0.0000 0.0000 0.0000 -5.0619 0.0000 50.3457
#
#
#
# Elastic Compliance Matrix: (Units=1/GPa)
#
#
# Indices 1 2 3 4 5 6 
#
# 1 0.017567 -0.005575 -0.001159 0.000000 0.002285 0.000000
# 2 -0.005575 0.017198 -0.006436 0.000000 -0.001673 0.000000
# 3 -0.001159 -0.006436 0.011841 0.000000 0.006057 0.000000
# 4 0.000000 0.000000 0.000000 0.013135 0.000000 0.001321
# 5 0.002285 -0.001673 0.006057 0.000000 0.035234 0.000000
# 6 0.000000 0.000000 0.000000 0.001321 0.000000 0.019995
#
#
# Mechanical properties :
#
#
# Convention : Reuss Voigt Hill
#
# Bulk Modulus (GPa) = 49.34307 57.83450 53.58878
# Shear Modulus (GPa) = 33.76883 43.19781 38.48332
#
# Velocity S-wave (km/s) = 3.56717 4.03457 3.80805
# Velocity P-wave (km/s) = 5.96320 6.59521 6.28715
#
# Compressibility (1/GPa) = 0.02026627
#
# Stress axis : x y z
#
# Youngs Moduli (GPa) = 56.92575 58.14739 84.44948
#
# Poissons Ratio (x) = 0.32416 0.09785
# Poissons Ratio (y) = 0.31735 0.54355
# Poissons Ratio (z) = 0.06596 0.37426
#
# Static dielectric constant tensor:
#      x y z
#    x 2.091740 0.000000 -0.048130 
#    y 0.000000 1.998080 0.000000 
#    z -0.048130 0.000000 2.043710 
# 
# From -- ./inp_files/76425.got.cif
#   From: 2010.05.17/outbox.cif.g08.bks.cpg/sg14_39_cif.got.tgz:76425.got - 2010.06.03 17:49:19.
