data_PCOD9239547
_publ_section_title
;
Structure prediction by ZEFSAII (Michael W. Deem and Ramdas Pophale) SiO2 
 PCOD9239547
Probable space group: P 21/C
;
_chemical_formula_sum "Si O2"
_cell_formula_units_Z 24
_cell_length_a 9.320347
_cell_length_b 12.017385
_cell_length_c 8.271279
_cell_angle_alpha 90.000000
_cell_angle_beta 99.147642
_cell_angle_gamma 90.000000
_cell_volume 914.652080
_symmetry_space_group_name_H-M "P 21/C"
_symmetry_group_IT_number 14
_symmetry_cell_setting 'monoclinic'
loop_
_space_group_symop_operation_xyz
x,y,z
-x,1/2+y,1/2-z
-x,-y,-z
x,1/2-y,1/2+z
loop_
_atom_site_type_symbol
_atom_site_label
_atom_site_fract_x
_atom_site_fract_y
_atom_site_fract_z
Si Si1 0.551027 0.658757 0.338447
Si Si2 0.716458 0.822457 0.534529
Si Si3 0.012615 0.875590 0.737634
Si Si4 0.120782 0.669139 0.577863
Si Si5 0.685561 0.490921 0.809138
Si Si6 0.310444 0.661536 0.889548
O O1 0.683611 0.692469 0.482082
O O2 0.616245 0.657905 0.171260
O O3 0.442939 0.552223 0.330066
O O4 0.436288 0.759920 0.343971
O O5 0.864542 0.886760 0.613920
O O6 0.687340 0.881451 0.356812
O O7 0.038534 0.747495 0.689066
O O8 0.154303 0.946986 0.712863
O O9 0.012596 0.885244 0.930861
O O10 0.229076 0.608023 0.719670
O O11 0.216365 0.751557 0.482065
O O12 0.651775 0.431847 0.975485
#
# Coordination Sequence:
#
# PCOD9239547 Si02
#       6
#     4   4   4   4   4   4
#     4  12  22  40  64  91 130 168 212 260 321 374
#     4  12  26  41  63 100 132 162 212 277 321 367
#     4  10  20  38  64  95 128 166 214 261 318 380
#     4   9  16  33  63  92 118 169 217 243 310 380
#     4  11  23  43  68  92 127 178 214 253 322 394
#     4  10  17  35  64  91 116 169 216 249 302 380
#
# _framework density 26.239487
#
# number of rings (size 3 to 8) (size 9 to 14) (size 15 to 20)
#    0.000    1.333    6.667    2.000    0.000    0.000 
#    0.000    3.333    0.000    0.000    0.000    1.167 
#    0.000    0.000    0.000    0.000    0.000    0.000 
#
# Total GULP energy -133803.700625 kJ/mol
# GULP energy per Si atom -5575.154193 kJ/mol
# Density = 2.617977 g / cm^3
# Si number density = 26.239487 Si / 1000 Ang^3
#
#
#
# Elastic Constant Matrix: (Units=GPa)
#
#
# Indices 1 2 3 4 5 6 
#
# 1 71.7703 33.5704 40.9178 0.0000 8.6914 0.0000
# 2 33.5704 29.6482 31.5023 0.0000 13.8600 0.0000
# 3 40.9178 31.5023 146.3093 0.0000 39.8940 0.0000
# 4 0.0000 0.0000 0.0000 37.2977 0.0000 7.1394
# 5 8.6914 13.8600 39.8940 0.0000 20.4274 0.0000
# 6 0.0000 0.0000 0.0000 7.1394 0.0000 16.0209
#
#
#
# Elastic Compliance Matrix: (Units=1/GPa)
#
#
# Indices 1 2 3 4 5 6 
#
# 1 0.039214 -0.051326 -0.010400 0.000000 0.038451 0.000000
# 2 -0.051326 0.117288 0.010364 0.000000 -0.077983 0.000000
# 3 -0.010400 0.010364 0.017589 0.000000 -0.036958 0.000000
# 4 0.000000 0.000000 0.000000 0.029312 0.000000 -0.013062
# 5 0.038451 -0.077983 -0.036958 0.000000 0.157683 0.000000
# 6 0.000000 0.000000 0.000000 -0.013062 0.000000 0.068239
#
#
# Mechanical properties :
#
#
# Convention : Reuss Voigt Hill
#
# Bulk Modulus (GPa) = 14.01213 51.07875 32.54544
# Shear Modulus (GPa) = 8.99541 24.19835 16.59688
#
# Velocity S-wave (km/s) = 1.85355 3.04009 2.51771
# Velocity P-wave (km/s) = 3.15159 5.64194 4.56968
#
# Compressibility (1/GPa) = 0.07136674
#
# Stress axis : x y z
#
# Youngs Moduli (GPa) = 25.50123 8.52600 56.85301
#
# Poissons Ratio (x) = 0.43761 0.59127
# Poissons Ratio (y) = 1.30888 -0.58922
# Poissons Ratio (z) = 0.26521 -0.08836
#
# Static dielectric constant tensor:
#      x y z
#    x 2.284840 0.000000 0.167660 
#    y 0.000000 2.127460 0.000000 
#    z 0.167660 0.000000 2.080920 
# 
# From -- ./inp_files/8530.got.cif
#   From: 2010.05.17/outbox.cif.g08.bks.cpg/sg14_5_cif.got.tgz:8530.got - 2010.06.03 17:49:19.
