data_PCOD9239880
_publ_section_title
;
Structure prediction by ZEFSAII (Michael W. Deem and Ramdas Pophale) SiO2 
 PCOD9239880
Probable space group: P 21/C
;
_chemical_formula_sum "Si O2"
_cell_formula_units_Z 32
_cell_length_a 20.794642
_cell_length_b 9.185188
_cell_length_c 26.237800
_cell_angle_alpha 90.000000
_cell_angle_beta 160.164321
_cell_angle_gamma 90.000000
_cell_volume 1700.517794
_symmetry_space_group_name_H-M "P 21/C"
_symmetry_group_IT_number 14
_symmetry_cell_setting 'monoclinic'
loop_
_space_group_symop_operation_xyz
x,y,z
-x,1/2+y,1/2-z
-x,-y,-z
x,1/2-y,1/2+z
loop_
_atom_site_type_symbol
_atom_site_label
_atom_site_fract_x
_atom_site_fract_y
_atom_site_fract_z
Si Si1 0.521986 0.277421 0.104678
Si Si2 0.502554 0.606970 0.797623
Si Si3 0.208663 0.868990 0.461108
Si Si4 0.847046 0.437516 0.588786
Si Si5 0.151743 0.728549 0.223639
Si Si6 0.733527 0.847594 0.921650
Si Si7 0.732652 0.034843 0.607164
Si Si8 0.218282 0.029161 0.850696
O O1 0.516133 0.316195 0.160673
O O2 0.731653 0.241347 0.241526
O O3 0.439644 0.423515 0.016882
O O4 0.386101 0.145995 0.983537
O O5 0.565388 0.733032 0.805232
O O6 0.334526 0.489320 0.661452
O O7 0.685287 0.500007 0.932789
O O8 0.232392 0.705117 0.497245
O O9 0.984570 0.893119 0.296280
O O10 0.280716 0.883244 0.456749
O O11 0.779278 0.583719 0.511179
O O12 0.780571 0.433572 0.597181
O O13 0.074089 0.441354 0.754791
O O14 0.202434 0.576191 0.289848
O O15 0.233814 0.852806 0.322668
O O16 0.928464 0.767001 0.050579
#
# Coordination Sequence:
#
# PCOD9239880 Si02
#       8
#     4   4   4   4   4   4   4   4
#     4  11  22  37  58  88 124 160 195 243 307 368
#     4  11  23  40  61  87 116 158 209 250 289 351
#     4  10  18  32  58  87 113 149 196 253 300 346
#     4  10  18  32  58  87 113 149 196 253 300 346
#     4  11  22  37  58  88 124 160 195 243 307 368
#     4  11  23  40  61  87 116 158 209 250 289 351
#     4   9  19  30  54  84 118 152 190 242 302 364
#     4  11  19  34  58  88 124 150 198 248 312 364
#
# _framework density 18.817798
#
# number of rings (size 3 to 8) (size 9 to 14) (size 15 to 20)
#    0.000    1.500    5.000    1.500    0.000    0.500 
#    0.000    0.000    0.000    0.750    0.000    0.000 
#    0.000    0.000    0.000    0.000    0.000    0.000 
#
# Total GULP energy -178154.474927 kJ/mol
# GULP energy per Si atom -5567.327341 kJ/mol
# Density = 1.877497 g / cm^3
# Si number density = 18.817798 Si / 1000 Ang^3
#
#
#
# Elastic Constant Matrix: (Units=GPa)
#
#
# Indices 1 2 3 4 5 6 
#
# 1 34.6081 18.3730 18.5336 0.0000 16.8083 0.0000
# 2 18.3730 89.6852 22.7966 0.0000 9.2753 0.0000
# 3 18.5336 22.7966 78.6637 0.0000 6.8399 0.0000
# 4 0.0000 0.0000 0.0000 36.0424 0.0000 -5.6694
# 5 16.8083 9.2753 6.8399 0.0000 18.7672 0.0000
# 6 0.0000 0.0000 0.0000 -5.6694 0.0000 19.8296
#
#
#
# Elastic Compliance Matrix: (Units=1/GPa)
#
#
# Indices 1 2 3 4 5 6 
#
# 1 0.059036 -0.005085 -0.008321 0.000000 -0.047329 0.000000
# 2 -0.005085 0.012914 -0.002464 0.000000 -0.000931 0.000000
# 3 -0.008321 -0.002464 0.015112 0.000000 0.003162 0.000000
# 4 0.000000 0.000000 0.000000 0.029052 0.000000 0.008306
# 5 -0.047329 -0.000931 0.003162 0.000000 0.094980 0.000000
# 6 0.000000 0.000000 0.000000 0.008306 0.000000 0.052804
#
#
# Mechanical properties :
#
#
# Convention : Reuss Voigt Hill
#
# Bulk Modulus (GPa) = 18.07502 35.81816 26.94659
# Shear Modulus (GPa) = 15.91961 24.47810 20.19885
#
# Velocity S-wave (km/s) = 2.91174 3.61057 3.27982
# Velocity P-wave (km/s) = 4.57498 6.03797 5.35666
#
# Compressibility (1/GPa) = 0.05532496
#
# Stress axis : x y z
#
# Youngs Moduli (GPa) = 16.93867 77.43400 66.17372
#
# Poissons Ratio (x) = 0.39372 0.55060
# Poissons Ratio (y) = 0.08613 0.16303
# Poissons Ratio (z) = 0.14094 0.19077
#
# Static dielectric constant tensor:
#      x y z
#    x 1.633880 0.000000 -0.012480 
#    y 0.000000 1.697130 0.000000 
#    z -0.012480 0.000000 1.663150 
# 
# From -- ./inp_files/57072.got.cif
#   From: 2010.05.17/outbox.cif.g08.bks.cpg/sg14_29_cif.got.tgz:57072.got - 2010.06.03 17:49:19.
