data_PCOD9239214
_publ_section_title
;
Structure prediction by ZEFSAII (Michael W. Deem and Ramdas Pophale) SiO2 
 PCOD9239214
Probable space group: P 21/C
;
_chemical_formula_sum "Si O2"
_cell_formula_units_Z 20
_cell_length_a 20.512373
_cell_length_b 5.158920
_cell_length_c 21.620072
_cell_angle_alpha 90.000000
_cell_angle_beta 158.045992
_cell_angle_gamma 90.000000
_cell_volume 855.349104
_symmetry_space_group_name_H-M "P 21/C"
_symmetry_group_IT_number 14
_symmetry_cell_setting 'monoclinic'
loop_
_space_group_symop_operation_xyz
x,y,z
-x,1/2+y,1/2-z
-x,-y,-z
x,1/2-y,1/2+z
loop_
_atom_site_type_symbol
_atom_site_label
_atom_site_fract_x
_atom_site_fract_y
_atom_site_fract_z
Si Si1 0.393881 0.855413 0.593721
Si Si2 0.556806 0.138301 0.191830
Si Si3 0.745933 0.091123 0.145639
Si Si4 0.122766 0.748929 0.109259
Si Si5 0.958525 0.382330 0.173714
O O1 0.471025 0.138535 0.657368
O O2 0.244497 0.812893 0.513441
O O3 0.460074 0.133448 0.786160
O O4 0.284165 0.807276 0.433584
O O5 0.739159 0.227380 0.324698
O O6 0.423796 0.086674 0.016360
O O7 0.770615 0.221456 0.232987
O O8 0.919712 0.934845 0.278092
O O9 0.000000 0.500000 0.000000
O O10 0.000000 0.000000 0.000000
O O11 0.038640 0.150587 0.284966
#
# Coordination Sequence:
#
# PCOD9239214 Si02
#       5
#     4   4   4   4   4
#     4   9  18  32  62  92 108 138 189 256 296 341
#     4  10  20  37  60  83 117 145 202 242 293 343
#     4   9  22  35  64  84 118 148 197 242 297 350
#     4  12  27  40  55  82 123 166 198 239 293 356
#     4  10  16  31  55  96 114 132 181 256 305 338
#
# _framework density 23.382265
#
# number of rings (size 3 to 8) (size 9 to 14) (size 15 to 20)
#    1.200    0.800    2.000    1.800    2.800    0.800 
#    0.000    0.000    0.000    4.800    0.000    0.000 
#    0.000    0.000    0.000    0.000    0.000    0.000 
#
# Total GULP energy -111670.916460 kJ/mol
# GULP energy per Si atom -5583.545823 kJ/mol
# Density = 2.332905 g / cm^3
# Si number density = 23.382265 Si / 1000 Ang^3
#
#
#
# Elastic Constant Matrix: (Units=GPa)
#
#
# Indices 1 2 3 4 5 6 
#
# 1 122.9459 25.2898 41.5655 0.0000 22.2385 0.0000
# 2 25.2898 126.5272 20.2975 0.0000 12.9802 0.0000
# 3 41.5655 20.2975 93.6303 0.0000 4.9531 0.0000
# 4 0.0000 0.0000 0.0000 29.9697 0.0000 11.6953
# 5 22.2385 12.9802 4.9531 0.0000 50.2718 0.0000
# 6 0.0000 0.0000 0.0000 11.6953 0.0000 28.9114
#
#
#
# Elastic Compliance Matrix: (Units=1/GPa)
#
#
# Indices 1 2 3 4 5 6 
#
# 1 0.010487 -0.001012 -0.004227 0.000000 -0.003962 0.000000
# 2 -0.001012 0.008480 -0.001304 0.000000 -0.001614 0.000000
# 3 -0.004227 -0.001304 0.012789 0.000000 0.000946 0.000000
# 4 0.000000 0.000000 0.000000 0.039622 0.000000 -0.016028
# 5 -0.003962 -0.001614 0.000946 0.000000 0.021968 0.000000
# 6 0.000000 0.000000 0.000000 -0.016028 0.000000 0.041072
#
#
# Mechanical properties :
#
#
# Convention : Reuss Voigt Hill
#
# Bulk Modulus (GPa) = 53.55549 57.48987 55.52268
# Shear Modulus (GPa) = 32.52516 38.89397 35.70956
#
# Velocity S-wave (km/s) = 3.73368 4.08290 3.91219
# Velocity P-wave (km/s) = 6.44525 6.84595 6.64862
#
# Compressibility (1/GPa) = 0.01867222
#
# Stress axis : x y z
#
# Youngs Moduli (GPa) = 95.35330 117.91947 78.19027
#
# Poissons Ratio (x) = 0.11930 0.33049
# Poissons Ratio (y) = 0.09647 0.10195
# Poissons Ratio (z) = 0.40304 0.15376
#
# Static dielectric constant tensor:
#      x y z
#    x 1.885660 0.000000 -0.037740 
#    y 0.000000 1.816390 0.000000 
#    z -0.037740 0.000000 1.966770 
# 
# From -- ./inp_files/53971.got.cif
#   From: 2010.05.17/outbox.cif.g08.bks.cpg/sg14_27_cif.got.tgz:53971.got - 2010.06.03 17:49:19.
