data_PCOD9239728
_publ_section_title
;
Structure prediction by ZEFSAII (Michael W. Deem and Ramdas Pophale) SiO2 
 PCOD9239728
Probable space group: P 21/C
;
_chemical_formula_sum "Si O2"
_cell_formula_units_Z 28
_cell_length_a 8.714426
_cell_length_b 12.179941
_cell_length_c 12.614224
_cell_angle_alpha 90.000000
_cell_angle_beta 79.363445
_cell_angle_gamma 90.000000
_cell_volume 1315.883731
_symmetry_space_group_name_H-M "P 21/C"
_symmetry_group_IT_number 14
_symmetry_cell_setting 'monoclinic'
loop_
_space_group_symop_operation_xyz
x,y,z
-x,1/2+y,1/2-z
-x,-y,-z
x,1/2-y,1/2+z
loop_
_atom_site_type_symbol
_atom_site_label
_atom_site_fract_x
_atom_site_fract_y
_atom_site_fract_z
Si Si1 0.602956 0.634866 0.078405
Si Si2 0.314156 0.881147 0.474394
Si Si3 0.038365 0.556863 0.152893
Si Si4 0.837824 0.819425 0.971730
Si Si5 0.905015 0.173850 0.660382
Si Si6 0.271993 0.321357 0.731716
Si Si7 0.107104 0.393604 0.307501
O O1 0.456842 0.665331 0.023732
O O2 0.587950 0.650110 0.207190
O O3 0.645990 0.508833 0.051156
O O4 0.742497 0.715380 0.027866
O O5 0.161619 0.878440 0.568162
O O6 0.265461 0.827419 0.368686
O O7 0.117687 0.511881 0.251293
O O8 0.985617 0.440221 0.109262
O O9 0.881504 0.621798 0.197540
O O10 0.732057 0.863034 0.888255
O O11 0.994712 0.773830 0.897286
O O12 0.876523 0.891930 0.069005
O O13 0.943645 0.156623 0.780277
O O14 0.235705 0.190488 0.741661
#
# Coordination Sequence:
#
# PCOD9239728 Si02
#       7
#     4   4   4   4   4   4   4
#     4  10  19  29  48  76  95 131 166 202 256 303
#     4  11  17  29  51  74 100 120 168 221 251 279
#     4  10  18  31  51  77  98 130 168 217 246 286
#     4  10  18  34  50  70 103 136 164 202 255 307
#     4   9  17  30  49  75  97 125 164 219 240 286
#     4  10  18  32  53  70 103 135 168 205 252 305
#     4   8  18  29  49  74  98 127 169 200 251 300
#
# _framework density 21.278476000000001
#
# number of rings (size 3 to 8) (size 9 to 14) (size 15 to 20)
#    0.857    1.429    2.857    2.143    0.000    0.571 
#    0.000    4.286    0.000    4.286    0.000    0.000 
#    0.000    0.000    0.000    0.000    0.000    0.000 
#
# Total GULP energy -155920.089582 kJ/mol
# GULP energy per Si atom -5568.574628 kJ/mol
# Density = 2.123005 g / cm^3
# Si number density = 21.278476 Si / 1000 Ang^3
#
#
#
# Elastic Constant Matrix: (Units=GPa)
#
#
# Indices 1 2 3 4 5 6 
#
# 1 48.9566 2.1199 38.1413 0.0000 40.1314 0.0000
# 2 2.1199 23.3890 1.4996 0.0000 1.1472 0.0000
# 3 38.1413 1.4996 129.4717 0.0000 48.7692 0.0000
# 4 0.0000 0.0000 0.0000 26.9689 0.0000 8.7026
# 5 40.1314 1.1472 48.7692 0.0000 42.6572 0.0000
# 6 0.0000 0.0000 0.0000 8.7026 0.0000 16.4318
#
#
#
# Elastic Compliance Matrix: (Units=1/GPa)
#
#
# Indices 1 2 3 4 5 6 
#
# 1 0.096706 -0.004390 0.010165 0.000000 -0.102484 0.000000
# 2 -0.004390 0.043012 -0.000571 0.000000 0.003626 0.000000
# 3 0.010165 -0.000571 0.014635 0.000000 -0.026280 0.000000
# 4 0.000000 0.000000 0.000000 0.044723 0.000000 -0.023686
# 5 -0.102484 0.003626 -0.026280 0.000000 0.149806 0.000000
# 6 0.000000 0.000000 0.000000 -0.023686 0.000000 0.073402
#
#
# Mechanical properties :
#
#
# Convention : Reuss Voigt Hill
#
# Bulk Modulus (GPa) = 6.06939 31.70433 18.88686
# Shear Modulus (GPa) = 10.71135 27.88202 19.29669
#
# Velocity S-wave (km/s) = 2.24607 3.62379 3.01469
# Velocity P-wave (km/s) = 3.09596 5.69572 4.58400
#
# Compressibility (1/GPa) = 0.16476111
#
# Stress axis : x y z
#
# Youngs Moduli (GPa) = 10.34064 23.24948 68.33098
#
# Poissons Ratio (x) = 0.10207 -0.69462
# Poissons Ratio (y) = 0.04540 0.03900
# Poissons Ratio (z) = -0.10512 0.01327
#
# Static dielectric constant tensor:
#      x y z
#    x 1.809030 0.000000 0.073590 
#    y 0.000000 1.782650 0.000000 
#    z 0.073590 0.000000 1.906620 
# 
# From -- ./inp_files/40690.got.cif
#   From: 2010.05.17/outbox.cif.g08.bks.cpg/sg14_21_cif.got.tgz:40690.got - 2010.06.03 17:49:19.
