data_PCOD9239374
_publ_section_title
;
Structure prediction by ZEFSAII (Michael W. Deem and Ramdas Pophale) SiO2 
 PCOD9239374
Probable space group: P 21/C
;
_chemical_formula_sum "Si O2"
_cell_formula_units_Z 32
_cell_length_a 17.876487
_cell_length_b 15.483795
_cell_length_c 9.417918
_cell_angle_alpha 90.000000
_cell_angle_beta 39.912119
_cell_angle_gamma 90.000000
_cell_volume 1672.579984
_symmetry_space_group_name_H-M "P 21/C"
_symmetry_group_IT_number 14
_symmetry_cell_setting 'monoclinic'
loop_
_space_group_symop_operation_xyz
x,y,z
-x,1/2+y,1/2-z
-x,-y,-z
x,1/2-y,1/2+z
loop_
_atom_site_type_symbol
_atom_site_label
_atom_site_fract_x
_atom_site_fract_y
_atom_site_fract_z
Si Si1 0.399949 0.454067 0.734688
Si Si2 0.320000 0.211393 0.170374
Si Si3 0.660346 0.588902 0.882372
Si Si4 0.000023 0.647601 0.129721
Si Si5 0.957225 0.743436 0.933028
Si Si6 0.083615 0.081181 0.845462
Si Si7 0.830740 0.506679 0.050720
Si Si8 0.740132 0.910991 0.972559
O O1 0.500000 0.500000 0.500000
O O2 0.368613 0.358391 0.713814
O O3 0.285275 0.511558 0.870315
O O4 0.420848 0.446438 0.872807
O O5 0.365759 0.308945 0.102661
O O6 0.179950 0.223782 0.388969
O O7 0.331426 0.165997 0.999409
O O8 0.789034 0.576667 0.765407
O O9 0.670944 0.551332 0.707506
O O10 0.020450 0.730424 0.197790
O O11 0.863486 0.625001 0.351592
O O12 0.081162 0.570697 0.057969
O O13 0.012250 0.668430 0.946908
O O14 0.964252 0.829985 0.020728
O O15 0.104639 0.076282 0.645238
O O16 0.000000 0.000000 0.000000
O O17 0.782390 0.533314 0.275832
#
# Coordination Sequence:
#
# PCOD9239374 Si02
#       8
#     4   4   4   4   4   4   4   4
#     4  10  22  38  60  81 108 146 191 235 284 321
#     4   9  18  32  54  83 113 137 178 235 269 324
#     4  10  18  31  55  83 108 141 182 227 276 326
#     4  11  20  33  48  80 116 144 180 213 272 333
#     4  10  21  29  51  80 111 147 179 215 264 336
#     4  10  17  31  50  76 108 144 177 211 267 333
#     4  10  21  34  52  75 112 146 174 231 270 327
#     4  10  18  29  51  84 111 137 174 220 278 328
#
# _framework density 19.13212
#
# number of rings (size 3 to 8) (size 9 to 14) (size 15 to 20)
#    0.000    2.000    3.750    1.125    8.750    0.000 
#    0.000    2.500    2.750    0.000    0.000    0.000 
#    0.000    0.000    0.000    0.000    0.000    0.000 
#
# Total GULP energy -178157.550795 kJ/mol
# GULP energy per Si atom -5567.423462 kJ/mol
# Density = 1.908857 g / cm^3
# Si number density = 19.132120 Si / 1000 Ang^3
#
#
#
# Elastic Constant Matrix: (Units=GPa)
#
#
# Indices 1 2 3 4 5 6 
#
# 1 50.0306 13.2659 31.7728 0.0000 29.6177 0.0000
# 2 13.2659 38.2231 17.6130 0.0000 9.6153 0.0000
# 3 31.7728 17.6130 88.0701 0.0000 45.9176 0.0000
# 4 0.0000 0.0000 0.0000 22.6027 0.0000 2.7855
# 5 29.6177 9.6153 45.9176 0.0000 38.1960 0.0000
# 6 0.0000 0.0000 0.0000 2.7855 0.0000 18.5827
#
#
#
# Elastic Compliance Matrix: (Units=1/GPa)
#
#
# Indices 1 2 3 4 5 6 
#
# 1 0.039379 -0.007397 0.005954 0.000000 -0.035830 0.000000
# 2 -0.007397 0.030218 -0.006428 0.000000 0.005856 0.000000
# 3 0.005954 -0.006428 0.032301 0.000000 -0.041829 0.000000
# 4 0.000000 0.000000 0.000000 0.045075 0.000000 -0.006757
# 5 -0.035830 0.005856 -0.041829 0.000000 0.102775 0.000000
# 6 0.000000 0.000000 0.000000 -0.006757 0.000000 0.054826
#
#
# Mechanical properties :
#
#
# Convention : Reuss Voigt Hill
#
# Bulk Modulus (GPa) = 11.60692 33.51413 22.56053
# Shear Modulus (GPa) = 14.32512 23.45443 18.88978
#
# Velocity S-wave (km/s) = 2.73929 3.50511 3.14559
# Velocity P-wave (km/s) = 4.01059 5.82549 5.00106
#
# Compressibility (1/GPa) = 0.08615548
#
# Stress axis : x y z
#
# Youngs Moduli (GPa) = 25.39394 33.09252 30.95880
#
# Poissons Ratio (x) = 0.24479 -0.18432
# Poissons Ratio (y) = 0.18785 0.19900
# Poissons Ratio (z) = -0.15119 0.21272
#
# Static dielectric constant tensor:
#      x y z
#    x 1.718160 0.000000 0.062320 
#    y 0.000000 1.737510 0.000000 
#    z 0.062320 0.000000 1.712990 
# 
# From -- ./inp_files/18117.got.cif
#   From: 2010.05.17/outbox.cif.g08.bks.cpg/sg14_10_cif.got.tgz:18117.got - 2010.06.03 17:49:19.
