data_PCOD9239710
_publ_section_title
;
Structure prediction by ZEFSAII (Michael W. Deem and Ramdas Pophale) SiO2 
 PCOD9239710
Probable space group: P 21/C
;
_chemical_formula_sum "Si O2"
_cell_formula_units_Z 32
_cell_length_a 22.406702
_cell_length_b 9.484872
_cell_length_c 18.972881
_cell_angle_alpha 90.000000
_cell_angle_beta 17.189202
_cell_angle_gamma 90.000000
_cell_volume 1191.629781
_symmetry_space_group_name_H-M "P 21/C"
_symmetry_group_IT_number 14
_symmetry_cell_setting 'monoclinic'
loop_
_space_group_symop_operation_xyz
x,y,z
-x,1/2+y,1/2-z
-x,-y,-z
x,1/2-y,1/2+z
loop_
_atom_site_type_symbol
_atom_site_label
_atom_site_fract_x
_atom_site_fract_y
_atom_site_fract_z
Si Si1 0.762229 0.988187 0.132651
Si Si2 0.696948 0.978995 0.364205
Si Si3 0.497225 0.165974 0.831844
Si Si4 0.713050 0.811672 0.556647
Si Si5 0.687075 0.316638 0.985795
Si Si6 0.085641 0.767293 0.567978
Si Si7 0.868757 0.836864 0.674087
Si Si8 0.077096 0.329346 0.049207
O O1 0.540523 0.013035 0.350634
O O2 0.730203 0.038366 0.249088
O O3 0.820005 0.825643 0.067394
O O4 0.925876 0.095662 0.917633
O O5 0.784332 0.823401 0.263730
O O6 0.796641 0.085166 0.306256
O O7 0.604448 0.089427 0.644288
O O8 0.686532 0.204084 0.666407
O O9 0.386756 0.293687 0.911289
O O10 0.325325 0.089071 0.070409
O O11 0.813577 0.903571 0.507637
O O12 0.898565 0.699666 0.331021
O O13 0.506747 0.759998 0.826791
O O14 0.845234 0.199352 0.831310
O O15 0.036747 0.826964 0.545721
O O16 0.916461 0.881006 0.539920
#
# Coordination Sequence:
#
# PCOD9239710 Si02
#       8
#     4   4   4   4   4   4   4   4
#     4  10  19  28  50  73 106 134 158 200 246 302
#     4  10  18  31  46  77 104 132 163 196 247 299
#     4   9  19  32  46  65  97 141 165 199 237 286
#     4   9  19  32  47  65  96 136 174 207 228 290
#     4  10  19  31  47  64  97 139 169 197 236 290
#     4  11  18  33  46  66 100 141 169 197 243 289
#     4  10  21  30  50  76 105 128 164 205 244 299
#     4  11  19  33  50  76 100 135 165 199 253 296
#
# _framework density 26.853978999999999
#
# number of rings (size 3 to 8) (size 9 to 14) (size 15 to 20)
#    0.750    1.250    3.750    1.500    0.000    3.000 
#    0.000    0.000    0.000    0.000    0.000    0.000 
#    0.000   27.000    0.000    1.250    0.000    0.000 
#
# Total GULP energy -178304.887737 kJ/mol
# GULP energy per Si atom -5572.027742 kJ/mol
# Density = 2.679286 g / cm^3
# Si number density = 26.853979 Si / 1000 Ang^3
#
#
#
# Elastic Constant Matrix: (Units=GPa)
#
#
# Indices 1 2 3 4 5 6 
#
# 1 212.2605 12.9030 59.2206 0.0000 -13.3040 0.0000
# 2 12.9030 41.8800 1.9850 0.0000 1.1590 0.0000
# 3 59.2206 1.9850 121.1637 0.0000 -20.3314 0.0000
# 4 0.0000 0.0000 0.0000 15.3450 0.0000 3.4191
# 5 -13.3040 1.1590 -20.3314 0.0000 55.9582 0.0000
# 6 0.0000 0.0000 0.0000 3.4191 0.0000 24.7418
#
#
#
# Elastic Compliance Matrix: (Units=1/GPa)
#
#
# Indices 1 2 3 4 5 6 
#
# 1 0.005567 -0.001602 -0.002627 0.000000 0.000402 0.000000
# 2 -0.001602 0.024381 0.000250 0.000000 -0.000795 0.000000
# 3 -0.002627 0.000250 0.010040 0.000000 0.003018 0.000000
# 4 0.000000 0.000000 0.000000 0.067238 0.000000 -0.009292
# 5 0.000402 -0.000795 0.003018 0.000000 0.019079 0.000000
# 6 0.000000 0.000000 0.000000 -0.009292 0.000000 0.041701
#
#
# Mechanical properties :
#
#
# Convention : Reuss Voigt Hill
#
# Bulk Modulus (GPa) = 31.22051 58.16905 44.69478
# Shear Modulus (GPa) = 26.78945 39.28870 33.03907
#
# Velocity S-wave (km/s) = 3.16190 3.82913 3.51140
# Velocity P-wave (km/s) = 4.99814 6.42323 5.75497
#
# Compressibility (1/GPa) = 0.03203022
#
# Stress axis : x y z
#
# Youngs Moduli (GPa) = 179.63895 41.01492 99.60495
#
# Poissons Ratio (x) = 0.06569 0.26167
# Poissons Ratio (y) = 0.28773 -0.02490
# Poissons Ratio (z) = 0.47193 -0.01025
#
# Static dielectric constant tensor:
#      x y z
#    x 2.186600 0.000000 0.028710 
#    y 0.000000 2.360360 0.000000 
#    z 0.028710 0.000000 2.178640 
# 
# From -- ./inp_files/61484.got.cif
#   From: 2010.05.17/outbox.cif.g08.bks.cpg/sg14_31_cif.got.tgz:61484.got - 2010.06.03 17:49:19.
