data_PCOD9239945
_publ_section_title
;
Structure prediction by ZEFSAII (Michael W. Deem and Ramdas Pophale) SiO2 
 PCOD9239945
Probable space group: P 21/C
;
_chemical_formula_sum "Si O2"
_cell_formula_units_Z 26
_cell_length_a 12.989190
_cell_length_b 15.647140
_cell_length_c 5.301306
_cell_angle_alpha 90.000000
_cell_angle_beta 91.332284
_cell_angle_gamma 90.000000
_cell_volume 1077.165639
_symmetry_space_group_name_H-M "P 21/C"
_symmetry_group_IT_number 14
_symmetry_cell_setting 'monoclinic'
loop_
_space_group_symop_operation_xyz
x,y,z
-x,1/2+y,1/2-z
-x,-y,-z
x,1/2-y,1/2+z
loop_
_atom_site_type_symbol
_atom_site_label
_atom_site_fract_x
_atom_site_fract_y
_atom_site_fract_z
Si Si1 0.537720 0.306471 0.791740
Si Si2 0.000000 0.000000 0.500000
Si Si3 0.956669 0.702925 0.897406
Si Si4 0.719163 0.059689 0.216291
Si Si5 0.211061 0.024415 0.281404
Si Si6 0.815316 0.277332 0.650174
Si Si7 0.302914 0.302010 0.798177
O O1 0.548876 0.238826 0.563754
O O2 0.620118 0.381541 0.755251
O O3 0.419533 0.337967 0.772058
O O4 0.043305 0.100291 0.572422
O O5 0.093885 0.992131 0.298083
O O6 0.915625 0.758051 0.133032
O O7 0.077278 0.731761 0.894151
O O8 0.817937 0.124474 0.230044
O O9 0.735883 0.996521 0.447770
O O10 0.727983 0.019539 0.943404
O O11 0.223642 0.123728 0.235042
O O12 0.761427 0.271879 0.375460
O O13 0.294482 0.229041 0.585840
#
# Coordination Sequence:
#
# PCOD9239945 Si02
#       7
#     4   2   4   4   4   4   4
#     4  10  21  39  69 101 134 174 214 261 329 419
#     4  12  28  46  68 100 134 184 248 286 340 412
#     4  10  22  40  62  87 121 163 213 278 335 387
#     4  12  23  40  65 100 133 166 214 279 352 402
#     4  12  27  42  65  94 133 175 223 289 334 392
#     4  10  18  33  56  82 119 158 194 248 323 387
#     4  10  23  46  69  95 131 176 224 267 329 413
#
# _framework density 24.137419999999999
#
# number of rings (size 3 to 8) (size 9 to 14) (size 15 to 20)
#    0.000    1.231    0.000    7.385    0.000    4.923 
#    0.000    0.000    0.000    0.000    0.000    0.000 
#    0.000    0.000    0.000    0.000    0.000    0.000 
#
# Total GULP energy -144894.780162 kJ/mol
# GULP energy per Si atom -5572.876160 kJ/mol
# Density = 2.408248 g / cm^3
# Si number density = 24.137420 Si / 1000 Ang^3
#
#
#
# Elastic Constant Matrix: (Units=GPa)
#
#
# Indices 1 2 3 4 5 6 
#
# 1 92.6944 15.3041 17.8015 0.0000 -16.3064 0.0000
# 2 15.3041 116.0544 41.7932 0.0000 -12.5252 0.0000
# 3 17.8015 41.7932 177.6242 0.0000 -18.9610 0.0000
# 4 0.0000 0.0000 0.0000 36.0553 0.0000 -9.3429
# 5 -16.3064 -12.5252 -18.9610 0.0000 33.6415 0.0000
# 6 0.0000 0.0000 0.0000 -9.3429 0.0000 34.1561
#
#
#
# Elastic Compliance Matrix: (Units=1/GPa)
#
#
# Indices 1 2 3 4 5 6 
#
# 1 0.011931 -0.000852 -0.000438 0.000000 0.005219 0.000000
# 2 -0.000852 0.009661 -0.001966 0.000000 0.002076 0.000000
# 3 -0.000438 -0.001966 0.006422 0.000000 0.002675 0.000000
# 4 0.000000 0.000000 0.000000 0.029851 0.000000 0.008165
# 5 0.005219 0.002076 0.002675 0.000000 0.034535 0.000000
# 6 0.000000 0.000000 0.000000 0.008165 0.000000 0.031511
#
#
# Mechanical properties :
#
#
# Convention : Reuss Voigt Hill
#
# Bulk Modulus (GPa) = 46.50958 59.57449 53.04204
# Shear Modulus (GPa) = 36.33946 41.53554 38.93750
#
# Velocity S-wave (km/s) = 3.88432 4.15275 4.02077
# Velocity P-wave (km/s) = 6.27915 6.90860 6.60138
#
# Compressibility (1/GPa) = 0.02150094
#
# Stress axis : x y z
#
# Youngs Moduli (GPa) = 83.81477 103.50776 155.71584
#
# Poissons Ratio (x) = 0.08822 0.06822
# Poissons Ratio (y) = 0.07144 0.30616
# Poissons Ratio (z) = 0.03672 0.20351
#
# Static dielectric constant tensor:
#      x y z
#    x 2.061490 0.000000 0.053890 
#    y 0.000000 1.939490 0.000000 
#    z 0.053890 0.000000 1.993600 
# 
# From -- ./inp_files/3570.got.cif
#   From: 2010.05.17/outbox.cif.g08.bks.cpg/sg14_2_cif.got.tgz:3570.got - 2010.06.03 17:49:19.
