data_PCOD9239429
_publ_section_title
;
Structure prediction by ZEFSAII (Michael W. Deem and Ramdas Pophale) SiO2 
 PCOD9239429
Probable space group: P 21/C
;
_chemical_formula_sum "Si O2"
_cell_formula_units_Z 28
_cell_length_a 8.560115
_cell_length_b 15.858826
_cell_length_c 17.769303
_cell_angle_alpha 90.000000
_cell_angle_beta 39.478795
_cell_angle_gamma 90.000000
_cell_volume 1533.686150
_symmetry_space_group_name_H-M "P 21/C"
_symmetry_group_IT_number 14
_symmetry_cell_setting 'monoclinic'
loop_
_space_group_symop_operation_xyz
x,y,z
-x,1/2+y,1/2-z
-x,-y,-z
x,1/2-y,1/2+z
loop_
_atom_site_type_symbol
_atom_site_label
_atom_site_fract_x
_atom_site_fract_y
_atom_site_fract_z
Si Si1 0.805798 0.995778 0.265423
Si Si2 0.398345 0.137517 0.390052
Si Si3 0.019409 0.079942 0.649194
Si Si4 0.331337 0.081758 0.083372
Si Si5 0.484358 0.676532 0.623369
Si Si6 0.308110 0.429308 0.765007
Si Si7 0.769726 0.552116 0.617118
O O1 0.576389 0.058954 0.343660
O O2 0.054144 0.051866 0.169574
O O3 0.805320 0.935767 0.192654
O O4 0.821689 0.943595 0.336492
O O5 0.534347 0.225199 0.353651
O O6 0.311718 0.130967 0.335514
O O7 0.169321 0.130391 0.531483
O O8 0.773894 0.129440 0.765789
O O9 0.927706 0.990703 0.648949
O O10 0.339713 0.104665 0.168439
O O11 0.425683 0.154876 0.994036
O O12 0.500000 0.000000 0.000000
O O13 0.692443 0.634682 0.599902
O O14 0.539942 0.490166 0.691280
O O15 0.000000 0.500000 0.500000
#
# Coordination Sequence:
#
# PCOD9239429 Si02
#       7
#     4   4   4   4   4   4   4
#     4  10  20  36  63  85 111 154 208 226 284 348
#     4  11  24  38  57  88 123 151 189 250 297 342
#     4  10  21  41  62  80 116 162 196 229 285 368
#     4  11  17  38  65  87 110 154 200 243 279 349
#     4  11  23  36  59  89 121 149 190 252 303 327
#     4   9  20  36  62  81 111 159 199 224 290 352
#     4  10  17  32  59  86 110 146 193 238 271 346
#
# _framework density 18.256668999999999
#
# number of rings (size 3 to 8) (size 9 to 14) (size 15 to 20)
#    0.000    1.714    5.714    0.857    2.000    0.000 
#    2.571    0.000    0.000    0.000    0.000    0.000 
#    0.000    0.000    0.000    0.000    0.000    0.000 
#
# Total GULP energy -156155.633464 kJ/mol
# GULP energy per Si atom -5576.986909 kJ/mol
# Density = 1.821512 g / cm^3
# Si number density = 18.256669 Si / 1000 Ang^3
#
#
#
# Elastic Constant Matrix: (Units=GPa)
#
#
# Indices 1 2 3 4 5 6 
#
# 1 111.3008 20.7069 35.3634 0.0000 31.9198 0.0000
# 2 20.7069 57.3443 11.9729 0.0000 23.9171 0.0000
# 3 35.3634 11.9729 76.7203 0.0000 19.5419 0.0000
# 4 0.0000 0.0000 0.0000 14.8681 0.0000 -1.9249
# 5 31.9198 23.9171 19.5419 0.0000 34.3150 0.0000
# 6 0.0000 0.0000 0.0000 -1.9249 0.0000 16.9444
#
#
#
# Elastic Compliance Matrix: (Units=1/GPa)
#
#
# Indices 1 2 3 4 5 6 
#
# 1 0.012974 0.000354 -0.003390 0.000000 -0.010385 0.000000
# 2 0.000354 0.024620 0.000526 0.000000 -0.017789 0.000000
# 3 -0.003390 0.000526 0.016147 0.000000 -0.006408 0.000000
# 4 0.000000 0.000000 0.000000 0.068262 0.000000 0.007755
# 5 -0.010385 -0.017789 -0.006408 0.000000 0.054849 0.000000
# 6 0.000000 0.000000 0.000000 0.007755 0.000000 0.059898
#
#
# Mechanical properties :
#
#
# Convention : Reuss Voigt Hill
#
# Bulk Modulus (GPa) = 20.52528 42.38356 31.45442
# Shear Modulus (GPa) = 19.37891 25.04697 22.21294
#
# Velocity S-wave (km/s) = 3.26156 3.70798 3.49191
# Velocity P-wave (km/s) = 5.04487 6.44965 5.79002
#
# Compressibility (1/GPa) = 0.04872041
#
# Stress axis : x y z
#
# Youngs Moduli (GPa) = 77.07594 40.61711 61.92933
#
# Poissons Ratio (x) = -0.01438 0.20997
# Poissons Ratio (y) = -0.02730 -0.03255
# Poissons Ratio (z) = 0.26132 -0.02135
#
# Static dielectric constant tensor:
#      x y z
#    x 1.654290 0.000000 0.017440 
#    y 0.000000 1.617220 0.000000 
#    z 0.017440 0.000000 1.637500 
# 
# From -- ./inp_files/30321.got.cif
#   From: 2010.05.17/outbox.cif.g08.bks.cpg/sg14_16_cif.got.tgz:30321.got - 2010.06.03 17:49:19.
