data_PCOD9239910
_publ_section_title
;
Structure prediction by ZEFSAII (Michael W. Deem and Ramdas Pophale) SiO2 
 PCOD9239910
Probable space group: P 21/C
;
_chemical_formula_sum "Si O2"
_cell_formula_units_Z 24
_cell_length_a 8.293237
_cell_length_b 13.008678
_cell_length_c 9.666283
_cell_angle_alpha 90.000000
_cell_angle_beta 125.537978
_cell_angle_gamma 90.000000
_cell_volume 848.588811
_symmetry_space_group_name_H-M "P 21/C"
_symmetry_group_IT_number 14
_symmetry_cell_setting 'monoclinic'
loop_
_space_group_symop_operation_xyz
x,y,z
-x,1/2+y,1/2-z
-x,-y,-z
x,1/2-y,1/2+z
loop_
_atom_site_type_symbol
_atom_site_label
_atom_site_fract_x
_atom_site_fract_y
_atom_site_fract_z
Si Si1 0.985150 0.921643 0.145769
Si Si2 0.187023 0.544438 0.009512
Si Si3 0.136999 0.286972 0.823524
Si Si4 0.444229 0.042646 0.121758
Si Si5 0.795046 0.293698 0.478274
Si Si6 0.384061 0.243098 0.694105
O O1 0.876233 0.838069 0.189243
O O2 0.092815 0.844764 0.094158
O O3 0.138629 0.979083 0.322890
O O4 0.795312 0.976763 0.980628
O O5 0.396704 0.511794 0.181101
O O6 0.194395 0.669542 0.020782
O O7 0.000000 0.500000 0.000000
O O8 0.917169 0.324426 0.676048
O O9 0.279401 0.305854 0.765037
O O10 0.230066 0.314205 0.017001
O O11 0.466780 0.167367 0.135595
O O12 0.500000 0.000000 0.000000
O O13 0.565330 0.318751 0.347862
#
# Coordination Sequence:
#
# PCOD9239910 Si02
#       6
#     4   4   4   4   4   4
#     4  10  20  35  55  83 119 147 195 247 294 349
#     4  10  20  33  56  87 118 154 200 245 298 362
#     4  10  19  35  50  81 114 148 187 243 291 346
#     4  10  18  33  51  80 112 150 190 237 289 347
#     4  10  21  34  55  86 117 151 197 249 294 347
#     4  10  22  32  55  83 112 147 191 236 297 351
#
# _framework density 28.282249
#
# number of rings (size 3 to 8) (size 9 to 14) (size 15 to 20)
#    0.000    2.000    5.000    0.000    7.000    0.000 
#    0.000    0.000    0.000    0.000    8.667   23.333 
#    0.000    0.000    0.000    0.000    0.000    0.000 
#
# Total GULP energy -134320.191826 kJ/mol
# GULP energy per Si atom -5596.674659 kJ/mol
# Density = 2.821788 g / cm^3
# Si number density = 28.282249 Si / 1000 Ang^3
#
#
#
# Elastic Constant Matrix: (Units=GPa)
#
#
# Indices 1 2 3 4 5 6 
#
# 1 79.2550 27.0078 68.9413 0.0000 12.7765 0.0000
# 2 27.0078 103.3624 57.4889 0.0000 2.6459 0.0000
# 3 68.9413 57.4889 346.5168 0.0000 46.4632 0.0000
# 4 0.0000 0.0000 0.0000 63.0244 0.0000 -3.0873
# 5 12.7765 2.6459 46.4632 0.0000 54.3888 0.0000
# 6 0.0000 0.0000 0.0000 -3.0873 0.0000 59.7734
#
#
#
# Elastic Compliance Matrix: (Units=1/GPa)
#
#
# Indices 1 2 3 4 5 6 
#
# 1 0.015986 -0.002732 -0.002532 0.000000 -0.001460 0.000000
# 2 -0.002732 0.011186 -0.001497 0.000000 0.001376 0.000000
# 3 -0.002532 -0.001497 0.004007 0.000000 -0.002756 0.000000
# 4 0.000000 0.000000 0.000000 0.015907 0.000000 0.000822
# 5 -0.001460 0.001376 -0.002756 0.000000 0.021016 0.000000
# 6 0.000000 0.000000 0.000000 0.000822 0.000000 0.016772
#
#
# Mechanical properties :
#
#
# Convention : Reuss Voigt Hill
#
# Bulk Modulus (GPa) = 56.62848 92.89002 74.75925
# Shear Modulus (GPa) = 47.94740 60.48373 54.21556
#
# Velocity S-wave (km/s) = 4.12189 4.62949 4.38304
# Velocity P-wave (km/s) = 6.53601 7.84165 7.21841
#
# Compressibility (1/GPa) = 0.01765896
#
# Stress axis : x y z
#
# Youngs Moduli (GPa) = 62.55570 89.39956 249.53881
#
# Poissons Ratio (x) = 0.24420 0.63172
# Poissons Ratio (y) = 0.17088 0.37352
# Poissons Ratio (z) = 0.15836 0.13382
#
# Static dielectric constant tensor:
#      x y z
#    x 2.112630 0.000000 0.050840 
#    y 0.000000 2.281720 0.000000 
#    z 0.050840 0.000000 2.229390 
# 
# From -- ./inp_files/26138.got.cif
#   From: 2010.05.17/outbox.cif.g08.bks.cpg/sg14_14_cif.got.tgz:26138.got - 2010.06.03 17:49:19.
