data_PCOD9239093
_publ_section_title
;
Structure prediction by ZEFSAII (Michael W. Deem and Ramdas Pophale) SiO2 
 PCOD9239093
Probable space group: P 21/C
;
_chemical_formula_sum "Si O2"
_cell_formula_units_Z 28
_cell_length_a 19.927518
_cell_length_b 10.763663
_cell_length_c 5.298639
_cell_angle_alpha 90.000000
_cell_angle_beta 112.875386
_cell_angle_gamma 90.000000
_cell_volume 1047.136857
_symmetry_space_group_name_H-M "P 21/C"
_symmetry_group_IT_number 14
_symmetry_cell_setting 'monoclinic'
loop_
_space_group_symop_operation_xyz
x,y,z
-x,1/2+y,1/2-z
-x,-y,-z
x,1/2-y,1/2+z
loop_
_atom_site_type_symbol
_atom_site_label
_atom_site_fract_x
_atom_site_fract_y
_atom_site_fract_z
Si Si1 0.920780 0.062054 0.563336
Si Si2 0.933489 0.910371 0.079669
Si Si3 0.227932 0.318286 0.663595
Si Si4 0.235211 0.826158 0.540564
Si Si5 0.389491 0.669997 0.393595
Si Si6 0.439328 0.120951 0.871999
Si Si7 0.623953 0.903228 0.720097
O O1 0.839854 0.104090 0.509313
O O2 0.989596 0.151367 0.728459
O O3 0.925871 0.018400 0.282291
O O4 0.935606 0.954218 0.792946
O O5 0.856801 0.842889 0.995761
O O6 0.242580 0.211989 0.476542
O O7 0.289816 0.416763 0.678671
O O8 0.233310 0.716012 0.747079
O O9 0.311222 0.893905 0.710342
O O10 0.382593 0.716926 0.673163
O O11 0.475606 0.642195 0.479881
O O12 0.399327 0.255727 0.807478
O O13 0.408021 0.049001 0.067173
O O14 0.417991 0.051100 0.585589
#
# Coordination Sequence:
#
# PCOD9239093 Si02
#       7
#     4   4   4   4   4   4   4
#     4  10  21  43  57  77 107 143 190 207 262 343
#     4  10  23  38  61  76 103 154 180 212 261 336
#     4  12  21  33  51  86 116 129 180 229 273 301
#     4  10  21  33  56  86 111 131 173 238 277 299
#     4  10  16  25  42  72 105 128 170 205 262 305
#     4  10  14  25  41  64 104 139 160 200 267 302
#     4  10  16  25  42  67 105 135 161 213 260 298
#
# _framework density 26.739581000000001
#
# number of rings (size 3 to 8) (size 9 to 14) (size 15 to 20)
#    0.000    1.714    5.714    1.714    0.000    1.143 
#    0.000    0.000    0.000    0.000    0.000    6.000 
#    0.000    0.000    0.000    0.000    0.000    0.000 
#
# Total GULP energy -156485.696510 kJ/mol
# GULP energy per Si atom -5588.774875 kJ/mol
# Density = 2.667872 g / cm^3
# Si number density = 26.739581 Si / 1000 Ang^3
#
#
#
# Elastic Constant Matrix: (Units=GPa)
#
#
# Indices 1 2 3 4 5 6 
#
# 1 199.6422 21.5945 62.6826 0.0000 35.7862 0.0000
# 2 21.5945 21.5336 15.0238 0.0000 10.8870 0.0000
# 3 62.6826 15.0238 129.0561 0.0000 10.1570 0.0000
# 4 0.0000 0.0000 0.0000 56.1414 0.0000 -1.6709
# 5 35.7862 10.8870 10.1570 0.0000 82.1736 0.0000
# 6 0.0000 0.0000 0.0000 -1.6709 0.0000 46.1641
#
#
#
# Elastic Compliance Matrix: (Units=1/GPa)
#
#
# Indices 1 2 3 4 5 6 
#
# 1 0.006603 -0.003764 -0.002607 0.000000 -0.002055 0.000000
# 2 -0.003764 0.055830 -0.004260 0.000000 -0.005231 0.000000
# 3 -0.002607 -0.004260 0.009469 0.000000 0.000529 0.000000
# 4 0.000000 0.000000 0.000000 0.017831 0.000000 0.000645
# 5 -0.002055 -0.005231 0.000529 0.000000 0.013692 0.000000
# 6 0.000000 0.000000 0.000000 0.000645 0.000000 0.021685
#
#
# Mechanical properties :
#
#
# Convention : Reuss Voigt Hill
#
# Bulk Modulus (GPa) = 19.74681 60.98153 40.36417
# Shear Modulus (GPa) = 30.62745 53.62455 42.12600
#
# Velocity S-wave (km/s) = 3.38804 4.48307 3.97346
# Velocity P-wave (km/s) = 4.76508 7.04645 6.01492
#
# Compressibility (1/GPa) = 0.05064110
#
# Stress axis : x y z
#
# Youngs Moduli (GPa) = 151.44683 17.91144 105.60668
#
# Poissons Ratio (x) = 0.06742 0.27534
# Poissons Ratio (y) = 0.57002 0.44984
# Poissons Ratio (z) = 0.39485 0.07629
#
# Static dielectric constant tensor:
#      x y z
#    x 2.083690 0.000000 -0.019820 
#    y 0.000000 2.592540 0.000000 
#    z -0.019820 0.000000 2.085560 
# 
# From -- ./inp_files/4204.got.cif
#   From: 2010.05.17/outbox.cif.g08.bks.cpg/sg14_3_cif.got.tgz:4204.got - 2010.06.03 17:49:19.
