data_PCOD9239007
_publ_section_title
;
Structure prediction by ZEFSAII (Michael W. Deem and Ramdas Pophale) SiO2 
 PCOD9239007
Probable space group: P 2/C
;
_chemical_formula_sum "Si O2"
_cell_formula_units_Z 32
_cell_length_a 12.000000
_cell_length_b 15.000000
_cell_length_c 18.000000
_cell_angle_alpha 90.000000
_cell_angle_beta 150.000000
_cell_angle_gamma 90.000000
_cell_volume 1620.000000
_symmetry_space_group_name_H-M "P 2/C"
_symmetry_group_IT_number 13
_symmetry_cell_setting 'monoclinic'
loop_
_space_group_symop_operation_xyz
x,y,z
-x,y,1/2-z
-x,-y,-z
x,-y,1/2+z
loop_
_atom_site_type_symbol
_atom_site_label
_atom_site_fract_x
_atom_site_fract_y
_atom_site_fract_z
Si Si1 0.511920 0.168023 0.617302
Si Si2 0.082099 0.377470 0.215365
Si Si3 0.471189 0.440540 0.325768
Si Si4 0.992094 0.882768 0.069384
Si Si5 0.611677 0.246956 0.396245
Si Si6 0.107382 0.912818 0.967462
Si Si7 0.285769 0.815113 0.835151
Si Si8 0.588156 0.640524 0.384780
O O1 0.755033 0.126499 0.758707
O O2 0.346955 0.126535 0.583790
O O3 0.407396 0.149145 0.477314
O O4 0.516355 0.274980 0.633273
O O5 0.244906 0.423428 0.246085
O O6 0.203517 0.285194 0.305168
O O7 0.000000 0.416708 0.250000
O O8 0.854618 0.352559 0.041867
O O9 0.500000 0.444293 0.250000
O O10 0.616231 0.350848 0.425108
O O11 0.537777 0.541086 0.386260
O O12 0.017765 0.877706 0.995036
O O13 0.891996 0.980007 0.029711
O O14 0.842281 0.804790 0.017862
O O15 0.500000 0.247001 0.250000
O O16 0.453342 0.194740 0.362332
O O17 0.926381 0.875050 0.805870
O O18 0.500000 0.645574 0.250000
#
# Coordination Sequence:
#
# PCOD9239007 Si02
#       8
#     4   4   4   4   4   4   4   4
#     4  12  25  42  65  99 133 168 220 277 335 387
#     4  11  21  42  67  92 132 187 221 268 344 403
#     4   9  23  39  66 102 132 176 231 273 335 404
#     4  11  26  40  68  99 131 169 220 283 327 384
#     4  10  21  43  68  91 134 179 216 264 338 398
#     4  11  23  43  66  95 127 173 224 266 329 405
#     4  11  22  43  68  89 128 177 220 260 326 415
#     4  11  23  40  67 100 131 168 227 283 325 395
#
# _framework density 19.753086
#
# number of rings (size 3 to 8) (size 9 to 14) (size 15 to 20)
#    0.000    1.250    3.750    1.500    1.750    4.500 
#    2.250    0.000    0.000    0.000    0.000    0.000 
#    0.000    0.000    0.000    0.000    0.000    0.000 
#
# Total GULP energy -178408.812420 kJ/mol
# GULP energy per Si atom -5575.275388 kJ/mol
# Density = 1.970813 g / cm^3
# Si number density = 19.753086 Si / 1000 Ang^3
#
#
#
# Elastic Constant Matrix: (Units=GPa)
#
#
# Indices 1 2 3 4 5 6 
#
# 1 108.0284 25.4546 18.5592 0.0000 15.1360 0.0000
# 2 25.4546 47.4357 7.7803 0.0000 13.4011 0.0000
# 3 18.5592 7.7803 90.3787 0.0000 0.1922 0.0000
# 4 0.0000 0.0000 0.0000 20.5801 0.0000 8.6200
# 5 15.1360 13.4011 0.1922 0.0000 33.6569 0.0000
# 6 0.0000 0.0000 0.0000 8.6200 0.0000 4.8900
#
#
#
# Elastic Compliance Matrix: (Units=1/GPa)
#
#
# Indices 1 2 3 4 5 6 
#
# 1 0.011141 -0.004800 -0.001868 0.000000 -0.003089 0.000000
# 2 -0.004800 0.026197 -0.001252 0.000000 -0.008265 0.000000
# 3 -0.001868 -0.001252 0.011553 0.000000 0.001273 0.000000
# 4 0.000000 0.000000 0.000000 0.185705 0.000000 -0.327358
# 5 -0.003089 -0.008265 0.001273 0.000000 0.034384 0.000000
# 6 0.000000 0.000000 0.000000 -0.327358 0.000000 0.781557
#
#
# Mechanical properties :
#
#
# Convention : Reuss Voigt Hill
#
# Bulk Modulus (GPa) = 30.25517 38.82567 34.54042
# Shear Modulus (GPa) = 4.64082 24.76197 14.70139
#
# Velocity S-wave (km/s) = 1.53444 3.54443 2.73107
# Velocity P-wave (km/s) = 4.29992 6.03728 5.24109
#
# Compressibility (1/GPa) = 0.03305221
#
# Stress axis : x y z
#
# Youngs Moduli (GPa) = 89.75465 38.17220 86.55569
#
# Poissons Ratio (x) = 0.18321 0.16170
# Poissons Ratio (y) = 0.43079 0.10837
# Poissons Ratio (z) = 0.16768 0.04779
#
# Static dielectric constant tensor:
#      x y z
#    x 1.703220 0.000000 -0.019200 
#    y 0.000000 1.701550 0.000000 
#    z -0.019200 0.000000 1.708440 
# 
# From -- ./inp_files/66945.got.cif
#   From: 2010.05.17/outbox.ucp.g08.bks.cvg/sg13_34_cif.got.tgz:66945.got - 2010.06.11 12:23:55.
