data_PCOD9239480
_publ_section_title
;
Structure prediction by ZEFSAII (Michael W. Deem and Ramdas Pophale) SiO2 
 PCOD9239480
Probable space group: P 21/C
;
_chemical_formula_sum "Si O2"
_cell_formula_units_Z 24
_cell_length_a 27.005946
_cell_length_b 7.722971
_cell_length_c 14.072315
_cell_angle_alpha 90.000000
_cell_angle_beta 16.098032
_cell_angle_gamma 90.000000
_cell_volume 813.823975
_symmetry_space_group_name_H-M "P 21/C"
_symmetry_group_IT_number 14
_symmetry_cell_setting 'monoclinic'
loop_
_space_group_symop_operation_xyz
x,y,z
-x,1/2+y,1/2-z
-x,-y,-z
x,1/2-y,1/2+z
loop_
_atom_site_type_symbol
_atom_site_label
_atom_site_fract_x
_atom_site_fract_y
_atom_site_fract_z
Si Si1 0.485636 0.511420 0.781828
Si Si2 0.891495 0.398876 0.591421
Si Si3 0.542685 0.184024 0.468943
Si Si4 0.051649 0.672416 0.843373
Si Si5 0.659861 0.776349 0.823426
Si Si6 0.967254 0.068238 0.343927
O O1 0.302538 0.513533 0.057205
O O2 0.489476 0.654749 0.860659
O O3 0.480229 0.340124 0.857131
O O4 0.643082 0.547410 0.415752
O O5 0.980596 0.326946 0.523082
O O6 0.022154 0.514845 0.285675
O O7 0.857944 0.223090 0.591499
O O8 0.410399 0.306334 0.653312
O O9 0.500000 0.000000 0.500000
O O10 0.746208 0.207209 0.062417
O O11 0.956444 0.612152 0.922521
O O12 0.000000 0.500000 0.000000
O O13 0.831722 0.650681 0.505322
#
# Coordination Sequence:
#
# PCOD9239480 Si02
#       6
#     4   4   4   4   4   4
#     4  10  20  34  58  82 110 146 182 228 281 323
#     4  10  20  35  57  81 113 145 184 228 276 326
#     4  10  17  34  56  79 110 140 187 224 266 330
#     4  10  18  32  58  80 105 148 190 213 270 330
#     4  10  20  36  56  84 109 143 185 230 272 331
#     4  10  21  38  55  84 111 143 188 232 269 331
#
# _framework density 29.490404999999999
#
# number of rings (size 3 to 8) (size 9 to 14) (size 15 to 20)
#    0.000    2.000    6.667    0.000    0.000    1.333 
#    3.000    1.667    0.000    0.000    0.000    0.000 
#    0.000    0.000    0.000    0.000    0.000    0.000 
#
# Total GULP energy -134256.758203 kJ/mol
# GULP energy per Si atom -5594.031592 kJ/mol
# Density = 2.942328 g / cm^3
# Si number density = 29.490405 Si / 1000 Ang^3
#
#
#
# Elastic Constant Matrix: (Units=GPa)
#
#
# Indices 1 2 3 4 5 6 
#
# 1 157.7271 5.2916 37.2426 0.0000 20.7909 0.0000
# 2 5.2916 126.9716 0.2346 0.0000 4.8075 0.0000
# 3 37.2426 0.2346 100.7441 0.0000 12.7160 0.0000
# 4 0.0000 0.0000 0.0000 40.0010 0.0000 12.3371
# 5 20.7909 4.8075 12.7160 0.0000 46.6657 0.0000
# 6 0.0000 0.0000 0.0000 12.3371 0.0000 60.9988
#
#
#
# Elastic Compliance Matrix: (Units=1/GPa)
#
#
# Indices 1 2 3 4 5 6 
#
# 1 0.007240 -0.000200 -0.002352 0.000000 -0.002564 0.000000
# 2 -0.000200 0.007913 0.000152 0.000000 -0.000768 0.000000
# 3 -0.002352 0.000152 0.011045 0.000000 -0.001977 0.000000
# 4 0.000000 0.000000 0.000000 0.026663 0.000000 -0.005393
# 5 -0.002564 -0.000768 -0.001977 0.000000 0.023189 0.000000
# 6 0.000000 0.000000 0.000000 -0.005393 0.000000 0.017484
#
#
# Mechanical properties :
#
#
# Convention : Reuss Voigt Hill
#
# Bulk Modulus (GPa) = 46.73411 52.33117 49.53264
# Shear Modulus (GPa) = 47.40803 52.37804 49.89304
#
# Velocity S-wave (km/s) = 4.01381 4.21896 4.11766
# Velocity P-wave (km/s) = 6.11249 6.44333 6.28009
#
# Compressibility (1/GPa) = 0.02139765
#
# Stress axis : x y z
#
# Youngs Moduli (GPa) = 138.11725 126.37584 90.53879
#
# Poissons Ratio (x) = 0.02531 0.21299
# Poissons Ratio (y) = 0.02767 -0.01381
# Poissons Ratio (z) = 0.32491 -0.01927
#
# Static dielectric constant tensor:
#      x y z
#    x 2.398250 0.000000 -0.124310 
#    y 0.000000 2.525380 0.000000 
#    z -0.124310 0.000000 2.388230 
# 
# From -- ./inp_files/38923.got.cif
#   From: 2010.05.17/outbox.cif.g08.bks.cpg/sg14_20_cif.got.tgz:38923.got - 2010.06.03 17:49:19.
