data_PCOD9239885
_publ_section_title
;
Structure prediction by ZEFSAII (Michael W. Deem and Ramdas Pophale) SiO2 
 PCOD9239885
Probable space group: P 21/C
;
_chemical_formula_sum "Si O2"
_cell_formula_units_Z 20
_cell_length_a 18.865826
_cell_length_b 7.152172
_cell_length_c 11.394402
_cell_angle_alpha 90.000000
_cell_angle_beta 27.627069
_cell_angle_gamma 90.000000
_cell_volume 712.945188
_symmetry_space_group_name_H-M "P 21/C"
_symmetry_group_IT_number 14
_symmetry_cell_setting 'monoclinic'
loop_
_space_group_symop_operation_xyz
x,y,z
-x,1/2+y,1/2-z
-x,-y,-z
x,1/2-y,1/2+z
loop_
_atom_site_type_symbol
_atom_site_label
_atom_site_fract_x
_atom_site_fract_y
_atom_site_fract_z
Si Si1 0.476596 0.503267 0.724295
Si Si2 0.936709 0.735728 0.961521
Si Si3 0.371677 0.270722 0.190494
Si Si4 0.201031 0.562933 0.680423
Si Si5 0.227107 0.911920 0.776140
O O1 0.537323 0.662492 0.546522
O O2 0.448251 0.313646 0.692696
O O3 0.620656 0.466066 0.596438
O O4 0.321665 0.549739 0.017576
O O5 0.805629 0.695345 0.057829
O O6 0.871407 0.633237 0.174344
O O7 0.921663 0.957320 0.997940
O O8 0.106644 0.654484 0.712128
O O9 0.340257 0.487589 0.203782
O O10 0.187203 0.696627 0.817013
#
# Coordination Sequence:
#
# PCOD9239885 Si02
#       5
#     4   4   4   4   4
#     4  10  18  34  56  78 109 143 179 226 267 317
#     4   8  19  36  53  77 108 140 175 221 275 316
#     4   8  19  34  53  77 110 140 175 226 271 315
#     4  10  18  32  60  76 104 146 175 221 274 315
#     4  10  19  33  59  77 107 142 187 216 268 324
#
# _framework density 28.052647
#
# number of rings (size 3 to 8) (size 9 to 14) (size 15 to 20)
#    1.200    1.600    0.000    1.800    0.000    0.800 
#    0.000    0.000   22.000    0.000    0.000    0.000 
#    0.000    0.000    0.000    0.000    0.000    0.000 
#
# Total GULP energy -111757.219342 kJ/mol
# GULP energy per Si atom -5587.860967 kJ/mol
# Density = 2.798880 g / cm^3
# Si number density = 28.052647 Si / 1000 Ang^3
#
#
#
# Elastic Constant Matrix: (Units=GPa)
#
#
# Indices 1 2 3 4 5 6 
#
# 1 91.4015 15.9450 36.7275 0.0000 -13.6483 0.0000
# 2 15.9450 137.2428 15.6739 0.0000 16.4727 0.0000
# 3 36.7275 15.6739 100.1170 0.0000 -13.9592 0.0000
# 4 0.0000 0.0000 0.0000 48.5922 0.0000 -5.9348
# 5 -13.6483 16.4727 -13.9592 0.0000 33.2083 0.0000
# 6 0.0000 0.0000 0.0000 -5.9348 0.0000 38.8882
#
#
#
# Elastic Compliance Matrix: (Units=1/GPa)
#
#
# Indices 1 2 3 4 5 6 
#
# 1 0.013566 -0.001677 -0.004059 0.000000 0.004701 0.000000
# 2 -0.001677 0.008294 -0.001437 0.000000 -0.005408 0.000000
# 3 -0.004059 -0.001437 0.012289 0.000000 0.004211 0.000000
# 4 0.000000 0.000000 0.000000 0.020970 0.000000 0.003200
# 5 0.004701 -0.005408 0.004211 0.000000 0.036498 0.000000
# 6 0.000000 0.000000 0.000000 0.003200 0.000000 0.026203
#
#
# Mechanical properties :
#
#
# Convention : Reuss Voigt Hill
#
# Bulk Modulus (GPa) = 50.49468 51.71711 51.10590
# Shear Modulus (GPa) = 36.03129 41.49873 38.76501
#
# Velocity S-wave (km/s) = 3.58776 3.85036 3.72138
# Velocity P-wave (km/s) = 5.93311 6.18408 6.05989
#
# Compressibility (1/GPa) = 0.01980407
#
# Stress axis : x y z
#
# Youngs Moduli (GPa) = 73.71277 120.56323 81.37118
#
# Poissons Ratio (x) = 0.20217 0.33026
# Poissons Ratio (y) = 0.12361 0.11696
# Poissons Ratio (z) = 0.29918 0.17329
#
# Static dielectric constant tensor:
#      x y z
#    x 2.186420 0.000000 -0.053190 
#    y 0.000000 2.193110 0.000000 
#    z -0.053190 0.000000 2.138970 
# 
# From -- ./inp_files/51196.got.cif
#   From: 2010.05.17/outbox.cif.g08.bks.cpg/sg14_26_cif.got.tgz:51196.got - 2010.06.03 17:49:19.
