data_PCOD9239404
_publ_section_title
;
Structure prediction by ZEFSAII (Michael W. Deem and Ramdas Pophale) SiO2 
 PCOD9239404
Probable space group: P 21/C
;
_chemical_formula_sum "Si O2"
_cell_formula_units_Z 28
_cell_length_a 11.401911
_cell_length_b 10.575196
_cell_length_c 14.245073
_cell_angle_alpha 90.000000
_cell_angle_beta 136.801187
_cell_angle_gamma 90.000000
_cell_volume 1175.775776
_symmetry_space_group_name_H-M "P 21/C"
_symmetry_group_IT_number 14
_symmetry_cell_setting 'monoclinic'
loop_
_space_group_symop_operation_xyz
x,y,z
-x,1/2+y,1/2-z
-x,-y,-z
x,1/2-y,1/2+z
loop_
_atom_site_type_symbol
_atom_site_label
_atom_site_fract_x
_atom_site_fract_y
_atom_site_fract_z
Si Si1 0.629998 0.531339 0.494466
Si Si2 0.241876 0.700196 0.558370
Si Si3 0.047418 0.605550 0.605813
Si Si4 0.738078 0.471157 0.905481
Si Si5 0.884333 0.013892 0.289737
Si Si6 0.719695 0.728944 0.978561
Si Si7 0.057768 0.369544 0.738475
O O1 0.500000 0.500000 0.500000
O O2 0.673340 0.416201 0.449188
O O3 0.795242 0.567169 0.656347
O O4 0.588811 0.656640 0.413175
O O5 0.206468 0.673708 0.647803
O O6 0.328729 0.836557 0.597128
O O7 0.045631 0.705486 0.401251
O O8 0.084283 0.513118 0.715644
O O9 0.000000 0.500000 0.500000
O O10 0.885249 0.699417 0.527276
O O11 0.765668 0.471540 0.810069
O O12 0.657974 0.605729 0.886551
O O13 0.929530 0.479743 0.062328
O O14 0.923732 0.135592 0.248173
O O15 0.771586 0.676017 0.111691
#
# Coordination Sequence:
#
# PCOD9239404 Si02
#       7
#     4   4   4   4   4   4   4
#     4  11  23  41  58  76 118 168 198 221 272 365
#     4  10  19  35  56  85 115 150 187 235 296 335
#     4  10  17  32  52  84 116 142 182 240 289 344
#     4  10  20  33  62  89 119 137 181 264 302 326
#     4   9  17  36  54  89 116 146 180 231 305 335
#     4  11  20  35  56  91 114 147 192 236 300 342
#     4   9  18  28  54  84 120 142 180 236 287 339
#
# _framework density 23.814063000000001
#
# number of rings (size 3 to 8) (size 9 to 14) (size 15 to 20)
#    0.000    2.000    4.286    3.429    2.000    1.143 
#    0.000    2.143    0.000    0.000    0.000    0.000 
#    0.000    0.000    0.000    0.000    0.000    0.000 
#
# Total GULP energy -155870.351703 kJ/mol
# GULP energy per Si atom -5566.798275 kJ/mol
# Density = 2.375986 g / cm^3
# Si number density = 23.814063 Si / 1000 Ang^3
#
#
#
# Elastic Constant Matrix: (Units=GPa)
#
#
# Indices 1 2 3 4 5 6 
#
# 1 102.3889 50.6254 10.0953 0.0000 -26.9125 0.0000
# 2 50.6254 171.0344 17.2750 0.0000 -29.2066 0.0000
# 3 10.0953 17.2750 94.4966 0.0000 -14.1548 0.0000
# 4 0.0000 0.0000 0.0000 15.4662 0.0000 -14.7775
# 5 -26.9125 -29.2066 -14.1548 0.0000 27.4195 0.0000
# 6 0.0000 0.0000 0.0000 -14.7775 0.0000 16.1441
#
#
#
# Elastic Compliance Matrix: (Units=1/GPa)
#
#
# Indices 1 2 3 4 5 6 
#
# 1 0.013825 -0.002180 0.000657 0.000000 0.011587 0.000000
# 2 -0.002180 0.007493 -0.000284 0.000000 0.005695 0.000000
# 3 0.000657 -0.000284 0.011505 0.000000 0.006282 0.000000
# 4 0.000000 0.000000 0.000000 0.515585 0.000000 0.471941
# 5 0.011587 0.005695 0.006282 0.000000 0.057153 0.000000
# 6 0.000000 0.000000 0.000000 0.471941 0.000000 0.493933
#
#
# Mechanical properties :
#
#
# Convention : Reuss Voigt Hill
#
# Bulk Modulus (GPa) = 34.23450 58.21240 46.22345
# Shear Modulus (GPa) = 4.49299 31.13423 17.81361
#
# Velocity S-wave (km/s) = 1.37506 3.61971 2.73798
# Velocity P-wave (km/s) = 4.11437 6.47822 5.42657
#
# Compressibility (1/GPa) = 0.02921030
#
# Stress axis : x y z
#
# Youngs Moduli (GPa) = 72.33107 133.45267 86.91838
#
# Poissons Ratio (x) = 0.29092 -0.05712
# Poissons Ratio (y) = 0.15768 0.02467
# Poissons Ratio (z) = -0.04753 0.03788
#
# Static dielectric constant tensor:
#      x y z
#    x 1.936090 0.000000 0.040120 
#    y 0.000000 2.035100 0.000000 
#    z 0.040120 0.000000 1.993560 
# 
# From -- ./inp_files/44089.got.cif
#   From: 2010.05.17/outbox.cif.g08.bks.cpg/sg14_23_cif.got.tgz:44089.got - 2010.06.03 17:49:19.
