data_PCOD9239553
_publ_section_title
;
Structure prediction by ZEFSAII (Michael W. Deem and Ramdas Pophale) SiO2 
 PCOD9239553
Probable space group: P 21/C
;
_chemical_formula_sum "Si O2"
_cell_formula_units_Z 32
_cell_length_a 23.495120
_cell_length_b 8.892795
_cell_length_c 13.319776
_cell_angle_alpha 90.000000
_cell_angle_beta 146.846718
_cell_angle_gamma 90.000000
_cell_volume 1521.967971
_symmetry_space_group_name_H-M "P 21/C"
_symmetry_group_IT_number 14
_symmetry_cell_setting 'monoclinic'
loop_
_space_group_symop_operation_xyz
x,y,z
-x,1/2+y,1/2-z
-x,-y,-z
x,1/2-y,1/2+z
loop_
_atom_site_type_symbol
_atom_site_label
_atom_site_fract_x
_atom_site_fract_y
_atom_site_fract_z
Si Si1 0.543781 0.253203 0.291136
Si Si2 0.634410 0.535985 0.941399
Si Si3 0.236135 0.548531 0.063276
Si Si4 0.946117 0.511367 0.812166
Si Si5 0.928563 0.702217 0.149099
Si Si6 0.589449 0.591155 0.576176
Si Si7 0.724653 0.637724 0.275364
Si Si8 0.734454 0.116654 0.946929
O O1 0.599858 0.124312 0.436856
O O2 0.631333 0.344009 0.358379
O O3 0.466547 0.364928 0.231052
O O4 0.468599 0.157618 0.106332
O O5 0.693755 0.500198 0.927757
O O6 0.702483 0.617130 0.125533
O O7 0.135354 0.443921 0.906765
O O8 0.306940 0.514070 0.266816
O O9 0.220563 0.724562 0.025485
O O10 0.964534 0.675581 0.786215
O O11 0.822696 0.476137 0.637481
O O12 0.990135 0.378348 0.804898
O O13 0.000000 0.500000 0.000000
O O14 0.840097 0.797623 0.960207
O O15 0.500000 0.500000 0.500000
O O16 0.641444 0.743460 0.696994
O O17 0.710900 0.486179 0.316697
#
# Coordination Sequence:
#
# PCOD9239553 Si02
#       8
#     4   4   4   4   4   4   4   4
#     4  10  22  36  55  89 126 166 216 256 313 393
#     4  10  21  36  56  93 125 166 210 256 316 388
#     4  10  21  39  65  89 130 167 211 263 330 397
#     4  11  25  47  72  99 130 173 225 281 348 404
#     4  10  23  46  67  98 129 166 214 286 332 407
#     4  10  17  36  56  84 119 171 205 252 322 381
#     4   9  22  36  62  87 125 166 212 266 328 393
#     4  10  21  43  59  92 123 166 218 270 329 395
#
# _framework density 21.025410000000001
#
# number of rings (size 3 to 8) (size 9 to 14) (size 15 to 20)
#    0.000    2.000    2.500    0.750    1.750    7.000 
#   18.000    1.250    0.000    0.000    0.000    0.000 
#    0.000    0.000    0.000    0.000    0.000    0.000 
#
# Total GULP energy -178351.665101 kJ/mol
# GULP energy per Si atom -5573.489534 kJ/mol
# Density = 2.097756 g / cm^3
# Si number density = 21.025410 Si / 1000 Ang^3
#
#
#
# Elastic Constant Matrix: (Units=GPa)
#
#
# Indices 1 2 3 4 5 6 
#
# 1 40.6351 29.5317 30.6158 0.0000 7.0716 0.0000
# 2 29.5317 100.8255 14.7401 0.0000 3.3197 0.0000
# 3 30.6158 14.7401 79.1086 0.0000 -8.2063 0.0000
# 4 0.0000 0.0000 0.0000 29.1049 0.0000 8.2251
# 5 7.0716 3.3197 -8.2063 0.0000 16.7973 0.0000
# 6 0.0000 0.0000 0.0000 8.2251 0.0000 33.2335
#
#
#
# Elastic Compliance Matrix: (Units=1/GPa)
#
#
# Indices 1 2 3 4 5 6 
#
# 1 0.056304 -0.012071 -0.022914 0.000000 -0.032513 0.000000
# 2 -0.012071 0.012939 0.002657 0.000000 0.003823 0.000000
# 3 -0.022914 0.002657 0.023132 0.000000 0.020423 0.000000
# 4 0.000000 0.000000 0.000000 0.036942 0.000000 -0.009143
# 5 -0.032513 0.003823 0.020423 0.000000 0.082443 0.000000
# 6 0.000000 0.000000 0.000000 -0.009143 0.000000 0.032353
#
#
# Mechanical properties :
#
#
# Convention : Reuss Voigt Hill
#
# Bulk Modulus (GPa) = 36.07458 41.14939 38.61199
# Shear Modulus (GPa) = 15.72285 25.53925 20.63105
#
# Velocity S-wave (km/s) = 2.73756 3.48901 3.13588
# Velocity P-wave (km/s) = 5.21413 5.98705 5.61391
#
# Compressibility (1/GPa) = 0.02772035
#
# Stress axis : x y z
#
# Youngs Moduli (GPa) = 17.76078 77.28348 43.23001
#
# Poissons Ratio (x) = 0.93289 0.99056
# Poissons Ratio (y) = 0.21439 -0.11487
# Poissons Ratio (z) = 0.40696 -0.20536
#
# Static dielectric constant tensor:
#      x y z
#    x 1.759550 0.000000 0.015730 
#    y 0.000000 1.982350 0.000000 
#    z 0.015730 0.000000 1.796890 
# 
# From -- ./inp_files/51398.got.cif
#   From: 2010.05.17/outbox.cif.g08.bks.cpg/sg14_26_cif.got.tgz:51398.got - 2010.06.03 17:49:19.
