data_PCOD9239078
_publ_section_title
;
Structure prediction by ZEFSAII (Michael W. Deem and Ramdas Pophale) SiO2 
 PCOD9239078
Probable space group: P 2/C
;
_chemical_formula_sum "Si O2"
_cell_formula_units_Z 20
_cell_length_a 6.000000
_cell_length_b 9.000000
_cell_length_c 18.000000
_cell_angle_alpha 90.000000
_cell_angle_beta 80.000000
_cell_angle_gamma 90.000000
_cell_volume 957.233136
_symmetry_space_group_name_H-M "P 2/C"
_symmetry_group_IT_number 13
_symmetry_cell_setting 'monoclinic'
loop_
_space_group_symop_operation_xyz
x,y,z
-x,y,1/2-z
-x,-y,-z
x,-y,1/2+z
loop_
_atom_site_type_symbol
_atom_site_label
_atom_site_fract_x
_atom_site_fract_y
_atom_site_fract_z
Si Si1 0.703768 0.578478 0.530272
Si Si2 0.097560 0.060771 0.826848
Si Si3 0.557781 0.207228 0.166036
Si Si4 0.924956 0.275690 0.563488
Si Si5 0.282064 0.928677 0.553333
O O1 0.500000 0.500000 0.500000
O O2 0.669743 0.676240 0.605360
O O3 0.841567 0.440871 0.553132
O O4 0.809740 0.693137 0.464947
O O5 0.174369 0.219990 0.852455
O O6 0.000000 0.060605 0.750000
O O7 0.284297 0.934808 0.826067
O O8 0.911733 0.034417 0.902654
O O9 0.500000 0.269683 0.250000
O O10 0.354295 0.152260 0.125475
O O11 0.827515 0.178704 0.500944
O O12 0.500000 0.000000 0.500000
#
# Coordination Sequence:
#
# PCOD9239078 Si02
#       5
#     4   4   4   4   4
#     4  11  24  44  66  94 132 179 225 271 333 406
#     4  12  25  43  65  99 136 169 220 284 342 399
#     4  12  24  43  66  97 133 176 220 278 344 403
#     4  11  24  42  67  96 129 173 230 275 327 409
#     4  12  22  39  72  97 126 171 226 281 333 397
#
# _framework density 20.893552
#
# number of rings (size 3 to 8) (size 9 to 14) (size 15 to 20)
#    0.000    0.400    8.000    1.800    0.000    0.000 
#    3.600    0.000    0.000    0.000    0.000    0.000 
#    0.000    0.000    0.000    0.000    0.000    0.000 
#
# Total GULP energy -111349.753381 kJ/mol
# GULP energy per Si atom -5567.487669 kJ/mol
# Density = 2.084600 g / cm^3
# Si number density = 20.893552 Si / 1000 Ang^3
#
#
#
# Elastic Constant Matrix: (Units=GPa)
#
#
# Indices 1 2 3 4 5 6 
#
# 1 45.7741 19.4007 15.3565 0.0000 20.2812 0.0000
# 2 19.4007 80.8719 35.7929 0.0000 10.8520 0.0000
# 3 15.3565 35.7929 64.2838 0.0000 36.5520 0.0000
# 4 0.0000 0.0000 0.0000 6.3835 0.0000 -7.1917
# 5 20.2812 10.8520 36.5520 0.0000 39.0684 0.0000
# 6 0.0000 0.0000 0.0000 -7.1917 0.0000 28.8135
#
#
#
# Elastic Compliance Matrix: (Units=1/GPa)
#
#
# Indices 1 2 3 4 5 6 
#
# 1 0.033624 -0.010116 0.012665 0.000000 -0.026494 0.000000
# 2 -0.010116 0.020899 -0.019027 0.000000 0.017248 0.000000
# 3 0.012665 -0.019027 0.050976 0.000000 -0.048983 0.000000
# 4 0.000000 0.000000 0.000000 0.217935 0.000000 0.054395
# 5 -0.026494 0.017248 -0.048983 0.000000 0.080387 0.000000
# 6 0.000000 0.000000 0.000000 0.054395 0.000000 0.048283
#
#
# Mechanical properties :
#
#
# Convention : Reuss Voigt Hill
#
# Bulk Modulus (GPa) = 13.78494 36.89219 25.33857
# Shear Modulus (GPa) = 9.81855 22.87841 16.34848
#
# Velocity S-wave (km/s) = 2.17014 3.31267 2.80029
# Velocity P-wave (km/s) = 3.59046 5.68570 4.75492
#
# Compressibility (1/GPa) = 0.07254294
#
# Stress axis : x y z
#
# Youngs Moduli (GPa) = 29.74059 47.84987 19.61699
#
# Poissons Ratio (x) = 0.48407 -0.24846
# Poissons Ratio (y) = 0.30087 0.37325
# Poissons Ratio (z) = -0.37667 0.91043
#
# Static dielectric constant tensor:
#      x y z
#    x 2.097290 0.000000 -0.131460 
#    y 0.000000 1.712370 0.000000 
#    z -0.131460 0.000000 1.663970 
# 
# From -- ./inp_files/60579.got.cif
#   From: 2010.05.17/outbox.ucp.g08.bks.cvg/sg13_31_cif.got.tgz:60579.got - 2010.06.11 12:23:55.
