data_PCOD9239467
_publ_section_title
;
Structure prediction by ZEFSAII (Michael W. Deem and Ramdas Pophale) SiO2 
 PCOD9239467
Probable space group: P 21/C
;
_chemical_formula_sum "Si O2"
_cell_formula_units_Z 32
_cell_length_a 12.363671
_cell_length_b 11.729978
_cell_length_c 12.121692
_cell_angle_alpha 90.000000
_cell_angle_beta 90.332686
_cell_angle_gamma 90.000000
_cell_volume 1757.925885
_symmetry_space_group_name_H-M "P 21/C"
_symmetry_group_IT_number 14
_symmetry_cell_setting 'monoclinic'
loop_
_space_group_symop_operation_xyz
x,y,z
-x,1/2+y,1/2-z
-x,-y,-z
x,1/2-y,1/2+z
loop_
_atom_site_type_symbol
_atom_site_label
_atom_site_fract_x
_atom_site_fract_y
_atom_site_fract_z
Si Si1 0.003241 0.166844 0.044120
Si Si2 0.497489 0.589598 0.901953
Si Si3 0.321979 0.119987 0.760714
Si Si4 0.763649 0.841213 0.862374
Si Si5 0.908198 0.956835 0.164683
Si Si6 0.372928 0.256111 0.957012
Si Si7 0.718170 0.514885 0.156698
Si Si8 0.957949 0.072241 0.604404
O O1 0.966406 0.295400 0.067810
O O2 0.110807 0.146626 0.116470
O O3 0.923377 0.072182 0.093431
O O4 0.039296 0.138917 0.917794
O O5 0.594178 0.557723 0.818787
O O6 0.378205 0.576232 0.853370
O O7 0.500000 0.500000 0.000000
O O8 0.531596 0.707707 0.960192
O O9 0.262098 0.220002 0.693002
O O10 0.219620 0.055816 0.811334
O O11 0.398317 0.187456 0.847263
O O12 0.722271 0.937517 0.780704
O O13 0.704809 0.828785 0.977786
O O14 0.971893 0.950985 0.282901
O O15 0.311147 0.372841 0.918823
O O16 0.834379 0.465216 0.125894
O O17 0.000000 0.000000 0.500000
#
# Coordination Sequence:
#
# PCOD9239467 Si02
#       8
#     4   4   4   4   4   4   4   4
#     4  11  23  40  59  93 132 166 206 268 316 370
#     4   9  20  37  58  84 118 155 201 259 299 356
#     4  10  19  34  64  90 113 160 210 246 300 375
#     4  10  17  33  61  85 118 155 205 255 297 372
#     4  11  24  39  62  93 130 163 216 264 312 372
#     4   9  18  35  62  87 113 160 213 251 299 362
#     4  10  21  38  56  89 124 155 203 263 314 373
#     4  12  26  38  64  93 127 173 207 252 325 386
#
# _framework density 18.20327
#
# number of rings (size 3 to 8) (size 9 to 14) (size 15 to 20)
#    0.000    1.750    3.750    0.750    7.000    0.000 
#    0.000    6.875    0.000    0.000    0.000    0.000 
#    0.000    0.000    0.000    0.000    0.000    0.000 
#
# Total GULP energy -178185.608237 kJ/mol
# GULP energy per Si atom -5568.300257 kJ/mol
# Density = 1.816184 g / cm^3
# Si number density = 18.203270 Si / 1000 Ang^3
#
#
#
# Elastic Constant Matrix: (Units=GPa)
#
#
# Indices 1 2 3 4 5 6 
#
# 1 127.7256 38.8473 51.9014 0.0000 -6.6565 0.0000
# 2 38.8473 69.2171 41.0802 0.0000 -8.9385 0.0000
# 3 51.9014 41.0802 100.4518 0.0000 -10.2257 0.0000
# 4 0.0000 0.0000 0.0000 15.5157 0.0000 -5.0606
# 5 -6.6565 -8.9385 -10.2257 0.0000 29.8952 0.0000
# 6 0.0000 0.0000 0.0000 -5.0606 0.0000 21.2914
#
#
#
# Elastic Compliance Matrix: (Units=1/GPa)
#
#
# Indices 1 2 3 4 5 6 
#
# 1 0.010528 -0.003547 -0.003998 0.000000 -0.000084 0.000000
# 2 -0.003547 0.020562 -0.006249 0.000000 0.003221 0.000000
# 3 -0.003998 -0.006249 0.014811 0.000000 0.002308 0.000000
# 4 0.000000 0.000000 0.000000 0.069867 0.000000 0.016606
# 5 -0.000084 0.003221 0.002308 0.000000 0.035184 0.000000
# 6 0.000000 0.000000 0.000000 0.016606 0.000000 0.050914
#
#
# Mechanical properties :
#
#
# Convention : Reuss Voigt Hill
#
# Bulk Modulus (GPa) = 54.60004 62.33914 58.46959
# Shear Modulus (GPa) = 21.22615 24.37816 22.80216
#
# Velocity S-wave (km/s) = 3.41847 3.66350 3.54311
# Velocity P-wave (km/s) = 6.75581 7.22603 6.99487
#
# Compressibility (1/GPa) = 0.01831501
#
# Stress axis : x y z
#
# Youngs Moduli (GPa) = 94.98306 48.63222 67.51822
#
# Poissons Ratio (x) = 0.17250 0.26991
# Poissons Ratio (y) = 0.33691 0.42189
# Poissons Ratio (z) = 0.37971 0.30388
#
# Static dielectric constant tensor:
#      x y z
#    x 1.636570 0.000000 0.002710 
#    y 0.000000 1.652320 0.000000 
#    z 0.002710 0.000000 1.699670 
# 
# From -- ./inp_files/29112.got.cif
#   From: 2010.05.17/outbox.cif.g08.bks.cpg/sg14_15_cif.got.tgz:29112.got - 2010.06.03 17:49:19.
