data_PCOD9239355
_publ_section_title
;
Structure prediction by ZEFSAII (Michael W. Deem and Ramdas Pophale) SiO2 
 PCOD9239355
Probable space group: P 21/C
;
_chemical_formula_sum "Si O2"
_cell_formula_units_Z 24
_cell_length_a 9.067954
_cell_length_b 4.821288
_cell_length_c 19.602448
_cell_angle_alpha 90.000000
_cell_angle_beta 85.887233
_cell_angle_gamma 90.000000
_cell_volume 854.796761
_symmetry_space_group_name_H-M "P 21/C"
_symmetry_group_IT_number 14
_symmetry_cell_setting 'monoclinic'
loop_
_space_group_symop_operation_xyz
x,y,z
-x,1/2+y,1/2-z
-x,-y,-z
x,1/2-y,1/2+z
loop_
_atom_site_type_symbol
_atom_site_label
_atom_site_fract_x
_atom_site_fract_y
_atom_site_fract_z
Si Si1 0.759905 0.670144 0.158990
Si Si2 0.289016 0.715501 0.507346
Si Si3 0.508272 0.005477 0.798364
Si Si4 0.917161 0.804441 0.281674
Si Si5 0.402725 0.303864 0.075059
Si Si6 0.078317 0.830525 0.902589
O O1 0.799548 0.360177 0.139728
O O2 0.780819 0.718011 0.239094
O O3 0.605199 0.814038 0.150910
O O4 0.880396 0.853386 0.114515
O O5 0.424867 0.818261 0.454414
O O6 0.323324 0.399636 0.523908
O O7 0.126831 0.732290 0.478632
O O8 0.318330 0.905429 0.572085
O O9 0.440575 0.754958 0.753824
O O10 0.599555 0.841209 0.852256
O O11 0.935052 0.741583 0.361453
O O12 0.044368 0.618881 0.239236
#
# Coordination Sequence:
#
# PCOD9239355 Si02
#       6
#     4   4   4   4   4   4
#     4  10  19  32  48  72 105 130 167 208 242 299
#     4  10  19  31  53  74 102 129 155 210 262 306
#     4  12  24  36  51  71 101 145 178 202 237 291
#     4   8  16  28  46  72 100 126 156 199 256 311
#     4  10  21  33  47  75 100 132 169 202 249 300
#     4  10  17  30  52  77 101 130 154 201 272 309
#
# _framework density 28.07685
#
# number of rings (size 3 to 8) (size 9 to 14) (size 15 to 20)
#    0.000    2.000    1.667    3.000    4.667    0.000 
#    0.000    0.000    0.000    0.000    0.000    7.000 
#    0.000    0.000    0.000    0.000    0.000    0.000 
#
# Total GULP energy -134142.017393 kJ/mol
# GULP energy per Si atom -5589.250725 kJ/mol
# Density = 2.801295 g / cm^3
# Si number density = 28.076850 Si / 1000 Ang^3
#
#
#
# Elastic Constant Matrix: (Units=GPa)
#
#
# Indices 1 2 3 4 5 6 
#
# 1 47.4619 1.6823 35.6407 0.0000 8.1192 0.0000
# 2 1.6823 108.3471 6.7219 0.0000 4.6820 0.0000
# 3 35.6407 6.7219 105.9119 0.0000 39.1362 0.0000
# 4 0.0000 0.0000 0.0000 42.3530 0.0000 12.2872
# 5 8.1192 4.6820 39.1362 0.0000 58.9568 0.0000
# 6 0.0000 0.0000 0.0000 12.2872 0.0000 25.6603
#
#
#
# Elastic Compliance Matrix: (Units=1/GPa)
#
#
# Indices 1 2 3 4 5 6 
#
# 1 0.028658 0.000088 -0.010850 0.000000 0.003249 0.000000
# 2 0.000088 0.009276 -0.000453 0.000000 -0.000448 0.000000
# 3 -0.010850 -0.000453 0.016637 0.000000 -0.009514 0.000000
# 4 0.000000 0.000000 0.000000 0.027420 0.000000 -0.013130
# 5 0.003249 -0.000448 -0.009514 0.000000 0.022865 0.000000
# 6 0.000000 0.000000 0.000000 -0.013130 0.000000 0.045258
#
#
# Mechanical properties :
#
#
# Convention : Reuss Voigt Hill
#
# Bulk Modulus (GPa) = 31.11219 38.86785 34.99002
# Shear Modulus (GPa) = 27.28401 39.90575 33.59488
#
# Velocity S-wave (km/s) = 3.12069 3.77411 3.46285
# Velocity P-wave (km/s) = 4.90817 5.73283 5.33645
#
# Compressibility (1/GPa) = 0.03214174
#
# Stress axis : x y z
#
# Youngs Moduli (GPa) = 34.89401 107.80874 60.10641
#
# Poissons Ratio (x) = -0.00946 0.65215
# Poissons Ratio (y) = -0.00306 0.02720
# Poissons Ratio (z) = 0.37859 0.04879
#
# Static dielectric constant tensor:
#      x y z
#    x 2.252990 0.000000 0.045270 
#    y 0.000000 2.056300 0.000000 
#    z 0.045270 0.000000 2.225860 
# 
# From -- ./inp_files/56620.got.cif
#   From: 2010.05.17/outbox.cif.g08.bks.cpg/sg14_29_cif.got.tgz:56620.got - 2010.06.03 17:49:19.
