data_PCOD9239523
_publ_section_title
;
Structure prediction by ZEFSAII (Michael W. Deem and Ramdas Pophale) SiO2 
 PCOD9239523
Probable space group: P 21/C
;
_chemical_formula_sum "Si O2"
_cell_formula_units_Z 24
_cell_length_a 14.431971
_cell_length_b 16.510255
_cell_length_c 8.316080
_cell_angle_alpha 90.000000
_cell_angle_beta 142.770002
_cell_angle_gamma 90.000000
_cell_volume 1198.850406
_symmetry_space_group_name_H-M "P 21/C"
_symmetry_group_IT_number 14
_symmetry_cell_setting 'monoclinic'
loop_
_space_group_symop_operation_xyz
x,y,z
-x,1/2+y,1/2-z
-x,-y,-z
x,1/2-y,1/2+z
loop_
_atom_site_type_symbol
_atom_site_label
_atom_site_fract_x
_atom_site_fract_y
_atom_site_fract_z
Si Si1 0.554123 0.449699 0.917982
Si Si2 0.688936 0.662732 0.336911
Si Si3 0.642483 0.427109 0.529895
Si Si4 0.109393 0.007544 0.807029
Si Si5 0.189475 0.992758 0.433657
Si Si6 0.662320 0.660591 0.917905
O O1 0.481277 0.362352 0.838513
O O2 0.466546 0.494689 0.650664
O O3 0.500000 0.500000 0.000000
O O4 0.730789 0.460132 0.118745
O O5 0.800454 0.593116 0.560916
O O6 0.718393 0.753833 0.430281
O O7 0.691260 0.656390 0.148275
O O8 0.764867 0.437042 0.552830
O O9 0.520068 0.354842 0.359418
O O10 0.736483 0.437597 0.822902
O O11 0.991767 0.006621 0.792408
O O12 0.000000 0.000000 0.500000
O O13 0.248048 0.085025 0.535482
#
# Coordination Sequence:
#
# PCOD9239523 Si02
#       6
#     4   4   4   4   4   4
#     4  10  17  35  56  85 113 147 206 247 279 353
#     4  11  24  37  60  89 126 156 203 259 305 359
#     4   9  19  37  62  86 118 158 204 245 288 365
#     4   9  21  40  65  87 120 164 209 244 303 373
#     4  10  20  38  66  86 117 166 205 241 308 364
#     4  11  23  37  60  93 121 157 205 256 311 346
#
# _framework density 20.019178
#
# number of rings (size 3 to 8) (size 9 to 14) (size 15 to 20)
#    0.000    2.000    3.333    2.000    9.333    0.667 
#    0.000    1.667    0.000    0.000    0.000    0.000 
#    0.000    0.000    0.000    0.000    0.000    0.000 
#
# Total GULP energy -133749.826204 kJ/mol
# GULP energy per Si atom -5572.909425 kJ/mol
# Density = 1.997361 g / cm^3
# Si number density = 20.019178 Si / 1000 Ang^3
#
#
#
# Elastic Constant Matrix: (Units=GPa)
#
#
# Indices 1 2 3 4 5 6 
#
# 1 152.7392 28.6276 23.4099 0.0000 22.0647 0.0000
# 2 28.6276 96.6010 20.9270 0.0000 7.8997 0.0000
# 3 23.4099 20.9270 86.3823 0.0000 4.1581 0.0000
# 4 0.0000 0.0000 0.0000 23.7204 0.0000 -1.7183
# 5 22.0647 7.8997 4.1581 0.0000 36.5406 0.0000
# 6 0.0000 0.0000 0.0000 -1.7183 0.0000 24.6660
#
#
#
# Elastic Compliance Matrix: (Units=1/GPa)
#
#
# Indices 1 2 3 4 5 6 
#
# 1 0.007672 -0.001614 -0.001490 0.000000 -0.004114 0.000000
# 2 -0.001614 0.011423 -0.002270 0.000000 -0.001236 0.000000
# 3 -0.001490 -0.002270 0.012532 0.000000 -0.000035 0.000000
# 4 0.000000 0.000000 0.000000 0.042372 0.000000 0.002952
# 5 -0.004114 -0.001236 -0.000035 0.000000 0.030123 0.000000
# 6 0.000000 0.000000 0.000000 0.002952 0.000000 0.040747
#
#
# Mechanical properties :
#
#
# Convention : Reuss Voigt Hill
#
# Bulk Modulus (GPa) = 47.89766 53.51684 50.70725
# Shear Modulus (GPa) = 30.75445 34.50261 32.62853
#
# Velocity S-wave (km/s) = 3.92375 4.15598 4.04154
# Velocity P-wave (km/s) = 6.67125 7.05836 6.86753
#
# Compressibility (1/GPa) = 0.02087785
#
# Stress axis : x y z
#
# Youngs Moduli (GPa) = 130.33654 87.54081 79.79579
#
# Poissons Ratio (x) = 0.14133 0.11890
# Poissons Ratio (y) = 0.21042 0.18116
# Poissons Ratio (z) = 0.19421 0.19875
#
# Static dielectric constant tensor:
#      x y z
#    x 1.802940 0.000000 -0.003090 
#    y 0.000000 1.689080 0.000000 
#    z -0.003090 0.000000 1.766030 
# 
# From -- ./inp_files/19148.got.cif
#   From: 2010.05.17/outbox.cif.g08.bks.cpg/sg14_10_cif.got.tgz:19148.got - 2010.06.03 17:49:19.
