data_PCOD9239857
_publ_section_title
;
Structure prediction by ZEFSAII (Michael W. Deem and Ramdas Pophale) SiO2 
 PCOD9239857
Probable space group: P 21/C
;
_chemical_formula_sum "Si O2"
_cell_formula_units_Z 28
_cell_length_a 9.044176
_cell_length_b 8.449678
_cell_length_c 19.419972
_cell_angle_alpha 90.000000
_cell_angle_beta 138.958749
_cell_angle_gamma 90.000000
_cell_volume 974.451241
_symmetry_space_group_name_H-M "P 21/C"
_symmetry_group_IT_number 14
_symmetry_cell_setting 'monoclinic'
loop_
_space_group_symop_operation_xyz
x,y,z
-x,1/2+y,1/2-z
-x,-y,-z
x,1/2-y,1/2+z
loop_
_atom_site_type_symbol
_atom_site_label
_atom_site_fract_x
_atom_site_fract_y
_atom_site_fract_z
Si Si1 0.320565 0.611055 0.551812
Si Si2 0.147264 0.402807 0.879580
Si Si3 0.241117 0.208307 0.275494
Si Si4 0.350890 0.761712 0.423694
Si Si5 0.564540 0.387746 0.182087
Si Si6 0.786278 0.201166 0.360217
Si Si7 0.278569 0.163690 0.138636
O O1 0.588775 0.644367 0.660217
O O2 0.306972 0.626320 0.464660
O O3 0.198634 0.749520 0.554836
O O4 0.235949 0.451831 0.559377
O O5 0.075273 0.323561 0.780738
O O6 0.191494 0.589184 0.886456
O O7 0.982167 0.375995 0.885358
O O8 0.388039 0.318147 0.974710
O O9 0.404217 0.053712 0.342725
O O10 0.154252 0.188528 0.167375
O O11 0.360684 0.750929 0.344937
O O12 0.741005 0.371513 0.306529
O O13 0.319766 0.339180 0.121585
O O14 0.538792 0.127962 0.256997
#
# Coordination Sequence:
#
# PCOD9239857 Si02
#       7
#     4   4   4   4   4   4   4
#     4  10  18  32  56  79 108 144 181 218 278 324
#     4   9  18  34  54  80 105 144 186 227 265 313
#     4   9  15  32  53  76 101 140 184 218 261 317
#     4   9  19  34  53  77 112 146 175 221 283 323
#     4   9  18  33  56  76 109 142 180 225 266 320
#     4   9  19  33  55  81 106 139 190 226 256 319
#     4   9  17  32  52  82 104 143 173 226 272 319
#
# _framework density 28.734123
#
# number of rings (size 3 to 8) (size 9 to 14) (size 15 to 20)
#    0.857    2.000    1.429    0.857    0.000    1.143 
#   10.286    0.000    3.143    0.857    0.000    0.000 
#    0.000    0.000    0.000    0.000    0.000    0.000 
#
# Total GULP energy -156347.166317 kJ/mol
# GULP energy per Si atom -5583.827368 kJ/mol
# Density = 2.866872 g / cm^3
# Si number density = 28.734123 Si / 1000 Ang^3
#
#
#
# Elastic Constant Matrix: (Units=GPa)
#
#
# Indices 1 2 3 4 5 6 
#
# 1 170.4381 9.6079 36.8487 0.0000 -16.5301 0.0000
# 2 9.6079 52.9760 0.6194 0.0000 9.1089 0.0000
# 3 36.8487 0.6194 103.2289 0.0000 -36.2384 0.0000
# 4 0.0000 0.0000 0.0000 23.3140 0.0000 -10.7206
# 5 -16.5301 9.1089 -36.2384 0.0000 47.8281 0.0000
# 6 0.0000 0.0000 0.0000 -10.7206 0.0000 42.0795
#
#
#
# Elastic Compliance Matrix: (Units=1/GPa)
#
#
# Indices 1 2 3 4 5 6 
#
# 1 0.006460 -0.001323 -0.001942 0.000000 0.001013 0.000000
# 2 -0.001323 0.020075 -0.001568 0.000000 -0.005469 0.000000
# 3 -0.001942 -0.001568 0.013977 0.000000 0.010217 0.000000
# 4 0.000000 0.000000 0.000000 0.048584 0.000000 0.012378
# 5 0.001013 -0.005469 0.010217 0.000000 0.030041 0.000000
# 6 0.000000 0.000000 0.000000 0.012378 0.000000 0.026918
#
#
# Mechanical properties :
#
#
# Convention : Reuss Voigt Hill
#
# Bulk Modulus (GPa) = 32.42025 46.75500 39.58762
# Shear Modulus (GPa) = 30.11976 41.28212 35.70094
#
# Velocity S-wave (km/s) = 3.24114 3.79449 3.52868
# Velocity P-wave (km/s) = 5.03130 5.95856 5.51445
#
# Compressibility (1/GPa) = 0.03084492
#
# Stress axis : x y z
#
# Youngs Moduli (GPa) = 154.79850 49.81311 71.54743
#
# Poissons Ratio (x) = 0.06591 0.13898
# Poissons Ratio (y) = 0.20481 0.11218
# Poissons Ratio (z) = 0.30069 0.07810
#
# Static dielectric constant tensor:
#      x y z
#    x 2.257560 0.000000 0.023630 
#    y 0.000000 2.353890 0.000000 
#    z 0.023630 0.000000 2.396370 
# 
# From -- ./inp_files/65280.got.cif
#   From: 2010.05.17/outbox.cif.g08.bks.cpg/sg14_33_cif.got.tgz:65280.got - 2010.06.03 17:49:19.
