data_PCOD9239524
_publ_section_title
;
Structure prediction by ZEFSAII (Michael W. Deem and Ramdas Pophale) SiO2 
 PCOD9239524
Probable space group: P 21/C
;
_chemical_formula_sum "Si O2"
_cell_formula_units_Z 24
_cell_length_a 19.786384
_cell_length_b 9.884991
_cell_length_c 13.209068
_cell_angle_alpha 90.000000
_cell_angle_beta 21.018277
_cell_angle_gamma 90.000000
_cell_volume 926.626635
_symmetry_space_group_name_H-M "P 21/C"
_symmetry_group_IT_number 14
_symmetry_cell_setting 'monoclinic'
loop_
_space_group_symop_operation_xyz
x,y,z
-x,1/2+y,1/2-z
-x,-y,-z
x,1/2-y,1/2+z
loop_
_atom_site_type_symbol
_atom_site_label
_atom_site_fract_x
_atom_site_fract_y
_atom_site_fract_z
Si Si1 0.278985 0.251897 0.227216
Si Si2 0.293361 0.826897 0.929686
Si Si3 0.641452 0.502776 0.490092
Si Si4 0.779083 0.455126 0.919572
Si Si5 0.969773 0.185328 0.987785
Si Si6 0.825350 0.612530 0.420533
O O1 0.114440 0.298754 0.381159
O O2 0.236634 0.299989 0.398522
O O3 0.485438 0.311070 0.906793
O O4 0.282370 0.088573 0.209711
O O5 0.208343 0.679923 0.030888
O O6 0.272368 0.869984 0.078620
O O7 0.188514 0.954484 0.027880
O O8 0.672407 0.607339 0.541755
O O9 0.423156 0.480713 0.779538
O O10 0.931327 0.569459 0.717501
O O11 0.795024 0.393493 0.782882
O O12 0.993979 0.322428 0.888774
#
# Coordination Sequence:
#
# PCOD9239524 Si02
#       6
#     4   4   4   4   4   4
#     4  10  17  35  57  79 109 139 181 223 263 313
#     4   9  18  33  59  81  99 141 188 218 258 314
#     4   8  18  33  56  80  99 141 183 222 257 307
#     4  10  19  35  57  77 112 142 174 219 275 320
#     4  10  20  35  56  77 113 148 166 217 281 321
#     4   9  19  34  57  80 105 142 183 222 260 314
#
# _framework density 25.900400000000001
#
# number of rings (size 3 to 8) (size 9 to 14) (size 15 to 20)
#    1.000    1.667    1.667    0.500    0.000    0.667 
#    0.000   10.000    3.667    0.000    0.000    0.000 
#    0.000    0.000    0.000    0.000    0.000    0.000 
#
# Total GULP energy -133790.622885 kJ/mol
# GULP energy per Si atom -5574.609287 kJ/mol
# Density = 2.584145 g / cm^3
# Si number density = 25.900400 Si / 1000 Ang^3
#
#
#
# Elastic Constant Matrix: (Units=GPa)
#
#
# Indices 1 2 3 4 5 6 
#
# 1 76.1527 -4.7836 4.1365 0.0000 4.6759 0.0000
# 2 -4.7836 75.8482 -27.2646 0.0000 -3.8435 0.0000
# 3 4.1365 -27.2646 47.2775 0.0000 5.4583 0.0000
# 4 0.0000 0.0000 0.0000 29.9618 0.0000 5.3672
# 5 4.6759 -3.8435 5.4583 0.0000 21.6712 0.0000
# 6 0.0000 0.0000 0.0000 5.3672 0.0000 4.7612
#
#
#
# Elastic Compliance Matrix: (Units=1/GPa)
#
#
# Indices 1 2 3 4 5 6 
#
# 1 0.013357 0.000502 -0.000573 0.000000 -0.002648 0.000000
# 2 0.000502 0.016657 0.009510 0.000000 0.000451 0.000000
# 3 -0.000573 0.009510 0.027270 0.000000 -0.005058 0.000000
# 4 0.000000 0.000000 0.000000 0.041821 0.000000 -0.047143
# 5 -0.002648 0.000451 -0.005058 0.000000 0.048069 0.000000
# 6 0.000000 0.000000 0.000000 -0.047143 0.000000 0.263176
#
#
# Mechanical properties :
#
#
# Convention : Reuss Voigt Hill
#
# Bulk Modulus (GPa) = 13.12987 15.93946 14.53466
# Shear Modulus (GPa) = 11.99444 26.42486 19.20965
#
# Velocity S-wave (km/s) = 2.15431 3.19760 2.72632
# Velocity P-wave (km/s) = 3.35685 4.44976 3.94137
#
# Compressibility (1/GPa) = 0.07616222
#
# Stress axis : x y z
#
# Youngs Moduli (GPa) = 74.86818 60.03379 36.66998
#
# Poissons Ratio (x) = -0.03014 0.02102
# Poissons Ratio (y) = -0.03759 -0.34874
# Poissons Ratio (z) = 0.04292 -0.57093
#
# Static dielectric constant tensor:
#      x y z
#    x 2.007870 0.000000 0.030140 
#    y 0.000000 2.107610 0.000000 
#    z 0.030140 0.000000 2.061130 
# 
# From -- ./inp_files/51436.got.cif
#   From: 2010.05.17/outbox.cif.g08.bks.cpg/sg14_26_cif.got.tgz:51436.got - 2010.06.03 17:49:19.
