data_PCOD9239586
_publ_section_title
;
Structure prediction by ZEFSAII (Michael W. Deem and Ramdas Pophale) SiO2 
 PCOD9239586
Probable space group: P 21/C
;
_chemical_formula_sum "Si O2"
_cell_formula_units_Z 28
_cell_length_a 14.811350
_cell_length_b 10.029298
_cell_length_c 14.417880
_cell_angle_alpha 90.000000
_cell_angle_beta 38.129473
_cell_angle_gamma 90.000000
_cell_volume 1322.396727
_symmetry_space_group_name_H-M "P 21/C"
_symmetry_group_IT_number 14
_symmetry_cell_setting 'monoclinic'
loop_
_space_group_symop_operation_xyz
x,y,z
-x,1/2+y,1/2-z
-x,-y,-z
x,1/2-y,1/2+z
loop_
_atom_site_type_symbol
_atom_site_label
_atom_site_fract_x
_atom_site_fract_y
_atom_site_fract_z
Si Si1 0.186059 0.087148 0.113292
Si Si2 0.874299 0.493941 0.806024
Si Si3 0.656603 0.536804 0.838419
Si Si4 0.330043 0.601569 0.357243
Si Si5 0.330960 0.344569 0.898165
Si Si6 0.222696 0.318851 0.783115
Si Si7 0.967865 0.143299 0.972772
O O1 0.205036 0.087574 0.208719
O O2 0.012423 0.088978 0.229677
O O3 0.262191 0.211742 0.999662
O O4 0.265744 0.958705 0.003558
O O5 0.771091 0.446619 0.804325
O O6 0.957705 0.617323 0.688090
O O7 0.757787 0.538857 0.976694
O O8 0.664378 0.517492 0.722664
O O9 0.689061 0.691184 0.828096
O O10 0.500000 0.500000 0.000000
O O11 0.493419 0.656541 0.230499
O O12 0.197803 0.683494 0.415928
O O13 0.299371 0.363337 0.814888
O O14 0.065149 0.257082 0.939882
O O15 0.000000 0.000000 0.000000
#
# Coordination Sequence:
#
# PCOD9239586 Si02
#       7
#     4   4   4   4   4   4   4
#     4  11  23  43  62  89 128 164 203 257 304 370
#     4  10  21  36  64  91 121 159 202 253 310 357
#     4  11  18  36  63  94 119 155 209 264 298 347
#     4  11  22  37  66  94 126 155 207 262 312 352
#     4  12  23  41  64  95 125 164 206 256 311 364
#     4  11  22  39  64  83 129 167 202 247 308 371
#     4  10  17  37  63  91 114 160 211 260 294 350
#
# _framework density 21.173676
#
# number of rings (size 3 to 8) (size 9 to 14) (size 15 to 20)
#    0.000    1.143    8.571    0.857    0.000    1.143 
#    5.143    0.000    6.286    0.000    0.000    0.000 
#    0.000    0.000    0.000    0.000    0.000    0.000 
#
# Total GULP energy -155902.795951 kJ/mol
# GULP energy per Si atom -5567.956998 kJ/mol
# Density = 2.112548 g / cm^3
# Si number density = 21.173676 Si / 1000 Ang^3
#
#
#
# Elastic Constant Matrix: (Units=GPa)
#
#
# Indices 1 2 3 4 5 6 
#
# 1 168.9174 17.0371 75.4505 0.0000 -20.6980 0.0000
# 2 17.0371 9.0417 10.7018 0.0000 -8.0138 0.0000
# 3 75.4505 10.7018 122.3141 0.0000 -32.8096 0.0000
# 4 0.0000 0.0000 0.0000 11.7844 0.0000 -3.1070
# 5 -20.6980 -8.0138 -32.8096 0.0000 59.2888 0.0000
# 6 0.0000 0.0000 0.0000 -3.1070 0.0000 25.2715
#
#
#
# Elastic Compliance Matrix: (Units=1/GPa)
#
#
# Indices 1 2 3 4 5 6 
#
# 1 0.009248 -0.012672 -0.004919 0.000000 -0.001207 0.000000
# 2 -0.012672 0.149267 -0.001195 0.000000 0.015091 0.000000
# 3 -0.004919 -0.001195 0.012695 0.000000 0.005146 0.000000
# 4 0.000000 0.000000 0.000000 0.087701 0.000000 0.010783
# 5 -0.001207 0.015091 0.005146 0.000000 0.021333 0.000000
# 6 0.000000 0.000000 0.000000 0.010783 0.000000 0.040896
#
#
# Mechanical properties :
#
#
# Convention : Reuss Voigt Hill
#
# Bulk Modulus (GPa) = 7.48299 56.29468 31.88883
# Shear Modulus (GPa) = 12.39897 32.40785 22.40341
#
# Velocity S-wave (km/s) = 2.42251 3.91650 3.25634
# Velocity P-wave (km/s) = 3.37143 6.86271 5.40663
#
# Compressibility (1/GPa) = 0.13363640
#
# Stress axis : x y z
#
# Youngs Moduli (GPa) = 108.13495 6.69939 78.76890
#
# Poissons Ratio (x) = 0.08490 0.38750
# Poissons Ratio (y) = 1.37031 0.09415
# Poissons Ratio (z) = 0.53197 0.00801
#
# Static dielectric constant tensor:
#      x y z
#    x 1.813760 0.000000 0.001250 
#    y 0.000000 1.823970 0.000000 
#    z 0.001250 0.000000 1.830910 
# 
# From -- ./inp_files/46912.got.cif
#   From: 2010.05.17/outbox.cif.g08.bks.cpg/sg14_24_cif.got.tgz:46912.got - 2010.06.03 17:49:19.
