data_PCOD9239472
_publ_section_title
;
Structure prediction by ZEFSAII (Michael W. Deem and Ramdas Pophale) SiO2 
 PCOD9239472
Probable space group: P 21/C
;
_chemical_formula_sum "Si O2"
_cell_formula_units_Z 24
_cell_length_a 14.322141
_cell_length_b 6.725064
_cell_length_c 18.908103
_cell_angle_alpha 90.000000
_cell_angle_beta 26.795786
_cell_angle_gamma 90.000000
_cell_volume 821.008568
_symmetry_space_group_name_H-M "P 21/C"
_symmetry_group_IT_number 14
_symmetry_cell_setting 'monoclinic'
loop_
_space_group_symop_operation_xyz
x,y,z
-x,1/2+y,1/2-z
-x,-y,-z
x,1/2-y,1/2+z
loop_
_atom_site_type_symbol
_atom_site_label
_atom_site_fract_x
_atom_site_fract_y
_atom_site_fract_z
Si Si1 0.769165 0.718833 0.288932
Si Si2 0.706869 0.345073 0.142657
Si Si3 0.346934 0.237448 0.987169
Si Si4 0.212552 0.777797 0.061001
Si Si5 0.936671 0.284422 0.192628
Si Si6 0.856596 0.770626 0.085612
O O1 0.607586 0.760874 0.460691
O O2 0.722820 0.826487 0.246057
O O3 0.981147 0.776062 0.185427
O O4 0.813689 0.479306 0.246330
O O5 0.538264 0.242316 0.305725
O O6 0.737916 0.575955 0.138420
O O7 0.661286 0.304244 0.091619
O O8 0.928805 0.263586 0.017373
O O9 0.147086 0.353030 0.091465
O O10 0.282330 0.004805 0.025358
O O11 0.195741 0.696074 0.152863
O O12 0.040062 0.157103 0.058668
#
# Coordination Sequence:
#
# PCOD9239472 Si02
#       6
#     4   4   4   4   4   4
#     4   9  17  37  56  76 103 139 173 213 257 308
#     4  10  19  33  51  76 107 135 171 215 249 303
#     4  10  22  30  54  85 103 132 175 217 257 303
#     4   9  19  33  50  78 107 133 171 211 262 305
#     4  10  17  34  54  77 100 141 173 208 258 308
#     4  10  18  35  57  70 104 143 173 209 262 297
#
# _framework density 29.232339
#
# number of rings (size 3 to 8) (size 9 to 14) (size 15 to 20)
#    0.000    2.333    5.000    0.000    2.333    0.667 
#    0.000    3.333    0.000    0.000    0.000   10.500 
#    0.000    0.000    0.000    0.000    0.000    0.000 
#
# Total GULP energy -134002.857167 kJ/mol
# GULP energy per Si atom -5583.452382 kJ/mol
# Density = 2.916581 g / cm^3
# Si number density = 29.232339 Si / 1000 Ang^3
#
#
#
# Elastic Constant Matrix: (Units=GPa)
#
#
# Indices 1 2 3 4 5 6 
#
# 1 178.9663 31.9862 91.4986 0.0000 56.7931 0.0000
# 2 31.9862 98.4224 24.4938 0.0000 17.4839 0.0000
# 3 91.4986 24.4938 183.6027 0.0000 77.3961 0.0000
# 4 0.0000 0.0000 0.0000 23.9718 0.0000 0.0894
# 5 56.7931 17.4839 77.3961 0.0000 100.7056 0.0000
# 6 0.0000 0.0000 0.0000 0.0894 0.0000 35.0474
#
#
#
# Elastic Compliance Matrix: (Units=1/GPa)
#
#
# Indices 1 2 3 4 5 6 
#
# 1 0.007993 -0.001512 -0.002947 0.000000 -0.001980 0.000000
# 2 -0.001512 0.010879 -0.000386 0.000000 -0.000739 0.000000
# 3 -0.002947 -0.000386 0.009227 0.000000 -0.005363 0.000000
# 4 0.000000 0.000000 0.000000 0.041716 0.000000 -0.000106
# 5 -0.001980 -0.000739 -0.005363 0.000000 0.015296 0.000000
# 6 0.000000 0.000000 0.000000 -0.000106 0.000000 0.028533
#
#
# Mechanical properties :
#
#
# Convention : Reuss Voigt Hill
#
# Bulk Modulus (GPa) = 54.32194 84.10541 69.21367
# Shear Modulus (GPa) = 38.61855 52.81248 45.71551
#
# Velocity S-wave (km/s) = 3.63862 4.25508 3.95887
# Velocity P-wave (km/s) = 6.02295 7.27837 6.68022
#
# Compressibility (1/GPa) = 0.01840877
#
# Stress axis : x y z
#
# Youngs Moduli (GPa) = 125.10999 91.91851 108.37688
#
# Poissons Ratio (x) = 0.13903 0.31936
# Poissons Ratio (y) = 0.18923 0.04184
# Poissons Ratio (z) = 0.36866 0.03548
#
# Static dielectric constant tensor:
#      x y z
#    x 2.196430 0.000000 0.077050 
#    y 0.000000 2.357980 0.000000 
#    z 0.077050 0.000000 2.466110 
# 
# From -- ./inp_files/58996.got.cif
#   From: 2010.05.17/outbox.cif.g08.bks.cpg/sg14_30_cif.got.tgz:58996.got - 2010.06.03 17:49:19.
