data_PCOD9239860
_publ_section_title
;
Structure prediction by ZEFSAII (Michael W. Deem and Ramdas Pophale) SiO2 
 PCOD9239860
Probable space group: P 21/C
;
_chemical_formula_sum "Si O2"
_cell_formula_units_Z 26
_cell_length_a 11.384889
_cell_length_b 9.308336
_cell_length_c 14.999218
_cell_angle_alpha 90.000000
_cell_angle_beta 46.459327
_cell_angle_gamma 90.000000
_cell_volume 1152.229278
_symmetry_space_group_name_H-M "P 21/C"
_symmetry_group_IT_number 14
_symmetry_cell_setting 'monoclinic'
loop_
_space_group_symop_operation_xyz
x,y,z
-x,1/2+y,1/2-z
-x,-y,-z
x,1/2-y,1/2+z
loop_
_atom_site_type_symbol
_atom_site_label
_atom_site_fract_x
_atom_site_fract_y
_atom_site_fract_z
Si Si1 0.313688 0.756934 0.529543
Si Si2 0.842892 0.184031 0.059980
Si Si3 0.788130 0.938112 0.492481
Si Si4 0.896922 0.029162 0.769733
Si Si5 0.000000 0.000000 0.500000
Si Si6 0.132884 0.029408 0.807039
Si Si7 0.327348 0.260101 0.599392
O O1 0.293711 0.675823 0.445220
O O2 0.293808 0.924060 0.511268
O O3 0.173908 0.682673 0.663253
O O4 0.481335 0.732366 0.491119
O O5 0.896559 0.346210 0.043327
O O6 0.796442 0.102442 0.174368
O O7 0.001812 0.109028 0.936321
O O8 0.989022 0.968921 0.378108
O O9 0.733554 0.802269 0.464076
O O10 0.810377 0.913245 0.584454
O O11 0.758811 0.911356 0.838517
O O12 0.026055 0.983936 0.777608
O O13 0.263115 0.141172 0.702585
#
# Coordination Sequence:
#
# PCOD9239860 Si02
#       7
#     4   4   4   4   2   4   4
#     4  10  21  35  53  83 116 143 181 237 293 335
#     4   9  18  35  55  78 109 146 188 232 276 338
#     4  10  20  35  55  78 108 144 186 233 283 343
#     4  10  19  35  58  78 101 145 196 233 271 341
#     4  10  18  32  56  82 102 136 190 236 268 324
#     4   9  19  35  56  78 107 148 191 230 281 341
#     4  11  20  34  55  83 113 144 183 234 289 337
#
# _framework density 22.564952999999999
#
# number of rings (size 3 to 8) (size 9 to 14) (size 15 to 20)
#    0.000    2.154    0.000    5.538    0.000    1.231 
#    0.000    6.154    0.000   11.077    0.000    0.000 
#    0.000    0.000    0.000    0.000    0.000    0.000 
#
# Total GULP energy -144767.920693 kJ/mol
# GULP energy per Si atom -5567.996950 kJ/mol
# Density = 2.251359 g / cm^3
# Si number density = 22.564953 Si / 1000 Ang^3
#
#
#
# Elastic Constant Matrix: (Units=GPa)
#
#
# Indices 1 2 3 4 5 6 
#
# 1 97.3717 35.6618 21.6316 0.0000 -6.1696 0.0000
# 2 35.6618 65.3606 6.8258 0.0000 -0.1821 0.0000
# 3 21.6316 6.8258 25.2873 0.0000 -6.1408 0.0000
# 4 0.0000 0.0000 0.0000 29.0985 0.0000 3.7747
# 5 -6.1696 -0.1821 -6.1408 0.0000 35.1811 0.0000
# 6 0.0000 0.0000 0.0000 3.7747 0.0000 33.0318
#
#
#
# Elastic Compliance Matrix: (Units=1/GPa)
#
#
# Indices 1 2 3 4 5 6 
#
# 1 0.015435 -0.007264 -0.011063 0.000000 0.000738 0.000000
# 2 -0.007264 0.019178 0.000785 0.000000 -0.001038 0.000000
# 3 -0.011063 0.000785 0.050467 0.000000 0.006873 0.000000
# 4 0.000000 0.000000 0.000000 0.034883 0.000000 -0.003986
# 5 0.000738 -0.001038 0.006873 0.000000 0.029748 0.000000
# 6 0.000000 0.000000 0.000000 -0.003986 0.000000 0.030729
#
#
# Mechanical properties :
#
#
# Convention : Reuss Voigt Hill
#
# Bulk Modulus (GPa) = 20.00203 35.13978 27.57090
# Shear Modulus (GPa) = 21.53408 27.72231 24.62819
#
# Velocity S-wave (km/s) = 3.09255 3.50888 3.30727
# Velocity P-wave (km/s) = 4.65137 5.65887 5.17968
#
# Compressibility (1/GPa) = 0.04999494
#
# Stress axis : x y z
#
# Youngs Moduli (GPa) = 64.78816 52.14238 19.81509
#
# Poissons Ratio (x) = 0.37877 0.21922
# Poissons Ratio (y) = 0.47063 -0.01556
# Poissons Ratio (z) = 0.71678 -0.04094
#
# Static dielectric constant tensor:
#      x y z
#    x 2.055500 0.000000 0.176600 
#    y 0.000000 1.884920 0.000000 
#    z 0.176600 0.000000 1.962980 
# 
# From -- ./inp_files/56999.got.cif
#   From: 2010.05.17/outbox.cif.g08.bks.cpg/sg14_29_cif.got.tgz:56999.got - 2010.06.03 17:49:19.
