data_PCOD9239234
_publ_section_title
;
Structure prediction by ZEFSAII (Michael W. Deem and Ramdas Pophale) SiO2 
 PCOD9239234
Probable space group: P 21/C
;
_chemical_formula_sum "Si O2"
_cell_formula_units_Z 28
_cell_length_a 10.071972
_cell_length_b 16.912768
_cell_length_c 8.539449
_cell_angle_alpha 90.000000
_cell_angle_beta 55.394528
_cell_angle_gamma 90.000000
_cell_volume 1197.297911
_symmetry_space_group_name_H-M "P 21/C"
_symmetry_group_IT_number 14
_symmetry_cell_setting 'monoclinic'
loop_
_space_group_symop_operation_xyz
x,y,z
-x,1/2+y,1/2-z
-x,-y,-z
x,1/2-y,1/2+z
loop_
_atom_site_type_symbol
_atom_site_label
_atom_site_fract_x
_atom_site_fract_y
_atom_site_fract_z
Si Si1 0.761736 0.073429 0.937538
Si Si2 0.751209 0.679053 0.975739
Si Si3 0.973403 0.203227 0.947910
Si Si4 0.980630 0.117152 0.514017
Si Si5 0.860915 0.593636 0.404644
Si Si6 0.502873 0.855981 0.057069
Si Si7 0.539874 0.793659 0.344071
O O1 0.578732 0.081729 0.004106
O O2 0.825906 0.150284 0.986000
O O3 0.856432 0.073876 0.708505
O O4 0.810042 0.993853 0.993454
O O5 0.898369 0.717733 0.778314
O O6 0.631264 0.655388 0.915705
O O7 0.845759 0.614913 0.013642
O O8 0.659100 0.737579 0.157303
O O9 0.932383 0.289905 0.036609
O O10 0.066259 0.147964 0.009418
O O11 0.007975 0.088421 0.320880
O O12 0.694071 0.628646 0.444806
O O13 0.451003 0.846379 0.274165
O O14 0.456295 0.772608 0.006485
#
# Coordination Sequence:
#
# PCOD9239234 Si02
#       7
#     4   4   4   4   4   4   4
#     4  11  27  38  58  97 132 159 190 263 326 352
#     4  10  16  32  59  97 102 148 206 255 279 346
#     4  11  21  39  66  92 120 159 214 251 296 360
#     4  11  21  39  66  92 120 159 214 251 296 360
#     4  12  22  43  66  85 126 168 209 243 301 377
#     4  11  22  39  63  88 125 157 206 245 311 359
#     4  10  18  34  62  92 116 150 208 258 288 352
#
# _framework density 23.385992000000002
#
# number of rings (size 3 to 8) (size 9 to 14) (size 15 to 20)
#    0.000    1.143    4.286    4.714    2.000    0.000 
#    0.000    0.000    0.000    1.714    0.000    0.000 
#    0.000    0.000    0.000    0.000    0.000    0.000 
#
# Total GULP energy -156238.760884 kJ/mol
# GULP energy per Si atom -5579.955746 kJ/mol
# Density = 2.333276 g / cm^3
# Si number density = 23.385992 Si / 1000 Ang^3
#
#
#
# Elastic Constant Matrix: (Units=GPa)
#
#
# Indices 1 2 3 4 5 6 
#
# 1 104.2150 6.6896 13.1354 0.0000 13.4679 0.0000
# 2 6.6896 69.0332 -9.2716 0.0000 0.9206 0.0000
# 3 13.1354 -9.2716 47.4702 0.0000 28.7665 0.0000
# 4 0.0000 0.0000 0.0000 12.2359 0.0000 2.6518
# 5 13.4679 0.9206 28.7665 0.0000 24.2646 0.0000
# 6 0.0000 0.0000 0.0000 2.6518 0.0000 11.2307
#
#
#
# Elastic Compliance Matrix: (Units=1/GPa)
#
#
# Indices 1 2 3 4 5 6 
#
# 1 0.010430 -0.000682 0.001681 0.000000 -0.007756 0.000000
# 2 -0.000682 0.016448 0.012608 0.000000 -0.015192 0.000000
# 3 0.001681 0.012608 0.084945 0.000000 -0.102116 0.000000
# 4 0.000000 0.000000 0.000000 0.086135 0.000000 -0.020338
# 5 -0.007756 -0.015192 -0.102116 0.000000 0.167156 0.000000
# 6 0.000000 0.000000 0.000000 -0.020338 0.000000 0.093844
#
#
# Mechanical properties :
#
#
# Convention : Reuss Voigt Hill
#
# Bulk Modulus (GPa) = 7.19240 26.86947 17.03093
# Shear Modulus (GPa) = 10.45833 23.55722 17.00777
#
# Velocity S-wave (km/s) = 2.11702 3.17728 2.69971
# Velocity P-wave (km/s) = 3.00963 4.99746 4.12507
#
# Compressibility (1/GPa) = 0.13903570
#
# Stress axis : x y z
#
# Youngs Moduli (GPa) = 95.87978 60.79872 11.77238
#
# Poissons Ratio (x) = 0.04144 -0.01979
# Poissons Ratio (y) = 0.06534 -0.14842
# Poissons Ratio (z) = -0.16115 -0.76652
#
# Static dielectric constant tensor:
#      x y z
#    x 1.919470 0.000000 -0.023630 
#    y 0.000000 1.959050 0.000000 
#    z -0.023630 0.000000 1.903520 
# 
# From -- ./inp_files/9871.got.cif
#   From: 2010.05.17/outbox.cif.g08.bks.cpg/sg14_5_cif.got.tgz:9871.got - 2010.06.03 17:49:19.
