data_PCOD9239788
_publ_section_title
;
Structure prediction by ZEFSAII (Michael W. Deem and Ramdas Pophale) SiO2 
 PCOD9239788
Probable space group: P 21/C
;
_chemical_formula_sum "Si O2"
_cell_formula_units_Z 32
_cell_length_a 27.936160
_cell_length_b 7.105627
_cell_length_c 9.673899
_cell_angle_alpha 90.000000
_cell_angle_beta 45.319056
_cell_angle_gamma 90.000000
_cell_volume 1365.402368
_symmetry_space_group_name_H-M "P 21/C"
_symmetry_group_IT_number 14
_symmetry_cell_setting 'monoclinic'
loop_
_space_group_symop_operation_xyz
x,y,z
-x,1/2+y,1/2-z
-x,-y,-z
x,1/2-y,1/2+z
loop_
_atom_site_type_symbol
_atom_site_label
_atom_site_fract_x
_atom_site_fract_y
_atom_site_fract_z
Si Si1 0.437182 0.558239 0.721362
Si Si2 0.289010 0.881451 0.796457
Si Si3 0.091604 0.030674 0.598430
Si Si4 0.704104 0.022213 0.529255
Si Si5 0.849136 0.971123 0.235928
Si Si6 0.845054 0.426967 0.282416
Si Si7 0.940843 0.089337 0.815270
Si Si8 0.432734 0.930226 0.559327
O O1 0.500000 0.500000 0.500000
O O2 0.418380 0.751901 0.686079
O O3 0.370468 0.431879 0.830426
O O4 0.451206 0.584423 0.856846
O O5 0.290881 0.867580 0.627477
O O6 0.355194 0.002576 0.705216
O O7 0.292498 0.670227 0.851641
O O8 0.219064 0.966665 0.991767
O O9 0.113196 0.099789 0.704404
O O10 0.150391 0.046654 0.366106
O O11 0.083642 0.804081 0.624284
O O12 0.018137 0.092951 0.699903
O O13 0.772257 0.902169 0.390986
O O14 0.841553 0.201104 0.263996
O O15 0.898083 0.957121 0.005642
O O16 0.916229 0.464660 0.213298
O O17 0.500000 0.000000 0.500000
#
# Coordination Sequence:
#
# PCOD9239788 Si02
#       8
#     4   4   4   4   4   4   4   4
#     4  10  20  35  55  82 111 143 178 219 268 319
#     4   9  17  29  49  75 102 129 167 213 253 294
#     4  10  20  30  48  70  95 124 160 202 245 298
#     4   9  17  29  49  75 102 129 167 213 253 294
#     4   9  17  29  46  71  96 123 161 204 249 285
#     4   9  17  29  46  71  96 123 161 204 249 285
#     4  10  18  32  48  68  95 126 158 200 247 294
#     4  10  20  35  55  82 111 143 178 219 268 319
#
# _framework density 23.436313999999999
#
# number of rings (size 3 to 8) (size 9 to 14) (size 15 to 20)
#    0.000    2.500    1.250    1.500    5.250    1.000 
#    0.000    0.000    0.000    3.000    0.000    0.000 
#    0.000    0.000    0.000    0.000    0.000    0.000 
#
# Total GULP energy -178244.937348 kJ/mol
# GULP energy per Si atom -5570.154292 kJ/mol
# Density = 2.338297 g / cm^3
# Si number density = 23.436314 Si / 1000 Ang^3
#
#
#
# Elastic Constant Matrix: (Units=GPa)
#
#
# Indices 1 2 3 4 5 6 
#
# 1 137.6674 3.6599 33.6089 0.0000 -11.8785 0.0000
# 2 3.6599 30.3980 -4.3763 0.0000 0.8804 0.0000
# 3 33.6089 -4.3763 97.7676 0.0000 -4.9393 0.0000
# 4 0.0000 0.0000 0.0000 19.7282 0.0000 -3.9314
# 5 -11.8785 0.8804 -4.9393 0.0000 47.6019 0.0000
# 6 0.0000 0.0000 0.0000 -3.9314 0.0000 18.3693
#
#
#
# Elastic Compliance Matrix: (Units=1/GPa)
#
#
# Indices 1 2 3 4 5 6 
#
# 1 0.008131 -0.001429 -0.002770 0.000000 0.001768 0.000000
# 2 -0.001429 0.033371 0.001946 0.000000 -0.000772 0.000000
# 3 -0.002770 0.001946 0.011290 0.000000 0.000444 0.000000
# 4 0.000000 0.000000 0.000000 0.052947 0.000000 0.011332
# 5 0.001768 -0.000772 0.000444 0.000000 0.021509 0.000000
# 6 0.000000 0.000000 0.000000 0.011332 0.000000 0.056864
#
#
# Mechanical properties :
#
#
# Convention : Reuss Voigt Hill
#
# Bulk Modulus (GPa) = 20.70950 36.84646 28.77798
# Shear Modulus (GPa) = 24.42447 32.66926 28.54686
#
# Velocity S-wave (km/s) = 3.23176 3.73763 3.49386
# Velocity P-wave (km/s) = 4.77298 5.86366 5.34621
#
# Compressibility (1/GPa) = 0.04828702
#
# Stress axis : x y z
#
# Youngs Moduli (GPa) = 122.99267 29.96571 88.57406
#
# Poissons Ratio (x) = 0.04282 0.24532
# Poissons Ratio (y) = 0.17574 -0.17236
# Poissons Ratio (z) = 0.34064 -0.05831
#
# Static dielectric constant tensor:
#      x y z
#    x 1.926590 0.000000 -0.071940 
#    y 0.000000 2.338440 0.000000 
#    z -0.071940 0.000000 1.931720 
# 
# From -- ./inp_files/19662.got.cif
#   From: 2010.05.17/outbox.cif.g08.bks.cpg/sg14_10_cif.got.tgz:19662.got - 2010.06.03 17:49:19.
