data_PCOD9239131
_publ_section_title
;
Structure prediction by ZEFSAII (Michael W. Deem and Ramdas Pophale) SiO2 
 PCOD9239131
Probable space group: P 21/C
;
_chemical_formula_sum "Si O2"
_cell_formula_units_Z 32
_cell_length_a 16.688913
_cell_length_b 13.389822
_cell_length_c 13.234450
_cell_angle_alpha 90.000000
_cell_angle_beta 30.837479
_cell_angle_gamma 90.000000
_cell_volume 1515.972332
_symmetry_space_group_name_H-M "P 21/C"
_symmetry_group_IT_number 14
_symmetry_cell_setting 'monoclinic'
loop_
_space_group_symop_operation_xyz
x,y,z
-x,1/2+y,1/2-z
-x,-y,-z
x,1/2-y,1/2+z
loop_
_atom_site_type_symbol
_atom_site_label
_atom_site_fract_x
_atom_site_fract_y
_atom_site_fract_z
Si Si1 0.941852 0.868139 0.482685
Si Si2 0.790776 0.614485 0.345172
Si Si3 0.225144 0.189004 0.937183
Si Si4 0.494914 0.181743 0.176368
Si Si5 0.031906 0.001344 0.084255
Si Si6 0.787357 0.105046 0.947110
Si Si7 0.470366 0.890084 0.079820
Si Si8 0.753685 0.498550 0.040894
O O1 0.925311 0.890244 0.616976
O O2 0.832702 0.775640 0.572248
O O3 0.871368 0.961160 0.498553
O O4 0.105506 0.845762 0.254868
O O5 0.843096 0.690018 0.375573
O O6 0.758748 0.507359 0.433029
O O7 0.631343 0.642299 0.459402
O O8 0.405326 0.212880 0.766848
O O9 0.160139 0.088323 0.960929
O O10 0.369104 0.091888 0.336930
O O11 0.627147 0.165543 0.116994
O O12 0.561076 0.168476 0.990164
O O13 0.115645 0.909362 0.054192
O O14 0.867437 0.020123 0.322241
O O15 0.000000 0.000000 0.000000
O O16 0.340307 0.907133 0.306765
O O17 0.500000 0.000000 0.000000
#
# Coordination Sequence:
#
# PCOD9239131 Si02
#       8
#     4   4   4   4   4   4   4   4
#     4  10  19  35  56  89 121 156 194 252 313 345
#     4  11  18  34  61  88 116 154 203 243 304 367
#     4  10  23  36  56  88 121 162 200 249 300 369
#     4  10  18  37  60  92 124 148 197 263 321 347
#     4  10  23  42  62  84 127 177 213 237 293 388
#     4  10  20  35  64  92 116 151 209 263 301 362
#     4  10  15  31  63  91 117 144 192 256 310 354
#     4   9  17  34  62  86 114 159 205 250 296 361
#
# _framework density 21.108564999999999
#
# number of rings (size 3 to 8) (size 9 to 14) (size 15 to 20)
#    0.000    2.000    6.250    0.375    0.000    5.000 
#    2.250    0.625    5.500    0.000    0.000    0.000 
#    0.000    0.000    0.000    0.000    0.000    0.000 
#
# Total GULP energy -178176.708194 kJ/mol
# GULP energy per Si atom -5568.022131 kJ/mol
# Density = 2.106052 g / cm^3
# Si number density = 21.108565 Si / 1000 Ang^3
#
#
#
# Elastic Constant Matrix: (Units=GPa)
#
#
# Indices 1 2 3 4 5 6 
#
# 1 114.2200 12.0992 35.8924 0.0000 14.5561 0.0000
# 2 12.0992 23.8859 12.6696 0.0000 4.6865 0.0000
# 3 35.8924 12.6696 92.3348 0.0000 15.9792 0.0000
# 4 0.0000 0.0000 0.0000 22.1551 0.0000 -3.0940
# 5 14.5561 4.6865 15.9792 0.0000 40.2490 0.0000
# 6 0.0000 0.0000 0.0000 -3.0940 0.0000 18.0952
#
#
#
# Elastic Compliance Matrix: (Units=1/GPa)
#
#
# Indices 1 2 3 4 5 6 
#
# 1 0.010372 -0.003123 -0.003240 0.000000 -0.002101 0.000000
# 2 -0.003123 0.046433 -0.004743 0.000000 -0.002394 0.000000
# 3 -0.003240 -0.004743 0.013360 0.000000 -0.003580 0.000000
# 4 0.000000 0.000000 0.000000 0.046241 0.000000 0.007906
# 5 -0.002101 -0.002394 -0.003580 0.000000 0.027305 0.000000
# 6 0.000000 0.000000 0.000000 0.007906 0.000000 0.056615
#
#
# Mechanical properties :
#
#
# Convention : Reuss Voigt Hill
#
# Bulk Modulus (GPa) = 20.85352 39.08477 29.96914
# Shear Modulus (GPa) = 20.96250 27.41850 24.19050
#
# Velocity S-wave (km/s) = 3.15474 3.60797 3.38894
# Velocity P-wave (km/s) = 4.81357 5.99274 5.43522
#
# Compressibility (1/GPa) = 0.04795354
#
# Stress axis : x y z
#
# Youngs Moduli (GPa) = 96.41713 21.53630 74.85155
#
# Poissons Ratio (x) = 0.06726 0.24248
# Poissons Ratio (y) = 0.30112 0.35502
# Poissons Ratio (z) = 0.31234 0.10215
#
# Static dielectric constant tensor:
#      x y z
#    x 1.788310 0.000000 -0.034800 
#    y 0.000000 1.835610 0.000000 
#    z -0.034800 0.000000 1.854140 
# 
# From -- ./inp_files/34223.got.cif
#   From: 2010.05.17/outbox.cif.g08.bks.cpg/sg14_18_cif.got.tgz:34223.got - 2010.06.03 17:49:19.
