data_PCOD9239293
_publ_section_title
;
Structure prediction by ZEFSAII (Michael W. Deem and Ramdas Pophale) SiO2 
 PCOD9239293
Probable space group: P 21/C
;
_chemical_formula_sum "Si O2"
_cell_formula_units_Z 32
_cell_length_a 21.338541
_cell_length_b 8.031790
_cell_length_c 21.643981
_cell_angle_alpha 90.000000
_cell_angle_beta 18.976036
_cell_angle_gamma 90.000000
_cell_volume 1206.224755
_symmetry_space_group_name_H-M "P 21/C"
_symmetry_group_IT_number 14
_symmetry_cell_setting 'monoclinic'
loop_
_space_group_symop_operation_xyz
x,y,z
-x,1/2+y,1/2-z
-x,-y,-z
x,1/2-y,1/2+z
loop_
_atom_site_type_symbol
_atom_site_label
_atom_site_fract_x
_atom_site_fract_y
_atom_site_fract_z
Si Si1 0.493381 0.695298 0.843733
Si Si2 0.672557 0.298724 0.234184
Si Si3 0.444025 0.540303 0.767008
Si Si4 0.188325 0.702329 0.277225
Si Si5 0.869982 0.848816 0.832248
Si Si6 0.265842 0.335817 0.152836
Si Si7 0.947387 0.298302 0.217269
Si Si8 0.394824 0.166320 0.146453
O O1 0.463186 0.553721 0.822261
O O2 0.612343 0.686700 0.795718
O O3 0.590381 0.849018 0.716886
O O4 0.277156 0.748809 0.063341
O O5 0.690572 0.326712 0.143705
O O6 0.837111 0.224157 0.125432
O O7 0.485378 0.184920 0.423005
O O8 0.634743 0.490580 0.292239
O O9 0.651487 0.589328 0.545684
O O10 0.230463 0.513828 0.216758
O O11 0.027818 0.767103 0.378972
O O12 0.383583 0.811918 0.083505
O O13 0.864489 0.706494 0.784861
O O14 0.947120 0.802180 0.827427
O O15 0.975910 0.009913 0.706648
O O16 0.262688 0.199623 0.210765
#
# Coordination Sequence:
#
# PCOD9239293 Si02
#       8
#     4   4   4   4   4   4   4   4
#     4   9  19  32  49  72  99 128 160 195 238 285
#     4   9  16  28  44  66  95 125 157 199 240 279
#     4   9  19  32  49  72  99 128 160 195 238 285
#     4  10  17  26  44  70  94 122 158 198 240 283
#     4  10  20  34  50  72  99 129 161 198 240 287
#     4  10  17  26  44  70  94 122 158 198 240 283
#     4  10  20  34  50  72  99 129 161 198 240 287
#     4   9  16  28  44  66  95 125 157 199 240 279
#
# _framework density 26.529052
#
# number of rings (size 3 to 8) (size 9 to 14) (size 15 to 20)
#    0.000    2.500    0.000    6.750    0.000    6.000 
#    0.000    0.000    0.000    1.500    0.000   10.500 
#    0.000    0.000    0.000    0.000    0.000    0.000 
#
# Total GULP energy -178889.783175 kJ/mol
# GULP energy per Si atom -5590.305724 kJ/mol
# Density = 2.646867 g / cm^3
# Si number density = 26.529052 Si / 1000 Ang^3
#
#
#
# Elastic Constant Matrix: (Units=GPa)
#
#
# Indices 1 2 3 4 5 6 
#
# 1 167.5817 17.4992 -1.1980 0.0000 -23.5202 0.0000
# 2 17.4992 94.1771 1.6102 0.0000 -9.7003 0.0000
# 3 -1.1980 1.6102 73.7988 0.0000 -14.6520 0.0000
# 4 0.0000 0.0000 0.0000 25.4834 0.0000 -2.3182
# 5 -23.5202 -9.7003 -14.6520 0.0000 25.4027 0.0000
# 6 0.0000 0.0000 0.0000 -2.3182 0.0000 49.6305
#
#
#
# Elastic Compliance Matrix: (Units=1/GPa)
#
#
# Indices 1 2 3 4 5 6 
#
# 1 0.007051 -0.000595 0.001557 0.000000 0.007199 0.000000
# 2 -0.000595 0.011133 0.000544 0.000000 0.004014 0.000000
# 3 0.001557 0.000544 0.015688 0.000000 0.010698 0.000000
# 4 0.000000 0.000000 0.000000 0.039409 0.000000 0.001841
# 5 0.007199 0.004014 0.010698 0.000000 0.053735 0.000000
# 6 0.000000 0.000000 0.000000 0.001841 0.000000 0.020235
#
#
# Mechanical properties :
#
#
# Convention : Reuss Voigt Hill
#
# Bulk Modulus (GPa) = 27.11248 41.26447 34.18848
# Shear Modulus (GPa) = 31.94227 41.27975 36.61101
#
# Velocity S-wave (km/s) = 3.47370 3.94892 3.71891
# Velocity P-wave (km/s) = 5.13137 6.03160 5.59960
#
# Compressibility (1/GPa) = 0.03688338
#
# Stress axis : x y z
#
# Youngs Moduli (GPa) = 141.82575 89.82270 63.74433
#
# Poissons Ratio (x) = 0.05347 -0.09923
# Poissons Ratio (y) = 0.08442 -0.03470
# Poissons Ratio (z) = -0.22079 -0.04890
#
# Static dielectric constant tensor:
#      x y z
#    x 2.180820 0.000000 0.038340 
#    y 0.000000 2.046980 0.000000 
#    z 0.038340 0.000000 2.168380 
# 
# From -- ./inp_files/69149.got.cif
#   From: 2010.05.17/outbox.cif.g08.bks.cpg/sg14_35_cif.got.tgz:69149.got - 2010.06.03 17:49:19.
