data_PCOD9239107
_publ_section_title
;
Structure prediction by ZEFSAII (Michael W. Deem and Ramdas Pophale) SiO2 
 PCOD9239107
Probable space group: P 21/C
;
_chemical_formula_sum "Si O2"
_cell_formula_units_Z 28
_cell_length_a 8.577174
_cell_length_b 11.341174
_cell_length_c 14.326820
_cell_angle_alpha 90.000000
_cell_angle_beta 55.109205
_cell_angle_gamma 90.000000
_cell_volume 1143.128327
_symmetry_space_group_name_H-M "P 21/C"
_symmetry_group_IT_number 14
_symmetry_cell_setting 'monoclinic'
loop_
_space_group_symop_operation_xyz
x,y,z
-x,1/2+y,1/2-z
-x,-y,-z
x,1/2-y,1/2+z
loop_
_atom_site_type_symbol
_atom_site_label
_atom_site_fract_x
_atom_site_fract_y
_atom_site_fract_z
Si Si1 0.268870 0.265152 0.271965
Si Si2 0.856219 0.258346 0.876315
Si Si3 0.085733 0.627639 0.942189
Si Si4 0.572991 0.079394 0.389398
Si Si5 0.261070 0.284727 0.480884
Si Si6 0.507026 0.640597 0.444505
Si Si7 0.409380 0.491723 0.755918
O O1 0.277599 0.330901 0.368377
O O2 0.439121 0.255420 0.139371
O O3 0.275081 0.127042 0.303484
O O4 0.069327 0.287968 0.289477
O O5 0.859241 0.309900 0.980428
O O6 0.690890 0.161177 0.936242
O O7 0.779306 0.364781 0.838289
O O8 0.269748 0.601363 0.815880
O O9 0.935588 0.713809 0.944629
O O10 0.000000 0.500000 0.000000
O O11 0.428528 0.188745 0.433723
O O12 0.545602 0.017109 0.299168
O O13 0.500000 0.000000 0.500000
O O14 0.310874 0.368016 0.550266
O O15 0.496199 0.533781 0.375374
#
# Coordination Sequence:
#
# PCOD9239107 Si02
#       7
#     4   4   4   4   4   4   4
#     4   8  17  32  45  64 100 126 150 195 235 280
#     4  10  17  27  48  73  97 126 157 191 244 292
#     4  11  14  28  49  71  96 125 146 201 260 290
#     4  10  15  23  44  73  98 119 146 194 253 291
#     4   9  17  28  47  69  98 125 152 193 244 288
#     4   9  19  32  42  71 104 126 159 189 237 303
#     4   9  17  29  44  64 106 123 146 192 238 290
#
# _framework density 24.494187
#
# number of rings (size 3 to 8) (size 9 to 14) (size 15 to 20)
#    0.857    1.714    5.714    0.000    0.000    0.000 
#    5.143    0.000    0.000    0.000    0.000    6.000 
#    0.000    0.000    0.000    0.000    0.000    0.000 
#
# Total GULP energy -156192.862854 kJ/mol
# GULP energy per Si atom -5578.316531 kJ/mol
# Density = 2.443844 g / cm^3
# Si number density = 24.494187 Si / 1000 Ang^3
#
#
#
# Elastic Constant Matrix: (Units=GPa)
#
#
# Indices 1 2 3 4 5 6 
#
# 1 137.3129 23.8764 33.5567 0.0000 27.8158 0.0000
# 2 23.8764 51.1200 30.6398 0.0000 12.9705 0.0000
# 3 33.5567 30.6398 83.2884 0.0000 19.7487 0.0000
# 4 0.0000 0.0000 0.0000 41.7421 0.0000 6.5156
# 5 27.8158 12.9705 19.7487 0.0000 36.7548 0.0000
# 6 0.0000 0.0000 0.0000 6.5156 0.0000 15.8110
#
#
#
# Elastic Compliance Matrix: (Units=1/GPa)
#
#
# Indices 1 2 3 4 5 6 
#
# 1 0.009103 -0.001875 -0.001720 0.000000 -0.005303 0.000000
# 2 -0.001875 0.026137 -0.008033 0.000000 -0.003489 0.000000
# 3 -0.001720 -0.008033 0.016816 0.000000 -0.004899 0.000000
# 4 0.000000 0.000000 0.000000 0.025604 0.000000 -0.010551
# 5 -0.005303 -0.003489 -0.004899 0.000000 0.035084 0.000000
# 6 0.000000 0.000000 0.000000 -0.010551 0.000000 0.067595
#
#
# Mechanical properties :
#
#
# Convention : Reuss Voigt Hill
#
# Bulk Modulus (GPa) = 34.72156 49.76301 42.24229
# Shear Modulus (GPa) = 23.45257 31.10481 27.27869
#
# Velocity S-wave (km/s) = 3.09767 3.56741 3.34081
# Velocity P-wave (km/s) = 5.19618 6.10974 5.67138
#
# Compressibility (1/GPa) = 0.02880055
#
# Stress axis : x y z
#
# Youngs Moduli (GPa) = 109.84858 38.25957 59.46644
#
# Poissons Ratio (x) = 0.07174 0.10231
# Poissons Ratio (y) = 0.20598 0.47767
# Poissons Ratio (z) = 0.18899 0.30732
#
# Static dielectric constant tensor:
#      x y z
#    x 1.943390 0.000000 0.013120 
#    y 0.000000 2.071490 0.000000 
#    z 0.013120 0.000000 2.050250 
# 
# From -- ./inp_files/26332.got.cif
#   From: 2010.05.17/outbox.cif.g08.bks.cpg/sg14_14_cif.got.tgz:26332.got - 2010.06.03 17:49:19.
