data_PCOD9239932
_publ_section_title
;
Structure prediction by ZEFSAII (Michael W. Deem and Ramdas Pophale) SiO2 
 PCOD9239932
Probable space group: P 21/C
;
_chemical_formula_sum "Si O2"
_cell_formula_units_Z 28
_cell_length_a 19.122798
_cell_length_b 11.424812
_cell_length_c 15.551774
_cell_angle_alpha 90.000000
_cell_angle_beta 21.046785
_cell_angle_gamma 90.000000
_cell_volume 1220.203594
_symmetry_space_group_name_H-M "P 21/C"
_symmetry_group_IT_number 14
_symmetry_cell_setting 'monoclinic'
loop_
_space_group_symop_operation_xyz
x,y,z
-x,1/2+y,1/2-z
-x,-y,-z
x,1/2-y,1/2+z
loop_
_atom_site_type_symbol
_atom_site_label
_atom_site_fract_x
_atom_site_fract_y
_atom_site_fract_z
Si Si1 0.634960 0.060288 0.690941
Si Si2 0.897870 0.897176 0.493777
Si Si3 0.076317 0.778604 0.116434
Si Si4 0.199959 0.096026 0.143595
Si Si5 0.925273 0.833996 0.048062
Si Si6 0.726372 0.482112 0.890026
Si Si7 0.292033 0.485566 0.343360
O O1 0.685882 0.009111 0.537857
O O2 0.708050 0.966896 0.677859
O O3 0.767355 0.175892 0.545978
O O4 0.407809 0.093160 0.952105
O O5 0.980718 0.826611 0.314786
O O6 0.879514 0.802254 0.590248
O O7 0.054203 0.994788 0.341195
O O8 0.916954 0.715862 0.238941
O O9 0.195214 0.887862 0.941874
O O10 0.246925 0.055676 0.991658
O O11 0.190960 0.104493 0.896336
O O12 0.151259 0.865210 0.771648
O O13 0.852622 0.910183 0.211265
O O14 0.523739 0.485378 0.072582
#
# Coordination Sequence:
#
# PCOD9239932 Si02
#       7
#     4   4   4   4   4   4   4
#     4  10  20  35  54  84 110 142 188 235 271 330
#     4  10  19  33  53  80 113 143 182 228 284 322
#     4  10  18  33  55  78 112 143 182 233 278 322
#     4   9  19  32  52  79 109 144 186 235 276 320
#     4  11  20  36  56  81 121 148 173 232 283 340
#     4  10  21  35  54  84 115 147 188 219 284 341
#     4  10  20  34  53  83 114 146 184 224 283 335
#
# _framework density 22.94699
#
# number of rings (size 3 to 8) (size 9 to 14) (size 15 to 20)
#    0.000    2.000    2.857    2.143    0.000    5.714 
#    0.000    0.000    0.000    3.429    0.000   42.000 
#    0.000    0.000    0.000    0.000    0.000    0.000 
#
# Total GULP energy -156666.486778 kJ/mol
# GULP energy per Si atom -5595.231671 kJ/mol
# Density = 2.289476 g / cm^3
# Si number density = 22.946990 Si / 1000 Ang^3
#
#
#
# Elastic Constant Matrix: (Units=GPa)
#
#
# Indices 1 2 3 4 5 6 
#
# 1 73.1355 27.6174 54.4079 0.0000 -22.8412 0.0000
# 2 27.6174 127.0995 57.9992 0.0000 -22.7766 0.0000
# 3 54.4079 57.9992 137.7492 0.0000 -41.8698 0.0000
# 4 0.0000 0.0000 0.0000 11.6245 0.0000 -0.8356
# 5 -22.8412 -22.7766 -41.8698 0.0000 40.5287 0.0000
# 6 0.0000 0.0000 0.0000 -0.8356 0.0000 37.8113
#
#
#
# Elastic Compliance Matrix: (Units=1/GPa)
#
#
# Indices 1 2 3 4 5 6 
#
# 1 0.019963 -0.000695 -0.006256 0.000000 0.004397 0.000000
# 2 -0.000695 0.009855 -0.003368 0.000000 0.001667 0.000000
# 3 -0.006256 -0.003368 0.013851 0.000000 0.008891 0.000000
# 4 0.000000 0.000000 0.000000 0.086162 0.000000 0.001904
# 5 0.004397 0.001667 0.008891 0.000000 0.037274 0.000000
# 6 0.000000 0.000000 0.000000 0.001904 0.000000 0.026489
#
#
# Mechanical properties :
#
#
# Convention : Reuss Voigt Hill
#
# Bulk Modulus (GPa) = 43.41980 68.67035 56.04508
# Shear Modulus (GPa) = 22.53182 31.19021 26.86101
#
# Velocity S-wave (km/s) = 3.13694 3.69077 3.42507
# Velocity P-wave (km/s) = 5.66422 6.93924 6.33389
#
# Compressibility (1/GPa) = 0.02303097
#
# Stress axis : x y z
#
# Youngs Moduli (GPa) = 50.09305 101.47615 72.19717
#
# Poissons Ratio (x) = 0.07053 0.45163
# Poissons Ratio (y) = 0.03482 0.24316
# Poissons Ratio (z) = 0.31336 0.34178
#
# Static dielectric constant tensor:
#      x y z
#    x 1.891760 0.000000 0.045110 
#    y 0.000000 1.824050 0.000000 
#    z 0.045110 0.000000 1.863550 
# 
# From -- ./inp_files/61238.got.cif
#   From: 2010.05.17/outbox.cif.g08.bks.cpg/sg14_31_cif.got.tgz:61238.got - 2010.06.03 17:49:19.
