data_PCOD9239151
_publ_section_title
;
Structure prediction by ZEFSAII (Michael W. Deem and Ramdas Pophale) SiO2 
 PCOD9239151
Probable space group: P 21/C
;
_chemical_formula_sum "Si O2"
_cell_formula_units_Z 28
_cell_length_a 14.749476
_cell_length_b 13.968976
_cell_length_c 5.466852
_cell_angle_alpha 90.000000
_cell_angle_beta 101.079539
_cell_angle_gamma 90.000000
_cell_volume 1105.369382
_symmetry_space_group_name_H-M "P 21/C"
_symmetry_group_IT_number 14
_symmetry_cell_setting 'monoclinic'
loop_
_space_group_symop_operation_xyz
x,y,z
-x,1/2+y,1/2-z
-x,-y,-z
x,1/2-y,1/2+z
loop_
_atom_site_type_symbol
_atom_site_label
_atom_site_fract_x
_atom_site_fract_y
_atom_site_fract_z
Si Si1 0.796388 0.743816 0.634780
Si Si2 0.738892 0.952896 0.608690
Si Si3 0.503443 0.311609 0.502547
Si Si4 0.668552 0.554830 0.571169
Si Si5 0.902077 0.198230 0.125997
Si Si6 0.959425 0.957398 0.728506
Si Si7 0.287310 0.810500 0.839388
O O1 0.850225 0.751378 0.412936
O O2 0.727491 0.835688 0.599726
O O3 0.741041 0.645052 0.604378
O O4 0.689446 0.992884 0.822328
O O5 0.849009 0.964934 0.671998
O O6 0.694411 0.993735 0.340391
O O7 0.489764 0.252875 0.241224
O O8 0.431612 0.398157 0.472120
O O9 0.608990 0.347596 0.567496
O O10 0.897054 0.280824 0.333175
O O11 0.996165 0.146677 0.238682
O O12 0.810163 0.137627 0.152900
O O13 0.000000 0.000000 0.500000
O O14 0.000000 0.000000 0.000000
O O15 0.282767 0.770218 0.558260
#
# Coordination Sequence:
#
# PCOD9239151 Si02
#       7
#     4   4   4   4   4   4   4
#     4   8  14  23  38  62  94 126 161 201 252 312
#     4  10  20  32  47  68 101 142 182 221 269 339
#     4  10  16  25  43  74 115 151 177 223 291 351
#     4  10  17  28  46  75 109 142 176 222 283 344
#     4  10  21  40  64  90 117 153 202 255 298 347
#     4  12  26  43  61  87 119 158 202 249 307 365
#     4   8  16  29  49  78 112 146 188 237 289 336
#
# _framework density 25.330897
#
# number of rings (size 3 to 8) (size 9 to 14) (size 15 to 20)
#    0.000    2.286    0.000    5.143    0.000    3.429 
#    0.000    0.000    0.000    0.000    0.000    6.000 
#    0.000    0.000    0.000    0.000    0.000    0.000 
#
# Total GULP energy -156394.789206 kJ/mol
# GULP energy per Si atom -5585.528186 kJ/mol
# Density = 2.527324 g / cm^3
# Si number density = 25.330897 Si / 1000 Ang^3
#
#
#
# Elastic Constant Matrix: (Units=GPa)
#
#
# Indices 1 2 3 4 5 6 
#
# 1 160.6741 21.2400 69.1168 0.0000 -0.8929 0.0000
# 2 21.2400 32.2676 23.5516 0.0000 -2.5911 0.0000
# 3 69.1168 23.5516 261.6391 0.0000 -19.9811 0.0000
# 4 0.0000 0.0000 0.0000 33.8363 0.0000 1.1166
# 5 -0.8929 -2.5911 -19.9811 0.0000 45.4616 0.0000
# 6 0.0000 0.0000 0.0000 1.1166 0.0000 31.9332
#
#
#
# Elastic Compliance Matrix: (Units=1/GPa)
#
#
# Indices 1 2 3 4 5 6 
#
# 1 0.007440 -0.003727 -0.001692 0.000000 -0.000810 0.000000
# 2 -0.003727 0.035053 -0.002094 0.000000 0.001004 0.000000
# 3 -0.001692 -0.002094 0.004600 0.000000 0.001869 0.000000
# 4 0.000000 0.000000 0.000000 0.029588 0.000000 -0.001035
# 5 -0.000810 0.001004 0.001869 0.000000 0.022860 0.000000
# 6 0.000000 0.000000 0.000000 -0.001035 0.000000 0.031352
#
#
# Mechanical properties :
#
#
# Convention : Reuss Voigt Hill
#
# Bulk Modulus (GPa) = 31.18455 75.82194 53.50324
# Shear Modulus (GPa) = 31.92686 44.95770 38.44228
#
# Velocity S-wave (km/s) = 3.55405 4.21743 3.89987
# Velocity P-wave (km/s) = 5.40179 7.32893 6.43788
#
# Compressibility (1/GPa) = 0.03206716
#
# Stress axis : x y z
#
# Youngs Moduli (GPa) = 134.41370 28.52784 217.38245
#
# Poissons Ratio (x) = 0.10634 0.36774
# Poissons Ratio (y) = 0.50102 0.45520
# Poissons Ratio (z) = 0.22738 0.05974
#
# Static dielectric constant tensor:
#      x y z
#    x 1.933320 0.000000 -0.014510 
#    y 0.000000 2.239670 0.000000 
#    z -0.014510 0.000000 2.049520 
# 
# From -- ./inp_files/3687.got.cif
#   From: 2010.05.17/outbox.cif.g08.bks.cpg/sg14_2_cif.got.tgz:3687.got - 2010.06.03 17:49:19.
