data_PCOD9239801
_publ_section_title
;
Structure prediction by ZEFSAII (Michael W. Deem and Ramdas Pophale) SiO2 
 PCOD9239801
Probable space group: P 21/C
;
_chemical_formula_sum "Si O2"
_cell_formula_units_Z 24
_cell_length_a 11.437953
_cell_length_b 4.876699
_cell_length_c 18.829079
_cell_angle_alpha 90.000000
_cell_angle_beta 68.023080
_cell_angle_gamma 90.000000
_cell_volume 973.957121
_symmetry_space_group_name_H-M "P 21/C"
_symmetry_group_IT_number 14
_symmetry_cell_setting 'monoclinic'
loop_
_space_group_symop_operation_xyz
x,y,z
-x,1/2+y,1/2-z
-x,-y,-z
x,1/2-y,1/2+z
loop_
_atom_site_type_symbol
_atom_site_label
_atom_site_fract_x
_atom_site_fract_y
_atom_site_fract_z
Si Si1 0.432750 0.837928 0.290176
Si Si2 0.523330 0.640285 0.916871
Si Si3 0.235778 0.948721 0.587892
Si Si4 0.805957 0.999700 0.136699
Si Si5 0.968820 0.487783 0.092411
Si Si6 0.681854 0.952798 0.015340
O O1 0.540623 0.602019 0.263462
O O2 0.446187 0.966172 0.366317
O O3 0.309757 0.658594 0.299710
O O4 0.672047 0.577173 0.873226
O O5 0.500000 0.500000 0.000000
O O6 0.461563 0.945480 0.937053
O O7 0.274195 0.150333 0.514008
O O8 0.277149 0.642330 0.559732
O O9 0.085783 0.945790 0.617161
O O10 0.850089 0.687886 0.135719
O O11 0.929686 0.179244 0.117987
O O12 0.761989 0.031843 0.065312
O O13 0.000000 0.500000 0.000000
#
# Coordination Sequence:
#
# PCOD9239801 Si02
#       6
#     4   4   4   4   4   4
#     4  11  25  45  69  93 128 178 229 279 341 409
#     4   9  22  39  63  95 130 166 216 280 341 387
#     4  11  20  31  52  85 125 162 200 253 330 387
#     4  11  21  36  56  87 124 168 215 266 317 393
#     4  12  20  32  56  88 134 168 208 258 331 400
#     4  10  18  32  51  81 122 163 198 256 318 385
#
# _framework density 24.641743999999999
#
# number of rings (size 3 to 8) (size 9 to 14) (size 15 to 20)
#    0.000    1.333    3.333    3.000    0.000    9.333 
#    0.000    0.000    0.000    4.000    0.000    0.000 
#    0.000    0.000    0.000    0.000    0.000    0.000 
#
# Total GULP energy -133722.169223 kJ/mol
# GULP energy per Si atom -5571.757051 kJ/mol
# Density = 2.458566 g / cm^3
# Si number density = 24.641744 Si / 1000 Ang^3
#
#
#
# Elastic Constant Matrix: (Units=GPa)
#
#
# Indices 1 2 3 4 5 6 
#
# 1 140.7991 0.1646 0.5863 0.0000 -9.5639 0.0000
# 2 0.1646 95.5806 17.5102 0.0000 -6.0433 0.0000
# 3 0.5863 17.5102 39.4030 0.0000 3.4724 0.0000
# 4 0.0000 0.0000 0.0000 33.6142 0.0000 -8.3625
# 5 -9.5639 -6.0433 3.4724 0.0000 20.3958 0.0000
# 6 0.0000 0.0000 0.0000 -8.3625 0.0000 49.0710
#
#
#
# Elastic Compliance Matrix: (Units=1/GPa)
#
#
# Indices 1 2 3 4 5 6 
#
# 1 0.007352 0.000323 -0.000574 0.000000 0.003641 0.000000
# 2 0.000323 0.011788 -0.005649 0.000000 0.004606 0.000000
# 3 -0.000574 -0.005649 0.028496 0.000000 -0.006794 0.000000
# 4 0.000000 0.000000 0.000000 0.031066 0.000000 0.005294
# 5 0.003641 0.004606 -0.006794 0.000000 0.053258 0.000000
# 6 0.000000 0.000000 0.000000 0.005294 0.000000 0.021281
#
#
# Mechanical properties :
#
#
# Convention : Reuss Voigt Hill
#
# Bulk Modulus (GPa) = 27.90503 34.70055 31.30279
# Shear Modulus (GPa) = 28.25070 37.78432 33.01751
#
# Velocity S-wave (km/s) = 3.38961 3.92004 3.66444
# Velocity P-wave (km/s) = 5.16412 5.88231 5.53488
#
# Compressibility (1/GPa) = 0.03583583
#
# Stress axis : x y z
#
# Youngs Moduli (GPa) = 136.02449 84.83248 35.09212
#
# Poissons Ratio (x) = -0.02737 0.02013
# Poissons Ratio (y) = -0.04388 0.19824
# Poissons Ratio (z) = 0.07802 0.47923
#
# Static dielectric constant tensor:
#      x y z
#    x 2.079850 0.000000 -0.096250 
#    y 0.000000 1.995210 0.000000 
#    z -0.096250 0.000000 2.112480 
# 
# From -- ./inp_files/66217.got.cif
#   From: 2010.05.17/outbox.cif.g08.bks.cpg/sg14_34_cif.got.tgz:66217.got - 2010.06.03 17:49:19.
