data_PCOD9239868
_publ_section_title
;
Structure prediction by ZEFSAII (Michael W. Deem and Ramdas Pophale) SiO2 
 PCOD9239868
Probable space group: P 21/C
;
_chemical_formula_sum "Si O2"
_cell_formula_units_Z 28
_cell_length_a 9.582260
_cell_length_b 14.619636
_cell_length_c 19.779678
_cell_angle_alpha 90.000000
_cell_angle_beta 25.688297
_cell_angle_gamma 90.000000
_cell_volume 1201.123899
_symmetry_space_group_name_H-M "P 21/C"
_symmetry_group_IT_number 14
_symmetry_cell_setting 'monoclinic'
loop_
_space_group_symop_operation_xyz
x,y,z
-x,1/2+y,1/2-z
-x,-y,-z
x,1/2-y,1/2+z
loop_
_atom_site_type_symbol
_atom_site_label
_atom_site_fract_x
_atom_site_fract_y
_atom_site_fract_z
Si Si1 0.699393 0.713954 0.989187
Si Si2 0.380995 0.859447 0.220259
Si Si3 0.971308 0.124735 0.243569
Si Si4 0.066801 0.351273 0.853558
Si Si5 0.508804 0.311979 0.185749
Si Si6 0.709447 0.380568 0.625800
Si Si7 0.127601 0.483846 0.553494
O O1 0.551738 0.767306 0.117974
O O2 0.400422 0.656391 0.091577
O O3 0.002104 0.652595 0.878017
O O4 0.833625 0.792293 0.879234
O O5 0.507150 0.874561 0.241263
O O6 0.526927 0.937097 0.109070
O O7 0.090779 0.114147 0.267254
O O8 0.020579 0.034612 0.176199
O O9 0.204138 0.246336 0.793485
O O10 0.325900 0.398490 0.790003
O O11 0.709694 0.357072 0.038411
O O12 0.736969 0.228549 0.113961
O O13 0.844262 0.419777 0.495994
O O14 0.883325 0.425430 0.612927
#
# Coordination Sequence:
#
# PCOD9239868 Si02
#       7
#     4   4   4   4   4   4   4
#     4   9  18  30  53  83 108 134 188 228 273 305
#     4  10  18  32  57  83 105 141 181 232 270 318
#     4  10  19  33  55  81 110 144 177 231 266 327
#     4  10  21  33  55  80 110 140 182 220 273 319
#     4  10  19  33  56  80 109 140 177 232 264 321
#     4   9  21  36  56  82 110 144 183 223 272 331
#     4  10  20  37  58  80 110 144 185 222 275 323
#
# _framework density 23.311499000000001
#
# number of rings (size 3 to 8) (size 9 to 14) (size 15 to 20)
#    0.857    1.429    0.000    5.143    2.000    0.571 
#    0.000    0.714    3.143    0.857    0.000    0.000 
#    0.000    0.000    0.000    0.000    0.000    0.000 
#
# Total GULP energy -156333.734569 kJ/mol
# GULP energy per Si atom -5583.347663 kJ/mol
# Density = 2.325844 g / cm^3
# Si number density = 23.311499 Si / 1000 Ang^3
#
#
#
# Elastic Constant Matrix: (Units=GPa)
#
#
# Indices 1 2 3 4 5 6 
#
# 1 84.0046 0.4138 46.6150 0.0000 15.6376 0.0000
# 2 0.4138 32.4399 2.7996 0.0000 -11.0413 0.0000
# 3 46.6150 2.7996 99.8700 0.0000 -9.4247 0.0000
# 4 0.0000 0.0000 0.0000 14.3114 0.0000 -1.3607
# 5 15.6376 -11.0413 -9.4247 0.0000 31.3755 0.0000
# 6 0.0000 0.0000 0.0000 -1.3607 0.0000 21.7792
#
#
#
# Elastic Compliance Matrix: (Units=1/GPa)
#
#
# Indices 1 2 3 4 5 6 
#
# 1 0.020949 -0.004542 -0.011101 0.000000 -0.015374 0.000000
# 2 -0.004542 0.036009 0.002593 0.000000 0.015715 0.000000
# 3 -0.011101 0.002593 0.016189 0.000000 0.011309 0.000000
# 4 0.000000 0.000000 0.000000 0.070292 0.000000 0.004392
# 5 -0.015374 0.015715 0.011309 0.000000 0.048461 0.000000
# 6 0.000000 0.000000 0.000000 0.004392 0.000000 0.046190
#
#
# Mechanical properties :
#
#
# Convention : Reuss Voigt Hill
#
# Bulk Modulus (GPa) = 21.25518 35.10791 28.18154
# Shear Modulus (GPa) = 17.86534 24.59231 21.22882
#
# Velocity S-wave (km/s) = 2.77135 3.25151 3.02099
# Velocity P-wave (km/s) = 4.40207 5.40273 4.92786
#
# Compressibility (1/GPa) = 0.04704735
#
# Stress axis : x y z
#
# Youngs Moduli (GPa) = 47.73587 27.77079 61.76976
#
# Poissons Ratio (x) = 0.12613 0.68573
# Poissons Ratio (y) = 0.21681 -0.16020
# Poissons Ratio (z) = 0.52993 -0.07202
#
# Static dielectric constant tensor:
#      x y z
#    x 1.852060 0.000000 -0.020630 
#    y 0.000000 1.924990 0.000000 
#    z -0.020630 0.000000 1.917950 
# 
# From -- ./inp_files/56193.got.cif
#   From: 2010.05.17/outbox.cif.g08.bks.cpg/sg14_29_cif.got.tgz:56193.got - 2010.06.03 17:49:19.
