data_PCOD9239287
_publ_section_title
;
Structure prediction by ZEFSAII (Michael W. Deem and Ramdas Pophale) SiO2 
 PCOD9239287
Probable space group: P 21/C
;
_chemical_formula_sum "Si O2"
_cell_formula_units_Z 32
_cell_length_a 9.026323
_cell_length_b 4.974168
_cell_length_c 27.534950
_cell_angle_alpha 90.000000
_cell_angle_beta 105.682231
_cell_angle_gamma 90.000000
_cell_volume 1190.256869
_symmetry_space_group_name_H-M "P 21/C"
_symmetry_group_IT_number 14
_symmetry_cell_setting 'monoclinic'
loop_
_space_group_symop_operation_xyz
x,y,z
-x,1/2+y,1/2-z
-x,-y,-z
x,1/2-y,1/2+z
loop_
_atom_site_type_symbol
_atom_site_label
_atom_site_fract_x
_atom_site_fract_y
_atom_site_fract_z
Si Si1 0.097842 0.086545 0.773331
Si Si2 0.992809 0.940896 0.860505
Si Si3 0.500031 0.721678 0.216425
Si Si4 0.482492 0.980913 0.877851
Si Si5 0.408434 0.497371 0.927354
Si Si6 0.833579 0.475534 0.440840
Si Si7 0.807933 0.057577 0.316436
Si Si8 0.750628 0.956043 0.493762
O O1 0.123002 0.003522 0.831604
O O2 0.962228 0.888768 0.739995
O O3 0.218510 0.037206 0.740982
O O4 0.973693 0.012986 0.915086
O O5 0.932142 0.638877 0.850451
O O6 0.868359 0.143157 0.825904
O O7 0.560199 0.469687 0.254180
O O8 0.359356 0.562349 0.176484
O O9 0.567195 0.874226 0.175836
O O10 0.404470 0.693814 0.880989
O O11 0.670482 0.964470 0.898075
O O12 0.431477 0.187374 0.915887
O O13 0.569509 0.594981 0.965706
O O14 0.263286 0.525913 0.950526
O O15 0.808137 0.195078 0.465052
O O16 0.842071 0.699480 0.483227
#
# Coordination Sequence:
#
# PCOD9239287 Si02
#       8
#     4   4   4   4   4   4   4   4
#     4   8  16  28  44  65  83 110 148 180 217 267
#     4  10  17  28  47  67  88 117 148 179 216 274
#     4  12  24  34  46  65  87 118 161 203 228 248
#     4  10  19  30  44  58  79 120 150 185 220 254
#     4   9  17  29  43  57  83 113 150 176 210 264
#     4  10  17  25  43  64  89 115 141 175 213 261
#     4  10  19  32  46  60  87 118 152 190 225 259
#     4   9  17  26  39  64  86 112 143 175 208 257
#
# _framework density 26.884952999999999
#
# number of rings (size 3 to 8) (size 9 to 14) (size 15 to 20)
#    0.000    2.250    1.250    3.000    3.500    3.000 
#    0.000    0.000    0.000    0.000    0.000    0.000 
#    0.000    0.000    0.000   22.500    0.000    0.000 
#
# Total GULP energy -178709.452796 kJ/mol
# GULP energy per Si atom -5584.670400 kJ/mol
# Density = 2.682376 g / cm^3
# Si number density = 26.884953 Si / 1000 Ang^3
#
#
#
# Elastic Constant Matrix: (Units=GPa)
#
#
# Indices 1 2 3 4 5 6 
#
# 1 47.2401 8.5186 43.7543 0.0000 0.6711 0.0000
# 2 8.5186 120.8995 33.9900 0.0000 -8.6095 0.0000
# 3 43.7543 33.9900 152.8055 0.0000 -46.6461 0.0000
# 4 0.0000 0.0000 0.0000 45.5021 0.0000 -10.6447
# 5 0.6711 -8.6095 -46.6461 0.0000 45.4998 0.0000
# 6 0.0000 0.0000 0.0000 -10.6447 0.0000 14.7504
#
#
#
# Elastic Compliance Matrix: (Units=1/GPa)
#
#
# Indices 1 2 3 4 5 6 
#
# 1 0.035235 0.000624 -0.015065 0.000000 -0.015846 0.000000
# 2 0.000624 0.008842 -0.002384 0.000000 -0.000780 0.000000
# 3 -0.015065 -0.002384 0.016474 0.000000 0.016660 0.000000
# 4 0.000000 0.000000 0.000000 0.026441 0.000000 0.019081
# 5 -0.015846 -0.000780 0.016660 0.000000 0.039144 0.000000
# 6 0.000000 0.000000 0.000000 0.019081 0.000000 0.081565
#
#
# Mechanical properties :
#
#
# Convention : Reuss Voigt Hill
#
# Bulk Modulus (GPa) = 37.17257 54.83010 46.00133
# Shear Modulus (GPa) = 19.97467 36.79594 28.38530
#
# Velocity S-wave (km/s) = 2.72870 3.70353 3.25284
# Velocity P-wave (km/s) = 4.87691 6.22309 5.59067
#
# Compressibility (1/GPa) = 0.02690156
#
# Stress axis : x y z
#
# Youngs Moduli (GPa) = 28.38112 113.09726 60.70137
#
# Poissons Ratio (x) = -0.07062 0.91449
# Poissons Ratio (y) = -0.01772 0.14469
# Poissons Ratio (z) = 0.42757 0.26958
#
# Static dielectric constant tensor:
#      x y z
#    x 2.217900 0.000000 -0.046280 
#    y 0.000000 2.022770 0.000000 
#    z -0.046280 0.000000 2.186460 
# 
# From -- ./inp_files/77319.got.cif
#   From: 2010.05.17/outbox.cif.g08.bks.cpg/sg14_39_cif.got.tgz:77319.got - 2010.06.03 17:49:19.
