data_PCOD9239477
_publ_section_title
;
Structure prediction by ZEFSAII (Michael W. Deem and Ramdas Pophale) SiO2 
 PCOD9239477
Probable space group: P 21/C
;
_chemical_formula_sum "Si O2"
_cell_formula_units_Z 24
_cell_length_a 10.592314
_cell_length_b 12.258347
_cell_length_c 8.189267
_cell_angle_alpha 90.000000
_cell_angle_beta 100.803483
_cell_angle_gamma 90.000000
_cell_volume 1044.482718
_symmetry_space_group_name_H-M "P 21/C"
_symmetry_group_IT_number 14
_symmetry_cell_setting 'monoclinic'
loop_
_space_group_symop_operation_xyz
x,y,z
-x,1/2+y,1/2-z
-x,-y,-z
x,1/2-y,1/2+z
loop_
_atom_site_type_symbol
_atom_site_label
_atom_site_fract_x
_atom_site_fract_y
_atom_site_fract_z
Si Si1 0.455749 0.157545 0.047766
Si Si2 0.298361 0.957338 0.033508
Si Si3 0.952224 0.191466 0.423895
Si Si4 0.785833 0.360242 0.170260
Si Si5 0.483056 0.875833 0.556492
Si Si6 0.977663 0.101561 0.112095
O O1 0.500645 0.135605 0.245108
O O2 0.335358 0.078439 0.989245
O O3 0.571946 0.112796 0.961222
O O4 0.428178 0.283653 0.005571
O O5 0.253872 0.953190 0.211180
O O6 0.178333 0.907325 0.909159
O O7 0.844412 0.265107 0.300373
O O8 0.890617 0.122894 0.555414
O O9 0.022451 0.118213 0.307686
O O10 0.025483 0.290481 0.530049
O O11 0.656646 0.337345 0.040090
O O12 0.500000 0.000000 0.500000
O O13 0.000000 0.000000 0.000000
#
# Coordination Sequence:
#
# PCOD9239477 Si02
#       6
#     4   4   4   4   4   4
#     4  11  23  37  55  85 126 156 200 240 290 355
#     4  10  21  38  59  85 118 156 194 249 297 340
#     4   9  19  35  63  85 112 146 203 245 279 348
#     4  10  17  34  55  85 109 151 200 239 277 340
#     4  12  22  34  57  84 118 161 198 237 293 348
#     4  10  20  39  64  88 114 151 197 243 300 343
#
# _framework density 22.977879999999999
#
# number of rings (size 3 to 8) (size 9 to 14) (size 15 to 20)
#    0.000    1.667    1.667    6.000    2.333    0.000 
#    0.000    9.167    0.000    0.000    0.000    0.000 
#    0.000    0.000    0.000    0.000    0.000    0.000 
#
# Total GULP energy -133820.795400 kJ/mol
# GULP energy per Si atom -5575.866475 kJ/mol
# Density = 2.292558 g / cm^3
# Si number density = 22.977880 Si / 1000 Ang^3
#
#
#
# Elastic Constant Matrix: (Units=GPa)
#
#
# Indices 1 2 3 4 5 6 
#
# 1 15.8748 14.7827 11.1337 0.0000 -16.8246 0.0000
# 2 14.7827 153.1486 50.8658 0.0000 -38.7100 0.0000
# 3 11.1337 50.8658 125.5982 0.0000 -41.8352 0.0000
# 4 0.0000 0.0000 0.0000 32.2807 0.0000 -12.7264
# 5 -16.8246 -38.7100 -41.8352 0.0000 39.5629 0.0000
# 6 0.0000 0.0000 0.0000 -12.7264 0.0000 18.3355
#
#
#
# Elastic Compliance Matrix: (Units=1/GPa)
#
#
# Indices 1 2 3 4 5 6 
#
# 1 0.122419 0.000930 0.009903 0.000000 0.063442 0.000000
# 2 0.000930 0.008774 -0.000995 0.000000 0.007928 0.000000
# 3 0.009903 -0.000995 0.013223 0.000000 0.017220 0.000000
# 4 0.000000 0.000000 0.000000 0.042648 0.000000 0.029601
# 5 0.063442 0.007928 0.017220 0.000000 0.078222 0.000000
# 6 0.000000 0.000000 0.000000 0.029601 0.000000 0.075085
#
#
# Mechanical properties :
#
#
# Convention : Reuss Voigt Hill
#
# Bulk Modulus (GPa) = 6.09413 49.79846 27.94630
# Shear Modulus (GPa) = 13.31939 32.55845 22.93892
#
# Velocity S-wave (km/s) = 2.41023 3.76832 3.16302
# Velocity P-wave (km/s) = 3.22545 6.37597 5.05255
#
# Compressibility (1/GPa) = 0.16409222
#
# Stress axis : x y z
#
# Youngs Moduli (GPa) = 8.16867 113.96865 75.62682
#
# Poissons Ratio (x) = -0.10598 -0.74895
# Poissons Ratio (y) = -0.00760 0.07526
# Poissons Ratio (z) = -0.08090 0.11341
#
# Static dielectric constant tensor:
#      x y z
#    x 1.920750 0.000000 0.007620 
#    y 0.000000 1.946690 0.000000 
#    z 0.007620 0.000000 1.877100 
# 
# From -- ./inp_files/12438.got.cif
#   From: 2010.05.17/outbox.cif.g08.bks.cpg/sg14_7_cif.got.tgz:12438.got - 2010.06.03 17:49:19.
