data_PCOD9239281
_publ_section_title
;
Structure prediction by ZEFSAII (Michael W. Deem and Ramdas Pophale) SiO2 
 PCOD9239281
Probable space group: P 21/C
;
_chemical_formula_sum "Si O2"
_cell_formula_units_Z 22
_cell_length_a 9.323284
_cell_length_b 12.763744
_cell_length_c 9.850905
_cell_angle_alpha 90.000000
_cell_angle_beta 46.233643
_cell_angle_gamma 90.000000
_cell_volume 846.565329
_symmetry_space_group_name_H-M "P 21/C"
_symmetry_group_IT_number 14
_symmetry_cell_setting 'monoclinic'
loop_
_space_group_symop_operation_xyz
x,y,z
-x,1/2+y,1/2-z
-x,-y,-z
x,1/2-y,1/2+z
loop_
_atom_site_type_symbol
_atom_site_label
_atom_site_fract_x
_atom_site_fract_y
_atom_site_fract_z
Si Si1 0.500000 0.000000 0.000000
Si Si2 0.893985 0.626929 0.132312
Si Si3 0.520613 0.349140 0.905862
Si Si4 0.780448 0.459180 0.543420
Si Si5 0.133701 0.481263 0.127805
Si Si6 0.358805 0.308824 0.288232
O O1 0.705612 0.941175 0.808316
O O2 0.364974 0.927974 0.985026
O O3 0.819941 0.744780 0.165397
O O4 0.074724 0.596513 0.112221
O O5 0.942130 0.589551 0.948700
O O6 0.724483 0.388821 0.708352
O O7 0.439827 0.255176 0.864233
O O8 0.358765 0.443720 0.996880
O O9 0.517375 0.319652 0.064261
O O10 0.706491 0.577926 0.617798
O O11 0.003087 0.457699 0.344875
#
# Coordination Sequence:
#
# PCOD9239281 Si02
#       6
#     2   4   4   4   4   4
#     4  10  16  36  66  88 116 174 206 246 322 376
#     4   9  18  37  64  89 123 172 211 257 316 384
#     4  11  23  44  63  96 130 173 211 271 322 384
#     4  11  22  38  66  93 130 172 211 267 322 381
#     4   9  19  37  64  87 123 169 216 256 325 371
#     4  11  23  41  67  94 134 167 218 267 324 373
#
# _framework density 25.987362000000001
#
# number of rings (size 3 to 8) (size 9 to 14) (size 15 to 20)
#    0.000    1.818    3.636    2.727    0.000    0.727 
#    0.000    9.091    0.000    0.000    0.000    0.000 
#    0.000    0.000    0.000    0.000    0.000    0.000 
#
# Total GULP energy -122757.312257 kJ/mol
# GULP energy per Si atom -5579.877830 kJ/mol
# Density = 2.592821 g / cm^3
# Si number density = 25.987362 Si / 1000 Ang^3
#
#
#
# Elastic Constant Matrix: (Units=GPa)
#
#
# Indices 1 2 3 4 5 6 
#
# 1 80.1802 2.8977 41.6032 0.0000 -16.2474 0.0000
# 2 2.8977 97.7771 50.9288 0.0000 -2.3668 0.0000
# 3 41.6032 50.9288 176.2723 0.0000 31.4115 0.0000
# 4 0.0000 0.0000 0.0000 33.2748 0.0000 -4.7554
# 5 -16.2474 -2.3668 31.4115 0.0000 29.6481 0.0000
# 6 0.0000 0.0000 0.0000 -4.7554 0.0000 25.5202
#
#
#
# Elastic Compliance Matrix: (Units=1/GPa)
#
#
# Indices 1 2 3 4 5 6 
#
# 1 0.023962 0.006291 -0.012207 0.000000 0.026567 0.000000
# 2 0.006291 0.014535 -0.008020 0.000000 0.013105 0.000000
# 3 -0.012207 -0.008020 0.015012 0.000000 -0.023234 0.000000
# 4 0.000000 0.000000 0.000000 0.030875 0.000000 0.005753
# 5 0.026567 0.013105 -0.023234 0.000000 0.073951 0.000000
# 6 0.000000 0.000000 0.000000 0.005753 0.000000 0.040257
#
#
# Mechanical properties :
#
#
# Convention : Reuss Voigt Hill
#
# Bulk Modulus (GPa) = 39.00525 60.56544 49.78535
# Shear Modulus (GPa) = 21.27583 34.94194 28.10889
#
# Velocity S-wave (km/s) = 2.86440 3.67082 3.29239
# Velocity P-wave (km/s) = 5.09721 6.42829 5.80106
#
# Compressibility (1/GPa) = 0.02563758
#
# Stress axis : x y z
#
# Youngs Moduli (GPa) = 41.73263 68.79801 66.61517
#
# Poissons Ratio (x) = -0.43283 0.81320
# Poissons Ratio (y) = -0.26256 0.53423
# Poissons Ratio (z) = 0.50945 0.55174
#
# Static dielectric constant tensor:
#      x y z
#    x 2.117230 0.000000 0.073680 
#    y 0.000000 2.043130 0.000000 
#    z 0.073680 0.000000 2.037520 
# 
# From -- ./inp_files/28939.got.cif
#   From: 2010.05.17/outbox.cif.g08.bks.cpg/sg14_15_cif.got.tgz:28939.got - 2010.06.03 17:49:19.
