data_PCOD9239667
_publ_section_title
;
Structure prediction by ZEFSAII (Michael W. Deem and Ramdas Pophale) SiO2 
 PCOD9239667
Probable space group: P 21/C
;
_chemical_formula_sum "Si O2"
_cell_formula_units_Z 24
_cell_length_a 16.839185
_cell_length_b 15.288662
_cell_length_c 8.527740
_cell_angle_alpha 90.000000
_cell_angle_beta 22.399266
_cell_angle_gamma 90.000000
_cell_volume 836.596780
_symmetry_space_group_name_H-M "P 21/C"
_symmetry_group_IT_number 14
_symmetry_cell_setting 'monoclinic'
loop_
_space_group_symop_operation_xyz
x,y,z
-x,1/2+y,1/2-z
-x,-y,-z
x,1/2-y,1/2+z
loop_
_atom_site_type_symbol
_atom_site_label
_atom_site_fract_x
_atom_site_fract_y
_atom_site_fract_z
Si Si1 0.460945 0.383035 0.901280
Si Si2 0.023266 0.825315 0.718469
Si Si3 0.014972 0.592660 0.553516
Si Si4 0.474000 0.106878 0.041367
Si Si5 0.469321 0.092530 0.714642
Si Si6 0.980528 0.135047 0.633106
O O1 0.544560 0.354287 0.578992
O O2 0.490150 0.488442 0.853400
O O3 0.219813 0.355039 0.338910
O O4 0.544110 0.357969 0.921672
O O5 0.110548 0.858583 0.727195
O O6 0.026599 0.722582 0.747815
O O7 0.093777 0.852311 0.412027
O O8 0.000000 0.500000 0.500000
O O9 0.775336 0.624314 0.006002
O O10 0.099632 0.573690 0.576582
O O11 0.542446 0.134912 0.743222
O O12 0.500000 0.000000 0.000000
O O13 0.218049 0.102434 0.172945
#
# Coordination Sequence:
#
# PCOD9239667 Si02
#       6
#     4   4   4   4   4   4
#     4   8  14  24  40  65  95 125 158 198 244 294
#     4  10  18  30  49  72 103 133 171 218 266 305
#     4  10  20  32  48  76 104 128 169 216 257 306
#     4   8  14  26  44  66  92 122 153 192 237 288
#     4   8  14  24  40  65  95 125 158 198 244 294
#     4  10  18  30  49  72 103 133 171 218 266 305
#
# _framework density 28.687654999999999
#
# number of rings (size 3 to 8) (size 9 to 14) (size 15 to 20)
#    0.000    3.000    1.667    0.000    0.000    0.667 
#    0.000    0.000    0.000    0.000    0.000   37.333 
#    0.000    0.000    0.000    0.000    0.000    0.000 
#
# Total GULP energy -133935.869897 kJ/mol
# GULP energy per Si atom -5580.661246 kJ/mol
# Density = 2.862236 g / cm^3
# Si number density = 28.687655 Si / 1000 Ang^3
#
#
#
# Elastic Constant Matrix: (Units=GPa)
#
#
# Indices 1 2 3 4 5 6 
#
# 1 298.0906 4.3640 71.4621 0.0000 54.4679 0.0000
# 2 4.3640 45.7592 -6.1047 0.0000 -1.5131 0.0000
# 3 71.4621 -6.1047 205.7107 0.0000 77.8662 0.0000
# 4 0.0000 0.0000 0.0000 21.8202 0.0000 -8.1679
# 5 54.4679 -1.5131 77.8662 0.0000 58.8149 0.0000
# 6 0.0000 0.0000 0.0000 -8.1679 0.0000 -23.1845
#
#
#
# Elastic Compliance Matrix: (Units=1/GPa)
#
#
# Indices 1 2 3 4 5 6 
#
# 1 0.004050 -0.000510 0.000005 0.000000 -0.003771 0.000000
# 2 -0.000510 0.022015 0.000877 0.000000 -0.000122 0.000000
# 3 0.000005 0.000877 0.009780 0.000000 -0.012930 0.000000
# 4 0.000000 0.000000 0.000000 0.040489 0.000000 -0.014264
# 5 -0.003771 -0.000122 -0.012930 0.000000 0.037609 0.000000
# 6 0.000000 0.000000 0.000000 -0.014264 0.000000 -0.038107
#
#
# Mechanical properties :
#
#
# Convention : Reuss Voigt Hill
#
# Bulk Modulus (GPa) = 27.33149 76.55592 51.94371
# Shear Modulus (GPa) = 57.28103 43.47939 50.38021
#
# Velocity S-wave (km/s) = 4.47331 3.89731 4.19521
# Velocity P-wave (km/s) = 6.01902 6.85536 6.45076
#
# Compressibility (1/GPa) = 0.03658784
#
# Stress axis : x y z
#
# Youngs Moduli (GPa) = 246.92115 45.42339 102.25395
#
# Poissons Ratio (x) = 0.02318 -0.00053
# Poissons Ratio (y) = 0.12598 -0.08964
# Poissons Ratio (z) = -0.00129 -0.03982
#
# Static dielectric constant tensor:
#      x y z
#    x 2.850920 0.000000 -0.251350 
#    y 0.000000 0.695280 0.000000 
#    z -0.251350 0.000000 2.485320 
# 
# From -- ./inp_files/8615.got.cif
#   From: 2010.05.17/outbox.cif.g08.bks.cpg/sg14_5_cif.got.tgz:8615.got - 2010.06.03 17:49:19.
