data_PCOD9239732
_publ_section_title
;
Structure prediction by ZEFSAII (Michael W. Deem and Ramdas Pophale) SiO2 
 PCOD9239732
Probable space group: P 21/C
;
_chemical_formula_sum "Si O2"
_cell_formula_units_Z 28
_cell_length_a 9.730301
_cell_length_b 19.482210
_cell_length_c 16.427393
_cell_angle_alpha 90.000000
_cell_angle_beta 160.381164
_cell_angle_gamma 90.000000
_cell_volume 1045.595534
_symmetry_space_group_name_H-M "P 21/C"
_symmetry_group_IT_number 14
_symmetry_cell_setting 'monoclinic'
loop_
_space_group_symop_operation_xyz
x,y,z
-x,1/2+y,1/2-z
-x,-y,-z
x,1/2-y,1/2+z
loop_
_atom_site_type_symbol
_atom_site_label
_atom_site_fract_x
_atom_site_fract_y
_atom_site_fract_z
Si Si1 0.052795 0.648970 0.824525
Si Si2 0.672944 0.186568 0.869188
Si Si3 0.904040 0.700589 0.227594
Si Si4 0.110058 0.039288 0.977713
Si Si5 0.977947 0.001078 0.742533
Si Si6 0.762799 0.608444 0.003151
Si Si7 0.438848 0.656828 0.207722
O O1 0.882056 0.578042 0.697641
O O2 0.822480 0.718642 0.674567
O O3 0.504566 0.662415 0.039542
O O4 0.125204 0.641983 0.960619
O O5 0.314933 0.139753 0.630369
O O6 0.628031 0.263552 0.806746
O O7 0.743720 0.193566 0.006195
O O8 0.109983 0.159770 0.082649
O O9 0.943810 0.668011 0.161236
O O10 0.169863 0.984508 0.937923
O O11 0.709119 0.086790 0.738311
O O12 0.491878 0.091325 0.196176
O O13 0.000000 0.000000 0.000000
O O14 0.500000 0.000000 0.500000
O O15 0.000061 0.957146 0.672741
#
# Coordination Sequence:
#
# PCOD9239732 Si02
#       7
#     4   4   4   4   4   4   4
#     4  10  19  35  53  81 107 142 176 227 266 329
#     4   9  20  32  51  77 107 139 176 219 266 319
#     4  10  20  34  54  80 111 140 179 220 275 321
#     4  10  19  29  52  80 108 137 177 229 268 315
#     4  10  18  31  51  80 106 137 183 222 271 311
#     4  10  20  31  52  76 109 139 174 225 272 314
#     4   9  18  33  50  78 106 137 176 215 271 315
#
# _framework density 26.778998000000001
#
# number of rings (size 3 to 8) (size 9 to 14) (size 15 to 20)
#    0.000    2.286    2.857    1.714    6.000    0.000 
#    0.000    0.000    0.000    0.857    0.000    8.000 
#    0.000    0.000    0.000    0.000    0.000    0.000 
#
# Total GULP energy -156356.110576 kJ/mol
# GULP energy per Si atom -5584.146806 kJ/mol
# Density = 2.671805 g / cm^3
# Si number density = 26.778998 Si / 1000 Ang^3
#
#
#
# Elastic Constant Matrix: (Units=GPa)
#
#
# Indices 1 2 3 4 5 6 
#
# 1 71.0657 28.5003 42.4851 0.0000 -21.5459 0.0000
# 2 28.5003 122.8883 39.5905 0.0000 -31.9707 0.0000
# 3 42.4851 39.5905 108.2272 0.0000 -15.8981 0.0000
# 4 0.0000 0.0000 0.0000 47.0797 0.0000 -18.2531
# 5 -21.5459 -31.9707 -15.8981 0.0000 46.0385 0.0000
# 6 0.0000 0.0000 0.0000 -18.2531 0.0000 39.1707
#
#
#
# Elastic Compliance Matrix: (Units=1/GPa)
#
#
# Indices 1 2 3 4 5 6 
#
# 1 0.020461 -0.000838 -0.006747 0.000000 0.006664 0.000000
# 2 -0.000838 0.010816 -0.002720 0.000000 0.006179 0.000000
# 3 -0.006747 -0.002720 0.012791 0.000000 -0.000629 0.000000
# 4 0.000000 0.000000 0.000000 0.025924 0.000000 0.012080
# 5 0.006664 0.006179 -0.000629 0.000000 0.028914 0.000000
# 6 0.000000 0.000000 0.000000 0.012080 0.000000 0.031159
#
#
# Mechanical properties :
#
#
# Convention : Reuss Voigt Hill
#
# Bulk Modulus (GPa) = 42.62805 58.14808 50.38807
# Shear Modulus (GPa) = 31.54713 39.23147 35.38930
#
# Velocity S-wave (km/s) = 3.43600 3.83170 3.63923
# Velocity P-wave (km/s) = 5.62979 6.42939 6.04283
#
# Compressibility (1/GPa) = 0.02345873
#
# Stress axis : x y z
#
# Youngs Moduli (GPa) = 48.87245 92.45837 78.18154
#
# Poissons Ratio (x) = 0.07749 0.52747
# Poissons Ratio (y) = 0.04096 0.21263
# Poissons Ratio (z) = 0.32973 0.25146
#
# Static dielectric constant tensor:
#      x y z
#    x 2.216340 0.000000 0.012860 
#    y 0.000000 2.126080 0.000000 
#    z 0.012860 0.000000 2.114410 
# 
# From -- ./inp_files/58179.got.cif
#   From: 2010.05.17/outbox.cif.g08.bks.cpg/sg14_30_cif.got.tgz:58179.got - 2010.06.03 17:49:19.
