data_PCOD9239901
_publ_section_title
;
Structure prediction by ZEFSAII (Michael W. Deem and Ramdas Pophale) SiO2 
 PCOD9239901
Probable space group: P 21/C
;
_chemical_formula_sum "Si O2"
_cell_formula_units_Z 32
_cell_length_a 5.057561
_cell_length_b 14.322285
_cell_length_c 18.624444
_cell_angle_alpha 90.000000
_cell_angle_beta 58.078116
_cell_angle_gamma 90.000000
_cell_volume 1145.055853
_symmetry_space_group_name_H-M "P 21/C"
_symmetry_group_IT_number 14
_symmetry_cell_setting 'monoclinic'
loop_
_space_group_symop_operation_xyz
x,y,z
-x,1/2+y,1/2-z
-x,-y,-z
x,1/2-y,1/2+z
loop_
_atom_site_type_symbol
_atom_site_label
_atom_site_fract_x
_atom_site_fract_y
_atom_site_fract_z
Si Si1 0.403676 0.400169 0.956085
Si Si2 0.340365 0.641329 0.562529
Si Si3 0.438715 0.934195 0.207246
Si Si4 0.290177 0.022488 0.688750
Si Si5 0.057462 0.257134 0.081667
Si Si6 0.356619 0.908497 0.914528
Si Si7 0.014011 0.345086 0.721703
Si Si8 0.066239 0.190941 0.374341
O O1 0.473608 0.503076 0.912276
O O2 0.748180 0.368448 0.930076
O O3 0.288347 0.337460 0.905682
O O4 0.142206 0.364086 0.049835
O O5 0.407403 0.621115 0.636011
O O6 0.277111 0.566772 0.507769
O O7 0.031129 0.702713 0.605605
O O8 0.626279 0.703566 0.490095
O O9 0.576608 0.912612 0.266904
O O10 0.673391 0.015578 0.143304
O O11 0.073583 0.959264 0.275806
O O12 0.261434 0.917302 0.726212
O O13 0.793875 0.192479 0.081959
O O14 0.971626 0.245130 0.178152
O O15 0.728176 0.900343 0.859113
O O16 0.155983 0.323557 0.779028
#
# Coordination Sequence:
#
# PCOD9239901 Si02
#       8
#     4   4   4   4   4   4   4   4
#     4  10  19  34  52  72  99 131 171 217 256 293
#     4  10  22  33  47  77 104 141 169 203 248 303
#     4  11  22  33  51  71 107 141 174 197 239 310
#     4  10  20  34  50  71  97 137 172 208 247 291
#     4  10  19  32  52  74 106 133 168 211 259 304
#     4  10  18  33  47  74 105 138 168 201 249 304
#     4   9  19  32  49  74 100 131 172 212 257 300
#     4  10  20  33  53  72 101 134 169 216 255 293
#
# _framework density 27.946231000000001
#
# number of rings (size 3 to 8) (size 9 to 14) (size 15 to 20)
#    0.000    2.000    2.500    2.625    3.500    0.500 
#    0.000    0.000    0.000    0.000    0.000    1.750 
#    0.000    0.000    0.000    0.000    0.000    0.000 
#
# Total GULP energy -178445.567139 kJ/mol
# GULP energy per Si atom -5576.423973 kJ/mol
# Density = 2.788262 g / cm^3
# Si number density = 27.946231 Si / 1000 Ang^3
#
#
#
# Elastic Constant Matrix: (Units=GPa)
#
#
# Indices 1 2 3 4 5 6 
#
# 1 94.3009 25.0755 22.7047 0.0000 -9.4744 0.0000
# 2 25.0755 48.6356 42.1721 0.0000 3.5246 0.0000
# 3 22.7047 42.1721 116.5734 0.0000 8.9985 0.0000
# 4 0.0000 0.0000 0.0000 51.0219 0.0000 -3.9830
# 5 -9.4744 3.5246 8.9985 0.0000 36.0685 0.0000
# 6 0.0000 0.0000 0.0000 -3.9830 0.0000 42.2612
#
#
#
# Elastic Compliance Matrix: (Units=1/GPa)
#
#
# Indices 1 2 3 4 5 6 
#
# 1 0.012868 -0.006534 -0.000462 0.000000 0.004134 0.000000
# 2 -0.006534 0.033278 -0.010587 0.000000 -0.002327 0.000000
# 3 -0.000462 -0.010587 0.012672 0.000000 -0.002248 0.000000
# 4 0.000000 0.000000 0.000000 0.019745 0.000000 0.001861
# 5 0.004134 -0.002327 -0.002248 0.000000 0.029599 0.000000
# 6 0.000000 0.000000 0.000000 0.001861 0.000000 0.023838
#
#
# Mechanical properties :
#
#
# Convention : Reuss Voigt Hill
#
# Bulk Modulus (GPa) = 42.27678 48.82384 45.55031
# Shear Modulus (GPa) = 28.56351 37.17417 32.86884
#
# Velocity S-wave (km/s) = 3.20048 3.65115 3.43322
# Velocity P-wave (km/s) = 5.36826 5.93996 5.66133
#
# Compressibility (1/GPa) = 0.02365365
#
# Stress axis : x y z
#
# Youngs Moduli (GPa) = 77.71057 30.04976 78.91657
#
# Poissons Ratio (x) = 0.19634 0.03644
# Poissons Ratio (y) = 0.50775 0.83546
# Poissons Ratio (z) = 0.03588 0.31813
#
# Static dielectric constant tensor:
#      x y z
#    x 2.154510 0.000000 0.110020 
#    y 0.000000 2.390180 0.000000 
#    z 0.110020 0.000000 2.253880 
# 
# From -- ./inp_files/53688.got.cif
#   From: 2010.05.17/outbox.cif.g08.bks.cpg/sg14_27_cif.got.tgz:53688.got - 2010.06.03 17:49:19.
