data_PCOD9239926
_publ_section_title
;
Structure prediction by ZEFSAII (Michael W. Deem and Ramdas Pophale) SiO2 
 PCOD9239926
Probable space group: P 21/C
;
_chemical_formula_sum "Si O2"
_cell_formula_units_Z 32
_cell_length_a 26.767334
_cell_length_b 9.171233
_cell_length_c 21.149393
_cell_angle_alpha 90.000000
_cell_angle_beta 20.956492
_cell_angle_gamma 90.000000
_cell_volume 1856.948327
_symmetry_space_group_name_H-M "P 21/C"
_symmetry_group_IT_number 14
_symmetry_cell_setting 'monoclinic'
loop_
_space_group_symop_operation_xyz
x,y,z
-x,1/2+y,1/2-z
-x,-y,-z
x,1/2-y,1/2+z
loop_
_atom_site_type_symbol
_atom_site_label
_atom_site_fract_x
_atom_site_fract_y
_atom_site_fract_z
Si Si1 0.861539 0.418678 0.689093
Si Si2 0.693684 0.622505 0.473720
Si Si3 0.585182 0.474309 0.722131
Si Si4 0.725906 0.549247 0.966876
Si Si5 0.851250 0.429778 0.184490
Si Si6 0.564934 0.087083 0.480604
Si Si7 0.368481 0.896479 0.159994
Si Si8 0.372529 0.856308 0.303590
O O1 0.827772 0.456806 0.801682
O O2 0.867462 0.243956 0.675235
O O3 0.718813 0.466998 0.820985
O O4 0.000000 0.500000 0.500000
O O5 0.676382 0.558545 0.563973
O O6 0.759120 0.781936 0.410419
O O7 0.778231 0.513181 0.329006
O O8 0.538779 0.629264 0.624150
O O9 0.651091 0.315562 0.655432
O O10 0.434060 0.457521 0.867941
O O11 0.543911 0.564789 0.833367
O O12 0.711848 0.470998 0.052201
O O13 0.760241 0.454646 0.228831
O O14 0.000000 0.500000 0.000000
O O15 0.587855 0.248828 0.427825
O O16 0.500000 0.000000 0.500000
O O17 0.341431 0.877536 0.266382
O O18 0.500000 0.000000 0.000000
#
# Coordination Sequence:
#
# PCOD9239926 Si02
#       8
#     4   4   4   4   4   4   4   4
#     4  10  21  37  59  82 109 149 191 233 279 338
#     4  10  19  33  55  82 112 148 187 231 279 335
#     4   9  18  31  53  82 115 145 182 231 282 331
#     4   9  19  31  55  83 110 146 190 229 277 337
#     4  11  23  38  58  81 114 150 193 233 278 345
#     4  10  20  35  56  88 115 145 183 232 284 337
#     4  11  22  34  58  86 118 147 185 234 287 332
#     4  10  18  33  54  83 117 146 181 235 284 332
#
# _framework density 17.232574
#
# number of rings (size 3 to 8) (size 9 to 14) (size 15 to 20)
#    0.000    2.000    2.500    1.500    1.750    4.000 
#    0.000    0.000    2.750    0.000    0.000    0.000 
#    0.000    0.000    0.000    0.000    0.000    0.000 
#
# Total GULP energy -178149.782309 kJ/mol
# GULP energy per Si atom -5567.180697 kJ/mol
# Density = 1.719335 g / cm^3
# Si number density = 17.232574 Si / 1000 Ang^3
#
#
#
# Elastic Constant Matrix: (Units=GPa)
#
#
# Indices 1 2 3 4 5 6 
#
# 1 126.4422 56.7957 53.5462 0.0000 23.8052 0.0000
# 2 56.7957 87.1609 52.3852 0.0000 5.3736 0.0000
# 3 53.5462 52.3852 85.9262 0.0000 7.2733 0.0000
# 4 0.0000 0.0000 0.0000 31.1079 0.0000 6.3147
# 5 23.8052 5.3736 7.2733 0.0000 27.4699 0.0000
# 6 0.0000 0.0000 0.0000 6.3147 0.0000 28.7267
#
#
#
# Elastic Compliance Matrix: (Units=1/GPa)
#
#
# Indices 1 2 3 4 5 6 
#
# 1 0.014439 -0.006142 -0.004394 0.000000 -0.010148 0.000000
# 2 -0.006142 0.020731 -0.009123 0.000000 0.003683 0.000000
# 3 -0.004394 -0.009123 0.019911 0.000000 0.000321 0.000000
# 4 0.000000 0.000000 0.000000 0.033648 0.000000 -0.007396
# 5 -0.010148 0.003683 0.000321 0.000000 0.044392 0.000000
# 6 0.000000 0.000000 0.000000 -0.007396 0.000000 0.036437
#
#
# Mechanical properties :
#
#
# Convention : Reuss Voigt Hill
#
# Bulk Modulus (GPa) = 63.44237 69.44260 66.44249
# Shear Modulus (GPa) = 23.35009 26.58106 24.96558
#
# Velocity S-wave (km/s) = 3.68502 3.93171 3.81037
# Velocity P-wave (km/s) = 7.41628 7.80999 7.61568
#
# Compressibility (1/GPa) = 0.01576234
#
# Stress axis : x y z
#
# Youngs Moduli (GPa) = 69.25610 48.23579 50.22293
#
# Poissons Ratio (x) = 0.29627 0.22070
# Poissons Ratio (y) = 0.42537 0.45820
# Poissons Ratio (z) = 0.30434 0.44007
#
# Static dielectric constant tensor:
#      x y z
#    x 1.530040 0.000000 -0.019050 
#    y 0.000000 1.528350 0.000000 
#    z -0.019050 0.000000 1.552300 
# 
# From -- ./inp_files/70479.got.cif
#   From: 2010.05.17/outbox.cif.g08.bks.cpg/sg14_36_cif.got.tgz:70479.got - 2010.06.03 17:49:19.
