data_PCOD9239903
_publ_section_title
;
Structure prediction by ZEFSAII (Michael W. Deem and Ramdas Pophale) SiO2 
 PCOD9239903
Probable space group: P 21/C
;
_chemical_formula_sum "Si O2"
_cell_formula_units_Z 28
_cell_length_a 13.300610
_cell_length_b 12.070718
_cell_length_c 15.867575
_cell_angle_alpha 90.000000
_cell_angle_beta 25.119267
_cell_angle_gamma 90.000000
_cell_volume 1081.426293
_symmetry_space_group_name_H-M "P 21/C"
_symmetry_group_IT_number 14
_symmetry_cell_setting 'monoclinic'
loop_
_space_group_symop_operation_xyz
x,y,z
-x,1/2+y,1/2-z
-x,-y,-z
x,1/2-y,1/2+z
loop_
_atom_site_type_symbol
_atom_site_label
_atom_site_fract_x
_atom_site_fract_y
_atom_site_fract_z
Si Si1 0.337616 0.278818 0.079334
Si Si2 0.720576 0.909246 0.095284
Si Si3 0.887547 0.029285 0.798651
Si Si4 0.328417 0.615452 0.772263
Si Si5 0.779803 0.891258 0.716689
Si Si6 0.076575 0.728881 0.244389
Si Si7 0.383236 0.514099 0.977162
O O1 0.302349 0.231499 0.199315
O O2 0.552561 0.209508 0.875401
O O3 0.379608 0.410182 0.043738
O O4 0.104735 0.247264 0.198223
O O5 0.639858 0.973034 0.239467
O O6 0.466864 0.864740 0.254215
O O7 0.825265 0.987292 0.940164
O O8 0.906421 0.809039 0.950382
O O9 0.789827 0.949675 0.801184
O O10 0.807105 0.151991 0.838945
O O11 0.174082 0.028557 0.571838
O O12 0.364190 0.483475 0.725313
O O13 0.047829 0.620991 0.982589
O O14 0.265835 0.631000 0.091328
#
# Coordination Sequence:
#
# PCOD9239903 Si02
#       7
#     4   4   4   4   4   4   4
#     4  10  19  32  51  75 104 134 163 210 249 308
#     4  10  18  33  49  77 101 134 168 207 252 302
#     4  10  19  31  48  74 104 131 164 209 252 304
#     4  10  20  31  53  77 102 135 164 211 252 304
#     4  11  19  34  51  77 107 128 168 208 259 299
#     4   9  19  32  48  72 103 136 159 208 252 294
#     4  10  19  33  49  74 105 132 171 201 255 301
#
# _framework density 25.891731
#
# number of rings (size 3 to 8) (size 9 to 14) (size 15 to 20)
#    0.000    2.000    5.714    0.429    0.000    6.857 
#    0.000    0.000    0.000    0.857    0.000    3.000 
#    0.000    0.000    0.000    0.000    0.000    0.000 
#
# Total GULP energy -156410.737006 kJ/mol
# GULP energy per Si atom -5586.097750 kJ/mol
# Density = 2.583280 g / cm^3
# Si number density = 25.891731 Si / 1000 Ang^3
#
#
#
# Elastic Constant Matrix: (Units=GPa)
#
#
# Indices 1 2 3 4 5 6 
#
# 1 42.0977 22.0503 14.8244 0.0000 -5.8522 0.0000
# 2 22.0503 182.0717 50.6462 0.0000 0.7098 0.0000
# 3 14.8244 50.6462 126.0589 0.0000 5.6203 0.0000
# 4 0.0000 0.0000 0.0000 42.3038 0.0000 -7.7755
# 5 -5.8522 0.7098 5.6203 0.0000 29.2620 0.0000
# 6 0.0000 0.0000 0.0000 -7.7755 0.0000 32.3702
#
#
#
# Elastic Compliance Matrix: (Units=1/GPa)
#
#
# Indices 1 2 3 4 5 6 
#
# 1 0.026768 -0.002608 -0.002362 0.000000 0.005870 0.000000
# 2 -0.002608 0.006441 -0.002270 0.000000 -0.000242 0.000000
# 3 -0.002362 -0.002270 0.009220 0.000000 -0.002188 0.000000
# 4 0.000000 0.000000 0.000000 0.024730 0.000000 0.005940
# 5 0.005870 -0.000242 -0.002188 0.000000 0.035774 0.000000
# 6 0.000000 0.000000 0.000000 0.005940 0.000000 0.032319
#
#
# Mechanical properties :
#
#
# Convention : Reuss Voigt Hill
#
# Bulk Modulus (GPa) = 35.77924 58.36335 47.07130
# Shear Modulus (GPa) = 31.43690 38.30103 34.86897
#
# Velocity S-wave (km/s) = 3.48827 3.85031 3.67375
# Velocity P-wave (km/s) = 5.48387 6.50821 6.01787
#
# Compressibility (1/GPa) = 0.02794917
#
# Stress axis : x y z
#
# Youngs Moduli (GPa) = 37.35809 155.26556 108.45753
#
# Poissons Ratio (x) = 0.40488 0.25617
# Poissons Ratio (y) = 0.09742 0.24622
# Poissons Ratio (z) = 0.08824 0.35248
#
# Static dielectric constant tensor:
#      x y z
#    x 2.122560 0.000000 0.014130 
#    y 0.000000 2.092450 0.000000 
#    z 0.014130 0.000000 2.088820 
# 
# From -- ./inp_files/69263.got.cif
#   From: 2010.05.17/outbox.cif.g08.bks.cpg/sg14_35_cif.got.tgz:69263.got - 2010.06.03 17:49:19.
