data_PCOD9239189
_publ_section_title
;
Structure prediction by ZEFSAII (Michael W. Deem and Ramdas Pophale) SiO2 
 PCOD9239189
Probable space group: P 21/C
;
_chemical_formula_sum "Si O2"
_cell_formula_units_Z 24
_cell_length_a 22.957906
_cell_length_b 5.132427
_cell_length_c 14.239690
_cell_angle_alpha 90.000000
_cell_angle_beta 39.917245
_cell_angle_gamma 90.000000
_cell_volume 1076.649727
_symmetry_space_group_name_H-M "P 21/C"
_symmetry_group_IT_number 14
_symmetry_cell_setting 'monoclinic'
loop_
_space_group_symop_operation_xyz
x,y,z
-x,1/2+y,1/2-z
-x,-y,-z
x,1/2-y,1/2+z
loop_
_atom_site_type_symbol
_atom_site_label
_atom_site_fract_x
_atom_site_fract_y
_atom_site_fract_z
Si Si1 0.869395 0.772660 0.588852
Si Si2 0.583523 0.223533 0.061814
Si Si3 0.762991 0.278925 0.729248
Si Si4 0.027346 0.648419 0.777541
Si Si5 0.210099 0.466521 0.492259
Si Si6 0.610044 0.775148 0.648670
O O1 0.816723 0.021402 0.689278
O O2 0.824329 0.519442 0.690860
O O3 0.840291 0.732276 0.515611
O O4 0.976689 0.798360 0.439134
O O5 0.476519 0.264776 0.175366
O O6 0.608470 0.429329 0.113767
O O7 0.592129 0.925925 0.085319
O O8 0.660170 0.277304 0.890922
O O9 0.760664 0.314726 0.619351
O O10 0.133849 0.581887 0.654501
O O11 0.984545 0.394110 0.778185
O O12 0.295180 0.321026 0.429089
#
# Coordination Sequence:
#
# PCOD9239189 Si02
#       6
#     4   4   4   4   4   4
#     4   9  18  31  52  83 105 132 170 216 265 301
#     4  10  22  39  54  74 107 148 169 213 270 316
#     4  10  19  33  55  79 105 139 170 218 265 303
#     4  10  16  30  50  81 107 134 164 216 261 310
#     4   9  21  31  59  82 103 132 183 222 248 302
#     4  10  22  38  56  75 105 141 183 209 259 321
#
# _framework density 22.291373
#
# number of rings (size 3 to 8) (size 9 to 14) (size 15 to 20)
#    1.000    1.333    1.667    1.000    2.333    0.667 
#    0.000    0.833    0.000    6.000    0.000    0.000 
#    0.000    0.000    0.000    0.000    0.000    0.000 
#
# Total GULP energy -133745.503669 kJ/mol
# GULP energy per Si atom -5572.729320 kJ/mol
# Density = 2.224064 g / cm^3
# Si number density = 22.291373 Si / 1000 Ang^3
#
#
#
# Elastic Constant Matrix: (Units=GPa)
#
#
# Indices 1 2 3 4 5 6 
#
# 1 26.3119 -5.1902 32.2039 0.0000 3.4932 0.0000
# 2 -5.1902 119.8596 55.4836 0.0000 30.1611 0.0000
# 3 32.2039 55.4836 291.2621 0.0000 24.9101 0.0000
# 4 0.0000 0.0000 0.0000 27.3818 0.0000 -3.2691
# 5 3.4932 30.1611 24.9101 0.0000 27.0872 0.0000
# 6 0.0000 0.0000 0.0000 -3.2691 0.0000 4.4742
#
#
#
# Elastic Compliance Matrix: (Units=1/GPa)
#
#
# Indices 1 2 3 4 5 6 
#
# 1 0.047663 0.006902 -0.005863 0.000000 -0.008440 0.000000
# 2 0.006902 0.012989 -0.002089 0.000000 -0.013432 0.000000
# 3 -0.005863 -0.002089 0.004576 0.000000 -0.001126 0.000000
# 4 0.000000 0.000000 0.000000 0.040011 0.000000 0.029234
# 5 -0.008440 -0.013432 -0.001126 0.000000 0.053998 0.000000
# 6 0.000000 0.000000 0.000000 0.029234 0.000000 0.244863
#
#
# Mechanical properties :
#
#
# Convention : Reuss Voigt Hill
#
# Bulk Modulus (GPa) = 15.84081 66.93649 41.38865
# Shear Modulus (GPa) = 11.70297 35.45106 23.57701
#
# Velocity S-wave (km/s) = 2.29377 3.99224 3.25572
# Velocity P-wave (km/s) = 3.75990 7.16546 5.72192
#
# Compressibility (1/GPa) = 0.06312808
#
# Stress axis : x y z
#
# Youngs Moduli (GPa) = 20.98055 76.98959 218.54258
#
# Poissons Ratio (x) = -0.53136 1.28129
# Poissons Ratio (y) = -0.14480 0.45645
# Poissons Ratio (z) = 0.12301 0.16080
#
# Static dielectric constant tensor:
#      x y z
#    x 1.832850 0.000000 -0.015070 
#    y 0.000000 1.823040 0.000000 
#    z -0.015070 0.000000 1.899800 
# 
# From -- ./inp_files/52110.got.cif
#   From: 2010.05.17/outbox.cif.g08.bks.cpg/sg14_27_cif.got.tgz:52110.got - 2010.06.03 17:49:19.
