data_PCOD9239157
_publ_section_title
;
Structure prediction by ZEFSAII (Michael W. Deem and Ramdas Pophale) SiO2 
 PCOD9239157
Probable space group: P 21/C
;
_chemical_formula_sum "Si O2"
_cell_formula_units_Z 28
_cell_length_a 19.146733
_cell_length_b 15.213894
_cell_length_c 5.180305
_cell_angle_alpha 90.000000
_cell_angle_beta 60.078419
_cell_angle_gamma 90.000000
_cell_volume 1307.867258
_symmetry_space_group_name_H-M "P 21/C"
_symmetry_group_IT_number 14
_symmetry_cell_setting 'monoclinic'
loop_
_space_group_symop_operation_xyz
x,y,z
-x,1/2+y,1/2-z
-x,-y,-z
x,1/2-y,1/2+z
loop_
_atom_site_type_symbol
_atom_site_label
_atom_site_fract_x
_atom_site_fract_y
_atom_site_fract_z
Si Si1 0.665064 0.382396 0.669740
Si Si2 0.433898 0.720513 0.811569
Si Si3 0.447009 0.479564 0.347718
Si Si4 0.168916 0.811541 0.010211
Si Si5 0.651152 0.691913 0.536117
Si Si6 0.174383 0.190879 0.386872
Si Si7 0.994138 0.690430 0.923516
O O1 0.640844 0.290051 0.578282
O O2 0.631377 0.458873 0.553431
O O3 0.757318 0.377671 0.577923
O O4 0.606681 0.369656 0.028852
O O5 0.583015 0.620315 0.607279
O O6 0.479424 0.766636 0.963117
O O7 0.500000 0.500000 0.500000
O O8 0.500000 0.500000 0.000000
O O9 0.174215 0.764514 0.721650
O O10 0.080306 0.853459 0.211421
O O11 0.649170 0.769910 0.328659
O O12 0.739483 0.647638 0.326545
O O13 0.173293 0.228522 0.679797
O O14 0.090255 0.142374 0.480852
O O15 0.993490 0.729252 0.214467
#
# Coordination Sequence:
#
# PCOD9239157 Si02
#       7
#     4   4   4   4   4   4   4
#     4  10  20  36  56  77 117 145 188 215 291 333
#     4   8  16  30  52  80 100 140 182 204 256 340
#     4  12  29  45  60  90 118 143 192 253 301 344
#     4  10  16  27  47  79 115 147 185 219 271 340
#     4  10  21  45  64  85 112 156 199 235 290 347
#     4   8  14  27  53  76 105 143 190 232 268 320
#     4   8  14  22  40  77 111 139 179 233 262 306
#
# _framework density 21.408901
#
# number of rings (size 3 to 8) (size 9 to 14) (size 15 to 20)
#    0.857    1.714    1.429    0.857    2.000    0.000 
#    7.714    0.000    0.000    0.857    0.000    0.000 
#    0.000   25.143    0.000    0.000    0.000    3.714 
#
# Total GULP energy -155932.230710 kJ/mol
# GULP energy per Si atom -5569.008240 kJ/mol
# Density = 2.136017 g / cm^3
# Si number density = 21.408901 Si / 1000 Ang^3
#
#
#
# Elastic Constant Matrix: (Units=GPa)
#
#
# Indices 1 2 3 4 5 6 
#
# 1 145.4878 24.2662 32.8803 0.0000 -16.8805 0.0000
# 2 24.2662 47.3481 10.8329 0.0000 -0.1865 0.0000
# 3 32.8803 10.8329 106.6637 0.0000 20.5253 0.0000
# 4 0.0000 0.0000 0.0000 13.6810 0.0000 1.5623
# 5 -16.8805 -0.1865 20.5253 0.0000 48.8760 0.0000
# 6 0.0000 0.0000 0.0000 1.5623 0.0000 20.1375
#
#
#
# Elastic Compliance Matrix: (Units=1/GPa)
#
#
# Indices 1 2 3 4 5 6 
#
# 1 0.008703 -0.003726 -0.003133 0.000000 0.004307 0.000000
# 2 -0.003726 0.023272 -0.001071 0.000000 -0.000749 0.000000
# 3 -0.003133 -0.001071 0.011596 0.000000 -0.005956 0.000000
# 4 0.000000 0.000000 0.000000 0.073748 0.000000 -0.005721
# 5 0.004307 -0.000749 -0.005956 0.000000 0.024446 0.000000
# 6 0.000000 0.000000 0.000000 -0.005721 0.000000 0.050103
#
#
# Mechanical properties :
#
#
# Convention : Reuss Voigt Hill
#
# Bulk Modulus (GPa) = 36.08795 48.38426 42.23611
# Shear Modulus (GPa) = 23.04528 31.97357 27.50943
#
# Velocity S-wave (km/s) = 3.28447 3.86874 3.58851
# Velocity P-wave (km/s) = 5.59256 6.52727 6.07791
#
# Compressibility (1/GPa) = 0.02771008
#
# Stress axis : x y z
#
# Youngs Moduli (GPa) = 114.90533 42.97004 86.23727
#
# Poissons Ratio (x) = 0.16013 0.27019
# Poissons Ratio (y) = 0.42819 0.09234
# Poissons Ratio (z) = 0.36001 0.04601
#
# Static dielectric constant tensor:
#      x y z
#    x 1.906090 0.000000 -0.010050 
#    y 0.000000 1.791130 0.000000 
#    z -0.010050 0.000000 1.859330 
# 
# From -- ./inp_files/4213.got.cif
#   From: 2010.05.17/outbox.cif.g08.bks.cpg/sg14_3_cif.got.tgz:4213.got - 2010.06.03 17:49:19.
