data_PCOD9239094
_publ_section_title
;
Structure prediction by ZEFSAII (Michael W. Deem and Ramdas Pophale) SiO2 
 PCOD9239094
Probable space group: P 21/C
;
_chemical_formula_sum "Si O2"
_cell_formula_units_Z 28
_cell_length_a 33.238279
_cell_length_b 6.766831
_cell_length_c 5.281463
_cell_angle_alpha 90.000000
_cell_angle_beta 99.110190
_cell_angle_gamma 90.000000
_cell_volume 1172.910617
_symmetry_space_group_name_H-M "P 21/C"
_symmetry_group_IT_number 14
_symmetry_cell_setting 'monoclinic'
loop_
_space_group_symop_operation_xyz
x,y,z
-x,1/2+y,1/2-z
-x,-y,-z
x,1/2-y,1/2+z
loop_
_atom_site_type_symbol
_atom_site_label
_atom_site_fract_x
_atom_site_fract_y
_atom_site_fract_z
Si Si1 0.332051 0.970624 0.221050
Si Si2 0.300116 0.518554 0.188986
Si Si3 0.959545 0.122671 0.409474
Si Si4 0.787471 0.380718 0.738090
Si Si5 0.126630 0.882493 0.568366
Si Si6 0.544613 0.974698 0.159147
Si Si7 0.423836 0.475031 0.809399
O O1 0.316225 0.745647 0.168283
O O2 0.302757 0.057231 0.406734
O O3 0.378051 0.997103 0.358987
O O4 0.329363 0.059741 0.937880
O O5 0.254557 0.509583 0.249762
O O6 0.959543 0.295642 0.622995
O O7 0.916490 0.013089 0.421694
O O8 0.000000 0.000000 0.500000
O O9 0.787114 0.292402 0.454107
O O10 0.830423 0.488642 0.834705
O O11 0.126765 0.792351 0.284458
O O12 0.546644 0.057876 0.444200
O O13 0.560609 0.750110 0.213410
O O14 0.574099 0.059284 0.971900
O O15 0.500000 0.000000 0.000000
#
# Coordination Sequence:
#
# PCOD9239094 Si02
#       7
#     4   4   4   4   4   4   4
#     4  10  18  30  46  71 103 130 157 187 240 287
#     4  10  17  28  43  70 104 134 157 195 242 296
#     4  10  19  33  50  76 111 147 196 244 305 358
#     4  10  14  25  41  64  99 136 166 206 264 301
#     4   8  16  25  42  66  98 133 171 225 271 323
#     4  10  21  40  59  75  95 123 159 194 239 283
#     4  10  21  37  55  76  99 121 159 199 232 284
#
# _framework density 23.872237999999999
#
# number of rings (size 3 to 8) (size 9 to 14) (size 15 to 20)
#    0.000    2.286    2.857    1.714    0.000    0.000 
#    0.000   17.143    0.000    0.000    0.000    0.000 
#   25.714    0.000    0.000    0.000    0.000    0.000 
#
# Total GULP energy -156112.194549 kJ/mol
# GULP energy per Si atom -5575.435520 kJ/mol
# Density = 2.381790 g / cm^3
# Si number density = 23.872238 Si / 1000 Ang^3
#
#
#
# Elastic Constant Matrix: (Units=GPa)
#
#
# Indices 1 2 3 4 5 6 
#
# 1 152.6087 -7.2435 -5.1685 0.0000 22.6651 0.0000
# 2 -7.2435 71.6872 -24.1596 0.0000 3.2412 0.0000
# 3 -5.1685 -24.1596 146.0294 0.0000 -20.0630 0.0000
# 4 0.0000 0.0000 0.0000 -40.1594 0.0000 16.7817
# 5 22.6651 3.2412 -20.0630 0.0000 55.0723 0.0000
# 6 0.0000 0.0000 0.0000 16.7817 0.0000 7.5989
#
#
#
# Elastic Compliance Matrix: (Units=1/GPa)
#
#
# Indices 1 2 3 4 5 6 
#
# 1 0.007030 0.000838 -0.000018 0.000000 -0.002949 0.000000
# 2 0.000838 0.014873 0.002445 0.000000 -0.000329 0.000000
# 3 -0.000018 0.002445 0.007614 0.000000 0.002637 0.000000
# 4 0.000000 0.000000 0.000000 -0.012950 0.000000 0.028599
# 5 -0.002949 -0.000329 0.002637 0.000000 0.020352 0.000000
# 6 0.000000 0.000000 0.000000 0.028599 0.000000 0.068439
#
#
# Mechanical properties :
#
#
# Convention : Reuss Voigt Hill
#
# Bulk Modulus (GPa) = 27.74160 33.02023 30.38092
# Shear Modulus (GPa) = 45.10862 31.62881 38.36871
#
# Velocity S-wave (km/s) = 4.35165 3.64389 4.01340
# Velocity P-wave (km/s) = 6.07415 5.61837 5.85070
#
# Compressibility (1/GPa) = 0.03604695
#
# Stress axis : x y z
#
# Youngs Moduli (GPa) = 142.25100 67.23574 131.33419
#
# Poissons Ratio (x) = -0.05632 0.00233
# Poissons Ratio (y) = -0.11916 -0.32112
# Poissons Ratio (z) = 0.00253 -0.16439
#
# Static dielectric constant tensor:
#      x y z
#    x 1.977790 0.000000 -0.012920 
#    y 0.000000 3.874670 0.000000 
#    z -0.012920 0.000000 1.990300 
# 
# From -- ./inp_files/4557.got.cif
#   From: 2010.05.17/outbox.cif.g08.bks.cpg/sg14_3_cif.got.tgz:4557.got - 2010.06.03 17:49:19.
