data_PCOD9239469
_publ_section_title
;
Structure prediction by ZEFSAII (Michael W. Deem and Ramdas Pophale) SiO2 
 PCOD9239469
Probable space group: P 21/C
;
_chemical_formula_sum "Si O2"
_cell_formula_units_Z 24
_cell_length_a 9.818879
_cell_length_b 6.733530
_cell_length_c 20.999185
_cell_angle_alpha 90.000000
_cell_angle_beta 41.754535
_cell_angle_gamma 90.000000
_cell_volume 924.576211
_symmetry_space_group_name_H-M "P 21/C"
_symmetry_group_IT_number 14
_symmetry_cell_setting 'monoclinic'
loop_
_space_group_symop_operation_xyz
x,y,z
-x,1/2+y,1/2-z
-x,-y,-z
x,1/2-y,1/2+z
loop_
_atom_site_type_symbol
_atom_site_label
_atom_site_fract_x
_atom_site_fract_y
_atom_site_fract_z
Si Si1 0.442597 0.651214 0.695624
Si Si2 0.770154 0.098915 0.136042
Si Si3 0.072274 0.412848 0.824271
Si Si4 0.292047 0.632414 0.963430
Si Si5 0.825577 0.725113 0.447909
Si Si6 0.665258 0.888623 0.877418
O O1 0.347464 0.849200 0.757101
O O2 0.664096 0.593429 0.643841
O O3 0.406912 0.588809 0.634595
O O4 0.290462 0.475674 0.777752
O O5 0.725214 0.271970 0.099922
O O6 0.008912 0.109531 0.068093
O O7 0.957815 0.623635 0.857321
O O8 0.136963 0.325480 0.734291
O O9 0.913862 0.307505 0.925834
O O10 0.706654 0.607768 0.031352
O O11 0.490897 0.724581 0.926937
O O12 0.714139 0.593210 0.434258
#
# Coordination Sequence:
#
# PCOD9239469 Si02
#       6
#     4   4   4   4   4   4
#     4   8  18  31  50  75 109 136 167 208 264 301
#     4  10  17  34  52  83 103 134 174 219 257 306
#     4   7  17  30  48  75 100 132 164 215 259 290
#     4   9  17  30  57  74 101 129 183 217 249 303
#     4   9  17  28  49  78  99 128 175 210 253 300
#     4   9  16  32  46  74 104 132 161 218 260 299
#
# _framework density 25.957840000000001
#
# number of rings (size 3 to 8) (size 9 to 14) (size 15 to 20)
#    2.000    1.333    0.000    1.000    0.000    0.000 
#    6.000    0.000    0.000    5.000    8.667    0.000 
#    0.000    0.000    0.000    0.000    0.000    0.000 
#
# Total GULP energy -133852.846199 kJ/mol
# GULP energy per Si atom -5577.201925 kJ/mol
# Density = 2.589876 g / cm^3
# Si number density = 25.957840 Si / 1000 Ang^3
#
#
#
# Elastic Constant Matrix: (Units=GPa)
#
#
# Indices 1 2 3 4 5 6 
#
# 1 118.8579 35.0534 4.8970 0.0000 13.2907 0.0000
# 2 35.0534 89.6878 14.0861 0.0000 1.8880 0.0000
# 3 4.8970 14.0861 135.0215 0.0000 3.1637 0.0000
# 4 0.0000 0.0000 0.0000 34.9897 0.0000 6.1886
# 5 13.2907 1.8880 3.1637 0.0000 27.6310 0.0000
# 6 0.0000 0.0000 0.0000 6.1886 0.0000 15.8016
#
#
#
# Elastic Compliance Matrix: (Units=1/GPa)
#
#
# Indices 1 2 3 4 5 6 
#
# 1 0.010058 -0.003857 0.000145 0.000000 -0.004591 0.000000
# 2 -0.003857 0.012826 -0.001224 0.000000 0.001119 0.000000
# 3 0.000145 -0.001224 0.007549 0.000000 -0.000850 0.000000
# 4 0.000000 0.000000 0.000000 0.030707 0.000000 -0.012026
# 5 -0.004591 0.001119 -0.000850 0.000000 0.038420 0.000000
# 6 0.000000 0.000000 0.000000 -0.012026 0.000000 0.067995
#
#
# Mechanical properties :
#
#
# Convention : Reuss Voigt Hill
#
# Bulk Modulus (GPa) = 48.63809 50.18225 49.41017
# Shear Modulus (GPa) = 27.13240 34.98653 31.05946
#
# Velocity S-wave (km/s) = 3.23654 3.67525 3.46285
# Velocity P-wave (km/s) = 5.72232 6.11426 5.92153
#
# Compressibility (1/GPa) = 0.02056002
#
# Stress axis : x y z
#
# Youngs Moduli (GPa) = 99.41912 77.96575 132.47443
#
# Poissons Ratio (x) = 0.30074 -0.01923
# Poissons Ratio (y) = 0.38350 0.16220
# Poissons Ratio (z) = -0.01444 0.09546
#
# Static dielectric constant tensor:
#      x y z
#    x 1.994300 0.000000 -0.053010 
#    y 0.000000 2.041100 0.000000 
#    z -0.053010 0.000000 2.244170 
# 
# From -- ./inp_files/65175.got.cif
#   From: 2010.05.17/outbox.cif.g08.bks.cpg/sg14_33_cif.got.tgz:65175.got - 2010.06.03 17:49:19.
