data_PCOD9239231
_publ_section_title
;
Structure prediction by ZEFSAII (Michael W. Deem and Ramdas Pophale) SiO2 
 PCOD9239231
Probable space group: P 21/C
;
_chemical_formula_sum "Si O2"
_cell_formula_units_Z 30
_cell_length_a 9.015152
_cell_length_b 7.678325
_cell_length_c 24.938892
_cell_angle_alpha 90.000000
_cell_angle_beta 52.581455
_cell_angle_gamma 90.000000
_cell_volume 1371.059865
_symmetry_space_group_name_H-M "P 21/C"
_symmetry_group_IT_number 14
_symmetry_cell_setting 'monoclinic'
loop_
_space_group_symop_operation_xyz
x,y,z
-x,1/2+y,1/2-z
-x,-y,-z
x,1/2-y,1/2+z
loop_
_atom_site_type_symbol
_atom_site_label
_atom_site_fract_x
_atom_site_fract_y
_atom_site_fract_z
Si Si1 0.935683 0.319134 0.907715
Si Si2 0.500000 0.000000 0.000000
Si Si3 0.533484 0.209365 0.792617
Si Si4 0.723343 0.056672 0.650611
Si Si5 0.185125 0.490302 0.401168
Si Si6 0.165344 0.169997 0.019914
Si Si7 0.326641 0.776383 0.621643
Si Si8 0.650524 0.033337 0.547450
O O1 0.876563 0.297795 0.859314
O O2 0.068548 0.483482 0.887199
O O3 0.050740 0.159760 0.906250
O O4 0.739924 0.340698 0.983504
O O5 0.704442 0.897088 0.960976
O O6 0.576671 0.120978 0.933009
O O7 0.405178 0.380479 0.816405
O O8 0.388689 0.048851 0.833331
O O9 0.653963 0.234548 0.820110
O O10 0.654346 0.177340 0.713657
O O11 0.675554 0.114541 0.600418
O O12 0.198503 0.458493 0.461904
O O13 0.054860 0.656643 0.419153
O O14 0.226579 0.356924 0.983694
O O15 0.443465 0.956567 0.585298
#
# Coordination Sequence:
#
# PCOD9239231 Si02
#       8
#     4   2   4   4   4   4   4   4
#     4  11  20  36  62  87 119 145 190 243 298 339
#     4  10  16  32  56  86 116 144 180 230 292 334
#     4  10  21  42  58  79 119 152 198 235 287 346
#     4  10  22  40  59  84 108 160 192 239 286 339
#     4  10  19  33  58  85 112 151 190 235 279 345
#     4  10  18  32  56  88 118 144 188 233 291 335
#     4  10  20  37  58  82 122 152 180 241 293 346
#     4  10  20  37  58  89 120 142 188 244 296 340
#
# _framework density 21.880880999999999
#
# number of rings (size 3 to 8) (size 9 to 14) (size 15 to 20)
#    0.000    1.867    6.667    0.800    0.000    1.067 
#    4.800    5.333    5.867    0.000    0.000    0.000 
#    0.000    0.000    0.000    0.000    0.000    0.000 
#
# Total GULP energy -167043.807753 kJ/mol
# GULP energy per Si atom -5568.126925 kJ/mol
# Density = 2.183108 g / cm^3
# Si number density = 21.880881 Si / 1000 Ang^3
#
#
#
# Elastic Constant Matrix: (Units=GPa)
#
#
# Indices 1 2 3 4 5 6 
#
# 1 105.4224 11.9499 34.0415 0.0000 23.2132 0.0000
# 2 11.9499 43.9377 3.8844 0.0000 18.1366 0.0000
# 3 34.0415 3.8844 97.1359 0.0000 17.5963 0.0000
# 4 0.0000 0.0000 0.0000 34.5516 0.0000 4.9144
# 5 23.2132 18.1366 17.5963 0.0000 26.4580 0.0000
# 6 0.0000 0.0000 0.0000 4.9144 0.0000 25.1045
#
#
#
# Elastic Compliance Matrix: (Units=1/GPa)
#
#
# Indices 1 2 3 4 5 6 
#
# 1 0.012369 0.000878 -0.002609 0.000000 -0.009718 0.000000
# 2 0.000878 0.032612 0.002930 0.000000 -0.025074 0.000000
# 3 -0.002609 0.002930 0.012554 0.000000 -0.008068 0.000000
# 4 0.000000 0.000000 0.000000 0.029771 0.000000 -0.005828
# 5 -0.009718 -0.025074 -0.008068 0.000000 0.068876 0.000000
# 6 0.000000 0.000000 0.000000 -0.005828 0.000000 0.040974
#
#
# Mechanical properties :
#
#
# Convention : Reuss Voigt Hill
#
# Bulk Modulus (GPa) = 16.68533 38.47195 27.57864
# Shear Modulus (GPa) = 23.28455 30.33084 26.80770
#
# Velocity S-wave (km/s) = 3.26567 3.72718 3.50403
# Velocity P-wave (km/s) = 4.67563 6.01192 5.38538
#
# Compressibility (1/GPa) = 0.05993289
#
# Stress axis : x y z
#
# Youngs Moduli (GPa) = 80.85025 30.66379 79.65781
#
# Poissons Ratio (x) = -0.02693 0.20784
# Poissons Ratio (y) = -0.07101 -0.23342
# Poissons Ratio (z) = 0.21095 -0.08985
#
# Static dielectric constant tensor:
#      x y z
#    x 1.656620 0.000000 -0.041970 
#    y 0.000000 1.922070 0.000000 
#    z -0.041970 0.000000 1.778850 
# 
# From -- ./inp_files/70208.got.cif
#   From: 2010.05.17/outbox.cif.g08.bks.cpg/sg14_36_cif.got.tgz:70208.got - 2010.06.03 17:49:19.
