data_PCOD9239010
_publ_section_title
;
Structure prediction by ZEFSAII (Michael W. Deem and Ramdas Pophale) SiO2 
 PCOD9239010
Probable space group: P 2/C
;
_chemical_formula_sum "Si O2"
_cell_formula_units_Z 28
_cell_length_a 9.000000
_cell_length_b 15.000000
_cell_length_c 15.000000
_cell_angle_alpha 90.000000
_cell_angle_beta 130.000000
_cell_angle_gamma 90.000000
_cell_volume 1551.239997
_symmetry_space_group_name_H-M "P 2/C"
_symmetry_group_IT_number 13
_symmetry_cell_setting 'monoclinic'
loop_
_space_group_symop_operation_xyz
x,y,z
-x,y,1/2-z
-x,-y,-z
x,-y,1/2+z
loop_
_atom_site_type_symbol
_atom_site_label
_atom_site_fract_x
_atom_site_fract_y
_atom_site_fract_z
Si Si1 0.000000 0.024005 0.750000
Si Si2 0.306420 0.756880 0.875240
Si Si3 0.413753 0.063549 0.393956
Si Si4 0.500000 0.965900 0.250000
Si Si5 0.021810 0.760208 0.601566
Si Si6 0.685220 0.450901 0.115860
Si Si7 0.063554 0.909934 0.077109
Si Si8 0.961605 0.449994 0.389933
O O1 0.992589 0.079711 0.653370
O O2 0.185167 0.959704 0.810194
O O3 0.461669 0.835089 0.936721
O O4 0.193365 0.777269 0.738960
O O5 0.365357 0.654226 0.896699
O O6 0.168382 0.768781 0.908403
O O7 0.500000 0.000000 0.500000
O O8 0.495030 0.030775 0.332306
O O9 0.299742 0.910304 0.171725
O O10 0.045951 0.655390 0.588492
O O11 0.008460 0.826990 0.512254
O O12 0.777800 0.473402 0.251149
O O13 0.857701 0.460813 0.109192
O O14 0.500000 0.500000 0.000000
O O15 0.000000 0.000000 0.000000
O O16 0.000000 0.500000 0.500000
#
# Coordination Sequence:
#
# PCOD9239010 Si02
#       8
#     2   4   4   2   4   4   4   4
#     4  10  22  34  50  76 108 142 180 220 264 314
#     4   9  17  32  56  80 100 134 184 220 258 322
#     4  11  20  34  52  74 105 139 173 215 259 304
#     4  10  22  32  48  78 108 138 180 220 260 314
#     4   9  17  33  57  77 100 139 179 219 265 317
#     4   9  19  37  59  83 110 140 179 230 280 326
#     4  11  20  35  54  75 108 145 181 225 271 318
#     4   9  19  37  59  83 109 140 182 227 275 336
#
# _framework density 18.050076000000001
#
# number of rings (size 3 to 8) (size 9 to 14) (size 15 to 20)
#    0.000    2.286    0.000    6.857    0.000    0.571 
#    0.000   12.857    0.000    0.000    0.000    0.000 
#    0.000    0.000    0.000    0.000    0.000    0.000 
#
# Total GULP energy -155935.856774 kJ/mol
# GULP energy per Si atom -5569.137742 kJ/mol
# Density = 1.800899 g / cm^3
# Si number density = 18.050076 Si / 1000 Ang^3
#
#
#
# Elastic Constant Matrix: (Units=GPa)
#
#
# Indices 1 2 3 4 5 6 
#
# 1 62.4699 32.1423 39.4663 0.0000 -25.1913 0.0000
# 2 32.1423 121.1941 76.9922 0.0000 -19.2760 0.0000
# 3 39.4663 76.9922 128.7904 0.0000 -29.2429 0.0000
# 4 0.0000 0.0000 0.0000 42.5571 0.0000 -9.7253
# 5 -25.1913 -19.2760 -29.2429 0.0000 42.1897 0.0000
# 6 0.0000 0.0000 0.0000 -9.7253 0.0000 24.4316
#
#
#
# Elastic Compliance Matrix: (Units=1/GPa)
#
#
# Indices 1 2 3 4 5 6 
#
# 1 0.023713 -0.002441 -0.003377 0.000000 0.010703 0.000000
# 2 -0.002441 0.013571 -0.007462 0.000000 -0.000430 0.000000
# 3 -0.003377 -0.007462 0.014275 0.000000 0.004469 0.000000
# 4 0.000000 0.000000 0.000000 0.025849 0.000000 0.010290
# 5 0.010703 -0.000430 0.004469 0.000000 0.032994 0.000000
# 6 0.000000 0.000000 0.000000 0.010290 0.000000 0.045027
#
#
# Mechanical properties :
#
#
# Convention : Reuss Voigt Hill
#
# Bulk Modulus (GPa) = 40.00313 67.73954 53.87133
# Shear Modulus (GPa) = 26.27105 32.75927 29.51516
#
# Velocity S-wave (km/s) = 3.81918 4.26480 4.04813
# Velocity P-wave (km/s) = 6.45435 7.86521 7.19444
#
# Compressibility (1/GPa) = 0.02499805
#
# Stress axis : x y z
#
# Youngs Moduli (GPa) = 42.17033 73.68624 70.05223
#
# Poissons Ratio (x) = 0.17990 0.23656
# Poissons Ratio (y) = 0.10296 0.52275
# Poissons Ratio (z) = 0.14241 0.54987
#
# Static dielectric constant tensor:
#      x y z
#    x 1.595020 0.000000 -0.006870 
#    y 0.000000 1.633920 0.000000 
#    z -0.006870 0.000000 1.611210 
# 
# From -- ./inp_files/47764.got.cif
#   From: 2010.05.17/outbox.ucp.g08.bks.cvg/sg13_24_cif.got.tgz:47764.got - 2010.06.11 12:23:55.
