data_PCOD9239022
_publ_section_title
;
Structure prediction by ZEFSAII (Michael W. Deem and Ramdas Pophale) SiO2 
 PCOD9239022
Probable space group: P 2/C
;
_chemical_formula_sum "Si O2"
_cell_formula_units_Z 28
_cell_length_a 15.000000
_cell_length_b 12.000000
_cell_length_c 9.000000
_cell_angle_alpha 90.000000
_cell_angle_beta 60.000000
_cell_angle_gamma 90.000000
_cell_volume 1402.961154
_symmetry_space_group_name_H-M "P 2/C"
_symmetry_group_IT_number 13
_symmetry_cell_setting 'monoclinic'
loop_
_space_group_symop_operation_xyz
x,y,z
-x,y,1/2-z
-x,-y,-z
x,-y,1/2+z
loop_
_atom_site_type_symbol
_atom_site_label
_atom_site_fract_x
_atom_site_fract_y
_atom_site_fract_z
Si Si1 0.886825 0.572576 0.273857
Si Si2 0.429195 0.188258 0.949948
Si Si3 0.723747 0.257553 0.941915
Si Si4 0.743182 0.160629 0.604465
Si Si5 0.891410 0.647266 0.922831
Si Si6 0.469352 0.386496 0.447468
Si Si7 0.616442 0.069745 0.220899
O O1 0.827733 0.678722 0.393300
O O2 0.840363 0.452283 0.364089
O O3 0.000000 0.572486 0.250000
O O4 0.891678 0.595986 0.091565
O O5 0.500000 0.157383 0.750000
O O6 0.330166 0.230169 0.945203
O O7 0.480351 0.283762 0.005640
O O8 0.401480 0.090168 0.088201
O O9 0.732187 0.182336 0.788184
O O10 0.650697 0.359128 0.952802
O O11 0.671635 0.180194 0.108977
O O12 0.847992 0.225951 0.475879
O O13 0.695037 0.034684 0.626428
O O14 0.000000 0.660640 0.750000
O O15 0.500000 0.387619 0.250000
O O16 0.500000 0.500000 0.500000
O O17 0.500000 0.067056 0.250000
#
# Coordination Sequence:
#
# PCOD9239022 Si02
#       7
#     4   4   4   4   4   4   4
#     4  10  22  40  69  95 127 168 207 271 331 398
#     4  12  22  40  62  92 127 172 222 259 325 382
#     4  11  23  43  61  95 132 167 222 268 325 391
#     4  11  25  38  64  94 123 172 217 273 316 385
#     4  10  22  43  66  97 131 160 216 268 334 395
#     4  12  25  41  59  91 135 175 208 265 323 389
#     4  12  23  43  64  92 133 178 225 272 318 386
#
# _framework density 19.957787
#
# number of rings (size 3 to 8) (size 9 to 14) (size 15 to 20)
#    0.000    0.857    4.286    3.429    2.000    5.143 
#    0.000    0.714    0.000    4.286    0.000    0.000 
#    0.000    0.000    0.000    0.000    0.000    0.000 
#
# Total GULP energy -155891.384614 kJ/mol
# GULP energy per Si atom -5567.549450 kJ/mol
# Density = 1.991236 g / cm^3
# Si number density = 19.957787 Si / 1000 Ang^3
#
#
#
# Elastic Constant Matrix: (Units=GPa)
#
#
# Indices 1 2 3 4 5 6 
#
# 1 47.6785 35.8427 27.5903 0.0000 -3.9555 0.0000
# 2 35.8427 125.5256 58.3397 0.0000 -17.5308 0.0000
# 3 27.5903 58.3397 137.3942 0.0000 6.6992 0.0000
# 4 0.0000 0.0000 0.0000 3.0986 0.0000 -22.3343
# 5 -3.9555 -17.5308 6.6992 0.0000 22.2392 0.0000
# 6 0.0000 0.0000 0.0000 -22.3343 0.0000 7.0987
#
#
#
# Elastic Compliance Matrix: (Units=1/GPa)
#
#
# Indices 1 2 3 4 5 6 
#
# 1 0.027510 -0.006456 -0.002815 0.000000 0.000652 0.000000
# 2 -0.006456 0.013739 -0.005084 0.000000 0.011213 0.000000
# 3 -0.002815 -0.005084 0.010375 0.000000 -0.007633 0.000000
# 4 0.000000 0.000000 0.000000 -0.014887 0.000000 -0.046840
# 5 0.000652 0.011213 -0.007633 0.000000 0.056220 0.000000
# 6 0.000000 0.000000 0.000000 -0.046840 0.000000 -0.006498
#
#
# Mechanical properties :
#
#
# Convention : Reuss Voigt Hill
#
# Bulk Modulus (GPa) = 43.64183 61.57152 52.60668
# Shear Modulus (GPa) = 40.71469 19.07568 29.89519
#
# Velocity S-wave (km/s) = 4.52158 3.09496 3.87450
# Velocity P-wave (km/s) = 7.01243 6.60981 6.81409
#
# Compressibility (1/GPa) = 0.02291379
#
# Stress axis : x y z
#
# Youngs Moduli (GPa) = 36.35028 72.78609 96.38988
#
# Poissons Ratio (x) = 0.46991 0.27132
# Poissons Ratio (y) = 0.23468 0.49005
# Poissons Ratio (z) = 0.10232 0.37005
#
# Static dielectric constant tensor:
#      x y z
#    x 1.796840 0.000000 -0.065720 
#    y 0.000000 1.747090 0.000000 
#    z -0.065720 0.000000 1.783610 
# 
# From -- ./inp_files/18950.got.cif
#   From: 2010.05.17/outbox.ucp.g08.bks.cvg/sg13_10_cif.got.tgz:18950.got - 2010.06.11 12:23:55.
