data_PCOD9239753
_publ_section_title
;
Structure prediction by ZEFSAII (Michael W. Deem and Ramdas Pophale) SiO2 
 PCOD9239753
Probable space group: P 21/C
;
_chemical_formula_sum "Si O2"
_cell_formula_units_Z 24
_cell_length_a 10.098976
_cell_length_b 22.925663
_cell_length_c 5.305041
_cell_angle_alpha 90.000000
_cell_angle_beta 134.207347
_cell_angle_gamma 90.000000
_cell_volume 880.438110
_symmetry_space_group_name_H-M "P 21/C"
_symmetry_group_IT_number 14
_symmetry_cell_setting 'monoclinic'
loop_
_space_group_symop_operation_xyz
x,y,z
-x,1/2+y,1/2-z
-x,-y,-z
x,1/2-y,1/2+z
loop_
_atom_site_type_symbol
_atom_site_label
_atom_site_fract_x
_atom_site_fract_y
_atom_site_fract_z
Si Si1 0.665637 0.776200 0.834366
Si Si2 0.087450 0.373846 0.228035
Si Si3 0.214977 0.907949 0.345702
Si Si4 0.418078 0.577617 0.606846
Si Si5 0.914954 0.271286 0.704072
Si Si6 0.234340 0.472444 0.112282
O O1 0.581430 0.739152 0.952084
O O2 0.713945 0.842780 0.972408
O O3 0.878908 0.753925 0.079045
O O4 0.983013 0.379900 0.355856
O O5 0.961990 0.333515 0.881788
O O6 0.094119 0.435092 0.090981
O O7 0.330179 0.900116 0.246491
O O8 0.180637 0.977238 0.346058
O O9 0.339130 0.891130 0.753454
O O10 0.351492 0.510042 0.474541
O O11 0.636638 0.572947 0.866807
O O12 0.822840 0.265336 0.308921
#
# Coordination Sequence:
#
# PCOD9239753 Si02
#       6
#     4   4   4   4   4   4
#     4   8  16  31  44  70 100 123 151 201 252 296
#     4  10  18  31  54  82  94 126 168 214 244 275
#     4  10  20  35  48  75 101 130 165 208 234 289
#     4   9  21  37  49  62 111 139 161 189 248 296
#     4   8  16  31  44  70 100 123 151 201 252 296
#     4   9  20  36  50  72 101 140 164 200 239 300
#
# _framework density 27.259159
#
# number of rings (size 3 to 8) (size 9 to 14) (size 15 to 20)
#    1.000    2.333    0.000    1.000    0.000    6.000 
#   12.000    0.000    0.000    0.000    0.000   63.000 
#    0.000    0.000    0.000    0.000    0.000    0.000 
#
# Total GULP energy -134039.471195 kJ/mol
# GULP energy per Si atom -5584.977966 kJ/mol
# Density = 2.719712 g / cm^3
# Si number density = 27.259159 Si / 1000 Ang^3
#
#
#
# Elastic Constant Matrix: (Units=GPa)
#
#
# Indices 1 2 3 4 5 6 
#
# 1 145.9445 26.2648 61.2215 0.0000 -49.7416 0.0000
# 2 26.2648 53.8022 20.4267 0.0000 -2.6597 0.0000
# 3 61.2215 20.4267 110.4095 0.0000 -45.4964 0.0000
# 4 0.0000 0.0000 0.0000 18.1786 0.0000 -21.5958
# 5 -49.7416 -2.6597 -45.4964 0.0000 62.5665 0.0000
# 6 0.0000 0.0000 0.0000 -21.5958 0.0000 20.2444
#
#
#
# Elastic Compliance Matrix: (Units=1/GPa)
#
#
# Indices 1 2 3 4 5 6 
#
# 1 0.010918 -0.004024 -0.002575 0.000000 0.006637 0.000000
# 2 -0.004024 0.021781 -0.003905 0.000000 -0.005113 0.000000
# 3 -0.002575 -0.003905 0.014700 0.000000 0.008477 0.000000
# 4 0.000000 0.000000 0.000000 -0.205809 0.000000 -0.219548
# 5 0.006637 -0.005113 0.008477 0.000000 0.027206 0.000000
# 6 0.000000 0.000000 0.000000 -0.219548 0.000000 -0.184808
#
#
# Mechanical properties :
#
#
# Convention : Reuss Voigt Hill
#
# Bulk Modulus (GPa) = 37.89165 58.44246 48.16705
# Shear Modulus (GPa) = -17.47000 33.68077 8.10538
#
# Velocity S-wave (km/s) = -2.53432 3.51889 1.72624
# Velocity P-wave (km/s) = 2.31668 6.16411 4.65635
#
# Compressibility (1/GPa) = 0.02639104
#
# Stress axis : x y z
#
# Youngs Moduli (GPa) = 91.58988 45.91140 68.02568
#
# Poissons Ratio (x) = 0.18476 0.17514
# Poissons Ratio (y) = 0.36859 0.26566
# Poissons Ratio (z) = 0.23582 0.17930
#
# Static dielectric constant tensor:
#      x y z
#    x 2.075690 0.000000 0.009600 
#    y 0.000000 2.155830 0.000000 
#    z 0.009600 0.000000 2.348510 
# 
# From -- ./inp_files/1833.got.cif
#   From: 2010.05.17/outbox.cif.g08.bks.cpg/sg14_1_cif.got.tgz:1833.got - 2010.06.03 17:49:19.
