data_PCOD9239001
_publ_section_title
;
Structure prediction by ZEFSAII (Michael W. Deem and Ramdas Pophale) SiO2 
 PCOD9239001
Probable space group: P 2/C
;
_chemical_formula_sum "Si O2"
_cell_formula_units_Z 32
_cell_length_a 12.000000
_cell_length_b 15.000000
_cell_length_c 18.000000
_cell_angle_alpha 90.000000
_cell_angle_beta 30.000000
_cell_angle_gamma 90.000000
_cell_volume 1620.000000
_symmetry_space_group_name_H-M "P 2/C"
_symmetry_group_IT_number 13
_symmetry_cell_setting 'monoclinic'
loop_
_space_group_symop_operation_xyz
x,y,z
-x,y,1/2-z
-x,-y,-z
x,-y,1/2+z
loop_
_atom_site_type_symbol
_atom_site_label
_atom_site_fract_x
_atom_site_fract_y
_atom_site_fract_z
Si Si1 0.756986 0.868939 0.806151
Si Si2 0.576875 0.676126 0.086455
Si Si3 0.854178 0.756818 0.409058
Si Si4 0.713591 0.880819 0.000010
Si Si5 0.080688 0.372145 0.895273
Si Si6 0.574627 0.926439 0.624601
Si Si7 0.022567 0.425381 0.383112
Si Si8 0.574859 0.673672 0.912746
O O1 0.659886 0.893462 0.943257
O O2 0.629334 0.918488 0.814894
O O3 0.713507 0.764371 0.822274
O O4 0.019391 0.880880 0.651444
O O5 0.346725 0.641525 0.255662
O O6 0.624572 0.782075 0.074240
O O7 0.525909 0.667038 0.028117
O O8 0.799406 0.617961 0.975435
O O9 0.755529 0.853032 0.491558
O O10 0.648798 0.691274 0.504935
O O11 0.000000 0.768470 0.250000
O O12 0.991706 0.707981 0.394945
O O13 0.642118 0.969547 0.084453
O O14 0.020656 0.467533 0.892585
O O15 0.967882 0.379737 0.041045
O O16 0.500000 0.900135 0.750000
O O17 0.254007 0.402646 0.208994
#
# Coordination Sequence:
#
# PCOD9239001 Si02
#       8
#     4   4   4   4   4   4   4   4
#     4   9  20  40  63  95 124 175 214 257 327 386
#     4  11  22  44  69  98 126 171 223 273 321 385
#     4  11  25  45  65  94 136 177 219 268 330 390
#     4  10  21  40  69  91 131 169 220 270 319 385
#     4  11  27  43  64  98 133 177 215 266 336 392
#     4  11  26  40  64 102 131 173 219 267 328 386
#     4  11  25  43  66  97 133 170 216 272 334 391
#     4  10  21  42  69  93 126 169 221 268 320 389
#
# _framework density 19.753086
#
# number of rings (size 3 to 8) (size 9 to 14) (size 15 to 20)
#    0.000    1.500    2.500    1.125    7.000    4.000 
#    0.000    0.000    0.000    0.000    0.000    0.000 
#    0.000    0.000    0.000    0.000    0.000    0.000 
#
# Total GULP energy -178662.589167 kJ/mol
# GULP energy per Si atom -5583.205911 kJ/mol
# Density = 1.970813 g / cm^3
# Si number density = 19.753086 Si / 1000 Ang^3
#
#
#
# Elastic Constant Matrix: (Units=GPa)
#
#
# Indices 1 2 3 4 5 6 
#
# 1 61.8597 22.7846 25.7822 0.0000 -14.6973 0.0000
# 2 22.7846 75.5712 22.3929 0.0000 -1.3180 0.0000
# 3 25.7822 22.3929 63.8649 0.0000 2.8004 0.0000
# 4 0.0000 0.0000 0.0000 19.5257 0.0000 6.6789
# 5 -14.6973 -1.3180 2.8004 0.0000 24.7547 0.0000
# 6 0.0000 0.0000 0.0000 6.6789 0.0000 18.2730
#
#
#
# Elastic Compliance Matrix: (Units=1/GPa)
#
#
# Indices 1 2 3 4 5 6 
#
# 1 0.025607 -0.004653 -0.009408 0.000000 0.016020 0.000000
# 2 -0.004653 0.015659 -0.003545 0.000000 -0.001528 0.000000
# 3 -0.009408 -0.003545 0.021057 0.000000 -0.008157 0.000000
# 4 0.000000 0.000000 0.000000 0.058533 0.000000 -0.021394
# 5 0.016020 -0.001528 -0.008157 0.000000 0.050749 0.000000
# 6 0.000000 0.000000 0.000000 -0.021394 0.000000 0.062545
#
#
# Mechanical properties :
#
#
# Convention : Reuss Voigt Hill
#
# Bulk Modulus (GPa) = 36.88715 38.13503 37.51109
# Shear Modulus (GPa) = 17.95977 21.19976 19.57976
#
# Velocity S-wave (km/s) = 3.01859 3.27958 3.15179
# Velocity P-wave (km/s) = 5.55552 5.80419 5.68122
#
# Compressibility (1/GPa) = 0.02710971
#
# Stress axis : x y z
#
# Youngs Moduli (GPa) = 39.05176 63.85971 47.49030
#
# Poissons Ratio (x) = 0.29715 0.44681
# Poissons Ratio (y) = 0.18172 0.16836
# Poissons Ratio (z) = 0.36742 0.22639
#
# Static dielectric constant tensor:
#      x y z
#    x 1.713410 0.000000 0.004790 
#    y 0.000000 1.675130 0.000000 
#    z 0.004790 0.000000 1.715310 
# 
# From -- ./inp_files/66902.got.cif
#   From: 2010.05.17/outbox.ucp.g08.bks.cvg/sg13_34_cif.got.tgz:66902.got - 2010.06.11 12:23:55.
