data_PCOD9239473
_publ_section_title
;
Structure prediction by ZEFSAII (Michael W. Deem and Ramdas Pophale) SiO2 
 PCOD9239473
Probable space group: P 21/C
;
_chemical_formula_sum "Si O2"
_cell_formula_units_Z 24
_cell_length_a 11.728240
_cell_length_b 9.491258
_cell_length_c 19.560284
_cell_angle_alpha 90.000000
_cell_angle_beta 25.764219
_cell_angle_gamma 90.000000
_cell_volume 946.433745
_symmetry_space_group_name_H-M "P 21/C"
_symmetry_group_IT_number 14
_symmetry_cell_setting 'monoclinic'
loop_
_space_group_symop_operation_xyz
x,y,z
-x,1/2+y,1/2-z
-x,-y,-z
x,1/2-y,1/2+z
loop_
_atom_site_type_symbol
_atom_site_label
_atom_site_fract_x
_atom_site_fract_y
_atom_site_fract_z
Si Si1 0.112168 0.318071 0.826659
Si Si2 0.101793 0.349119 0.976333
Si Si3 0.733432 0.206436 0.287671
Si Si4 0.553356 0.974207 0.050258
Si Si5 0.352580 0.499082 0.958612
Si Si6 0.019997 0.355763 0.256501
O O1 0.805200 0.360276 0.979154
O O2 0.192573 0.231367 0.716579
O O3 0.311744 0.450257 0.717916
O O4 0.149512 0.258083 0.882314
O O5 0.917660 0.261208 0.127082
O O6 0.331360 0.403650 0.901414
O O7 0.000000 0.500000 0.000000
O O8 0.476713 0.309250 0.420721
O O9 0.636959 0.046648 0.332317
O O10 0.859338 0.248640 0.292845
O O11 0.828824 0.051028 0.908209
O O12 0.500000 0.000000 0.000000
O O13 0.168381 0.449841 0.121030
#
# Coordination Sequence:
#
# PCOD9239473 Si02
#       6
#     4   4   4   4   4   4
#     4  11  20  36  58  82 112 142 189 227 273 329
#     4   9  18  37  54  78 106 148 186 221 268 329
#     4  10  19  35  57  79 109 147 182 222 284 324
#     4  10  17  34  55  78 109 146 183 218 276 329
#     4  10  20  34  58  81 112 146 184 226 275 328
#     4  10  20  32  55  86 107 145 184 230 270 327
#
# _framework density 25.358350999999999
#
# number of rings (size 3 to 8) (size 9 to 14) (size 15 to 20)
#    0.000    2.000    6.667    2.000    0.000    2.000 
#    0.000    0.000    0.000    1.000    0.000    0.000 
#    0.000    0.000    0.000    0.000    0.000    0.000 
#
# Total GULP energy -133844.487061 kJ/mol
# GULP energy per Si atom -5576.853628 kJ/mol
# Density = 2.530063 g / cm^3
# Si number density = 25.358351 Si / 1000 Ang^3
#
#
#
# Elastic Constant Matrix: (Units=GPa)
#
#
# Indices 1 2 3 4 5 6 
#
# 1 105.2963 36.8452 34.2192 0.0000 32.8316 0.0000
# 2 36.8452 69.8973 9.6652 0.0000 -3.3007 0.0000
# 3 34.2192 9.6652 85.2813 0.0000 16.0153 0.0000
# 4 0.0000 0.0000 0.0000 30.7183 0.0000 -2.2462
# 5 32.8316 -3.3007 16.0153 0.0000 47.4845 0.0000
# 6 0.0000 0.0000 0.0000 -2.2462 0.0000 35.9133
#
#
#
# Elastic Compliance Matrix: (Units=1/GPa)
#
#
# Indices 1 2 3 4 5 6 
#
# 1 0.017579 -0.009279 -0.003842 0.000000 -0.011504 0.000000
# 2 -0.009279 0.019557 0.000050 0.000000 0.007758 0.000000
# 3 -0.003842 0.000050 0.013625 0.000000 -0.001936 0.000000
# 4 0.000000 0.000000 0.000000 0.032703 0.000000 0.002045
# 5 -0.011504 0.007758 -0.001936 0.000000 0.030206 0.000000
# 6 0.000000 0.000000 0.000000 0.002045 0.000000 0.027973
#
#
# Mechanical properties :
#
#
# Convention : Reuss Voigt Hill
#
# Bulk Modulus (GPa) = 40.61684 46.88157 43.74920
# Shear Modulus (GPa) = 28.41045 34.80626 31.60835
#
# Velocity S-wave (km/s) = 3.35081 3.70885 3.53436
# Velocity P-wave (km/s) = 5.56978 6.07194 5.82628
#
# Compressibility (1/GPa) = 0.02462033
#
# Stress axis : x y z
#
# Youngs Moduli (GPa) = 56.88559 51.13199 73.39291
#
# Poissons Ratio (x) = 0.47443 0.28196
# Poissons Ratio (y) = 0.52782 -0.00364
# Poissons Ratio (z) = 0.21854 -0.00254
#
# Static dielectric constant tensor:
#      x y z
#    x 1.997000 0.000000 -0.071810 
#    y 0.000000 2.131590 0.000000 
#    z -0.071810 0.000000 2.116240 
# 
# From -- ./inp_files/28052.got.cif
#   From: 2010.05.17/outbox.cif.g08.bks.cpg/sg14_15_cif.got.tgz:28052.got - 2010.06.03 17:49:19.
