data_PCOD9239941
_publ_section_title
;
Structure prediction by ZEFSAII (Michael W. Deem and Ramdas Pophale) SiO2 
 PCOD9239941
Probable space group: P 21/C
;
_chemical_formula_sum "Si O2"
_cell_formula_units_Z 32
_cell_length_a 8.671443
_cell_length_b 9.522440
_cell_length_c 22.273711
_cell_angle_alpha 90.000000
_cell_angle_beta 121.378202
_cell_angle_gamma 90.000000
_cell_volume 1570.226790
_symmetry_space_group_name_H-M "P 21/C"
_symmetry_group_IT_number 14
_symmetry_cell_setting 'monoclinic'
loop_
_space_group_symop_operation_xyz
x,y,z
-x,1/2+y,1/2-z
-x,-y,-z
x,1/2-y,1/2+z
loop_
_atom_site_type_symbol
_atom_site_label
_atom_site_fract_x
_atom_site_fract_y
_atom_site_fract_z
Si Si1 0.890170 0.345501 0.410276
Si Si2 0.479481 0.743924 0.713398
Si Si3 0.653095 0.971045 0.457719
Si Si4 0.523150 0.823558 0.977368
Si Si5 0.208631 0.941748 0.981441
Si Si6 0.062863 0.069199 0.386800
Si Si7 0.646217 0.708424 0.123174
Si Si8 0.702677 0.954496 0.332502
O O1 0.702373 0.344912 0.336312
O O2 0.839296 0.346904 0.470650
O O3 0.026676 0.474743 0.427448
O O4 0.989237 0.203200 0.409831
O O5 0.606149 0.732594 0.680249
O O6 0.588423 0.679813 0.790464
O O7 0.414133 0.905105 0.705406
O O8 0.552632 0.826025 0.453247
O O9 0.790536 0.000230 0.539484
O O10 0.745242 0.954294 0.411899
O O11 0.509358 0.093704 0.420834
O O12 0.316894 0.862117 0.950769
O O13 0.618874 0.815375 0.062699
O O14 0.642834 0.940587 0.968145
O O15 0.164850 0.131208 0.349817
O O16 0.893946 0.971621 0.338688
#
# Coordination Sequence:
#
# PCOD9239941 Si02
#       8
#     4   4   4   4   4   4   4   4
#     4  10  19  34  56  85 122 153 188 238 290 348
#     4  10  22  42  60  80 119 161 199 239 299 359
#     4  10  20  37  61  86 116 148 196 248 294 347
#     4  10  18  33  55  90 120 147 189 233 299 347
#     4  10  19  31  54  91 120 152 185 238 295 343
#     4  10  19  38  62  89 113 147 201 249 292 344
#     4  10  19  38  60  82 117 155 182 244 304 340
#     4  10  23  41  61  85 114 159 200 246 295 355
#
# _framework density 20.379223
#
# number of rings (size 3 to 8) (size 9 to 14) (size 15 to 20)
#    0.000    2.000    3.750    1.875    0.000    1.000 
#    2.250    5.000    0.000    1.500    0.000    0.000 
#    0.000    0.000    0.000    0.000    0.000    0.000 
#
# Total GULP energy -178588.226422 kJ/mol
# GULP energy per Si atom -5580.882076 kJ/mol
# Density = 2.033284 g / cm^3
# Si number density = 20.379223 Si / 1000 Ang^3
#
#
#
# Elastic Constant Matrix: (Units=GPa)
#
#
# Indices 1 2 3 4 5 6 
#
# 1 108.6359 -0.3722 8.0201 0.0000 11.6211 0.0000
# 2 -0.3722 34.8868 3.1585 0.0000 8.9015 0.0000
# 3 8.0201 3.1585 25.2485 0.0000 6.6999 0.0000
# 4 0.0000 0.0000 0.0000 21.4694 0.0000 0.7097
# 5 11.6211 8.9015 6.6999 0.0000 13.1473 0.0000
# 6 0.0000 0.0000 0.0000 0.7097 0.0000 28.7826
#
#
#
# Elastic Compliance Matrix: (Units=1/GPa)
#
#
# Indices 1 2 3 4 5 6 
#
# 1 0.010430 0.002939 -0.000817 0.000000 -0.010793 0.000000
# 2 0.002939 0.035583 0.001963 0.000000 -0.027690 0.000000
# 3 -0.000817 0.001963 0.046002 0.000000 -0.024049 0.000000
# 4 0.000000 0.000000 0.000000 0.046616 0.000000 -0.001149
# 5 -0.010793 -0.027690 -0.024049 0.000000 0.116604 0.000000
# 6 0.000000 0.000000 0.000000 -0.001149 0.000000 0.034772
#
#
# Mechanical properties :
#
#
# Convention : Reuss Voigt Hill
#
# Bulk Modulus (GPa) = 9.98155 21.15378 15.56767
# Shear Modulus (GPa) = 15.86137 23.21085 19.53611
#
# Velocity S-wave (km/s) = 2.79285 3.37849 3.09953
# Velocity P-wave (km/s) = 3.91261 5.06177 4.52383
#
# Compressibility (1/GPa) = 0.10018485
#
# Stress axis : x y z
#
# Youngs Moduli (GPa) = 95.87750 28.10337 21.73822
#
# Poissons Ratio (x) = -0.08260 0.01775
# Poissons Ratio (y) = -0.28179 -0.04267
# Poissons Ratio (z) = 0.07831 -0.05516
#
# Static dielectric constant tensor:
#      x y z
#    x 1.787130 0.000000 0.001190 
#    y 0.000000 1.784670 0.000000 
#    z 0.001190 0.000000 1.698840 
# 
# From -- ./inp_files/65625.got.cif
#   From: 2010.05.17/outbox.cif.g08.bks.cpg/sg14_33_cif.got.tgz:65625.got - 2010.06.03 17:49:19.
