data_PCOD9239796
_publ_section_title
;
Structure prediction by ZEFSAII (Michael W. Deem and Ramdas Pophale) SiO2 
 PCOD9239796
Probable space group: P 21/C
;
_chemical_formula_sum "Si O2"
_cell_formula_units_Z 32
_cell_length_a 21.822900
_cell_length_b 7.674597
_cell_length_c 22.130751
_cell_angle_alpha 90.000000
_cell_angle_beta 19.582689
_cell_angle_gamma 90.000000
_cell_volume 1242.296757
_symmetry_space_group_name_H-M "P 21/C"
_symmetry_group_IT_number 14
_symmetry_cell_setting 'monoclinic'
loop_
_space_group_symop_operation_xyz
x,y,z
-x,1/2+y,1/2-z
-x,-y,-z
x,1/2-y,1/2+z
loop_
_atom_site_type_symbol
_atom_site_label
_atom_site_fract_x
_atom_site_fract_y
_atom_site_fract_z
Si Si1 0.201117 0.011610 0.569679
Si Si2 0.361985 0.159637 0.980805
Si Si3 0.386178 0.301960 0.172007
Si Si4 0.789096 0.021075 0.985678
Si Si5 0.203052 0.817117 0.684949
Si Si6 0.167436 0.157445 0.482934
Si Si7 0.876921 0.711149 0.695462
Si Si8 0.288736 0.682958 0.314766
O O1 0.338559 0.156939 0.466706
O O2 0.210526 0.001289 0.488840
O O3 0.232708 0.850157 0.585153
O O4 0.992008 0.070938 0.775666
O O5 0.549995 0.178830 0.841626
O O6 0.339682 0.009506 0.952275
O O7 0.193493 0.172418 0.183627
O O8 0.304271 0.185932 0.301547
O O9 0.267314 0.266256 0.223672
O O10 0.348766 0.504708 0.225322
O O11 0.602937 0.275028 0.965901
O O12 0.809764 0.829239 0.996119
O O13 0.730326 0.136159 0.096424
O O14 0.040595 0.681443 0.846172
O O15 0.136772 0.006974 0.771020
O O16 0.086749 0.741215 0.482391
#
# Coordination Sequence:
#
# PCOD9239796 Si02
#       8
#     4   4   4   4   4   4   4   4
#     4   9  16  36  52  69 111 139 169 217 261 315
#     4  10  20  34  52  79 107 142 177 212 267 324
#     4  11  20  31  51  78 110 138 175 219 263 324
#     4   9  18  36  51  75 111 138 174 219 265 317
#     4  10  18  32  50  77 103 142 167 216 272 313
#     4   9  19  32  49  76 104 138 176 213 262 319
#     4  11  20  33  51  76 110 142 172 216 275 316
#     4  11  19  34  50  80 108 137 173 219 268 320
#
# _framework density 25.75874
#
# number of rings (size 3 to 8) (size 9 to 14) (size 15 to 20)
#    0.000    2.000    7.500    0.750    0.000    0.000 
#    9.000    0.000    0.000    0.750    0.000    1.750 
#    0.000    0.000    0.000    0.000    0.000    0.000 
#
# Total GULP energy -179241.062006 kJ/mol
# GULP energy per Si atom -5601.283188 kJ/mol
# Density = 2.570011 g / cm^3
# Si number density = 25.758740 Si / 1000 Ang^3
#
#
#
# Elastic Constant Matrix: (Units=GPa)
#
#
# Indices 1 2 3 4 5 6 
#
# 1 85.4369 -8.2874 10.5780 0.0000 -26.5976 0.0000
# 2 -8.2874 53.9713 4.3564 0.0000 -4.5625 0.0000
# 3 10.5780 4.3564 100.1769 0.0000 -48.8839 0.0000
# 4 0.0000 0.0000 0.0000 11.1062 0.0000 -5.3107
# 5 -26.5976 -4.5625 -48.8839 0.0000 47.0822 0.0000
# 6 0.0000 0.0000 0.0000 -5.3107 0.0000 6.8405
#
#
#
# Elastic Compliance Matrix: (Units=1/GPa)
#
#
# Indices 1 2 3 4 5 6 
#
# 1 0.016057 0.003299 0.005561 0.000000 0.015164 0.000000
# 2 0.003299 0.019360 0.001286 0.000000 0.005075 0.000000
# 3 0.005561 0.001286 0.022161 0.000000 0.026275 0.000000
# 4 0.000000 0.000000 0.000000 0.143200 0.000000 0.111174
# 5 0.015164 0.005075 0.026275 0.000000 0.057578 0.000000
# 6 0.000000 0.000000 0.000000 0.111174 0.000000 0.232500
#
#
# Mechanical properties :
#
#
# Convention : Reuss Voigt Hill
#
# Bulk Modulus (GPa) = 12.84215 28.09766 20.46991
# Shear Modulus (GPa) = 10.07008 28.53499 19.30254
#
# Velocity S-wave (km/s) = 1.97936 3.33194 2.74041
# Velocity P-wave (km/s) = 3.19691 5.07288 4.23995
#
# Compressibility (1/GPa) = 0.07786860
#
# Stress axis : x y z
#
# Youngs Moduli (GPa) = 62.27914 51.65269 45.12508
#
# Poissons Ratio (x) = -0.17038 -0.25093
# Poissons Ratio (y) = -0.20543 -0.05804
# Poissons Ratio (z) = -0.34631 -0.06644
#
# Static dielectric constant tensor:
#      x y z
#    x 2.035900 0.000000 -0.010890 
#    y 0.000000 2.085890 0.000000 
#    z -0.010890 0.000000 2.003730 
# 
# From -- ./inp_files/69922.got.cif
#   From: 2010.05.17/outbox.cif.g08.bks.cpg/sg14_35_cif.got.tgz:69922.got - 2010.06.03 17:49:19.
