data_PCOD9239705
_publ_section_title
;
Structure prediction by ZEFSAII (Michael W. Deem and Ramdas Pophale) SiO2 
 PCOD9239705
Probable space group: P 21/C
;
_chemical_formula_sum "Si O2"
_cell_formula_units_Z 26
_cell_length_a 23.835396
_cell_length_b 5.417437
_cell_length_c 26.192065
_cell_angle_alpha 90.000000
_cell_angle_beta 163.949210
_cell_angle_gamma 90.000000
_cell_volume 935.113668
_symmetry_space_group_name_H-M "P 21/C"
_symmetry_group_IT_number 14
_symmetry_cell_setting 'monoclinic'
loop_
_space_group_symop_operation_xyz
x,y,z
-x,1/2+y,1/2-z
-x,-y,-z
x,1/2-y,1/2+z
loop_
_atom_site_type_symbol
_atom_site_label
_atom_site_fract_x
_atom_site_fract_y
_atom_site_fract_z
Si Si1 0.301621 0.251449 0.119460
Si Si2 0.000000 0.500000 0.000000
Si Si3 0.293654 0.592269 0.848675
Si Si4 0.273771 0.096188 0.802136
Si Si5 0.719706 0.758191 0.020457
Si Si6 0.244020 0.750074 0.620669
Si Si7 0.714263 0.241339 0.545205
O O1 0.311993 0.225493 0.067894
O O2 0.210398 0.515955 0.054051
O O3 0.525435 0.251041 0.340884
O O4 0.196886 0.013410 0.053473
O O5 0.202771 0.322375 0.184552
O O6 0.123641 0.679388 0.066027
O O7 0.166689 0.818099 0.709219
O O8 0.213101 0.313281 0.786498
O O9 0.500000 0.500000 0.000000
O O10 0.339440 0.714835 0.942573
O O11 0.500000 0.000000 0.000000
O O12 0.490769 0.745014 0.845193
O O13 0.828524 0.507014 0.131007
O O14 0.821352 0.000475 0.131538
#
# Coordination Sequence:
#
# PCOD9239705 Si02
#       7
#     4   2   4   4   4   4   4
#     4  10  20  35  60  93 127 169 228 276 321 389
#     4  12  28  44  68 102 138 186 216 276 338 408
#     4  10  22  36  60  89 129 175 219 263 326 398
#     4  10  25  42  63  89 136 175 228 262 317 405
#     4  10  19  34  59  95 126 167 228 277 322 386
#     4  10  22  34  58  88 134 165 212 273 330 384
#     4  10  18  30  57  88 127 160 213 278 324 376
#
# _framework density 27.804106999999998
#
# number of rings (size 3 to 8) (size 9 to 14) (size 15 to 20)
#    0.000    1.846    0.000    5.538   17.231    2.462 
#    0.000    0.000    0.000    0.000    0.000   36.615 
#    0.000    0.000    0.000    0.000    0.000    0.000 
#
# Total GULP energy -144882.306360 kJ/mol
# GULP energy per Si atom -5572.396398 kJ/mol
# Density = 2.774082 g / cm^3
# Si number density = 27.804107 Si / 1000 Ang^3
#
#
#
# Elastic Constant Matrix: (Units=GPa)
#
#
# Indices 1 2 3 4 5 6 
#
# 1 135.3863 31.0814 12.0543 0.0000 -1.9054 0.0000
# 2 31.0814 261.1839 -20.4839 0.0000 2.2647 0.0000
# 3 12.0543 -20.4839 73.4360 0.0000 15.3110 0.0000
# 4 0.0000 0.0000 0.0000 -2.4279 0.0000 -4.4649
# 5 -1.9054 2.2647 15.3110 0.0000 41.6495 0.0000
# 6 0.0000 0.0000 0.0000 -4.4649 0.0000 48.0223
#
#
#
# Elastic Compliance Matrix: (Units=1/GPa)
#
#
# Indices 1 2 3 4 5 6 
#
# 1 0.007811 -0.001081 -0.001809 0.000000 0.001081 0.000000
# 2 -0.001081 0.004081 0.001486 0.000000 -0.000818 0.000000
# 3 -0.001809 0.001486 0.015555 0.000000 -0.005882 0.000000
# 4 0.000000 0.000000 0.000000 -0.351743 0.000000 -0.032704
# 5 0.001081 -0.000818 -0.005882 0.000000 0.026266 0.000000
# 6 0.000000 0.000000 0.000000 -0.032704 0.000000 0.017783
#
#
# Mechanical properties :
#
#
# Convention : Reuss Voigt Hill
#
# Bulk Modulus (GPa) = 40.58467 57.25663 48.92065
# Shear Modulus (GPa) = -18.57169 47.27241 14.35036
#
# Velocity S-wave (km/s) = -2.58727 4.12782 2.27430
# Velocity P-wave (km/s) = 2.38810 6.58453 4.95273
#
# Compressibility (1/GPa) = 0.02463985
#
# Stress axis : x y z
#
# Youngs Moduli (GPa) = 128.03022 245.03926 64.28747
#
# Poissons Ratio (x) = 0.26482 0.11629
# Poissons Ratio (y) = 0.13837 -0.09554
# Poissons Ratio (z) = 0.23160 -0.36418
#
# Static dielectric constant tensor:
#      x y z
#    x 2.022350 0.000000 0.195170 
#    y 0.000000 2.487310 0.000000 
#    z 0.195170 0.000000 2.219050 
# 
# From -- ./inp_files/78106.got.cif
#   From: 2010.05.17/outbox.cif.g08.bks.cpg/sg14_40_cif.got.tgz:78106.got - 2010.06.03 17:49:19.
