data_PCOD9239067
_publ_section_title
;
Structure prediction by ZEFSAII (Michael W. Deem and Ramdas Pophale) SiO2 
 PCOD9239067
Probable space group: P 2/C
;
_chemical_formula_sum "Si O2"
_cell_formula_units_Z 30
_cell_length_a 21.000000
_cell_length_b 9.000000
_cell_length_c 15.000000
_cell_angle_alpha 90.000000
_cell_angle_beta 150.000000
_cell_angle_gamma 90.000000
_cell_volume 1417.500000
_symmetry_space_group_name_H-M "P 2/C"
_symmetry_group_IT_number 13
_symmetry_cell_setting 'monoclinic'
loop_
_space_group_symop_operation_xyz
x,y,z
-x,y,1/2-z
-x,-y,-z
x,-y,1/2+z
loop_
_atom_site_type_symbol
_atom_site_label
_atom_site_fract_x
_atom_site_fract_y
_atom_site_fract_z
Si Si1 0.017456 0.369299 0.377777
Si Si2 0.272577 0.818975 0.194336
Si Si3 0.825689 0.639051 0.918203
Si Si4 0.500000 0.315302 0.250000
Si Si5 0.251835 0.726154 0.874651
Si Si6 0.642538 0.439748 0.819778
Si Si7 0.856051 0.931594 0.077118
Si Si8 0.294031 0.077951 0.926700
O O1 0.142126 0.272841 0.548014
O O2 0.048509 0.537960 0.447487
O O3 0.000000 0.374910 0.250000
O O4 0.895863 0.290854 0.274459
O O5 0.371188 0.703452 0.264238
O O6 0.294694 0.882275 0.321141
O O7 0.240964 0.950011 0.085214
O O8 0.752870 0.670443 0.735306
O O9 0.746908 0.536913 0.892499
O O10 0.853567 0.788653 0.008070
O O11 0.459252 0.431292 0.278977
O O12 0.606317 0.199024 0.413129
O O13 0.305315 0.895917 0.942533
O O14 0.318992 0.629336 0.035880
O O15 0.818788 0.900409 0.135339
O O16 0.000000 0.992575 0.250000
#
# Coordination Sequence:
#
# PCOD9239067 Si02
#       8
#     4   4   4   2   4   4   4   4
#     4  11  21  41  69 109 156 198 233 295 356 447
#     4  11  24  45  72 107 150 193 242 293 378 442
#     4  11  24  40  68 111 150 194 243 285 364 437
#     4  12  30  52  78 104 138 188 264 316 372 426
#     4  12  24  45  73 107 152 195 244 296 376 443
#     4  11  26  49  71 102 144 188 245 318 357 430
#     4  12  24  42  72 112 157 192 235 296 361 451
#     4  12  27  49  75 106 146 197 250 312 365 441
#
# _framework density 21.164021000000002
#
# number of rings (size 3 to 8) (size 9 to 14) (size 15 to 20)
#    0.000    0.533    6.667    2.000    5.600    2.133 
#    0.000    1.333    0.000    0.000    0.000    0.000 
#    0.000    0.000    0.000    0.000    0.000    0.000 
#
# Total GULP energy -167287.495826 kJ/mol
# GULP energy per Si atom -5576.249861 kJ/mol
# Density = 2.111585 g / cm^3
# Si number density = 21.164021 Si / 1000 Ang^3
#
#
#
# Elastic Constant Matrix: (Units=GPa)
#
#
# Indices 1 2 3 4 5 6 
#
# 1 114.2921 36.7838 39.4072 0.0000 -22.7170 0.0000
# 2 36.7838 152.8318 27.7714 0.0000 0.6822 0.0000
# 3 39.4072 27.7714 39.8199 0.0000 -12.9674 0.0000
# 4 0.0000 0.0000 0.0000 36.6222 0.0000 -7.1906
# 5 -22.7170 0.6822 -12.9674 0.0000 43.6055 0.0000
# 6 0.0000 0.0000 0.0000 -7.1906 0.0000 49.5212
#
#
#
# Elastic Compliance Matrix: (Units=1/GPa)
#
#
# Indices 1 2 3 4 5 6 
#
# 1 0.013935 -0.001248 -0.011681 0.000000 0.003806 0.000000
# 2 -0.001248 0.007742 -0.004889 0.000000 -0.002225 0.000000
# 3 -0.011681 -0.004889 0.042213 0.000000 0.006545 0.000000
# 4 0.000000 0.000000 0.000000 0.028107 0.000000 0.004081
# 5 0.003806 -0.002225 0.006545 0.000000 0.026897 0.000000
# 6 0.000000 0.000000 0.000000 0.004081 0.000000 0.020786
#
#
# Mechanical properties :
#
#
# Convention : Reuss Voigt Hill
#
# Bulk Modulus (GPa) = 35.39197 57.20762 46.29979
# Shear Modulus (GPa) = 27.06598 39.48189 33.27393
#
# Velocity S-wave (km/s) = 3.58001 4.32385 3.96939
# Velocity P-wave (km/s) = 5.81787 7.21227 6.55227
#
# Compressibility (1/GPa) = 0.02825500
#
# Stress axis : x y z
#
# Youngs Moduli (GPa) = 71.76095 129.16806 23.68918
#
# Poissons Ratio (x) = 0.16125 0.27671
# Poissons Ratio (y) = 0.08959 0.11581
# Poissons Ratio (z) = 0.83822 0.63145
#
# Static dielectric constant tensor:
#      x y z
#    x 1.781290 0.000000 0.027510 
#    y 0.000000 1.793530 0.000000 
#    z 0.027510 0.000000 1.799950 
# 
# From -- ./inp_files/57556.got.cif
#   From: 2010.05.17/outbox.ucp.g08.bks.cvg/sg13_29_cif.got.tgz:57556.got - 2010.06.11 12:23:55.
