data_PCOD9239308
_publ_section_title
;
Structure prediction by ZEFSAII (Michael W. Deem and Ramdas Pophale) SiO2 
 PCOD9239308
Probable space group: P 21/C
;
_chemical_formula_sum "Si O2"
_cell_formula_units_Z 28
_cell_length_a 10.521247
_cell_length_b 5.281852
_cell_length_c 29.326895
_cell_angle_alpha 90.000000
_cell_angle_beta 99.454412
_cell_angle_gamma 90.000000
_cell_volume 1607.607063
_symmetry_space_group_name_H-M "P 21/C"
_symmetry_group_IT_number 14
_symmetry_cell_setting 'monoclinic'
loop_
_space_group_symop_operation_xyz
x,y,z
-x,1/2+y,1/2-z
-x,-y,-z
x,1/2-y,1/2+z
loop_
_atom_site_type_symbol
_atom_site_label
_atom_site_fract_x
_atom_site_fract_y
_atom_site_fract_z
Si Si1 0.587874 0.993645 0.935875
Si Si2 0.297864 0.505064 0.460777
Si Si3 0.887582 0.964436 0.695763
Si Si4 0.558373 0.965413 0.275439
Si Si5 0.828078 0.464497 0.746164
Si Si6 0.761322 0.994967 0.593756
Si Si7 0.527910 0.493549 0.881353
O O1 0.444261 0.994664 0.949572
O O2 0.596181 0.735500 0.908125
O O3 0.592010 0.237136 0.903747
O O4 0.685882 0.007651 0.983864
O O5 0.233663 0.251815 0.437638
O O6 0.232016 0.753617 0.436254
O O7 0.830574 0.701829 0.711646
O O8 0.862461 0.986954 0.640754
O O9 0.037743 0.968935 0.718374
O O10 0.823307 0.203341 0.717623
O O11 0.516881 0.689893 0.254978
O O12 0.707583 0.007816 0.272116
O O13 0.532089 0.988403 0.327425
O O14 0.620362 0.994426 0.609966
#
# Coordination Sequence:
#
# PCOD9239308 Si02
#       7
#     4   4   4   4   4   4   4
#     4   9  17  30  43  66  97 127 158 192 245 300
#     4   9  17  27  45  68  96 123 155 202 245 291
#     4  10  20  35  54  73 100 133 170 212 246 291
#     4  12  23  35  52  76 105 135 168 205 245 299
#     4  10  21  36  52  73 101 136 170 205 250 289
#     4  10  17  28  46  72  95 122 160 201 248 288
#     4  10  19  29  46  68  97 130 158 194 245 297
#
# _framework density 17.417190000000002
#
# number of rings (size 3 to 8) (size 9 to 14) (size 15 to 20)
#    0.000    2.000    0.000    5.143    0.000    5.714 
#    0.000    0.000    0.000    0.000    0.000    6.000 
#    0.000    0.000    0.000    0.000    0.000    0.000 
#
# Total GULP energy -156319.158427 kJ/mol
# GULP energy per Si atom -5582.827087 kJ/mol
# Density = 1.737755 g / cm^3
# Si number density = 17.417190 Si / 1000 Ang^3
#
#
#
# Elastic Constant Matrix: (Units=GPa)
#
#
# Indices 1 2 3 4 5 6 
#
# 1 16.2631 -3.5595 -2.8534 0.0000 -3.6875 0.0000
# 2 -3.5595 105.0208 27.9805 0.0000 15.1295 0.0000
# 3 -2.8534 27.9805 99.3885 0.0000 26.1565 0.0000
# 4 0.0000 0.0000 0.0000 26.8185 0.0000 6.5984
# 5 -3.6875 15.1295 26.1565 0.0000 24.4789 0.0000
# 6 0.0000 0.0000 0.0000 6.5984 0.0000 0.7562
#
#
#
# Elastic Compliance Matrix: (Units=1/GPa)
#
#
# Indices 1 2 3 4 5 6 
#
# 1 0.063823 0.000994 -0.001135 0.000000 0.010213 0.000000
# 2 0.000994 0.010686 -0.001782 0.000000 -0.004550 0.000000
# 3 -0.001135 -0.001782 0.014310 0.000000 -0.014360 0.000000
# 4 0.000000 0.000000 0.000000 -0.032511 0.000000 0.283690
# 5 0.010213 -0.004550 -0.014360 0.000000 0.060546 0.000000
# 6 0.000000 0.000000 0.000000 0.283690 0.000000 -1.153033
#
#
# Mechanical properties :
#
#
# Convention : Reuss Voigt Hill
#
# Bulk Modulus (GPa) = 11.76855 29.31195 20.54025
# Shear Modulus (GPa) = -4.98004 23.68439 9.35217
#
# Velocity S-wave (km/s) = -1.69277 3.69159 2.31973
# Velocity P-wave (km/s) = 1.71782 5.91914 4.35816
#
# Compressibility (1/GPa) = 0.08497224
#
# Stress axis : x y z
#
# Youngs Moduli (GPa) = 15.66836 93.58015 69.88182
#
# Poissons Ratio (x) = -0.09306 0.07934
# Poissons Ratio (y) = -0.01558 0.12455
# Poissons Ratio (z) = 0.01779 0.16679
#
# Static dielectric constant tensor:
#      x y z
#    x 1.577600 0.000000 0.010810 
#    y 0.000000 1.592060 0.000000 
#    z 0.010810 0.000000 1.564180 
# 
# From -- ./inp_files/72622.got.cif
#   From: 2010.05.17/outbox.cif.g08.bks.cpg/sg14_37_cif.got.tgz:72622.got - 2010.06.03 17:49:19.
