data_PCOD9239353
_publ_section_title
;
Structure prediction by ZEFSAII (Michael W. Deem and Ramdas Pophale) SiO2 
 PCOD9239353
Probable space group: P 21/C
;
_chemical_formula_sum "Si O2"
_cell_formula_units_Z 32
_cell_length_a 12.375693
_cell_length_b 8.167651
_cell_length_c 22.046756
_cell_angle_alpha 90.000000
_cell_angle_beta 34.023817
_cell_angle_gamma 90.000000
_cell_volume 1246.925691
_symmetry_space_group_name_H-M "P 21/C"
_symmetry_group_IT_number 14
_symmetry_cell_setting 'monoclinic'
loop_
_space_group_symop_operation_xyz
x,y,z
-x,1/2+y,1/2-z
-x,-y,-z
x,1/2-y,1/2+z
loop_
_atom_site_type_symbol
_atom_site_label
_atom_site_fract_x
_atom_site_fract_y
_atom_site_fract_z
Si Si1 0.195514 0.508181 0.866550
Si Si2 0.885095 0.924411 0.297228
Si Si3 0.757015 0.698377 0.470872
Si Si4 0.182913 0.186964 0.918573
Si Si5 0.732171 0.169107 0.108456
Si Si6 0.421114 0.668271 0.068131
Si Si7 0.922320 0.616368 0.206519
Si Si8 0.298612 0.819859 0.010314
O O1 0.298329 0.342037 0.840086
O O2 0.292521 0.679513 0.835647
O O3 0.155950 0.474781 0.815022
O O4 0.000000 0.500000 0.000000
O O5 0.824799 0.818158 0.385414
O O6 0.849096 0.794290 0.260989
O O7 0.788337 0.094925 0.319833
O O8 0.083350 0.994915 0.233567
O O9 0.844656 0.722058 0.496725
O O10 0.531097 0.752083 0.573095
O O11 0.780077 0.504666 0.450300
O O12 0.291625 0.016206 0.859166
O O13 0.970749 0.170910 0.985838
O O14 0.629074 0.196118 0.091890
O O15 0.430008 0.793272 0.007701
O O16 0.500000 0.500000 0.000000
O O17 0.144009 0.671911 0.089247
#
# Coordination Sequence:
#
# PCOD9239353 Si02
#       8
#     4   4   4   4   4   4   4   4
#     4  10  17  30  50  75 113 145 179 227 290 340
#     4  10  21  34  50  76 111 152 190 227 294 358
#     4  10  19  33  53  79 114 148 188 241 284 337
#     4   9  17  28  49  79 109 142 179 230 290 325
#     4   9  17  28  46  81 112 139 170 236 291 328
#     4   9  20  33  51  76 108 153 187 231 280 331
#     4  11  20  34  50  79 114 154 185 235 302 359
#     4  10  18  31  53  79 117 137 186 236 296 342
#
# _framework density 25.663118000000001
#
# number of rings (size 3 to 8) (size 9 to 14) (size 15 to 20)
#    0.000    2.250    2.500    2.625    3.500    0.000 
#    2.250    0.000    0.000    0.000    0.000   12.250 
#    0.000    0.000    0.000    0.000    0.000    0.000 
#
# Total GULP energy -178400.577897 kJ/mol
# GULP energy per Si atom -5575.018059 kJ/mol
# Density = 2.560471 g / cm^3
# Si number density = 25.663118 Si / 1000 Ang^3
#
#
#
# Elastic Constant Matrix: (Units=GPa)
#
#
# Indices 1 2 3 4 5 6 
#
# 1 91.2296 40.1915 25.4213 0.0000 21.1931 0.0000
# 2 40.1915 180.7912 22.5605 0.0000 13.6879 0.0000
# 3 25.4213 22.5605 45.0477 0.0000 14.3407 0.0000
# 4 0.0000 0.0000 0.0000 31.6151 0.0000 9.5906
# 5 21.1931 13.6879 14.3407 0.0000 25.2165 0.0000
# 6 0.0000 0.0000 0.0000 9.5906 0.0000 51.8553
#
#
#
# Elastic Compliance Matrix: (Units=1/GPa)
#
#
# Indices 1 2 3 4 5 6 
#
# 1 0.015309 -0.002133 -0.004693 0.000000 -0.009039 0.000000
# 2 -0.002133 0.006269 -0.001738 0.000000 -0.000622 0.000000
# 3 -0.004693 -0.001738 0.029503 0.000000 -0.011891 0.000000
# 4 0.000000 0.000000 0.000000 0.033511 0.000000 -0.006198
# 5 -0.009039 -0.000622 -0.011891 0.000000 0.054353 0.000000
# 6 0.000000 0.000000 0.000000 -0.006198 0.000000 0.020431
#
#
# Mechanical properties :
#
#
# Convention : Reuss Voigt Hill
#
# Bulk Modulus (GPa) = 29.45308 54.82389 42.13848
# Shear Modulus (GPa) = 26.62099 36.99707 31.80903
#
# Velocity S-wave (km/s) = 3.22425 3.80102 3.52445
# Velocity P-wave (km/s) = 5.03614 6.37753 5.74612
#
# Compressibility (1/GPa) = 0.03395230
#
# Stress axis : x y z
#
# Youngs Moduli (GPa) = 65.32206 159.50367 33.89505
#
# Poissons Ratio (x) = 0.34026 0.15907
# Poissons Ratio (y) = 0.13935 0.05891
# Poissons Ratio (z) = 0.30656 0.27722
#
# Static dielectric constant tensor:
#      x y z
#    x 2.152910 0.000000 -0.310730 
#    y 0.000000 2.060980 0.000000 
#    z -0.310730 0.000000 2.543520 
# 
# From -- ./inp_files/67025.got.cif
#   From: 2010.05.17/outbox.cif.g08.bks.cpg/sg14_34_cif.got.tgz:67025.got - 2010.06.03 17:49:19.
