data_PCOD9239313
_publ_section_title
;
Structure prediction by ZEFSAII (Michael W. Deem and Ramdas Pophale) SiO2 
 PCOD9239313
Probable space group: P 21/C
;
_chemical_formula_sum "Si O2"
_cell_formula_units_Z 28
_cell_length_a 24.343849
_cell_length_b 4.981015
_cell_length_c 18.285296
_cell_angle_alpha 90.000000
_cell_angle_beta 153.764318
_cell_angle_gamma 90.000000
_cell_volume 980.155048
_symmetry_space_group_name_H-M "P 21/C"
_symmetry_group_IT_number 14
_symmetry_cell_setting 'monoclinic'
loop_
_space_group_symop_operation_xyz
x,y,z
-x,1/2+y,1/2-z
-x,-y,-z
x,1/2-y,1/2+z
loop_
_atom_site_type_symbol
_atom_site_label
_atom_site_fract_x
_atom_site_fract_y
_atom_site_fract_z
Si Si1 0.018287 0.257605 0.467144
Si Si2 0.507258 0.223238 0.108937
Si Si3 0.640290 0.924776 0.444684
Si Si4 0.898257 0.390206 0.555763
Si Si5 0.634761 0.277279 0.121410
Si Si6 0.828098 0.874790 0.550324
Si Si7 0.230323 0.581491 0.342232
O O1 0.116393 0.408467 0.531281
O O2 0.000000 0.500000 0.500000
O O3 0.896133 0.185299 0.274653
O O4 0.000000 0.000000 0.500000
O O5 0.485050 0.301235 0.168001
O O6 0.404127 0.426398 0.949947
O O7 0.467365 0.925424 0.036570
O O8 0.624718 0.278125 0.197020
O O9 0.693106 0.925991 0.425459
O O10 0.740765 0.721975 0.603490
O O11 0.663961 0.223980 0.500051
O O12 0.826033 0.561724 0.529508
O O13 0.046002 0.396839 0.750667
O O14 0.858607 0.082251 0.520570
O O15 0.756404 0.151432 0.228479
#
# Coordination Sequence:
#
# PCOD9239313 Si02
#       7
#     4   4   4   4   4   4   4
#     4  12  24  36  50  66  96 132 176 212 237 281
#     4   8  14  23  39  64  92 121 147 176 230 287
#     4  10  17  28  48  71  96 123 154 190 237 306
#     4  10  21  33  47  68  90 124 164 199 249 278
#     4   8  14  25  39  60  91 124 149 183 223 286
#     4  10  19  31  51  68  94 120 157 201 240 305
#     4  10  19  30  46  66  94 127 166 193 237 286
#
# _framework density 28.566911000000001
#
# number of rings (size 3 to 8) (size 9 to 14) (size 15 to 20)
#    0.000    2.286    1.429    2.571    4.000    0.000 
#    0.000    0.000    0.000    0.000    0.000    0.000 
#    0.000    4.571    0.000    0.286    0.286    0.429 
#
# Total GULP energy -156028.493371 kJ/mol
# GULP energy per Si atom -5572.446192 kJ/mol
# Density = 2.850189 g / cm^3
# Si number density = 28.566911 Si / 1000 Ang^3
#
#
#
# Elastic Constant Matrix: (Units=GPa)
#
#
# Indices 1 2 3 4 5 6 
#
# 1 157.1346 25.2331 8.4784 0.0000 2.3539 0.0000
# 2 25.2331 167.3895 14.5621 0.0000 -17.9683 0.0000
# 3 8.4784 14.5621 70.6748 0.0000 0.9198 0.0000
# 4 0.0000 0.0000 0.0000 11.9161 0.0000 1.1662
# 5 2.3539 -17.9683 0.9198 0.0000 29.5203 0.0000
# 6 0.0000 0.0000 0.0000 1.1662 0.0000 68.7164
#
#
#
# Elastic Compliance Matrix: (Units=1/GPa)
#
#
# Indices 1 2 3 4 5 6 
#
# 1 0.006583 -0.001068 -0.000554 0.000000 -0.001158 0.000000
# 2 -0.001068 0.006700 -0.001307 0.000000 0.004204 0.000000
# 3 -0.000554 -0.001307 0.014501 0.000000 -0.001203 0.000000
# 4 0.000000 0.000000 0.000000 0.084060 0.000000 -0.001427
# 5 -0.001158 0.004204 -0.001203 0.000000 0.036564 0.000000
# 6 0.000000 0.000000 0.000000 -0.001427 0.000000 0.014577
#
#
# Mechanical properties :
#
#
# Convention : Reuss Voigt Hill
#
# Bulk Modulus (GPa) = 45.61242 54.63847 50.12544
# Shear Modulus (GPa) = 28.38462 45.15891 36.77176
#
# Velocity S-wave (km/s) = 3.15559 3.98026 3.59167
# Velocity P-wave (km/s) = 5.41097 6.34754 5.89787
#
# Compressibility (1/GPa) = 0.02192385
#
# Stress axis : x y z
#
# Youngs Moduli (GPa) = 151.91102 149.25056 68.96167
#
# Poissons Ratio (x) = 0.15946 0.03824
# Poissons Ratio (y) = 0.16230 0.09014
# Poissons Ratio (z) = 0.08423 0.19508
#
# Static dielectric constant tensor:
#      x y z
#    x 2.369320 0.000000 -0.053200 
#    y 0.000000 2.004200 0.000000 
#    z -0.053200 0.000000 2.405540 
# 
# From -- ./inp_files/61553.got.cif
#   From: 2010.05.17/outbox.cif.g08.bks.cpg/sg14_31_cif.got.tgz:61553.got - 2010.06.03 17:49:19.
