data_PCOD9239879
_publ_section_title
;
Structure prediction by ZEFSAII (Michael W. Deem and Ramdas Pophale) SiO2 
 PCOD9239879
Probable space group: P 21/C
;
_chemical_formula_sum "Si O2"
_cell_formula_units_Z 32
_cell_length_a 13.921906
_cell_length_b 9.187809
_cell_length_c 19.861813
_cell_angle_alpha 90.000000
_cell_angle_beta 135.504064
_cell_angle_gamma 90.000000
_cell_volume 1780.573868
_symmetry_space_group_name_H-M "P 21/C"
_symmetry_group_IT_number 14
_symmetry_cell_setting 'monoclinic'
loop_
_space_group_symop_operation_xyz
x,y,z
-x,1/2+y,1/2-z
-x,-y,-z
x,1/2-y,1/2+z
loop_
_atom_site_type_symbol
_atom_site_label
_atom_site_fract_x
_atom_site_fract_y
_atom_site_fract_z
Si Si1 0.518849 0.597625 0.920504
Si Si2 0.398369 0.621924 0.642942
Si Si3 0.268545 0.046922 0.876928
Si Si4 0.842197 0.813866 0.765189
Si Si5 0.268547 0.546922 0.891620
Si Si6 0.481164 0.902386 0.901666
Si Si7 0.398389 0.121922 0.255435
Si Si8 0.157793 0.686134 0.422993
O O1 0.406152 0.606898 0.923978
O O2 0.500014 0.750009 0.873857
O O3 0.479103 0.462133 0.855092
O O4 0.669135 0.569175 0.024516
O O5 0.479084 0.537889 0.623990
O O6 0.499986 0.750001 0.716855
O O7 0.368643 0.499993 0.684319
O O8 0.261522 0.680891 0.538037
O O9 0.193792 0.175354 0.800017
O O10 0.330866 0.930824 0.855382
O O11 0.184528 0.958374 0.890910
O O12 0.406153 0.106898 0.982169
O O13 0.738451 0.819105 0.776494
O O14 0.999992 0.807707 0.864715
O O15 0.815472 0.958374 0.706376
O O16 0.193796 0.675355 0.893784
#
# Coordination Sequence:
#
# PCOD9239879 Si02
#       8
#     4   4   4   4   4   4   4   4
#     4  10  18  32  58  86 112 144 189 243 281 334
#     4  11  23  39  60  85 110 153 203 243 283 332
#     4  10  19  32  56  86 118 148 186 227 291 347
#     4  11  22  37  58  87 122 156 186 230 291 353
#     4  10  19  32  56  86 118 148 186 227 291 347
#     4  10  18  32  58  86 112 144 189 243 281 334
#     4  11  23  39  60  85 110 153 203 243 283 332
#     4  11  22  37  58  87 122 156 186 230 291 353
#
# _framework density 17.971734000000001
#
# number of rings (size 3 to 8) (size 9 to 14) (size 15 to 20)
#    0.000    1.500    5.000    1.500    0.000    0.500 
#    0.000    0.000    0.000    0.750    0.000    0.000 
#    0.000    0.000    0.000    0.000    0.000    0.000 
#
# Total GULP energy -178433.778452 kJ/mol
# GULP energy per Si atom -5576.055577 kJ/mol
# Density = 1.793083 g / cm^3
# Si number density = 17.971734 Si / 1000 Ang^3
#
#
#
# Elastic Constant Matrix: (Units=GPa)
#
#
# Indices 1 2 3 4 5 6 
#
# 1 73.0937 32.5529 58.9366 0.0000 8.8391 0.0000
# 2 32.5529 100.0900 33.8144 0.0000 8.2814 0.0000
# 3 58.9366 33.8144 76.2283 0.0000 11.6219 0.0000
# 4 0.0000 0.0000 0.0000 24.1138 0.0000 -5.3092
# 5 8.8391 8.2814 11.6219 0.0000 26.1645 0.0000
# 6 0.0000 0.0000 0.0000 -5.3092 0.0000 24.9138
#
#
#
# Elastic Compliance Matrix: (Units=1/GPa)
#
#
# Indices 1 2 3 4 5 6 
#
# 1 0.036985 -0.002807 -0.027439 0.000000 0.000582 0.000000
# 2 -0.002807 0.012021 -0.002925 0.000000 -0.001557 0.000000
# 3 -0.027439 -0.002925 0.036552 0.000000 -0.006040 0.000000
# 4 0.000000 0.000000 0.000000 0.043511 0.000000 0.009272
# 5 0.000582 -0.001557 -0.006040 0.000000 0.041199 0.000000
# 6 0.000000 0.000000 0.000000 0.009272 0.000000 0.042114
#
#
# Mechanical properties :
#
#
# Convention : Reuss Voigt Hill
#
# Bulk Modulus (GPa) = 52.03943 55.55775 53.79859
# Shear Modulus (GPa) = 17.53586 23.31232 20.42409
#
# Velocity S-wave (km/s) = 3.12708 3.60553 3.37479
# Velocity P-wave (km/s) = 6.48516 6.95084 6.72203
#
# Compressibility (1/GPa) = 0.01921620
#
# Stress axis : x y z
#
# Youngs Moduli (GPa) = 27.03763 83.18855 27.35858
#
# Poissons Ratio (x) = 0.23352 0.75070
# Poissons Ratio (y) = 0.07590 0.08001
# Poissons Ratio (z) = 0.74189 0.24329
#
# Static dielectric constant tensor:
#      x y z
#    x 1.609990 0.000000 -0.018200 
#    y 0.000000 1.677470 0.000000 
#    z -0.018200 0.000000 1.607240 
# 
# From -- ./inp_files/67012.got.cif
#   From: 2010.05.17/outbox.cif.g08.bks.cpg/sg14_34_cif.got.tgz:67012.got - 2010.06.03 17:49:19.
