data_PCOD9239243
_publ_section_title
;
Structure prediction by ZEFSAII (Michael W. Deem and Ramdas Pophale) SiO2 
 PCOD9239243
Probable space group: P 21/C
;
_chemical_formula_sum "Si O2"
_cell_formula_units_Z 20
_cell_length_a 6.830213
_cell_length_b 5.197830
_cell_length_c 26.396017
_cell_angle_alpha 90.000000
_cell_angle_beta 106.404593
_cell_angle_gamma 90.000000
_cell_volume 898.970087
_symmetry_space_group_name_H-M "P 21/C"
_symmetry_group_IT_number 14
_symmetry_cell_setting 'monoclinic'
loop_
_space_group_symop_operation_xyz
x,y,z
-x,1/2+y,1/2-z
-x,-y,-z
x,1/2-y,1/2+z
loop_
_atom_site_type_symbol
_atom_site_label
_atom_site_fract_x
_atom_site_fract_y
_atom_site_fract_z
Si Si1 0.595490 0.194961 0.626206
Si Si2 0.094201 0.748846 0.979865
Si Si3 0.546955 0.306608 0.427133
Si Si4 0.024972 0.894373 0.783459
Si Si5 0.185300 0.398549 0.627948
O O1 0.996396 0.274140 0.583188
O O2 0.570033 0.424154 0.583541
O O3 0.377787 0.206826 0.639347
O O4 0.602821 0.919787 0.600345
O O5 0.331197 0.747310 0.012947
O O6 0.000000 0.500000 0.000000
O O7 0.000000 0.000000 0.000000
O O8 0.722710 0.360038 0.397040
O O9 0.228893 0.773217 0.822671
O O10 0.063471 0.161088 0.756907
O O11 0.879767 0.957422 0.820289
#
# Coordination Sequence:
#
# PCOD9239243 Si02
#       5
#     4   4   4   4   4
#     4  10  21  40  62  87 123 152 204 250 298 362
#     4  10  16  32  62  93 118 155 193 236 299 374
#     4   9  18  37  64  90 122 153 190 243 301 368
#     4  12  28  43  61  88 122 161 214 262 301 354
#     4   9  23  38  67  85 124 161 197 243 311 355
#
# _framework density 22.247679000000002
#
# number of rings (size 3 to 8) (size 9 to 14) (size 15 to 20)
#    1.200    0.800    2.000    1.200    2.800    1.600 
#    0.000    2.000    0.000    0.000    0.000    0.000 
#    0.000    0.000    0.000    0.000    0.000    0.000 
#
# Total GULP energy -111565.422731 kJ/mol
# GULP energy per Si atom -5578.271137 kJ/mol
# Density = 2.219704 g / cm^3
# Si number density = 22.247679 Si / 1000 Ang^3
#
#
#
# Elastic Constant Matrix: (Units=GPa)
#
#
# Indices 1 2 3 4 5 6 
#
# 1 62.3043 11.1087 26.6107 0.0000 5.0472 0.0000
# 2 11.1087 128.6935 27.6127 0.0000 -9.4266 0.0000
# 3 26.6107 27.6127 90.3727 0.0000 -11.0093 0.0000
# 4 0.0000 0.0000 0.0000 27.3532 0.0000 15.4168
# 5 5.0472 -9.4266 -11.0093 0.0000 30.9199 0.0000
# 6 0.0000 0.0000 0.0000 15.4168 0.0000 20.0639
#
#
#
# Elastic Compliance Matrix: (Units=1/GPa)
#
#
# Indices 1 2 3 4 5 6 
#
# 1 0.019245 -0.000756 -0.006112 0.000000 -0.005548 0.000000
# 2 -0.000756 0.008432 -0.002117 0.000000 0.001940 0.000000
# 3 -0.006112 -0.002117 0.014169 0.000000 0.005397 0.000000
# 4 0.000000 0.000000 0.000000 0.064486 0.000000 -0.049550
# 5 -0.005548 0.001940 0.005397 0.000000 0.035761 0.000000
# 6 0.000000 0.000000 0.000000 -0.049550 0.000000 0.087914
#
#
# Mechanical properties :
#
#
# Convention : Reuss Voigt Hill
#
# Bulk Modulus (GPa) = 41.88310 45.78161 43.83235
# Shear Modulus (GPa) = 19.53614 30.06998 24.80306
#
# Velocity S-wave (km/s) = 2.96652 3.68040 3.34257
# Velocity P-wave (km/s) = 5.53176 6.21959 5.88573
#
# Compressibility (1/GPa) = 0.02387598
#
# Stress axis : x y z
#
# Youngs Moduli (GPa) = 51.96200 118.59443 70.57515
#
# Poissons Ratio (x) = 0.08969 0.43132
# Poissons Ratio (y) = 0.03930 0.14943
# Poissons Ratio (z) = 0.31757 0.25110
#
# Static dielectric constant tensor:
#      x y z
#    x 1.870450 0.000000 -0.013720 
#    y 0.000000 1.800190 0.000000 
#    z -0.013720 0.000000 1.829280 
# 
# From -- ./inp_files/78558.got.cif
#   From: 2010.05.17/outbox.cif.g08.bks.cpg/sg14_40_cif.got.tgz:78558.got - 2010.06.03 17:49:19.
