data_PCOD9239013
_publ_section_title
;
Structure prediction by ZEFSAII (Michael W. Deem and Ramdas Pophale) SiO2 
 PCOD9239013
Probable space group: P 2/C
;
_chemical_formula_sum "Si O2"
_cell_formula_units_Z 30
_cell_length_a 12.000000
_cell_length_b 18.000000
_cell_length_c 15.000000
_cell_angle_alpha 90.000000
_cell_angle_beta 30.000000
_cell_angle_gamma 90.000000
_cell_volume 1620.000000
_symmetry_space_group_name_H-M "P 2/C"
_symmetry_group_IT_number 13
_symmetry_cell_setting 'monoclinic'
loop_
_space_group_symop_operation_xyz
x,y,z
-x,y,1/2-z
-x,-y,-z
x,-y,1/2+z
loop_
_atom_site_type_symbol
_atom_site_label
_atom_site_fract_x
_atom_site_fract_y
_atom_site_fract_z
Si Si1 0.718967 0.743547 0.035612
Si Si2 0.310794 0.884049 0.172758
Si Si3 0.500000 0.488036 0.250000
Si Si4 0.787487 0.043101 0.335073
Si Si5 0.929097 0.582220 0.900859
Si Si6 0.579863 0.747925 0.925126
Si Si7 0.419999 0.427348 0.115395
Si Si8 0.964039 0.844581 0.576311
O O1 0.500000 0.736922 0.250000
O O2 0.859606 0.668209 0.949025
O O3 0.672797 0.751022 0.962531
O O4 0.857146 0.811926 0.978133
O O5 0.118725 0.863246 0.380763
O O6 0.233772 0.954504 0.166642
O O7 0.557168 0.918566 0.031352
O O8 0.376986 0.808159 0.073524
O O9 0.279886 0.538440 0.414307
O O10 0.497557 0.440755 0.161827
O O11 0.000000 0.056575 0.250000
O O12 0.846626 0.082642 0.199416
O O13 0.000000 0.561699 0.750000
O O14 0.152794 0.569590 0.800188
O O15 0.525018 0.659236 0.950028
O O16 0.761540 0.781885 0.727748
O O17 0.500000 0.500000 0.000000
#
# Coordination Sequence:
#
# PCOD9239013 Si02
#       8
#     4   4   2   4   4   4   4   4
#     4  12  20  34  64  95 126 155 200 262 335 373
#     4  10  22  40  59  88 125 160 203 254 316 373
#     4  12  26  44  64  92 130 176 214 262 322 380
#     4  10  22  38  60  88 123 160 204 254 304 376
#     4  12  22  42  66  97 127 166 213 268 327 376
#     4  11  22  39  59  91 127 162 204 266 312 373
#     4  12  25  44  68  93 133 169 218 271 319 386
#     4  11  20  35  62  94 122 154 204 261 316 371
#
# _framework density 18.518519000000001
#
# number of rings (size 3 to 8) (size 9 to 14) (size 15 to 20)
#    0.000    0.800    6.000    2.800    0.000    0.000 
#    2.400    1.333    0.000    0.000    0.000    0.000 
#    0.000    0.000    0.000    0.000    0.000    0.000 
#
# Total GULP energy -167098.021223 kJ/mol
# GULP energy per Si atom -5569.934041 kJ/mol
# Density = 1.847637 g / cm^3
# Si number density = 18.518519 Si / 1000 Ang^3
#
#
#
# Elastic Constant Matrix: (Units=GPa)
#
#
# Indices 1 2 3 4 5 6 
#
# 1 41.8358 20.6688 6.3741 0.0000 6.8780 0.0000
# 2 20.6688 148.3911 42.1882 0.0000 6.6686 0.0000
# 3 6.3741 42.1882 138.3562 0.0000 8.9325 0.0000
# 4 0.0000 0.0000 0.0000 44.8403 0.0000 -2.5230
# 5 6.8780 6.6686 8.9325 0.0000 30.3540 0.0000
# 6 0.0000 0.0000 0.0000 -2.5230 0.0000 27.3050
#
#
#
# Elastic Compliance Matrix: (Units=1/GPa)
#
#
# Indices 1 2 3 4 5 6 
#
# 1 0.026474 -0.003504 0.000190 0.000000 -0.005285 0.000000
# 2 -0.003504 0.007871 -0.002220 0.000000 -0.000282 0.000000
# 3 0.000190 -0.002220 0.008020 0.000000 -0.001915 0.000000
# 4 0.000000 0.000000 0.000000 0.022418 0.000000 0.002071
# 5 -0.005285 -0.000282 -0.001915 0.000000 0.034768 0.000000
# 6 0.000000 0.000000 0.000000 0.002071 0.000000 0.036815
#
#
# Mechanical properties :
#
#
# Convention : Reuss Voigt Hill
#
# Bulk Modulus (GPa) = 31.95318 51.89392 41.92355
# Shear Modulus (GPa) = 31.67250 37.78997 34.73124
#
# Velocity S-wave (km/s) = 4.14008 4.52227 4.33539
# Velocity P-wave (km/s) = 6.33608 7.43985 6.91004
#
# Compressibility (1/GPa) = 0.03129579
#
# Stress axis : x y z
#
# Youngs Moduli (GPa) = 37.77292 127.04956 124.69323
#
# Poissons Ratio (x) = 0.44518 -0.02369
# Poissons Ratio (y) = 0.13236 0.27687
# Poissons Ratio (z) = -0.00718 0.28210
#
# Static dielectric constant tensor:
#      x y z
#    x 1.676640 0.000000 -0.026120 
#    y 0.000000 1.674170 0.000000 
#    z -0.026120 0.000000 1.664080 
# 
# From -- ./inp_files/51615.got.cif
#   From: 2010.05.17/outbox.ucp.g08.bks.cvg/sg13_26_cif.got.tgz:51615.got - 2010.06.11 12:23:55.
