data_PCOD9239008
_publ_section_title
;
Structure prediction by ZEFSAII (Michael W. Deem and Ramdas Pophale) SiO2 
 PCOD9239008
Probable space group: P 2/C
;
_chemical_formula_sum "Si O2"
_cell_formula_units_Z 28
_cell_length_a 15.000000
_cell_length_b 12.000000
_cell_length_c 9.000000
_cell_angle_alpha 90.000000
_cell_angle_beta 120.000000
_cell_angle_gamma 90.000000
_cell_volume 1402.961154
_symmetry_space_group_name_H-M "P 2/C"
_symmetry_group_IT_number 13
_symmetry_cell_setting 'monoclinic'
loop_
_space_group_symop_operation_xyz
x,y,z
-x,y,1/2-z
-x,-y,-z
x,-y,1/2+z
loop_
_atom_site_type_symbol
_atom_site_label
_atom_site_fract_x
_atom_site_fract_y
_atom_site_fract_z
Si Si1 0.493945 0.225287 0.569333
Si Si2 0.401767 0.049480 0.263580
Si Si3 0.061539 0.589829 0.952497
Si Si4 0.896180 0.748116 0.251014
Si Si5 0.688870 0.141959 0.609232
Si Si6 0.610281 0.558850 0.615441
Si Si7 0.246909 0.552765 0.495558
O O1 0.500000 0.213255 0.750000
O O2 0.447788 0.126465 0.431149
O O3 0.609626 0.239864 0.596755
O O4 0.413590 0.323228 0.476176
O O5 0.500000 0.010456 0.250000
O O6 0.340965 0.953697 0.297785
O O7 0.337520 0.112538 0.083413
O O8 0.000000 0.609358 0.750000
O O9 0.071439 0.695210 0.065879
O O10 0.172529 0.540561 0.003103
O O11 0.000000 0.500000 0.000000
O O12 0.809534 0.838019 0.213350
O O13 0.000000 0.778602 0.250000
O O14 0.830012 0.654718 0.104463
O O15 0.500000 0.500000 0.500000
O O16 0.655850 0.577185 0.817177
O O17 0.700528 0.494521 0.607200
#
# Coordination Sequence:
#
# PCOD9239008 Si02
#       7
#     4   4   4   4   4   4   4
#     4  11  22  38  61  94 130 167 217 256 313 394
#     4  10  21  43  69  93 125 167 210 262 324 398
#     4  12  21  42  66  90 123 166 225 265 298 375
#     4  12  25  42  66  95 124 167 222 270 319 380
#     4  11  23  42  67  94 123 163 211 272 328 377
#     4  12  25  37  55  93 138 176 207 256 314 380
#     4  12  22  40  60  86 131 177 209 253 313 370
#
# _framework density 19.957787
#
# number of rings (size 3 to 8) (size 9 to 14) (size 15 to 20)
#    0.000    0.571    4.286    6.000    2.000    2.286 
#    0.000    0.714    0.000    0.000    0.000    0.000 
#    0.000    0.000    0.000    0.000    0.000    0.000 
#
# Total GULP energy -156268.139635 kJ/mol
# GULP energy per Si atom -5581.004987 kJ/mol
# Density = 1.991236 g / cm^3
# Si number density = 19.957787 Si / 1000 Ang^3
#
#
#
# Elastic Constant Matrix: (Units=GPa)
#
#
# Indices 1 2 3 4 5 6 
#
# 1 149.2770 43.3023 41.7870 0.0000 9.8043 0.0000
# 2 43.3023 54.4732 38.2324 0.0000 -2.9606 0.0000
# 3 41.7870 38.2324 183.4679 0.0000 -7.6745 0.0000
# 4 0.0000 0.0000 0.0000 14.4825 0.0000 9.4809
# 5 9.8043 -2.9606 -7.6745 0.0000 36.0788 0.0000
# 6 0.0000 0.0000 0.0000 9.4809 0.0000 23.5077
#
#
#
# Elastic Compliance Matrix: (Units=1/GPa)
#
#
# Indices 1 2 3 4 5 6 
#
# 1 0.009124 -0.006881 -0.000778 0.000000 -0.003210 0.000000
# 2 -0.006881 0.026716 -0.003865 0.000000 0.003240 0.000000
# 3 -0.000778 -0.003865 0.006486 0.000000 0.001274 0.000000
# 4 0.000000 0.000000 0.000000 0.093820 0.000000 -0.037839
# 5 -0.003210 0.003240 0.001274 0.000000 0.029126 0.000000
# 6 0.000000 0.000000 0.000000 -0.037839 0.000000 0.057800
#
#
# Mechanical properties :
#
#
# Convention : Reuss Voigt Hill
#
# Bulk Modulus (GPa) = 51.87122 70.42906 61.15014
# Shear Modulus (GPa) = 19.79838 32.40688 26.10263
#
# Velocity S-wave (km/s) = 3.15304 4.03398 3.62040
# Velocity P-wave (km/s) = 6.26917 7.55400 6.94137
#
# Compressibility (1/GPa) = 0.01927851
#
# Stress axis : x y z
#
# Youngs Moduli (GPa) = 109.60570 37.43107 154.16736
#
# Poissons Ratio (x) = 0.25755 0.12001
# Poissons Ratio (y) = 0.75417 0.59579
# Poissons Ratio (z) = 0.08532 0.14465
#
# Static dielectric constant tensor:
#      x y z
#    x 1.680650 0.000000 -0.034000 
#    y 0.000000 1.812430 0.000000 
#    z -0.034000 0.000000 1.519350 
# 
# From -- ./inp_files/19123.got.cif
#   From: 2010.05.17/outbox.ucp.g08.bks.cvg/sg13_10_cif.got.tgz:19123.got - 2010.06.11 12:23:55.
