data_PCOD9239695
_publ_section_title
;
Structure prediction by ZEFSAII (Michael W. Deem and Ramdas Pophale) SiO2 
 PCOD9239695
Probable space group: P 21/C
;
_chemical_formula_sum "Si O2"
_cell_formula_units_Z 32
_cell_length_a 14.859717
_cell_length_b 14.793499
_cell_length_c 9.941992
_cell_angle_alpha 90.000000
_cell_angle_beta 114.657708
_cell_angle_gamma 90.000000
_cell_volume 1986.236675
_symmetry_space_group_name_H-M "P 21/C"
_symmetry_group_IT_number 14
_symmetry_cell_setting 'monoclinic'
loop_
_space_group_symop_operation_xyz
x,y,z
-x,1/2+y,1/2-z
-x,-y,-z
x,1/2-y,1/2+z
loop_
_atom_site_type_symbol
_atom_site_label
_atom_site_fract_x
_atom_site_fract_y
_atom_site_fract_z
Si Si1 0.742949 0.888011 0.900429
Si Si2 0.584805 0.765427 0.378077
Si Si3 0.165633 0.992299 0.589416
Si Si4 0.507345 0.854347 0.066947
Si Si5 0.334367 0.507701 0.410584
Si Si6 0.084805 0.265427 0.378077
Si Si7 0.757051 0.611989 0.099571
Si Si8 0.007345 0.145653 0.566947
O O1 0.659101 0.809928 0.862056
O O2 0.750000 0.915910 0.750000
O O3 0.844443 0.841677 0.013410
O O4 0.713284 0.967265 0.983659
O O5 0.520333 0.806759 0.218325
O O6 0.523397 0.717124 0.457180
O O7 0.655557 0.841677 0.486590
O O8 0.213284 0.032735 0.483659
O O9 0.096621 0.072755 0.606258
O O10 0.250000 0.970799 0.750000
O O11 0.093854 0.909028 0.513397
O O12 0.596621 0.927245 0.106258
O O13 0.406146 0.909028 0.986603
O O14 0.159101 0.190072 0.362056
O O15 0.023397 0.217124 0.457180
O O16 0.020333 0.306759 0.218325
#
# Coordination Sequence:
#
# PCOD9239695 Si02
#       8
#     4   4   4   4   4   4   4   4
#     4  10  18  30  54  82 105 134 176 224 260 301
#     4  10  18  31  53  81 107 132 181 219 258 305
#     4  10  20  35  53  78 113 142 170 213 274 316
#     4  10  20  34  54  81 108 140 175 219 263 314
#     4  10  20  35  53  78 113 142 170 213 274 316
#     4  10  18  31  53  81 107 132 181 219 258 305
#     4  10  18  30  54  82 105 134 176 224 260 301
#     4  10  20  34  54  81 108 140 175 219 263 314
#
# _framework density 16.110869000000001
#
# number of rings (size 3 to 8) (size 9 to 14) (size 15 to 20)
#    0.000    2.000    5.000    0.000    0.000    0.000 
#    0.000    5.000    0.000    0.000    0.000    0.000 
#    0.000    0.000    0.000    0.000    0.000    0.000 
#
# Total GULP energy -178534.415201 kJ/mol
# GULP energy per Si atom -5579.200475 kJ/mol
# Density = 1.607420 g / cm^3
# Si number density = 16.110869 Si / 1000 Ang^3
#
#
#
# Elastic Constant Matrix: (Units=GPa)
#
#
# Indices 1 2 3 4 5 6 
#
# 1 80.9700 60.9494 77.8196 0.0000 -2.0673 0.0000
# 2 60.9494 83.4284 79.5126 0.0000 1.0357 0.0000
# 3 77.8196 79.5126 179.1546 0.0000 -2.8590 0.0000
# 4 0.0000 0.0000 0.0000 17.8287 0.0000 -3.9165
# 5 -2.0673 1.0357 -2.8590 0.0000 21.3214 0.0000
# 6 0.0000 0.0000 0.0000 -3.9165 0.0000 29.0074
#
#
#
# Elastic Compliance Matrix: (Units=1/GPa)
#
#
# Indices 1 2 3 4 5 6 
#
# 1 0.030797 -0.017042 -0.005765 0.000000 0.003041 0.000000
# 2 -0.017042 0.030312 -0.006113 0.000000 -0.003945 0.000000
# 3 -0.005765 -0.006113 0.010818 0.000000 0.001189 0.000000
# 4 0.000000 0.000000 0.000000 0.057804 0.000000 0.007804
# 5 0.003041 -0.003945 0.001189 0.000000 0.047547 0.000000
# 6 0.000000 0.000000 0.000000 0.007804 0.000000 0.035528
#
#
# Mechanical properties :
#
#
# Convention : Reuss Voigt Hill
#
# Bulk Modulus (GPa) = 70.99367 86.67958 78.83662
# Shear Modulus (GPa) = 18.15916 21.98295 20.07106
#
# Velocity S-wave (km/s) = 3.36093 3.69789 3.53343
# Velocity P-wave (km/s) = 7.69561 8.49419 8.10474
#
# Compressibility (1/GPa) = 0.01408576
#
# Stress axis : x y z
#
# Youngs Moduli (GPa) = 32.47058 32.98994 92.43672
#
# Poissons Ratio (x) = 0.56223 0.53290
# Poissons Ratio (y) = 0.55338 0.56511
# Poissons Ratio (z) = 0.18720 0.20168
#
# Static dielectric constant tensor:
#      x y z
#    x 1.527110 0.000000 -0.002810 
#    y 0.000000 1.525950 0.000000 
#    z -0.002810 0.000000 1.513580 
# 
# From -- ./inp_files/13347.got.cif
#   From: 2010.05.17/outbox.cif.g08.bks.cpg/sg14_7_cif.got.tgz:13347.got - 2010.06.03 17:49:19.
