data_PCOD9239983
_publ_section_title
;
Structure prediction by ZEFSAII (Michael W. Deem and Ramdas Pophale) SiO2 
 PCOD9239983
Probable space group: P 21/C
;
_chemical_formula_sum "Si O2"
_cell_formula_units_Z 20
_cell_length_a 11.302049
_cell_length_b 17.394966
_cell_length_c 5.643068
_cell_angle_alpha 90.000000
_cell_angle_beta 91.353893
_cell_angle_gamma 90.000000
_cell_volume 1109.110441
_symmetry_space_group_name_H-M "P 21/C"
_symmetry_group_IT_number 14
_symmetry_cell_setting 'monoclinic'
loop_
_space_group_symop_operation_xyz
x,y,z
-x,1/2+y,1/2-z
-x,-y,-z
x,1/2-y,1/2+z
loop_
_atom_site_type_symbol
_atom_site_label
_atom_site_fract_x
_atom_site_fract_y
_atom_site_fract_z
Si Si1 0.077650 0.454750 0.696076
Si Si2 0.519020 0.066945 0.689099
Si Si3 0.699084 0.983720 0.047705
Si Si4 0.330882 0.795716 0.455263
Si Si5 0.855807 0.416576 0.917623
O O1 0.200348 0.433319 0.577091
O O2 0.000000 0.500000 0.500000
O O3 0.982612 0.396662 0.804910
O O4 0.115919 0.516791 0.893635
O O5 0.396637 0.069509 0.826602
O O6 0.561658 0.143756 0.563793
O O7 0.500000 0.000000 0.500000
O O8 0.623358 0.037098 0.866550
O O9 0.767040 0.042735 0.225993
O O10 0.334993 0.751660 0.708299
O O11 0.211073 0.846223 0.465239
#
# Coordination Sequence:
#
# PCOD9239983 Si02
#       5
#     4   4   4   4   4
#     4   9  18  31  60  86 116 144 198 260 306 346
#     4  11  21  35  61  86 124 161 216 259 305 363
#     4  10  18  33  60  89 118 153 206 274 298 351
#     4  12  26  40  60  90 133 170 202 254 328 383
#     4  10  19  36  55  92 117 155 202 258 305 364
#
# _framework density 18.032468999999999
#
# number of rings (size 3 to 8) (size 9 to 14) (size 15 to 20)
#    0.000    1.600    4.000    1.200    5.600    0.000 
#    0.000    0.000    0.000    2.400    0.000    0.000 
#    0.000    0.000    0.000    0.000    0.000    0.000 
#
# Total GULP energy -111435.281356 kJ/mol
# GULP energy per Si atom -5571.764068 kJ/mol
# Density = 1.799143 g / cm^3
# Si number density = 18.032469 Si / 1000 Ang^3
#
#
#
# Elastic Constant Matrix: (Units=GPa)
#
#
# Indices 1 2 3 4 5 6 
#
# 1 162.1454 46.2935 64.5823 0.0000 -40.1325 0.0000
# 2 46.2935 76.0356 48.3936 0.0000 -15.9189 0.0000
# 3 64.5823 48.3936 125.0974 0.0000 0.2232 0.0000
# 4 0.0000 0.0000 0.0000 31.7176 0.0000 -15.1154
# 5 -40.1325 -15.9189 0.2232 0.0000 59.9544 0.0000
# 6 0.0000 0.0000 0.0000 -15.1154 0.0000 31.9171
#
#
#
# Elastic Compliance Matrix: (Units=1/GPa)
#
#
# Indices 1 2 3 4 5 6 
#
# 1 0.010032 -0.001998 -0.004417 0.000000 0.006201 0.000000
# 2 -0.001998 0.019251 -0.006422 0.000000 0.003798 0.000000
# 3 -0.004417 -0.006422 0.012767 0.000000 -0.004710 0.000000
# 4 0.000000 0.000000 0.000000 0.040718 0.000000 0.019283
# 5 0.006201 0.003798 -0.004710 0.000000 0.021856 0.000000
# 6 0.000000 0.000000 0.000000 0.019283 0.000000 0.040463
#
#
# Mechanical properties :
#
#
# Convention : Reuss Voigt Hill
#
# Bulk Modulus (GPa) = 61.07050 75.75748 68.41399
# Shear Modulus (GPa) = 28.37342 38.31841 33.34591
#
# Velocity S-wave (km/s) = 3.97099 4.61474 4.30492
# Velocity P-wave (km/s) = 7.41387 8.39627 7.92032
#
# Compressibility (1/GPa) = 0.01637452
#
# Stress axis : x y z
#
# Youngs Moduli (GPa) = 99.68109 51.94520 78.32685
#
# Poissons Ratio (x) = 0.10380 0.34598
# Poissons Ratio (y) = 0.19919 0.50304
# Poissons Ratio (z) = 0.44030 0.33361
#
# Static dielectric constant tensor:
#      x y z
#    x 1.663870 0.000000 -0.063570 
#    y 0.000000 1.591060 0.000000 
#    z -0.063570 0.000000 1.684710 
# 
# From -- ./inp_files/2520.got.cif
#   From: 2010.05.17/outbox.cif.g08.bks.cpg/sg14_2_cif.got.tgz:2520.got - 2010.06.03 17:49:19.
