data_PCOD9239493
_publ_section_title
;
Structure prediction by ZEFSAII (Michael W. Deem and Ramdas Pophale) SiO2 
 PCOD9239493
Probable space group: P 21/C
;
_chemical_formula_sum "Si O2"
_cell_formula_units_Z 28
_cell_length_a 10.112063
_cell_length_b 19.393406
_cell_length_c 7.450644
_cell_angle_alpha 90.000000
_cell_angle_beta 43.579491
_cell_angle_gamma 90.000000
_cell_volume 1007.242232
_symmetry_space_group_name_H-M "P 21/C"
_symmetry_group_IT_number 14
_symmetry_cell_setting 'monoclinic'
loop_
_space_group_symop_operation_xyz
x,y,z
-x,1/2+y,1/2-z
-x,-y,-z
x,1/2-y,1/2+z
loop_
_atom_site_type_symbol
_atom_site_label
_atom_site_fract_x
_atom_site_fract_y
_atom_site_fract_z
Si Si1 0.902836 0.579245 0.833254
Si Si2 0.692799 0.022091 0.060872
Si Si3 0.575188 0.909807 0.930072
Si Si4 0.609564 0.140828 0.386130
Si Si5 0.004071 0.692923 0.011577
Si Si6 0.442939 0.719880 0.699841
Si Si7 0.060279 0.155935 0.032029
O O1 0.076207 0.524746 0.650278
O O2 0.832784 0.603068 0.705478
O O3 0.731042 0.561516 0.135542
O O4 0.991213 0.646143 0.847906
O O5 0.596206 0.064251 0.318678
O O6 0.610622 0.948693 0.083081
O O7 0.629129 0.067302 0.949033
O O8 0.574419 0.827733 0.945473
O O9 0.531433 0.179712 0.638738
O O10 0.540250 0.198028 0.309669
O O11 0.838026 0.142251 0.201163
O O12 0.926877 0.654827 0.266156
O O13 0.905869 0.765815 0.064598
O O14 0.224595 0.709509 0.845412
#
# Coordination Sequence:
#
# PCOD9239493 Si02
#       7
#     4   4   4   4   4   4   4
#     4  11  21  39  62  87 122 162 205 250 303 363
#     4  10  22  43  63  84 124 164 205 247 302 368
#     4  11  23  39  63  91 117 165 205 244 309 368
#     4   9  19  35  64  86 120 162 196 257 303 360
#     4  10  17  34  59  84 123 162 194 254 306 361
#     4  10  19  36  60  93 119 153 208 247 308 362
#     4   9  18  32  58  89 119 161 204 243 312 364
#
# _framework density 27.798677000000001
#
# number of rings (size 3 to 8) (size 9 to 14) (size 15 to 20)
#    0.000    2.000    2.857    1.286    4.000    0.571 
#    7.714    0.000    0.000    3.429    0.000    0.000 
#    0.000    0.000    0.000    0.000    0.000    0.000 
#
# Total GULP energy -156716.905066 kJ/mol
# GULP energy per Si atom -5597.032324 kJ/mol
# Density = 2.773541 g / cm^3
# Si number density = 27.798677 Si / 1000 Ang^3
#
#
#
# Elastic Constant Matrix: (Units=GPa)
#
#
# Indices 1 2 3 4 5 6 
#
# 1 100.7858 -0.8299 31.8736 0.0000 13.6509 0.0000
# 2 -0.8299 87.5496 17.3117 0.0000 -9.3904 0.0000
# 3 31.8736 17.3117 87.3279 0.0000 11.1768 0.0000
# 4 0.0000 0.0000 0.0000 37.8776 0.0000 6.1497
# 5 13.6509 -9.3904 11.1768 0.0000 49.1422 0.0000
# 6 0.0000 0.0000 0.0000 6.1497 0.0000 35.9698
#
#
#
# Elastic Compliance Matrix: (Units=1/GPa)
#
#
# Indices 1 2 3 4 5 6 
#
# 1 0.011501 0.000682 -0.004059 0.000000 -0.002141 0.000000
# 2 0.000682 0.012341 -0.003062 0.000000 0.002865 0.000000
# 3 -0.004059 -0.003062 0.013874 0.000000 -0.002613 0.000000
# 4 0.000000 0.000000 0.000000 0.027155 0.000000 -0.004643
# 5 -0.002141 0.002865 -0.002613 0.000000 0.022086 0.000000
# 6 0.000000 0.000000 0.000000 -0.004643 0.000000 0.028595
#
#
# Mechanical properties :
#
#
# Convention : Reuss Voigt Hill
#
# Bulk Modulus (GPa) = 40.26019 41.37490 40.81755
# Shear Modulus (GPa) = 36.57382 39.75179 38.16280
#
# Velocity S-wave (km/s) = 3.63115 3.78562 3.70919
# Velocity P-wave (km/s) = 5.66520 5.83301 5.74972
#
# Compressibility (1/GPa) = 0.02483843
#
# Stress axis : x y z
#
# Youngs Moduli (GPa) = 86.94632 81.02823 72.07700
#
# Poissons Ratio (x) = -0.05526 0.29256
# Poissons Ratio (y) = -0.05929 0.22071
# Poissons Ratio (z) = 0.35291 0.24812
#
# Static dielectric constant tensor:
#      x y z
#    x 2.152970 0.000000 0.004350 
#    y 0.000000 2.085690 0.000000 
#    z 0.004350 0.000000 2.238400 
# 
# From -- ./inp_files/14469.got.cif
#   From: 2010.05.17/outbox.cif.g08.bks.cpg/sg14_8_cif.got.tgz:14469.got - 2010.06.03 17:49:19.
