data_PCOD9239239
_publ_section_title
;
Structure prediction by ZEFSAII (Michael W. Deem and Ramdas Pophale) SiO2 
 PCOD9239239
Probable space group: P 21/C
;
_chemical_formula_sum "Si O2"
_cell_formula_units_Z 26
_cell_length_a 19.908850
_cell_length_b 11.729452
_cell_length_c 11.753943
_cell_angle_alpha 90.000000
_cell_angle_beta 20.998188
_cell_angle_gamma 90.000000
_cell_volume 983.559997
_symmetry_space_group_name_H-M "P 21/C"
_symmetry_group_IT_number 14
_symmetry_cell_setting 'monoclinic'
loop_
_space_group_symop_operation_xyz
x,y,z
-x,1/2+y,1/2-z
-x,-y,-z
x,1/2-y,1/2+z
loop_
_atom_site_type_symbol
_atom_site_label
_atom_site_fract_x
_atom_site_fract_y
_atom_site_fract_z
Si Si1 0.719570 0.581648 0.291882
Si Si2 0.500000 0.000000 0.500000
Si Si3 0.302802 0.840580 0.458763
Si Si4 0.731176 0.807480 0.017469
Si Si5 0.985826 0.731265 0.303298
Si Si6 0.743745 0.970340 0.289808
Si Si7 0.566650 0.358690 0.597134
O O1 0.513088 0.628256 0.586899
O O2 0.748909 0.622293 0.374374
O O3 0.887799 0.644842 0.964880
O O4 0.692853 0.446906 0.329197
O O5 0.594606 0.879034 0.313131
O O6 0.709449 0.038296 0.228212
O O7 0.327160 0.746615 0.518060
O O8 0.220516 0.951460 0.656193
O O9 0.185534 0.786492 0.542860
O O10 0.931123 0.799558 0.761511
O O11 0.621396 0.689820 0.164607
O O12 0.867557 0.640483 0.570305
O O13 0.522315 0.930930 0.655438
#
# Coordination Sequence:
#
# PCOD9239239 Si02
#       7
#     4   2   4   4   4   4   4
#     4  10  21  41  62  82 123 165 192 250 307 357
#     4  10  16  32  62  92 102 150 210 242 284 354
#     4  10  20  37  57  89 111 157 202 239 299 367
#     4  10  20  36  59  90 115 151 208 248 287 363
#     4  11  22  36  61  87 119 153 200 254 297 348
#     4  10  18  35  62  85 114 151 194 251 295 344
#     4  10  18  38  60  78 123 158 190 238 309 355
#
# _framework density 26.434585999999999
#
# number of rings (size 3 to 8) (size 9 to 14) (size 15 to 20)
#    0.000    1.846    7.692    0.462    0.000    1.231 
#    0.000    7.692    0.000    0.000    0.000    0.000 
#    0.000    0.000    0.000    0.000    0.000    0.000 
#
# Total GULP energy -144959.268124 kJ/mol
# GULP energy per Si atom -5575.356466 kJ/mol
# Density = 2.637442 g / cm^3
# Si number density = 26.434586 Si / 1000 Ang^3
#
#
#
# Elastic Constant Matrix: (Units=GPa)
#
#
# Indices 1 2 3 4 5 6 
#
# 1 86.5459 14.5455 37.8527 0.0000 -39.0895 0.0000
# 2 14.5455 119.6935 37.7841 0.0000 -12.0036 0.0000
# 3 37.8527 37.7841 94.5035 0.0000 -25.5910 0.0000
# 4 0.0000 0.0000 0.0000 23.0764 0.0000 3.4353
# 5 -39.0895 -12.0036 -25.5910 0.0000 40.1331 0.0000
# 6 0.0000 0.0000 0.0000 3.4353 0.0000 7.8390
#
#
#
# Elastic Compliance Matrix: (Units=1/GPa)
#
#
# Indices 1 2 3 4 5 6 
#
# 1 0.021602 0.000440 -0.003741 0.000000 0.018786 0.000000
# 2 0.000440 0.009579 -0.003764 0.000000 0.000893 0.000000
# 3 -0.003741 -0.003764 0.014859 0.000000 0.004705 0.000000
# 4 0.000000 0.000000 0.000000 0.046359 0.000000 -0.020316
# 5 0.018786 0.000893 0.004705 0.000000 0.046482 0.000000
# 6 0.000000 0.000000 0.000000 -0.020316 0.000000 0.136470
#
#
# Mechanical properties :
#
#
# Convention : Reuss Voigt Hill
#
# Bulk Modulus (GPa) = 31.33885 53.45638 42.39762
# Shear Modulus (GPa) = 16.66011 28.24709 22.45360
#
# Velocity S-wave (km/s) = 2.51318 3.27244 2.91761
# Velocity P-wave (km/s) = 4.50582 5.87746 5.23674
#
# Compressibility (1/GPa) = 0.03190928
#
# Stress axis : x y z
#
# Youngs Moduli (GPa) = 46.29223 104.39456 67.29812
#
# Poissons Ratio (x) = -0.04592 0.25177
# Poissons Ratio (y) = -0.02036 0.25332
# Poissons Ratio (z) = 0.17319 0.39296
#
# Static dielectric constant tensor:
#      x y z
#    x 1.591450 0.000000 -0.063680 
#    y 0.000000 1.923620 0.000000 
#    z -0.063680 0.000000 2.057180 
# 
# From -- ./inp_files/50448.got.cif
#   From: 2010.05.17/outbox.cif.g08.bks.cpg/sg14_26_cif.got.tgz:50448.got - 2010.06.03 17:49:19.
