data_PCOD9239074
_publ_section_title
;
Structure prediction by ZEFSAII (Michael W. Deem and Ramdas Pophale) SiO2 
 PCOD9239074
Probable space group: P 2/C
;
_chemical_formula_sum "Si O2"
_cell_formula_units_Z 30
_cell_length_a 12.000000
_cell_length_b 6.000000
_cell_length_c 21.000000
_cell_angle_alpha 90.000000
_cell_angle_beta 110.000000
_cell_angle_gamma 90.000000
_cell_volume 1420.815243
_symmetry_space_group_name_H-M "P 2/C"
_symmetry_group_IT_number 13
_symmetry_cell_setting 'monoclinic'
loop_
_space_group_symop_operation_xyz
x,y,z
-x,y,1/2-z
-x,-y,-z
x,-y,1/2+z
loop_
_atom_site_type_symbol
_atom_site_label
_atom_site_fract_x
_atom_site_fract_y
_atom_site_fract_z
Si Si1 0.500000 0.996001 0.750000
Si Si2 0.932490 0.080896 0.922020
Si Si3 0.235763 0.767609 0.692186
Si Si4 0.627781 0.024872 0.558299
Si Si5 0.482862 0.663595 0.361847
Si Si6 0.728976 0.624271 0.663056
Si Si7 0.251083 0.438445 0.575188
Si Si8 0.835154 0.327255 0.569215
O O1 0.498801 0.158927 0.689446
O O2 0.370227 0.874754 0.721373
O O3 0.817564 0.212872 0.923944
O O4 0.031408 0.233048 0.906269
O O5 0.872120 0.912300 0.859696
O O6 0.000000 0.000000 0.000000
O O7 0.204124 0.704976 0.759589
O O8 0.245564 0.574788 0.640444
O O9 0.675941 0.813643 0.606180
O O10 0.500000 0.000000 0.500000
O O11 0.593694 0.215973 0.600360
O O12 0.739877 0.124941 0.543048
O O13 0.391384 0.471224 0.326818
O O14 0.609572 0.586597 0.412190
O O15 0.803710 0.466895 0.628017
O O16 0.186964 0.537247 0.500376
#
# Coordination Sequence:
#
# PCOD9239074 Si02
#       8
#     2   4   4   4   4   4   4   4
#     4  12  22  44  72 110 150 180 238 310 376 434
#     4  12  28  49  76 106 143 192 259 302 358 434
#     4  12  26  45  77 107 147 195 239 311 370 434
#     4  11  24  42  70 102 148 189 242 290 366 437
#     4  11  23  40  68 109 144 182 234 297 368 443
#     4  11  25  46  70 106 152 189 241 301 375 436
#     4  12  25  45  77 109 143 191 245 304 367 436
#     4  11  27  45  73 104 145 195 246 301 355 446
#
# _framework density 21.114637999999999
#
# number of rings (size 3 to 8) (size 9 to 14) (size 15 to 20)
#    0.000    0.533    4.000    3.600    5.600    2.133 
#    0.000    4.000    0.000    0.000    0.000    0.000 
#    0.000    0.000    0.000    0.000    0.000    0.000 
#
# Total GULP energy -167267.293963 kJ/mol
# GULP energy per Si atom -5575.576465 kJ/mol
# Density = 2.106658 g / cm^3
# Si number density = 21.114638 Si / 1000 Ang^3
#
#
#
# Elastic Constant Matrix: (Units=GPa)
#
#
# Indices 1 2 3 4 5 6 
#
# 1 63.3830 16.9543 39.2899 0.0000 9.5256 0.0000
# 2 16.9543 56.2247 47.5212 0.0000 6.8163 0.0000
# 3 39.2899 47.5212 89.4999 0.0000 -2.8725 0.0000
# 4 0.0000 0.0000 0.0000 43.6350 0.0000 4.2908
# 5 9.5256 6.8163 -2.8725 0.0000 34.4117 0.0000
# 6 0.0000 0.0000 0.0000 4.2908 0.0000 32.8153
#
#
#
# Elastic Compliance Matrix: (Units=1/GPa)
#
#
# Indices 1 2 3 4 5 6 
#
# 1 0.024229 0.005461 -0.013823 0.000000 -0.008943 0.000000
# 2 0.005461 0.035755 -0.021716 0.000000 -0.010407 0.000000
# 3 -0.013823 -0.021716 0.029111 0.000000 0.010558 0.000000
# 4 0.000000 0.000000 0.000000 0.023216 0.000000 -0.003036
# 5 -0.008943 -0.010407 0.010558 0.000000 0.034478 0.000000
# 6 0.000000 0.000000 0.000000 -0.003036 0.000000 0.030871
#
#
# Mechanical properties :
#
#
# Convention : Reuss Voigt Hill
#
# Bulk Modulus (GPa) = 34.55556 46.29316 40.42436
# Shear Modulus (GPa) = 20.20515 29.19520 24.70018
#
# Velocity S-wave (km/s) = 3.09678 3.72250 3.42396
# Velocity P-wave (km/s) = 5.40259 6.35990 5.90069
#
# Compressibility (1/GPa) = 0.02893890
#
# Stress axis : x y z
#
# Youngs Moduli (GPa) = 41.27315 27.96794 34.35146
#
# Poissons Ratio (x) = -0.15274 0.47484
# Poissons Ratio (y) = -0.22541 0.74598
# Poissons Ratio (z) = 0.57052 0.60736
#
# Static dielectric constant tensor:
#      x y z
#    x 1.816170 0.000000 0.030990 
#    y 0.000000 2.037770 0.000000 
#    z 0.030990 0.000000 1.809020 
# 
# From -- ./inp_files/77569.got.cif
#   From: 2010.05.17/outbox.ucp.g08.bks.cvg/sg13_39_cif.got.tgz:77569.got - 2010.06.11 12:23:55.
