data_PCOD9239395
_publ_section_title
;
Structure prediction by ZEFSAII (Michael W. Deem and Ramdas Pophale) SiO2 
 PCOD9239395
Probable space group: P 21/C
;
_chemical_formula_sum "Si O2"
_cell_formula_units_Z 32
_cell_length_a 16.133584
_cell_length_b 11.290883
_cell_length_c 15.390388
_cell_angle_alpha 90.000000
_cell_angle_beta 142.981775
_cell_angle_gamma 90.000000
_cell_volume 1687.930718
_symmetry_space_group_name_H-M "P 21/C"
_symmetry_group_IT_number 14
_symmetry_cell_setting 'monoclinic'
loop_
_space_group_symop_operation_xyz
x,y,z
-x,1/2+y,1/2-z
-x,-y,-z
x,1/2-y,1/2+z
loop_
_atom_site_type_symbol
_atom_site_label
_atom_site_fract_x
_atom_site_fract_y
_atom_site_fract_z
Si Si1 0.114759 0.532244 0.023266
Si Si2 0.279280 0.205257 0.641422
Si Si3 0.050470 0.411433 0.677305
Si Si4 0.994082 0.663309 0.544946
Si Si5 0.525577 0.857085 0.033657
Si Si6 0.097153 0.029154 0.791413
Si Si7 0.776700 0.347063 0.732514
Si Si8 0.716625 0.749509 0.044809
O O1 0.186660 0.411616 0.057597
O O2 0.219646 0.613676 0.163407
O O3 0.000000 0.500000 0.000000
O O4 0.035706 0.575654 0.872575
O O5 0.385146 0.177826 0.807276
O O6 0.344313 0.219254 0.600560
O O7 0.166666 0.307637 0.570178
O O8 0.052036 0.539799 0.630840
O O9 0.190838 0.354276 0.833023
O O10 0.996986 0.331110 0.552699
O O11 0.949848 0.438774 0.673496
O O12 0.094783 0.760180 0.670375
O O13 0.606918 0.801524 0.020431
O O14 0.373870 0.801166 0.914527
O O15 0.500000 0.000000 0.000000
O O16 0.177181 0.144420 0.887852
O O17 0.191765 0.959291 0.802073
#
# Coordination Sequence:
#
# PCOD9239395 Si02
#       8
#     4   4   4   4   4   4   4   4
#     4  10  17  31  61  95 118 151 206 270 315 365
#     4  12  21  39  65  95 130 165 216 274 330 381
#     4  11  23  38  64  96 130 165 209 266 345 386
#     4  11  22  41  65  92 128 168 209 269 330 395
#     4  12  24  43  65  94 131 178 221 264 320 391
#     4  11  20  35  66  99 123 157 218 275 319 378
#     4  11  22  41  63  94 124 162 221 268 310 378
#     4  12  23  41  65  96 135 174 213 274 332 388
#
# _framework density 18.958123000000001
#
# number of rings (size 3 to 8) (size 9 to 14) (size 15 to 20)
#    0.000    0.750    8.750    1.500    0.000    0.000 
#    2.250    1.875    0.000    0.000    0.000    0.000 
#    0.000    0.000    0.000    0.000    0.000    0.000 
#
# Total GULP energy -178355.024169 kJ/mol
# GULP energy per Si atom -5573.594505 kJ/mol
# Density = 1.891497 g / cm^3
# Si number density = 18.958123 Si / 1000 Ang^3
#
#
#
# Elastic Constant Matrix: (Units=GPa)
#
#
# Indices 1 2 3 4 5 6 
#
# 1 92.6966 16.4842 62.9118 0.0000 -21.7164 0.0000
# 2 16.4842 57.4028 30.4248 0.0000 -3.5127 0.0000
# 3 62.9118 30.4248 117.1717 0.0000 -7.6313 0.0000
# 4 0.0000 0.0000 0.0000 25.2018 0.0000 -4.5818
# 5 -21.7164 -3.5127 -7.6313 0.0000 31.1995 0.0000
# 6 0.0000 0.0000 0.0000 -4.5818 0.0000 23.0896
#
#
#
# Elastic Compliance Matrix: (Units=1/GPa)
#
#
# Indices 1 2 3 4 5 6 
#
# 1 0.020493 0.000303 -0.010315 0.000000 0.011775 0.000000
# 2 0.000303 0.020237 -0.005340 0.000000 0.001183 0.000000
# 3 -0.010315 -0.005340 0.015195 0.000000 -0.004064 0.000000
# 4 0.000000 0.000000 0.000000 0.041165 0.000000 0.008169
# 5 0.011775 0.001183 -0.004064 0.000000 0.039387 0.000000
# 6 0.000000 0.000000 0.000000 0.008169 0.000000 0.044931
#
#
# Mechanical properties :
#
#
# Convention : Reuss Voigt Hill
#
# Bulk Modulus (GPa) = 39.65119 54.10140 46.87630
# Shear Modulus (GPa) = 22.67383 26.39486 24.53434
#
# Velocity S-wave (km/s) = 3.46207 3.73536 3.60131
# Velocity P-wave (km/s) = 6.07797 6.87046 6.48633
#
# Compressibility (1/GPa) = 0.02521992
#
# Stress axis : x y z
#
# Youngs Moduli (GPa) = 48.79635 49.41538 65.81248
#
# Poissons Ratio (x) = -0.01496 0.67885
# Poissons Ratio (y) = -0.01477 0.35145
# Poissons Ratio (z) = 0.50333 0.26388
#
# Static dielectric constant tensor:
#      x y z
#    x 1.697440 0.000000 -0.039920 
#    y 0.000000 1.718820 0.000000 
#    z -0.039920 0.000000 1.694310 
# 
# From -- ./inp_files/47153.got.cif
#   From: 2010.05.17/outbox.cif.g08.bks.cpg/sg14_24_cif.got.tgz:47153.got - 2010.06.03 17:49:19.
