data_PCOD9239279
_publ_section_title
;
Structure prediction by ZEFSAII (Michael W. Deem and Ramdas Pophale) SiO2 
 PCOD9239279
Probable space group: P 21/C
;
_chemical_formula_sum "Si O2"
_cell_formula_units_Z 30
_cell_length_a 9.316611
_cell_length_b 32.079819
_cell_length_c 5.086494
_cell_angle_alpha 90.000000
_cell_angle_beta 74.250408
_cell_angle_gamma 90.000000
_cell_volume 1463.153263
_symmetry_space_group_name_H-M "P 21/C"
_symmetry_group_IT_number 14
_symmetry_cell_setting 'monoclinic'
loop_
_space_group_symop_operation_xyz
x,y,z
-x,1/2+y,1/2-z
-x,-y,-z
x,1/2-y,1/2+z
loop_
_atom_site_type_symbol
_atom_site_label
_atom_site_fract_x
_atom_site_fract_y
_atom_site_fract_z
Si Si1 0.773654 0.723115 0.041190
Si Si2 0.874609 0.277890 0.164275
Si Si3 0.682153 0.445787 0.208987
Si Si4 0.893050 0.497552 0.800186
Si Si5 0.500000 0.000000 0.000000
Si Si6 0.547196 0.848473 0.499130
Si Si7 0.349454 0.851409 0.104140
Si Si8 0.384922 0.055558 0.538680
O O1 0.745046 0.739829 0.347458
O O2 0.668561 0.684972 0.022447
O O3 0.948630 0.712760 0.920972
O O4 0.840515 0.242621 0.399627
O O5 0.782061 0.318935 0.277981
O O6 0.680948 0.482267 0.420727
O O7 0.692572 0.399124 0.302584
O O8 0.791803 0.456623 0.918454
O O9 0.506278 0.457406 0.208511
O O10 0.000000 0.500000 0.500000
O O11 0.774963 0.535411 0.845246
O O12 0.000000 0.500000 0.000000
O O13 0.451778 0.037445 0.239786
O O14 0.480019 0.840001 0.245627
O O15 0.613945 0.894872 0.463613
O O16 0.413498 0.848741 0.778726
#
# Coordination Sequence:
#
# PCOD9239279 Si02
#       8
#     4   4   4   4   2   4   4   4
#     4  10  22  41  63  87 124 169 202 240 310 377
#     4  10  22  41  63  87 124 169 202 240 310 377
#     4  10  23  39  64  86 123 166 207 247 314 374
#     4  11  26  39  60  90 123 157 206 258 305 360
#     4  10  16  36  64  80 110 164 200 238 288 380
#     4  11  23  39  62  96 122 153 208 261 305 354
#     4  11  23  39  62  96 122 153 208 261 305 354
#     4  10  23  39  64  86 123 166 207 247 314 374
#
# _framework density 20.503661999999998
#
# number of rings (size 3 to 8) (size 9 to 14) (size 15 to 20)
#    0.000    1.600    1.333    3.200    7.467    4.267 
#    0.000    4.000    0.000    0.000    0.000    0.000 
#    0.000    0.000    0.000    0.000    0.000    0.000 
#
# Total GULP energy -167293.649676 kJ/mol
# GULP energy per Si atom -5576.454989 kJ/mol
# Density = 2.045699 g / cm^3
# Si number density = 20.503662 Si / 1000 Ang^3
#
#
#
# Elastic Constant Matrix: (Units=GPa)
#
#
# Indices 1 2 3 4 5 6 
#
# 1 62.3116 31.4695 19.8593 0.0000 -5.9054 0.0000
# 2 31.4695 93.0640 -13.2085 0.0000 -17.6448 0.0000
# 3 19.8593 -13.2085 107.1608 0.0000 -10.4342 0.0000
# 4 0.0000 0.0000 0.0000 22.9831 0.0000 -5.1944
# 5 -5.9054 -17.6448 -10.4342 0.0000 36.0076 0.0000
# 6 0.0000 0.0000 0.0000 -5.1944 0.0000 29.6171
#
#
#
# Elastic Compliance Matrix: (Units=1/GPa)
#
#
# Indices 1 2 3 4 5 6 
#
# 1 0.021858 -0.008552 -0.005314 0.000000 -0.002146 0.000000
# 2 -0.008552 0.015662 0.004246 0.000000 0.007503 0.000000
# 3 -0.005314 0.004246 0.011276 0.000000 0.004477 0.000000
# 4 0.000000 0.000000 0.000000 0.045306 0.000000 0.007946
# 5 -0.002146 0.007503 0.004477 0.000000 0.032394 0.000000
# 6 0.000000 0.000000 0.000000 0.007946 0.000000 0.035158
#
#
# Mechanical properties :
#
#
# Convention : Reuss Voigt Hill
#
# Bulk Modulus (GPa) = 33.83427 37.64189 35.73808
# Shear Modulus (GPa) = 26.21290 32.68263 29.44777
#
# Velocity S-wave (km/s) = 3.57942 3.99681 3.79386
# Velocity P-wave (km/s) = 5.79831 6.30062 6.05468
#
# Compressibility (1/GPa) = 0.02955583
#
# Stress axis : x y z
#
# Youngs Moduli (GPa) = 45.75040 63.84722 88.68562
#
# Poissons Ratio (x) = 0.54604 0.47126
# Poissons Ratio (y) = 0.39127 -0.37656
# Poissons Ratio (z) = 0.24311 -0.27110
#
# Static dielectric constant tensor:
#      x y z
#    x 1.866400 0.000000 0.237920 
#    y 0.000000 2.039270 0.000000 
#    z 0.237920 0.000000 2.316490 
# 
# From -- ./inp_files/2228.got.cif
#   From: 2010.05.17/outbox.cif.g08.bks.cpg/sg14_2_cif.got.tgz:2228.got - 2010.06.03 17:49:19.
