data_PCOD9239187
_publ_section_title
;
Structure prediction by ZEFSAII (Michael W. Deem and Ramdas Pophale) SiO2 
 PCOD9239187
Probable space group: P 21/C
;
_chemical_formula_sum "Si O2"
_cell_formula_units_Z 32
_cell_length_a 7.890095
_cell_length_b 9.586441
_cell_length_c 26.309161
_cell_angle_alpha 90.000000
_cell_angle_beta 124.016817
_cell_angle_gamma 90.000000
_cell_volume 1649.433614
_symmetry_space_group_name_H-M "P 21/C"
_symmetry_group_IT_number 14
_symmetry_cell_setting 'monoclinic'
loop_
_space_group_symop_operation_xyz
x,y,z
-x,1/2+y,1/2-z
-x,-y,-z
x,1/2-y,1/2+z
loop_
_atom_site_type_symbol
_atom_site_label
_atom_site_fract_x
_atom_site_fract_y
_atom_site_fract_z
Si Si1 0.267205 0.916102 0.223188
Si Si2 0.008374 0.657603 0.341087
Si Si3 0.334888 0.647107 0.939153
Si Si4 0.276154 0.411836 0.215585
Si Si5 0.919495 0.348466 0.763001
Si Si6 0.221494 0.097432 0.496245
Si Si7 0.657584 0.933960 0.655315
Si Si8 0.784500 0.438961 0.902280
O O1 0.484901 0.920043 0.232080
O O2 0.211656 0.757746 0.226206
O O3 0.084737 0.003926 0.167029
O O4 0.302493 0.987023 0.284631
O O5 0.809098 0.757458 0.306161
O O6 0.176673 0.726860 0.405742
O O7 0.104164 0.669608 0.300844
O O8 0.266938 0.549054 0.974497
O O9 0.326801 0.543961 0.888388
O O10 0.575565 0.685604 0.982410
O O11 0.142568 0.494055 0.234083
O O12 0.234582 0.491528 0.155737
O O13 0.155952 0.328045 0.817535
O O14 0.996499 0.144632 0.441175
O O15 0.205120 0.060841 0.553113
O O16 0.432332 0.868355 0.621144
#
# Coordination Sequence:
#
# PCOD9239187 Si02
#       8
#     4   4   4   4   4   4   4   4
#     4  10  21  31  47  76 104 139 175 200 249 307
#     4  11  19  33  50  73 106 139 168 213 251 297
#     4  10  16  30  49  75 104 135 163 215 260 296
#     4  11  20  34  51  71 107 137 167 214 256 294
#     4  11  19  33  50  72 100 145 176 194 245 324
#     4   9  17  27  49  78 105 123 172 215 269 295
#     4   9  17  30  49  70 103 139 166 206 249 300
#     4   9  17  30  47  78 102 125 163 219 260 295
#
# _framework density 19.400600000000001
#
# number of rings (size 3 to 8) (size 9 to 14) (size 15 to 20)
#    0.000    2.000    3.750    1.500    0.000    0.000 
#    0.000    0.000    0.000    0.000    0.000   15.750 
#    0.000    0.000    0.000    0.000    0.000    0.000 
#
# Total GULP energy -178396.553854 kJ/mol
# GULP energy per Si atom -5574.892308 kJ/mol
# Density = 1.935644 g / cm^3
# Si number density = 19.400600 Si / 1000 Ang^3
#
#
#
# Elastic Constant Matrix: (Units=GPa)
#
#
# Indices 1 2 3 4 5 6 
#
# 1 74.7681 -4.6845 11.7382 0.0000 18.7148 0.0000
# 2 -4.6845 16.6584 -9.7229 0.0000 5.8694 0.0000
# 3 11.7382 -9.7229 31.4777 0.0000 9.6013 0.0000
# 4 0.0000 0.0000 0.0000 18.0832 0.0000 5.3641
# 5 18.7148 5.8694 9.6013 0.0000 38.2863 0.0000
# 6 0.0000 0.0000 0.0000 5.3641 0.0000 13.6421
#
#
#
# Elastic Compliance Matrix: (Units=1/GPa)
#
#
# Indices 1 2 3 4 5 6 
#
# 1 0.016164 0.006835 -0.001285 0.000000 -0.008627 0.000000
# 2 0.006835 0.090245 0.033097 0.000000 -0.025476 0.000000
# 3 -0.001285 0.033097 0.047457 0.000000 -0.016347 0.000000
# 4 0.000000 0.000000 0.000000 0.062602 0.000000 -0.024615
# 5 -0.008627 -0.025476 -0.016347 0.000000 0.038341 0.000000
# 6 0.000000 0.000000 0.000000 -0.024615 0.000000 0.082981
#
#
# Mechanical properties :
#
#
# Convention : Reuss Voigt Hill
#
# Bulk Modulus (GPa) = 4.32601 13.06287 8.69444
# Shear Modulus (GPa) = 14.81264 22.37388 18.59326
#
# Velocity S-wave (km/s) = 2.76617 3.39965 3.09914
# Velocity P-wave (km/s) = 3.52661 4.70723 4.15902
#
# Compressibility (1/GPa) = 0.23116005
#
# Stress axis : x y z
#
# Youngs Moduli (GPa) = 61.86593 11.08089 21.07170
#
# Poissons Ratio (x) = -0.07574 0.02708
# Poissons Ratio (y) = -0.42285 -0.69741
# Poissons Ratio (z) = 0.07951 -0.36675
#
# Static dielectric constant tensor:
#      x y z
#    x 1.714040 0.000000 0.035880 
#    y 0.000000 1.648600 0.000000 
#    z 0.035880 0.000000 1.726870 
# 
# From -- ./inp_files/79414.got.cif
#   From: 2010.05.17/outbox.cif.g08.bks.cpg/sg14_40_cif.got.tgz:79414.got - 2010.06.03 17:49:19.
