data_PCOD9239014
_publ_section_title
;
Structure prediction by ZEFSAII (Michael W. Deem and Ramdas Pophale) SiO2 
 PCOD9239014
Probable space group: P 2/C
;
_chemical_formula_sum "Si O2"
_cell_formula_units_Z 26
_cell_length_a 6.000000
_cell_length_b 12.000000
_cell_length_c 21.000000
_cell_angle_alpha 90.000000
_cell_angle_beta 120.000000
_cell_angle_gamma 90.000000
_cell_volume 1309.430411
_symmetry_space_group_name_H-M "P 2/C"
_symmetry_group_IT_number 13
_symmetry_cell_setting 'monoclinic'
loop_
_space_group_symop_operation_xyz
x,y,z
-x,y,1/2-z
-x,-y,-z
x,-y,1/2+z
loop_
_atom_site_type_symbol
_atom_site_label
_atom_site_fract_x
_atom_site_fract_y
_atom_site_fract_z
Si Si1 0.544775 0.432915 0.330124
Si Si2 0.421603 0.623994 0.414822
Si Si3 0.097264 0.546076 0.946723
Si Si4 0.000000 0.991654 0.750000
Si Si5 0.553950 0.805709 0.683381
Si Si6 0.288196 0.123216 0.897330
Si Si7 0.265449 0.064808 0.037921
O O1 0.500000 0.459761 0.250000
O O2 0.489378 0.540675 0.365976
O O3 0.387286 0.322097 0.329678
O O4 0.846415 0.400195 0.379778
O O5 0.659502 0.622282 0.499404
O O6 0.194277 0.558064 0.418631
O O7 0.357254 0.750596 0.386319
O O8 0.000000 0.500000 0.000000
O O9 0.940510 0.070719 0.679662
O O10 0.764747 0.903976 0.715090
O O11 0.500000 0.789858 0.750000
O O12 0.328929 0.853059 0.605511
O O13 0.517650 0.032034 0.926685
O O14 0.253412 0.129406 0.968818
O O15 0.000000 0.000000 0.000000
#
# Coordination Sequence:
#
# PCOD9239014 Si02
#       7
#     4   4   4   2   4   4   4
#     4  10  23  39  59  96 124 163 214 250 317 382
#     4  10  22  40  64  89 127 167 199 265 315 365
#     4   9  21  38  58  89 125 159 207 246 311 372
#     4  10  22  44  58  86 128 156 208 258 316 372
#     4  10  22  39  62  86 121 165 202 258 313 366
#     4  10  23  39  62  93 119 165 211 253 317 378
#     4  10  22  38  61  90 120 159 216 256 306 369
#
# _framework density 19.855962000000002
#
# number of rings (size 3 to 8) (size 9 to 14) (size 15 to 20)
#    0.000    2.154    0.000    0.923    8.615    5.538 
#    2.769    3.077    0.000    0.000    0.000    0.000 
#    0.000    0.000    0.000    0.000    0.000    0.000 
#
# Total GULP energy -144809.838960 kJ/mol
# GULP energy per Si atom -5569.609191 kJ/mol
# Density = 1.981077 g / cm^3
# Si number density = 19.855962 Si / 1000 Ang^3
#
#
#
# Elastic Constant Matrix: (Units=GPa)
#
#
# Indices 1 2 3 4 5 6 
#
# 1 38.3169 14.7075 30.7685 0.0000 0.0259 0.0000
# 2 14.7075 145.1872 52.6034 0.0000 -5.9146 0.0000
# 3 30.7685 52.6034 158.5797 0.0000 1.7060 0.0000
# 4 0.0000 0.0000 0.0000 30.3087 0.0000 -5.5814
# 5 0.0259 -5.9146 1.7060 0.0000 26.8867 0.0000
# 6 0.0000 0.0000 0.0000 -5.5814 0.0000 22.6464
#
#
#
# Elastic Compliance Matrix: (Units=1/GPa)
#
#
# Indices 1 2 3 4 5 6 
#
# 1 0.031067 -0.001090 -0.005667 0.000000 0.000090 0.000000
# 2 -0.001090 0.007964 -0.002451 0.000000 0.001908 0.000000
# 3 -0.005667 -0.002451 0.008230 0.000000 -0.001056 0.000000
# 4 0.000000 0.000000 0.000000 0.034563 0.000000 0.008518
# 5 0.000090 0.001908 -0.001056 0.000000 0.037680 0.000000
# 6 0.000000 0.000000 0.000000 0.008518 0.000000 0.046256
#
#
# Mechanical properties :
#
#
# Convention : Reuss Voigt Hill
#
# Bulk Modulus (GPa) = 34.66831 59.80472 47.23652
# Shear Modulus (GPa) = 25.80103 32.23533 29.01818
#
# Velocity S-wave (km/s) = 3.60864 4.03359 3.82702
# Velocity P-wave (km/s) = 5.90431 7.20262 6.58554
#
# Compressibility (1/GPa) = 0.02884478
#
# Stress axis : x y z
#
# Youngs Moduli (GPa) = 32.18821 125.56865 121.50879
#
# Poissons Ratio (x) = 0.13689 0.68861
# Poissons Ratio (y) = 0.03509 0.29778
# Poissons Ratio (z) = 0.18242 0.30773
#
# Static dielectric constant tensor:
#      x y z
#    x 1.846020 0.000000 -0.015260 
#    y 0.000000 1.693960 0.000000 
#    z -0.015260 0.000000 1.722050 
# 
# From -- ./inp_files/73738.got.cif
#   From: 2010.05.17/outbox.ucp.g08.bks.cvg/sg13_37_cif.got.tgz:73738.got - 2010.06.11 12:23:55.
