data_PCOD9239999
_publ_section_title
;
Structure prediction by ZEFSAII (Michael W. Deem and Ramdas Pophale) SiO2 
 PCOD9239999
Probable space group: P 21/C
;
_chemical_formula_sum "Si O2"
_cell_formula_units_Z 28
_cell_length_a 7.583195
_cell_length_b 11.777602
_cell_length_c 14.094658
_cell_angle_alpha 90.000000
_cell_angle_beta 57.913032
_cell_angle_gamma 90.000000
_cell_volume 1066.526155
_symmetry_space_group_name_H-M "P 21/C"
_symmetry_group_IT_number 14
_symmetry_cell_setting 'monoclinic'
loop_
_space_group_symop_operation_xyz
x,y,z
-x,1/2+y,1/2-z
-x,-y,-z
x,1/2-y,1/2+z
loop_
_atom_site_type_symbol
_atom_site_label
_atom_site_fract_x
_atom_site_fract_y
_atom_site_fract_z
Si Si1 0.571918 0.629004 0.603398
Si Si2 0.182950 0.093608 0.360500
Si Si3 0.333199 0.402422 0.622391
Si Si4 0.377850 0.025017 0.715114
Si Si5 0.201335 0.801965 0.697259
Si Si6 0.029379 0.845864 0.400562
Si Si7 0.369281 0.702217 0.949083
O O1 0.399549 0.530883 0.625887
O O2 0.728394 0.617374 0.469199
O O3 0.669868 0.596856 0.676509
O O4 0.429719 0.740871 0.646688
O O5 0.198694 0.140124 0.249482
O O6 0.409615 0.042136 0.320675
O O7 0.128423 0.171536 0.466524
O O8 0.035988 0.982142 0.391393
O O9 0.539514 0.326501 0.570642
O O10 0.211775 0.928654 0.737499
O O11 0.444265 0.109687 0.610350
O O12 0.041041 0.719322 0.798209
O O13 0.211625 0.814357 0.580583
O O14 0.246969 0.810781 0.386849
#
# Coordination Sequence:
#
# PCOD9239999 Si02
#       7
#     4   4   4   4   4   4   4
#     4   9  17  28  50  79  98 127 179 216 269 289
#     4   9  18  31  54  75 106 135 175 222 259 312
#     4   9  16  31  51  80 101 129 178 230 250 308
#     4  10  19  33  52  84 106 141 173 224 270 316
#     4  11  19  33  53  81 107 136 178 218 266 317
#     4  10  18  34  51  78 106 139 176 217 261 317
#     4  10  20  32  55  79 107 138 177 217 271 317
#
# _framework density 26.253458999999999
#
# number of rings (size 3 to 8) (size 9 to 14) (size 15 to 20)
#    0.000    2.286    4.286    2.143    0.000    0.000 
#    0.000    2.857    0.000    0.857    0.000    0.000 
#    0.000    0.000    0.000    0.000    0.000    0.000 
#
# Total GULP energy -156492.371987 kJ/mol
# GULP energy per Si atom -5589.013285 kJ/mol
# Density = 2.619371 g / cm^3
# Si number density = 26.253459 Si / 1000 Ang^3
#
#
#
# Elastic Constant Matrix: (Units=GPa)
#
#
# Indices 1 2 3 4 5 6 
#
# 1 23.5253 19.2205 14.0350 0.0000 9.5884 0.0000
# 2 19.2205 101.7620 32.0467 0.0000 14.3211 0.0000
# 3 14.0350 32.0467 224.4552 0.0000 12.7361 0.0000
# 4 0.0000 0.0000 0.0000 53.9956 0.0000 3.9044
# 5 9.5884 14.3211 12.7361 0.0000 40.3329 0.0000
# 6 0.0000 0.0000 0.0000 3.9044 0.0000 38.6892
#
#
#
# Elastic Compliance Matrix: (Units=1/GPa)
#
#
# Indices 1 2 3 4 5 6 
#
# 1 0.054173 -0.008391 -0.001657 0.000000 -0.009376 0.000000
# 2 -0.008391 0.012025 -0.001082 0.000000 -0.001933 0.000000
# 3 -0.001657 -0.001082 0.004754 0.000000 -0.000723 0.000000
# 4 0.000000 0.000000 0.000000 0.018656 0.000000 -0.001883
# 5 -0.009376 -0.001933 -0.000723 0.000000 0.027937 0.000000
# 6 0.000000 0.000000 0.000000 -0.001883 0.000000 0.026037
#
#
# Mechanical properties :
#
#
# Convention : Reuss Voigt Hill
#
# Bulk Modulus (GPa) = 20.53769 53.37188 36.95478
# Shear Modulus (GPa) = 27.46144 45.56623 36.51383
#
# Velocity S-wave (km/s) = 3.23772 4.17061 3.73342
# Velocity P-wave (km/s) = 4.67086 6.60042 5.71763
#
# Compressibility (1/GPa) = 0.04869097
#
# Stress axis : x y z
#
# Youngs Moduli (GPa) = 18.45944 83.16309 210.32968
#
# Poissons Ratio (x) = 0.69779 0.34860
# Poissons Ratio (y) = 0.15489 0.22768
# Poissons Ratio (z) = 0.03059 0.09002
#
# Static dielectric constant tensor:
#      x y z
#    x 2.143330 0.000000 -0.056420 
#    y 0.000000 2.047390 0.000000 
#    z -0.056420 0.000000 2.156100 
# 
# From -- ./inp_files/44010.got.cif
#   From: 2010.05.17/outbox.cif.g08.bks.cpg/sg14_23_cif.got.tgz:44010.got - 2010.06.03 17:49:19.
