data_PCOD9239956
_publ_section_title
;
Structure prediction by ZEFSAII (Michael W. Deem and Ramdas Pophale) SiO2 
 PCOD9239956
Probable space group: P 21/C
;
_chemical_formula_sum "Si O2"
_cell_formula_units_Z 32
_cell_length_a 9.084867
_cell_length_b 12.821772
_cell_length_c 13.619501
_cell_angle_alpha 90.000000
_cell_angle_beta 63.987320
_cell_angle_gamma 90.000000
_cell_volume 1425.742567
_symmetry_space_group_name_H-M "P 21/C"
_symmetry_group_IT_number 14
_symmetry_cell_setting 'monoclinic'
loop_
_space_group_symop_operation_xyz
x,y,z
-x,1/2+y,1/2-z
-x,-y,-z
x,1/2-y,1/2+z
loop_
_atom_site_type_symbol
_atom_site_label
_atom_site_fract_x
_atom_site_fract_y
_atom_site_fract_z
Si Si1 0.391454 0.076383 0.759656
Si Si2 0.993296 0.367848 0.754175
Si Si3 0.274922 0.629487 0.340421
Si Si4 0.205912 0.229497 0.052221
Si Si5 0.744751 0.022366 0.606586
Si Si6 0.370309 0.201032 0.333714
Si Si7 0.071160 0.780360 0.514462
Si Si8 0.208774 0.455374 0.121537
O O1 0.587881 0.069887 0.707669
O O2 0.336688 0.195461 0.781641
O O3 0.339046 0.034014 0.669176
O O4 0.295673 0.994405 0.857502
O O5 0.856278 0.349925 0.708826
O O6 0.955494 0.483574 0.802574
O O7 0.163711 0.355666 0.645736
O O8 0.958327 0.298760 0.861370
O O9 0.453131 0.660936 0.249778
O O10 0.220025 0.701933 0.446569
O O11 0.168264 0.335898 0.119199
O O12 0.081688 0.227119 0.996066
O O13 0.372442 0.253650 0.945173
O O14 0.886896 0.109738 0.554918
O O15 0.750106 0.900422 0.640238
O O16 0.716313 0.002919 0.498949
#
# Coordination Sequence:
#
# PCOD9239956 Si02
#       8
#     4   4   4   4   4   4   4   4
#     4  10  18  33  57  82 108 139 182 227 275 317
#     4   9  20  37  57  75 108 151 183 216 268 326
#     4   9  19  38  56  82 107 141 187 224 266 329
#     4  10  22  36  51  85 114 139 181 227 269 326
#     4   9  18  33  57  79 105 143 181 227 268 319
#     4  10  20  34  55  82 112 136 177 235 271 308
#     4  10  19  37  59  77 109 148 182 217 277 328
#     4   9  19  34  53  81 107 141 187 225 261 318
#
# _framework density 22.444445999999999
#
# number of rings (size 3 to 8) (size 9 to 14) (size 15 to 20)
#    0.000    2.500    1.250    0.375    1.750    7.500 
#    2.250    1.875    0.000    0.750    0.000    0.000 
#    0.000    0.000    0.000    0.000    0.000    0.000 
#
# Total GULP energy -178206.047581 kJ/mol
# GULP energy per Si atom -5568.938987 kJ/mol
# Density = 2.239336 g / cm^3
# Si number density = 22.444446 Si / 1000 Ang^3
#
#
#
# Elastic Constant Matrix: (Units=GPa)
#
#
# Indices 1 2 3 4 5 6 
#
# 1 21.2945 4.4611 9.1707 0.0000 -7.5342 0.0000
# 2 4.4611 60.5526 -1.4756 0.0000 -1.0027 0.0000
# 3 9.1707 -1.4756 44.0462 0.0000 -2.0434 0.0000
# 4 0.0000 0.0000 0.0000 31.0090 0.0000 -3.6587
# 5 -7.5342 -1.0027 -2.0434 0.0000 26.7446 0.0000
# 6 0.0000 0.0000 0.0000 -3.6587 0.0000 23.1399
#
#
#
# Elastic Compliance Matrix: (Units=1/GPa)
#
#
# Indices 1 2 3 4 5 6 
#
# 1 0.058287 -0.004322 -0.011567 0.000000 0.015374 0.000000
# 2 -0.004322 0.016860 0.001443 0.000000 -0.000475 0.000000
# 3 -0.011567 0.001443 0.025100 0.000000 -0.001287 0.000000
# 4 0.000000 0.000000 0.000000 0.032862 0.000000 0.005196
# 5 0.015374 -0.000475 -0.001287 0.000000 0.041606 0.000000
# 6 0.000000 0.000000 0.000000 0.005196 0.000000 0.044037
#
#
# Mechanical properties :
#
#
# Convention : Reuss Voigt Hill
#
# Bulk Modulus (GPa) = 14.01440 16.68953 15.35197
# Shear Modulus (GPa) = 18.42103 23.76115 21.09109
#
# Velocity S-wave (km/s) = 2.86796 3.25724 3.06878
# Velocity P-wave (km/s) = 4.15025 4.64739 4.40584
#
# Compressibility (1/GPa) = 0.07135516
#
# Stress axis : x y z
#
# Youngs Moduli (GPa) = 17.15658 59.31111 39.83998
#
# Poissons Ratio (x) = 0.25631 0.46083
# Poissons Ratio (y) = 0.07414 -0.05747
# Poissons Ratio (z) = 0.19845 -0.08556
#
# Static dielectric constant tensor:
#      x y z
#    x 1.901750 0.000000 -0.040190 
#    y 0.000000 1.898510 0.000000 
#    z -0.040190 0.000000 1.897760 
# 
# From -- ./inp_files/44382.got.cif
#   From: 2010.05.17/outbox.cif.g08.bks.cpg/sg14_23_cif.got.tgz:44382.got - 2010.06.03 17:49:19.
