data_PCOD9239931
_publ_section_title
;
Structure prediction by ZEFSAII (Michael W. Deem and Ramdas Pophale) SiO2 
 PCOD9239931
Probable space group: P 21/C
;
_chemical_formula_sum "Si O2"
_cell_formula_units_Z 32
_cell_length_a 6.427886
_cell_length_b 17.634020
_cell_length_c 17.497291
_cell_angle_alpha 90.000000
_cell_angle_beta 41.429221
_cell_angle_gamma 90.000000
_cell_volume 1312.344115
_symmetry_space_group_name_H-M "P 21/C"
_symmetry_group_IT_number 14
_symmetry_cell_setting 'monoclinic'
loop_
_space_group_symop_operation_xyz
x,y,z
-x,1/2+y,1/2-z
-x,-y,-z
x,1/2-y,1/2+z
loop_
_atom_site_type_symbol
_atom_site_label
_atom_site_fract_x
_atom_site_fract_y
_atom_site_fract_z
Si Si1 0.834763 0.915344 0.236367
Si Si2 0.578565 0.735219 0.822402
Si Si3 0.831448 0.485984 0.126480
Si Si4 0.964368 0.827437 0.425006
Si Si5 0.655687 0.531784 0.380363
Si Si6 0.040450 0.334351 0.616139
Si Si7 0.863943 0.129586 0.007992
Si Si8 0.715848 0.847177 0.667014
O O1 0.745827 0.839733 0.307904
O O2 0.526327 0.962428 0.295865
O O3 0.081535 0.970316 0.210540
O O4 0.989981 0.885263 0.114462
O O5 0.330438 0.694679 0.833633
O O6 0.350144 0.793821 0.929978
O O7 0.806677 0.786086 0.706737
O O8 0.021295 0.413853 0.107175
O O9 0.831563 0.569869 0.162058
O O10 0.000000 0.500000 0.000000
O O11 0.842690 0.752560 0.414872
O O12 0.830292 0.830043 0.549355
O O13 0.500000 0.500000 0.500000
O O14 0.361306 0.557707 0.410784
O O15 0.815705 0.610076 0.362135
O O16 0.105708 0.361838 0.511188
O O17 0.664007 0.342792 0.729381
#
# Coordination Sequence:
#
# PCOD9239931 Si02
#       8
#     4   4   4   4   4   4   4   4
#     4  10  18  33  55  78 111 150 181 223 280 328
#     4   9  17  30  51  77 104 145 183 221 275 323
#     4   9  16  28  50  81 109 143 182 219 271 330
#     4   8  16  27  49  78 105 141 183 219 269 330
#     4  10  21  36  55  79 115 144 181 229 275 327
#     4  10  19  35  55  80 110 145 182 229 273 321
#     4   9  20  35  56  80 113 142 184 231 269 326
#     4   9  15  29  49  77 108 139 177 224 269 319
#
# _framework density 24.383846999999999
#
# number of rings (size 3 to 8) (size 9 to 14) (size 15 to 20)
#    0.000    3.000    1.250    1.500    0.000    2.000 
#    0.000    2.500    5.500    0.000    0.000   11.375 
#    0.000    0.000    0.000    0.000    0.000    0.000 
#
# Total GULP energy -178412.155569 kJ/mol
# GULP energy per Si atom -5575.379862 kJ/mol
# Density = 2.432835 g / cm^3
# Si number density = 24.383847 Si / 1000 Ang^3
#
#
#
# Elastic Constant Matrix: (Units=GPa)
#
#
# Indices 1 2 3 4 5 6 
#
# 1 38.0091 22.7368 6.7033 0.0000 10.7183 0.0000
# 2 22.7368 175.1984 42.2238 0.0000 7.9154 0.0000
# 3 6.7033 42.2238 79.6713 0.0000 15.1304 0.0000
# 4 0.0000 0.0000 0.0000 32.6953 0.0000 -1.7282
# 5 10.7183 7.9154 15.1304 0.0000 18.6705 0.0000
# 6 0.0000 0.0000 0.0000 -1.7282 0.0000 32.9247
#
#
#
# Elastic Compliance Matrix: (Units=1/GPa)
#
#
# Indices 1 2 3 4 5 6 
#
# 1 0.034044 -0.004287 0.003279 0.000000 -0.020383 0.000000
# 2 -0.004287 0.007084 -0.003889 0.000000 0.002610 0.000000
# 3 0.003279 -0.003889 0.016997 0.000000 -0.014008 0.000000
# 4 0.000000 0.000000 0.000000 0.030671 0.000000 0.001610
# 5 -0.020383 0.002610 -0.014008 0.000000 0.075507 0.000000
# 6 0.000000 0.000000 0.000000 0.001610 0.000000 0.030457
#
#
# Mechanical properties :
#
#
# Convention : Reuss Voigt Hill
#
# Bulk Modulus (GPa) = 20.69135 48.46739 34.57937
# Shear Modulus (GPa) = 22.65887 31.60577 27.13232
#
# Velocity S-wave (km/s) = 3.05168 3.60415 3.33936
# Velocity P-wave (km/s) = 4.57396 6.10245 5.39263
#
# Compressibility (1/GPa) = 0.04832937
#
# Stress axis : x y z
#
# Youngs Moduli (GPa) = 29.37383 141.17125 58.83383
#
# Poissons Ratio (x) = 0.60526 -0.19291
# Poissons Ratio (y) = 0.12594 0.22881
# Poissons Ratio (z) = -0.09631 0.54902
#
# Static dielectric constant tensor:
#      x y z
#    x 2.021460 0.000000 0.059080 
#    y 0.000000 2.035960 0.000000 
#    z 0.059080 0.000000 1.966870 
# 
# From -- ./inp_files/72521.got.cif
#   From: 2010.05.17/outbox.cif.g08.bks.cpg/sg14_37_cif.got.tgz:72521.got - 2010.06.03 17:49:19.
