data_PCOD9239620
_publ_section_title
;
Structure prediction by ZEFSAII (Michael W. Deem and Ramdas Pophale) SiO2 
 PCOD9239620
Probable space group: P 21/C
;
_chemical_formula_sum "Si O2"
_cell_formula_units_Z 32
_cell_length_a 18.339612
_cell_length_b 21.846403
_cell_length_c 5.012626
_cell_angle_alpha 90.000000
_cell_angle_beta 101.460486
_cell_angle_gamma 90.000000
_cell_volume 1968.289256
_symmetry_space_group_name_H-M "P 21/C"
_symmetry_group_IT_number 14
_symmetry_cell_setting 'monoclinic'
loop_
_space_group_symop_operation_xyz
x,y,z
-x,1/2+y,1/2-z
-x,-y,-z
x,1/2-y,1/2+z
loop_
_atom_site_type_symbol
_atom_site_label
_atom_site_fract_x
_atom_site_fract_y
_atom_site_fract_z
Si Si1 0.304891 0.212835 0.316127
Si Si2 0.483704 0.288176 0.936514
Si Si3 0.594884 0.023721 0.799271
Si Si4 0.216755 0.092028 0.360132
Si Si5 0.062160 0.442855 0.861016
Si Si6 0.089141 0.524726 0.378905
Si Si7 0.756314 0.991128 0.119274
Si Si8 0.475219 0.580003 0.250623
O O1 0.284904 0.267978 0.502145
O O2 0.394062 0.205024 0.380732
O O3 0.265878 0.152282 0.394255
O O4 0.504703 0.266133 0.246689
O O5 0.514785 0.351383 0.844130
O O6 0.583258 0.047096 0.490859
O O7 0.552125 0.958468 0.783139
O O8 0.551637 0.069701 0.967334
O O9 0.678105 0.017376 0.966043
O O10 0.129742 0.103433 0.362150
O O11 0.244298 0.040685 0.591802
O O12 0.223608 0.062776 0.073379
O O13 0.082465 0.499266 0.673959
O O14 0.977066 0.427405 0.726865
O O15 0.068043 0.468493 0.164245
O O16 0.174263 0.537921 0.363172
#
# Coordination Sequence:
#
# PCOD9239620 Si02
#       8
#     4   4   4   4   4   4   4   4
#     4  10  20  31  43  61  84 110 144 185 218 246
#     4  10  20  33  49  65  84 114 150 188 223 258
#     4  10  20  31  46  66  91 121 144 178 225 272
#     4  10  18  28  44  62  87 118 147 175 209 261
#     4   8  14  24  38  58  82 112 138 162 198 236
#     4   8  14  24  38  58  85 109 136 168 194 238
#     4  10  18  28  44  65  87 117 147 172 213 264
#     4  10  20  33  46  64  90 116 148 183 222 271
#
# _framework density 16.257773
#
# number of rings (size 3 to 8) (size 9 to 14) (size 15 to 20)
#    0.000    2.500    0.000    3.000    0.000    4.000 
#    0.000    0.000    0.000    0.000    0.000    0.000 
#    0.000    6.000    0.000    0.000    0.000    0.000 
#
# Total GULP energy -178186.832523 kJ/mol
# GULP energy per Si atom -5568.338516 kJ/mol
# Density = 1.622077 g / cm^3
# Si number density = 16.257773 Si / 1000 Ang^3
#
#
#
# Elastic Constant Matrix: (Units=GPa)
#
#
# Indices 1 2 3 4 5 6 
#
# 1 66.1262 19.5835 2.0437 0.0000 14.7208 0.0000
# 2 19.5835 33.1347 -5.1672 0.0000 -2.7756 0.0000
# 3 2.0437 -5.1672 64.5335 0.0000 -1.8142 0.0000
# 4 0.0000 0.0000 0.0000 14.4350 0.0000 -5.7129
# 5 14.7208 -2.7756 -1.8142 0.0000 26.5151 0.0000
# 6 0.0000 0.0000 0.0000 -5.7129 0.0000 15.6521
#
#
#
# Elastic Compliance Matrix: (Units=1/GPa)
#
#
# Indices 1 2 3 4 5 6 
#
# 1 0.022882 -0.015099 -0.002340 0.000000 -0.014444 0.000000
# 2 -0.015099 0.040828 0.004111 0.000000 0.012938 0.000000
# 3 -0.002340 0.004111 0.015978 0.000000 0.002823 0.000000
# 4 0.000000 0.000000 0.000000 0.080973 0.000000 0.029555
# 5 -0.014444 0.012938 0.002823 0.000000 0.047281 0.000000
# 6 0.000000 0.000000 0.000000 0.029555 0.000000 0.074676
#
#
# Mechanical properties :
#
#
# Convention : Reuss Voigt Hill
#
# Bulk Modulus (GPa) = 18.85581 21.85717 20.35649
# Shear Modulus (GPa) = 15.29276 21.14273 18.21775
#
# Velocity S-wave (km/s) = 3.07032 3.61011 3.35110
# Velocity P-wave (km/s) = 4.91857 5.55433 5.24609
#
# Compressibility (1/GPa) = 0.05303406
#
# Stress axis : x y z
#
# Youngs Moduli (GPa) = 43.70248 24.49280 62.58438
#
# Poissons Ratio (x) = 0.36981 0.14643
# Poissons Ratio (y) = 0.65985 -0.25728
# Poissons Ratio (z) = 0.10225 -0.10069
#
# Static dielectric constant tensor:
#      x y z
#    x 1.601790 0.000000 0.008760 
#    y 0.000000 1.513580 0.000000 
#    z 0.008760 0.000000 1.556830 
# 
# From -- ./inp_files/4236.got.cif
#   From: 2010.05.17/outbox.cif.g08.bks.cpg/sg14_3_cif.got.tgz:4236.got - 2010.06.03 17:49:19.
