data_PCOD9239806
_publ_section_title
;
Structure prediction by ZEFSAII (Michael W. Deem and Ramdas Pophale) SiO2 
 PCOD9239806
Probable space group: P 21/C
;
_chemical_formula_sum "Si O2"
_cell_formula_units_Z 32
_cell_length_a 37.067771
_cell_length_b 8.362227
_cell_length_c 13.838268
_cell_angle_alpha 90.000000
_cell_angle_beta 163.314175
_cell_angle_gamma 90.000000
_cell_volume 1231.597983
_symmetry_space_group_name_H-M "P 21/C"
_symmetry_group_IT_number 14
_symmetry_cell_setting 'monoclinic'
loop_
_space_group_symop_operation_xyz
x,y,z
-x,1/2+y,1/2-z
-x,-y,-z
x,1/2-y,1/2+z
loop_
_atom_site_type_symbol
_atom_site_label
_atom_site_fract_x
_atom_site_fract_y
_atom_site_fract_z
Si Si1 0.934170 0.388672 0.004148
Si Si2 0.549059 0.019134 0.494711
Si Si3 0.295779 0.746919 0.715981
Si Si4 0.791623 0.687445 0.612117
Si Si5 0.559747 0.261518 0.696473
Si Si6 0.117849 0.211585 0.342407
Si Si7 0.671198 0.992598 0.352458
Si Si8 0.886866 0.138872 0.604593
O O1 0.818310 0.313261 0.647127
O O2 0.912075 0.578284 0.940380
O O3 0.917881 0.340748 0.072831
O O4 0.057648 0.330188 0.265506
O O5 0.592728 0.117784 0.512279
O O6 0.523105 0.155493 0.507485
O O7 0.444723 0.879989 0.233552
O O8 0.674389 0.919538 0.845767
O O9 0.223274 0.756803 0.630830
O O10 0.329373 0.913475 0.750174
O O11 0.779133 0.712232 0.463875
O O12 0.782544 0.862739 0.635150
O O13 0.452297 0.385349 0.451400
O O14 0.667010 0.375611 0.925824
O O15 0.153806 0.046761 0.485338
O O16 0.008183 0.166783 0.983599
#
# Coordination Sequence:
#
# PCOD9239806 Si02
#       8
#     4   4   4   4   4   4   4   4
#     4  10  22  35  55  79 109 151 185 228 278 326
#     4   8  15  27  48  80 115 132 179 229 262 327
#     4   9  17  34  54  80 114 146 178 232 272 316
#     4  10  18  32  52  78 111 144 182 233 272 319
#     4   8  14  25  47  85 107 138 180 217 269 333
#     4  10  21  37  54  78 111 148 183 237 273 319
#     4   9  15  27  52  78 112 138 181 224 265 331
#     4  10  21  37  55  78 112 145 186 229 277 329
#
# _framework density 25.982503999999999
#
# number of rings (size 3 to 8) (size 9 to 14) (size 15 to 20)
#    0.000    2.750    1.250    0.375    1.750    0.000 
#    0.000    0.000    0.000    0.000    0.000   87.500 
#    0.000    0.000    0.000    0.000    0.000    0.250 
#
# Total GULP energy -178830.608260 kJ/mol
# GULP energy per Si atom -5588.456508 kJ/mol
# Density = 2.592337 g / cm^3
# Si number density = 25.982504 Si / 1000 Ang^3
#
#
#
# Elastic Constant Matrix: (Units=GPa)
#
#
# Indices 1 2 3 4 5 6 
#
# 1 188.1220 90.4311 45.1053 0.0000 6.6404 0.0000
# 2 90.4311 163.7647 25.4289 0.0000 2.6227 0.0000
# 3 45.1053 25.4289 36.7881 0.0000 -3.5343 0.0000
# 4 0.0000 0.0000 0.0000 30.0507 0.0000 31.4324
# 5 6.6404 2.6227 -3.5343 0.0000 31.6842 0.0000
# 6 0.0000 0.0000 0.0000 31.4324 0.0000 57.1381
#
#
#
# Elastic Compliance Matrix: (Units=1/GPa)
#
#
# Indices 1 2 3 4 5 6 
#
# 1 0.009412 -0.003721 -0.009226 0.000000 -0.002694 0.000000
# 2 -0.003721 0.008351 -0.001214 0.000000 -0.000047 0.000000
# 3 -0.009226 -0.001214 0.039957 0.000000 0.006491 0.000000
# 4 0.000000 0.000000 0.000000 0.078374 0.000000 -0.043115
# 5 -0.002694 -0.000047 0.006491 0.000000 0.032854 0.000000
# 6 0.000000 0.000000 0.000000 -0.043115 0.000000 0.041219
#
#
# Mechanical properties :
#
#
# Convention : Reuss Voigt Hill
#
# Bulk Modulus (GPa) = 34.01715 78.95616 56.48665
# Shear Modulus (GPa) = 20.13787 38.95524 29.54656
#
# Velocity S-wave (km/s) = 2.78700 3.87626 3.37586
# Velocity P-wave (km/s) = 4.84533 7.10550 6.08134
#
# Compressibility (1/GPa) = 0.02939694
#
# Stress axis : x y z
#
# Youngs Moduli (GPa) = 106.24958 119.75272 25.02682
#
# Poissons Ratio (x) = 0.44566 0.23090
# Poissons Ratio (y) = 0.39541 0.03038
# Poissons Ratio (z) = 0.98026 0.14535
#
# Static dielectric constant tensor:
#      x y z
#    x 2.063150 0.000000 -0.004480 
#    y 0.000000 2.044060 0.000000 
#    z -0.004480 0.000000 2.116560 
# 
# From -- ./inp_files/36483.got.cif
#   From: 2010.05.17/outbox.cif.g08.bks.cpg/sg14_19_cif.got.tgz:36483.got - 2010.06.03 17:49:19.
