data_PCOD9239266
_publ_section_title
;
Structure prediction by ZEFSAII (Michael W. Deem and Ramdas Pophale) SiO2 
 PCOD9239266
Probable space group: P 21/C
;
_chemical_formula_sum "Si O2"
_cell_formula_units_Z 30
_cell_length_a 15.894426
_cell_length_b 12.471834
_cell_length_c 5.870129
_cell_angle_alpha 90.000000
_cell_angle_beta 115.194724
_cell_angle_gamma 90.000000
_cell_volume 1052.948690
_symmetry_space_group_name_H-M "P 21/C"
_symmetry_group_IT_number 14
_symmetry_cell_setting 'monoclinic'
loop_
_space_group_symop_operation_xyz
x,y,z
-x,1/2+y,1/2-z
-x,-y,-z
x,1/2-y,1/2+z
loop_
_atom_site_type_symbol
_atom_site_label
_atom_site_fract_x
_atom_site_fract_y
_atom_site_fract_z
Si Si1 0.055282 0.719097 0.258536
Si Si2 0.611047 0.609370 0.439032
Si Si3 0.000000 0.000000 0.500000
Si Si4 0.746800 0.333761 0.589469
Si Si5 0.816836 0.696146 0.767696
Si Si6 0.420626 0.620828 0.374576
Si Si7 0.314439 0.501351 0.859509
Si Si8 0.845941 0.494470 0.029531
O O1 0.016266 0.740258 0.467655
O O2 0.167341 0.742116 0.370615
O O3 0.051654 0.590954 0.221676
O O4 0.709377 0.651545 0.649035
O O5 0.521926 0.667494 0.439514
O O6 0.584210 0.484615 0.467164
O O7 0.631543 0.596344 0.195769
O O8 0.945138 0.055716 0.672478
O O9 0.649715 0.295376 0.587724
O O10 0.726262 0.409265 0.353994
O O11 0.777882 0.417171 0.819335
O O12 0.830799 0.740082 0.525334
O O13 0.879558 0.586936 0.884867
O O14 0.382954 0.563906 0.103807
O O15 0.218799 0.455648 0.856664
#
# Coordination Sequence:
#
# PCOD9239266 Si02
#       8
#     4   4   2   4   4   4   4   4
#     4  11  27  49  75 111 153 193 245 308 374 450
#     4  10  19  35  54  95 125 173 239 283 346 410
#     4  10  26  50  78 110 144 194 238 312 378 448
#     4   9  20  38  66  96 127 180 227 285 354 416
#     4  12  25  40  62  89 139 187 219 280 349 421
#     4   9  18  32  63  91 126 167 237 301 334 410
#     4  10  16  34  66  93 123 170 231 291 344 421
#     4  10  21  42  64  95 127 172 236 278 348 438
#
# _framework density 28.491416999999998
#
# number of rings (size 3 to 8) (size 9 to 14) (size 15 to 20)
#    0.000    1.867    4.000    1.200    5.600    1.600 
#    2.400    1.333    0.000    0.000    0.000    0.000 
#    0.000    0.000    0.000    0.000    0.000    0.000 
#
# Total GULP energy -167173.643309 kJ/mol
# GULP energy per Si atom -5572.454777 kJ/mol
# Density = 2.842657 g / cm^3
# Si number density = 28.491417 Si / 1000 Ang^3
#
#
#
# Elastic Constant Matrix: (Units=GPa)
#
#
# Indices 1 2 3 4 5 6 
#
# 1 187.1567 3.6985 45.4519 0.0000 -18.2010 0.0000
# 2 3.6985 86.4597 49.6750 0.0000 -24.4792 0.0000
# 3 45.4519 49.6750 127.3737 0.0000 -25.8635 0.0000
# 4 0.0000 0.0000 0.0000 41.7545 0.0000 -1.2290
# 5 -18.2010 -24.4792 -25.8635 0.0000 44.8875 0.0000
# 6 0.0000 0.0000 0.0000 -1.2290 0.0000 39.3682
#
#
#
# Elastic Compliance Matrix: (Units=1/GPa)
#
#
# Indices 1 2 3 4 5 6 
#
# 1 0.006095 0.001703 -0.002433 0.000000 0.001998 0.000000
# 2 0.001703 0.016641 -0.005792 0.000000 0.006428 0.000000
# 3 -0.002433 -0.005792 0.011480 0.000000 0.002469 0.000000
# 4 0.000000 0.000000 0.000000 0.023972 0.000000 0.000748
# 5 0.001998 0.006428 0.002469 0.000000 0.028016 0.000000
# 6 0.000000 0.000000 0.000000 0.000748 0.000000 0.025425
#
#
# Mechanical properties :
#
#
# Convention : Reuss Voigt Hill
#
# Bulk Modulus (GPa) = 47.23655 66.51567 56.87611
# Shear Modulus (GPa) = 37.95645 45.34635 41.65140
#
# Velocity S-wave (km/s) = 3.65390 3.99379 3.82762
# Velocity P-wave (km/s) = 5.86656 6.68309 6.28809
#
# Compressibility (1/GPa) = 0.02117005
#
# Stress axis : x y z
#
# Youngs Moduli (GPa) = 164.07694 60.09158 87.11172
#
# Poissons Ratio (x) = -0.10234 0.21197
# Poissons Ratio (y) = -0.27942 0.50459
# Poissons Ratio (z) = 0.39925 0.34808
#
# Static dielectric constant tensor:
#      x y z
#    x 3.567700 0.000000 0.072630 
#    y 0.000000 1.758560 0.000000 
#    z 0.072630 0.000000 2.275670 
# 
# From -- ./inp_files/4197.got.cif
#   From: 2010.05.17/outbox.cif.g08.bks.cpg/sg14_3_cif.got.tgz:4197.got - 2010.06.03 17:49:19.
