data_PCOD9239551
_publ_section_title
;
Structure prediction by ZEFSAII (Michael W. Deem and Ramdas Pophale) SiO2 
 PCOD9239551
Probable space group: P 21/C
;
_chemical_formula_sum "Si O2"
_cell_formula_units_Z 28
_cell_length_a 5.343338
_cell_length_b 15.738930
_cell_length_c 13.745426
_cell_angle_alpha 90.000000
_cell_angle_beta 71.378017
_cell_angle_gamma 90.000000
_cell_volume 1095.449022
_symmetry_space_group_name_H-M "P 21/C"
_symmetry_group_IT_number 14
_symmetry_cell_setting 'monoclinic'
loop_
_space_group_symop_operation_xyz
x,y,z
-x,1/2+y,1/2-z
-x,-y,-z
x,1/2-y,1/2+z
loop_
_atom_site_type_symbol
_atom_site_label
_atom_site_fract_x
_atom_site_fract_y
_atom_site_fract_z
Si Si1 0.041273 0.276643 0.736846
Si Si2 0.854405 0.752571 0.500688
Si Si3 0.543455 0.559262 0.812018
Si Si4 0.217559 0.886694 0.972625
Si Si5 0.466796 0.885545 0.749566
Si Si6 0.861872 0.402304 0.307831
Si Si7 0.632057 0.195900 0.508754
O O1 0.096470 0.237997 0.621777
O O2 0.292325 0.325724 0.748045
O O3 0.794297 0.337808 0.753422
O O4 0.951906 0.195638 0.809698
O O5 0.917125 0.651793 0.504253
O O6 0.565150 0.788152 0.555126
O O7 0.054855 0.813147 0.533954
O O8 0.454129 0.461807 0.831262
O O9 0.371237 0.594076 0.742034
O O10 0.471783 0.621778 0.909208
O O11 0.861542 0.556361 0.759547
O O12 0.232799 0.931873 0.073972
O O13 0.651104 0.069558 0.135780
O O14 0.361071 0.793725 0.951645
#
# Coordination Sequence:
#
# PCOD9239551 Si02
#       7
#     4   4   4   4   4   4   4
#     4  11  18  39  57  80 103 154 198 236 252 341
#     4   9  16  32  57  74  98 145 189 233 247 329
#     4  12  23  37  56  90 114 152 181 242 277 346
#     4   9  22  34  57  83 114 151 184 233 278 340
#     4  11  23  37  59  80 122 148 189 222 298 331
#     4  12  23  35  60  86 117 140 197 233 285 325
#     4  10  17  36  56  76 104 149 199 222 262 327
#
# _framework density 25.560296000000001
#
# number of rings (size 3 to 8) (size 9 to 14) (size 15 to 20)
#    0.857    0.571    4.286    1.714    2.000    1.143 
#    0.000    0.000    0.000    1.714    0.000    0.000 
#    0.000    0.000    0.000    0.000    0.000    0.000 
#
# Total GULP energy -156244.319692 kJ/mol
# GULP energy per Si atom -5580.154275 kJ/mol
# Density = 2.550212 g / cm^3
# Si number density = 25.560296 Si / 1000 Ang^3
#
#
#
# Elastic Constant Matrix: (Units=GPa)
#
#
# Indices 1 2 3 4 5 6 
#
# 1 177.1378 19.5662 11.3585 0.0000 10.4506 0.0000
# 2 19.5662 77.0819 -13.2181 0.0000 -4.7218 0.0000
# 3 11.3585 -13.2181 62.4666 0.0000 -11.0779 0.0000
# 4 0.0000 0.0000 0.0000 23.0222 0.0000 1.6275
# 5 10.4506 -4.7218 -11.0779 0.0000 29.1007 0.0000
# 6 0.0000 0.0000 0.0000 1.6275 0.0000 31.1645
#
#
#
# Elastic Compliance Matrix: (Units=1/GPa)
#
#
# Indices 1 2 3 4 5 6 
#
# 1 0.006228 -0.002168 -0.002199 0.000000 -0.003425 0.000000
# 2 -0.002168 0.014558 0.004324 0.000000 0.004786 0.000000
# 3 -0.002199 0.004324 0.018861 0.000000 0.008671 0.000000
# 4 0.000000 0.000000 0.000000 0.043597 0.000000 -0.002277
# 5 -0.003425 0.004786 0.008671 0.000000 0.039671 0.000000
# 6 0.000000 0.000000 0.000000 -0.002277 0.000000 0.032207
#
#
# Mechanical properties :
#
#
# Convention : Reuss Voigt Hill
#
# Bulk Modulus (GPa) = 25.27719 39.12217 32.19968
# Shear Modulus (GPa) = 29.69225 36.58946 33.14086
#
# Velocity S-wave (km/s) = 3.41200 3.78762 3.60471
# Velocity P-wave (km/s) = 5.04312 5.87087 5.47267
#
# Compressibility (1/GPa) = 0.03956136
#
# Stress axis : x y z
#
# Youngs Moduli (GPa) = 160.57017 68.69055 53.01975
#
# Poissons Ratio (x) = 0.14890 0.11657
# Poissons Ratio (y) = 0.34806 -0.22923
# Poissons Ratio (z) = 0.35302 -0.29698
#
# Static dielectric constant tensor:
#      x y z
#    x 2.232690 0.000000 0.025980 
#    y 0.000000 1.977460 0.000000 
#    z 0.025980 0.000000 2.106120 
# 
# From -- ./inp_files/53575.got.cif
#   From: 2010.05.17/outbox.cif.g08.bks.cpg/sg14_27_cif.got.tgz:53575.got - 2010.06.03 17:49:19.
