data_PCOD9239238
_publ_section_title
;
Structure prediction by ZEFSAII (Michael W. Deem and Ramdas Pophale) SiO2 
 PCOD9239238
Probable space group: P 21/C
;
_chemical_formula_sum "Si O2"
_cell_formula_units_Z 26
_cell_length_a 23.989176
_cell_length_b 7.027694
_cell_length_c 12.456887
_cell_angle_alpha 90.000000
_cell_angle_beta 150.392832
_cell_angle_gamma 90.000000
_cell_volume 1037.550313
_symmetry_space_group_name_H-M "P 21/C"
_symmetry_group_IT_number 14
_symmetry_cell_setting 'monoclinic'
loop_
_space_group_symop_operation_xyz
x,y,z
-x,1/2+y,1/2-z
-x,-y,-z
x,1/2-y,1/2+z
loop_
_atom_site_type_symbol
_atom_site_label
_atom_site_fract_x
_atom_site_fract_y
_atom_site_fract_z
Si Si1 0.500000 0.000000 0.000000
Si Si2 0.339935 0.112982 0.430673
Si Si3 0.152981 0.043685 0.962858
Si Si4 0.791987 0.070929 0.175750
Si Si5 0.099302 0.892123 0.419698
Si Si6 0.244373 0.511353 0.977061
Si Si7 0.433958 0.690582 0.614216
O O1 0.635657 0.039409 0.262574
O O2 0.480198 0.886470 0.080064
O O3 0.267462 0.133881 0.417948
O O4 0.379464 0.893779 0.501176
O O5 0.459749 0.217732 0.627856
O O6 0.261350 0.140542 0.197866
O O7 0.166079 0.041631 0.857283
O O8 0.151648 0.819167 0.994291
O O9 0.034919 0.120476 0.808499
O O10 0.864012 0.034749 0.402290
O O11 0.798134 0.293312 0.150475
O O12 0.660360 0.057064 0.989499
O O13 0.150527 0.020792 0.410655
#
# Coordination Sequence:
#
# PCOD9239238 Si02
#       7
#     2   4   4   4   4   4   4
#     4  10  16  32  62  90 110 156 194 246 282 360
#     4  10  21  40  59  93 118 157 197 249 298 357
#     4  11  23  40  60  87 124 157 203 243 298 356
#     4  10  19  39  61  85 117 165 187 247 302 360
#     4  11  21  41  60  86 118 167 198 245 294 354
#     4   9  18  34  62  83 118 152 200 240 294 344
#     4  10  19  37  64  86 121 154 199 243 306 350
#
# _framework density 25.059024999999998
#
# number of rings (size 3 to 8) (size 9 to 14) (size 15 to 20)
#    0.000    1.846    4.615    1.385    0.000    1.231 
#    2.769    3.077    0.000    0.000    0.000    0.000 
#    0.000    0.000    0.000    0.000    0.000    0.000 
#
# Total GULP energy -145151.196453 kJ/mol
# GULP energy per Si atom -5582.738325 kJ/mol
# Density = 2.500199 g / cm^3
# Si number density = 25.059025 Si / 1000 Ang^3
#
#
#
# Elastic Constant Matrix: (Units=GPa)
#
#
# Indices 1 2 3 4 5 6 
#
# 1 140.1537 24.2228 47.0018 0.0000 10.4964 0.0000
# 2 24.2228 63.1283 -0.4433 0.0000 8.2136 0.0000
# 3 47.0018 -0.4433 96.7552 0.0000 5.0938 0.0000
# 4 0.0000 0.0000 0.0000 28.5943 0.0000 9.3948
# 5 10.4964 8.2136 5.0938 0.0000 38.8627 0.0000
# 6 0.0000 0.0000 0.0000 9.3948 0.0000 22.7534
#
#
#
# Elastic Compliance Matrix: (Units=1/GPa)
#
#
# Indices 1 2 3 4 5 6 
#
# 1 0.009325 -0.003453 -0.004483 0.000000 -0.001201 0.000000
# 2 -0.003453 0.017574 0.001918 0.000000 -0.003033 0.000000
# 3 -0.004483 0.001918 0.012566 0.000000 -0.000842 0.000000
# 4 0.000000 0.000000 0.000000 0.040461 0.000000 -0.016706
# 5 -0.001201 -0.003033 -0.000842 0.000000 0.026807 0.000000
# 6 0.000000 0.000000 0.000000 -0.016706 0.000000 0.050847
#
#
# Mechanical properties :
#
#
# Convention : Reuss Voigt Hill
#
# Bulk Modulus (GPa) = 36.45809 49.06667 42.76238
# Shear Modulus (GPa) = 27.97054 33.32582 30.64818
#
# Velocity S-wave (km/s) = 3.34456 3.65073 3.50099
# Velocity P-wave (km/s) = 5.43095 6.11501 5.78311
#
# Compressibility (1/GPa) = 0.02742875
#
# Stress axis : x y z
#
# Youngs Moduli (GPa) = 107.23779 56.90263 79.57994
#
# Poissons Ratio (x) = 0.19650 0.35672
# Poissons Ratio (y) = 0.37032 -0.15261
# Poissons Ratio (z) = 0.48070 -0.10912
#
# Static dielectric constant tensor:
#      x y z
#    x 1.982680 0.000000 0.008700 
#    y 0.000000 2.081700 0.000000 
#    z 0.008700 0.000000 1.907740 
# 
# From -- ./inp_files/28681.got.cif
#   From: 2010.05.17/outbox.cif.g08.bks.cpg/sg14_15_cif.got.tgz:28681.got - 2010.06.03 17:49:19.
