data_PCOD9239323
_publ_section_title
;
Structure prediction by ZEFSAII (Michael W. Deem and Ramdas Pophale) SiO2 
 PCOD9239323
Probable space group: P 21/C
;
_chemical_formula_sum "Si O2"
_cell_formula_units_Z 28
_cell_length_a 10.933358
_cell_length_b 14.064471
_cell_length_c 13.555671
_cell_angle_alpha 90.000000
_cell_angle_beta 146.672005
_cell_angle_gamma 90.000000
_cell_volume 1145.278886
_symmetry_space_group_name_H-M "P 21/C"
_symmetry_group_IT_number 14
_symmetry_cell_setting 'monoclinic'
loop_
_space_group_symop_operation_xyz
x,y,z
-x,1/2+y,1/2-z
-x,-y,-z
x,1/2-y,1/2+z
loop_
_atom_site_type_symbol
_atom_site_label
_atom_site_fract_x
_atom_site_fract_y
_atom_site_fract_z
Si Si1 0.330178 0.230385 0.347009
Si Si2 0.695734 0.916184 0.284070
Si Si3 0.482857 0.593352 0.897786
Si Si4 0.145488 0.593378 0.211407
Si Si5 0.471390 0.211292 0.139268
Si Si6 0.963362 0.577807 0.293533
Si Si7 0.317770 0.037340 0.139964
O O1 0.376489 0.314616 0.305249
O O2 0.532299 0.157539 0.512605
O O3 0.292749 0.279737 0.429818
O O4 0.113630 0.164102 0.186616
O O5 0.514276 0.980464 0.216180
O O6 0.910115 0.899936 0.497271
O O7 0.774064 0.984409 0.246866
O O8 0.471707 0.677857 0.808510
O O9 0.331797 0.508595 0.758011
O O10 0.731875 0.552392 0.081363
O O11 0.318754 0.659335 0.269767
O O12 0.117195 0.614890 0.307338
O O13 0.377363 0.147349 0.163933
O O14 0.094217 0.494609 0.435627
#
# Coordination Sequence:
#
# PCOD9239323 Si02
#       7
#     4   4   4   4   4   4   4
#     4   8  18  32  40  72 106 126 160 204 235 302
#     4  10  18  27  50  75 103 124 163 204 254 296
#     4   8  20  34  40  76 104 126 166 206 233 312
#     4  10  17  29  47  78  99 129 159 205 252 302
#     4   8  19  30  49  71 104 126 164 201 252 287
#     4   9  19  29  46  66 103 130 159 194 243 294
#     4  11  17  33  52  72  96 141 157 200 258 293
#
# _framework density 24.448193
#
# number of rings (size 3 to 8) (size 9 to 14) (size 15 to 20)
#    1.714    0.857    1.429    1.714    2.000    2.286 
#    0.000    0.000    0.000    0.000    0.000   12.000 
#    0.000    2.571    0.000    0.000    0.000    0.000 
#
# Total GULP energy -156078.546617 kJ/mol
# GULP energy per Si atom -5574.233808 kJ/mol
# Density = 2.439255 g / cm^3
# Si number density = 24.448193 Si / 1000 Ang^3
#
#
#
# Elastic Constant Matrix: (Units=GPa)
#
#
# Indices 1 2 3 4 5 6 
#
# 1 81.1487 37.9443 13.2462 0.0000 2.7887 0.0000
# 2 37.9443 151.9168 41.8843 0.0000 -9.4412 0.0000
# 3 13.2462 41.8843 71.2344 0.0000 13.5854 0.0000
# 4 0.0000 0.0000 0.0000 33.1144 0.0000 -18.4056
# 5 2.7887 -9.4412 13.5854 0.0000 25.3361 0.0000
# 6 0.0000 0.0000 0.0000 -18.4056 0.0000 39.2697
#
#
#
# Elastic Compliance Matrix: (Units=1/GPa)
#
#
# Indices 1 2 3 4 5 6 
#
# 1 0.014165 -0.003774 0.000168 0.000000 -0.003056 0.000000
# 2 -0.003774 0.009783 -0.006488 0.000000 0.007540 0.000000
# 3 0.000168 -0.006488 0.020369 0.000000 -0.013359 0.000000
# 4 0.000000 0.000000 0.000000 0.040837 0.000000 0.019140
# 5 -0.003056 0.007540 -0.013359 0.000000 0.049778 0.000000
# 6 0.000000 0.000000 0.000000 0.019140 0.000000 0.034436
#
#
# Mechanical properties :
#
#
# Convention : Reuss Voigt Hill
#
# Bulk Modulus (GPa) = 41.44471 54.49437 47.96954
# Shear Modulus (GPa) = 25.30359 33.62569 29.46464
#
# Velocity S-wave (km/s) = 3.22061 3.71264 3.47535
# Velocity P-wave (km/s) = 5.55146 6.38094 5.98060
#
# Compressibility (1/GPa) = 0.02412853
#
# Stress axis : x y z
#
# Youngs Moduli (GPa) = 70.59409 102.22186 49.09307
#
# Poissons Ratio (x) = 0.38582 -0.00824
# Poissons Ratio (y) = 0.26644 0.31852
# Poissons Ratio (z) = -0.01185 0.66323
#
# Static dielectric constant tensor:
#      x y z
#    x 2.025610 0.000000 -0.042410 
#    y 0.000000 1.938450 0.000000 
#    z -0.042410 0.000000 1.917880 
# 
# From -- ./inp_files/55676.got.cif
#   From: 2010.05.17/outbox.cif.g08.bks.cpg/sg14_28_cif.got.tgz:55676.got - 2010.06.03 17:49:19.
