data_PCOD9239908
_publ_section_title
;
Structure prediction by ZEFSAII (Michael W. Deem and Ramdas Pophale) SiO2 
 PCOD9239908
Probable space group: P 21/C
;
_chemical_formula_sum "Si O2"
_cell_formula_units_Z 32
_cell_length_a 20.077915
_cell_length_b 5.755327
_cell_length_c 22.647661
_cell_angle_alpha 90.000000
_cell_angle_beta 138.862574
_cell_angle_gamma 90.000000
_cell_volume 1721.671523
_symmetry_space_group_name_H-M "P 21/C"
_symmetry_group_IT_number 14
_symmetry_cell_setting 'monoclinic'
loop_
_space_group_symop_operation_xyz
x,y,z
-x,1/2+y,1/2-z
-x,-y,-z
x,1/2-y,1/2+z
loop_
_atom_site_type_symbol
_atom_site_label
_atom_site_fract_x
_atom_site_fract_y
_atom_site_fract_z
Si Si1 0.160550 0.059929 0.184545
Si Si2 0.481978 0.881113 0.204323
Si Si3 0.988163 0.428078 0.098130
Si Si4 0.103300 0.923099 0.869473
Si Si5 0.261318 0.452439 0.563476
Si Si6 0.684789 0.828380 0.287697
Si Si7 0.903140 0.192966 0.750689
Si Si8 0.837303 0.201332 0.407989
O O1 0.263419 0.147361 0.222380
O O2 0.078627 0.263750 0.135628
O O3 0.169903 0.957211 0.256546
O O4 0.115789 0.866607 0.110129
O O5 0.486159 0.626487 0.240577
O O6 0.564544 0.852869 0.207666
O O7 0.365835 0.934545 0.110819
O O8 0.924784 0.287101 0.105202
O O9 0.038513 0.640224 0.164926
O O10 0.914691 0.467611 0.993475
O O11 0.145308 0.831827 0.835542
O O12 0.994808 0.040970 0.785082
O O13 0.181984 0.085155 0.957715
O O14 0.289522 0.242928 0.626724
O O15 0.208614 0.632375 0.572865
O O16 0.745191 0.064089 0.317352
#
# Coordination Sequence:
#
# PCOD9239908 Si02
#       8
#     4   4   4   4   4   4   4   4
#     4  10  22  32  48  75 106 146 179 220 270 338
#     4  10  19  35  58  85 117 146 185 235 293 347
#     4  10  20  33  51  73 106 140 180 220 270 326
#     4  10  20  34  53  76 106 142 188 230 274 325
#     4   9  19  33  52  82 109 139 180 229 286 334
#     4  10  19  33  52  78 111 140 178 223 285 341
#     4  11  20  35  51  73 105 145 188 226 272 322
#     4  10  18  33  51  76 107 141 173 217 275 338
#
# _framework density 18.586590000000001
#
# number of rings (size 3 to 8) (size 9 to 14) (size 15 to 20)
#    0.000    2.000    2.500    1.875    0.000    4.000 
#    0.000    0.000    0.000    0.750    0.000    3.500 
#    0.000    0.000    0.000    0.000    0.000    0.000 
#
# Total GULP energy -178261.676920 kJ/mol
# GULP energy per Si atom -5570.677404 kJ/mol
# Density = 1.854429 g / cm^3
# Si number density = 18.586590 Si / 1000 Ang^3
#
#
#
# Elastic Constant Matrix: (Units=GPa)
#
#
# Indices 1 2 3 4 5 6 
#
# 1 106.0269 11.3075 29.3695 0.0000 -6.3820 0.0000
# 2 11.3075 41.3629 -2.9157 0.0000 -8.6053 0.0000
# 3 29.3695 -2.9157 32.4181 0.0000 -4.0876 0.0000
# 4 0.0000 0.0000 0.0000 17.0075 0.0000 -4.0048
# 5 -6.3820 -8.6053 -4.0876 0.0000 8.8170 0.0000
# 6 0.0000 0.0000 0.0000 -4.0048 0.0000 19.5857
#
#
#
# Elastic Compliance Matrix: (Units=1/GPa)
#
#
# Indices 1 2 3 4 5 6 
#
# 1 0.013393 -0.004714 -0.012655 0.000000 -0.000774 0.000000
# 2 -0.004714 0.033505 0.011659 0.000000 0.034693 0.000000
# 3 -0.012655 0.011659 0.046350 0.000000 0.023706 0.000000
# 4 0.000000 0.000000 0.000000 0.061772 0.000000 0.012631
# 5 -0.000774 0.034693 0.023706 0.000000 0.157706 0.000000
# 6 0.000000 0.000000 0.000000 0.012631 0.000000 0.053640
#
#
# Mechanical properties :
#
#
# Convention : Reuss Voigt Hill
#
# Bulk Modulus (GPa) = 12.22107 28.37005 20.29556
# Shear Modulus (GPa) = 12.34374 18.55182 15.44778
#
# Velocity S-wave (km/s) = 2.57985 3.16275 2.88605
# Velocity P-wave (km/s) = 3.93238 5.35109 4.69563
#
# Compressibility (1/GPa) = 0.08182591
#
# Stress axis : x y z
#
# Youngs Moduli (GPa) = 74.66400 29.84670 21.57496
#
# Poissons Ratio (x) = 0.14071 0.27304
# Poissons Ratio (y) = 0.35200 -0.25154
# Poissons Ratio (z) = 0.94490 -0.34798
#
# Static dielectric constant tensor:
#      x y z
#    x 1.661410 0.000000 -0.002090 
#    y 0.000000 1.705320 0.000000 
#    z -0.002090 0.000000 1.630940 
# 
# From -- ./inp_files/67869.got.cif
#   From: 2010.05.17/outbox.cif.g08.bks.cpg/sg14_34_cif.got.tgz:67869.got - 2010.06.03 17:49:19.
