data_PCOD9239459
_publ_section_title
;
Structure prediction by ZEFSAII (Michael W. Deem and Ramdas Pophale) SiO2 
 PCOD9239459
Probable space group: P 21/C
;
_chemical_formula_sum "Si O2"
_cell_formula_units_Z 32
_cell_length_a 11.661181
_cell_length_b 14.073459
_cell_length_c 17.827632
_cell_angle_alpha 90.000000
_cell_angle_beta 29.835934
_cell_angle_gamma 90.000000
_cell_volume 1455.613021
_symmetry_space_group_name_H-M "P 21/C"
_symmetry_group_IT_number 14
_symmetry_cell_setting 'monoclinic'
loop_
_space_group_symop_operation_xyz
x,y,z
-x,1/2+y,1/2-z
-x,-y,-z
x,1/2-y,1/2+z
loop_
_atom_site_type_symbol
_atom_site_label
_atom_site_fract_x
_atom_site_fract_y
_atom_site_fract_z
Si Si1 0.009985 0.993498 0.098452
Si Si2 0.148404 0.849522 0.269268
Si Si3 0.560786 0.743208 0.460711
Si Si4 0.127192 0.165359 0.106850
Si Si5 0.298524 0.882961 0.835338
Si Si6 0.584294 0.333436 0.242209
Si Si7 0.543740 0.884369 0.351181
Si Si8 0.665339 0.574644 0.004576
O O1 0.911771 0.074016 0.096043
O O2 0.044905 0.057633 0.150994
O O3 0.807258 0.917102 0.215112
O O4 0.243766 0.941656 0.941382
O O5 0.370616 0.834235 0.091212
O O6 0.233639 0.879552 0.303373
O O7 0.051003 0.741407 0.324409
O O8 0.935980 0.909359 0.359528
O O9 0.801026 0.697705 0.350721
O O10 0.521711 0.781327 0.400193
O O11 0.563516 0.841810 0.508964
O O12 0.352265 0.174467 0.924789
O O13 0.310803 0.770449 0.835960
O O14 0.531129 0.908582 0.659363
O O15 0.520520 0.381106 0.199842
O O16 0.397293 0.965953 0.476068
#
# Coordination Sequence:
#
# PCOD9239459 Si02
#       8
#     4   4   4   4   4   4   4   4
#     4  10  20  35  65  90 118 150 206 249 302 345
#     4  10  18  35  62  82 117 166 203 237 294 363
#     4  10  21  38  60  85 120 155 206 244 296 359
#     4  10  18  37  64  89 107 165 206 241 289 372
#     4  10  17  33  58  95 116 152 197 253 292 354
#     4  11  20  34  58  91 127 153 201 250 298 352
#     4  11  24  37  57  97 125 151 197 262 300 350
#     4  10  19  36  62  87 115 160 209 245 292 362
#
# _framework density 21.983864000000001
#
# number of rings (size 3 to 8) (size 9 to 14) (size 15 to 20)
#    0.000    1.750    5.000    3.375    0.000    0.500 
#    4.500    0.000    0.000    0.750    6.500    0.000 
#    0.000    0.000    0.000    0.000    0.000    0.000 
#
# Total GULP energy -178428.962253 kJ/mol
# GULP energy per Si atom -5575.905070 kJ/mol
# Density = 2.193383 g / cm^3
# Si number density = 21.983864 Si / 1000 Ang^3
#
#
#
# Elastic Constant Matrix: (Units=GPa)
#
#
# Indices 1 2 3 4 5 6 
#
# 1 68.5578 7.6553 26.0849 0.0000 -4.9160 0.0000
# 2 7.6553 49.9530 7.8715 0.0000 2.3382 0.0000
# 3 26.0849 7.8715 36.9937 0.0000 -7.3971 0.0000
# 4 0.0000 0.0000 0.0000 27.9595 0.0000 -4.0853
# 5 -4.9160 2.3382 -7.3971 0.0000 20.0393 0.0000
# 6 0.0000 0.0000 0.0000 -4.0853 0.0000 38.6091
#
#
#
# Elastic Compliance Matrix: (Units=1/GPa)
#
#
# Indices 1 2 3 4 5 6 
#
# 1 0.019971 -0.000859 -0.013927 0.000000 -0.000142 0.000000
# 2 -0.000859 0.021110 -0.004773 0.000000 -0.004436 0.000000
# 3 -0.013927 -0.004773 0.040268 0.000000 0.012004 0.000000
# 4 0.000000 0.000000 0.000000 0.036328 0.000000 0.003844
# 5 -0.000142 -0.004436 0.012004 0.000000 0.054816 0.000000
# 6 0.000000 0.000000 0.000000 0.003844 0.000000 0.026307
#
#
# Mechanical properties :
#
#
# Convention : Reuss Voigt Hill
#
# Bulk Modulus (GPa) = 23.67977 26.52533 25.10255
# Shear Modulus (GPa) = 19.84154 24.91444 22.37799
#
# Velocity S-wave (km/s) = 3.00751 3.37011 3.19396
# Velocity P-wave (km/s) = 4.78068 5.21877 5.00452
#
# Compressibility (1/GPa) = 0.04223014
#
# Stress axis : x y z
#
# Youngs Moduli (GPa) = 50.07222 47.37039 24.83355
#
# Poissons Ratio (x) = 0.04070 0.34587
# Poissons Ratio (y) = 0.04303 0.11853
# Poissons Ratio (z) = 0.69738 0.22610
#
# Static dielectric constant tensor:
#      x y z
#    x 1.883040 0.000000 0.035700 
#    y 0.000000 1.828680 0.000000 
#    z 0.035700 0.000000 1.837860 
# 
# From -- ./inp_files/57995.got.cif
#   From: 2010.05.17/outbox.cif.g08.bks.cpg/sg14_29_cif.got.tgz:57995.got - 2010.06.03 17:49:19.
