data_PCOD9239446
_publ_section_title
;
Structure prediction by ZEFSAII (Michael W. Deem and Ramdas Pophale) SiO2 
 PCOD9239446
Probable space group: P 21/C
;
_chemical_formula_sum "Si O2"
_cell_formula_units_Z 24
_cell_length_a 8.692121
_cell_length_b 8.161404
_cell_length_c 18.596488
_cell_angle_alpha 90.000000
_cell_angle_beta 65.553483
_cell_angle_gamma 90.000000
_cell_volume 1200.961273
_symmetry_space_group_name_H-M "P 21/C"
_symmetry_group_IT_number 14
_symmetry_cell_setting 'monoclinic'
loop_
_space_group_symop_operation_xyz
x,y,z
-x,1/2+y,1/2-z
-x,-y,-z
x,1/2-y,1/2+z
loop_
_atom_site_type_symbol
_atom_site_label
_atom_site_fract_x
_atom_site_fract_y
_atom_site_fract_z
Si Si1 0.843502 0.021078 0.264082
Si Si2 0.523749 0.044606 0.079612
Si Si3 0.195940 0.873305 0.197831
Si Si4 0.836954 0.664311 0.499323
Si Si5 0.385839 0.376499 0.067014
Si Si6 0.981557 0.867954 0.110203
O O1 0.806154 0.210347 0.254473
O O2 0.834453 0.902943 0.196388
O O3 0.723566 0.962201 0.350441
O O4 0.042259 0.995967 0.246945
O O5 0.501459 0.238862 0.083424
O O6 0.372286 0.963422 0.154058
O O7 0.700626 0.959846 0.062047
O O8 0.500000 0.000000 0.000000
O O9 0.137151 0.808717 0.129517
O O10 0.739930 0.785417 0.464932
O O11 0.934467 0.735358 0.549485
O O12 0.957345 0.546284 0.429854
O O13 0.500000 0.500000 0.000000
#
# Coordination Sequence:
#
# PCOD9239446 Si02
#       6
#     4   4   4   4   4   4
#     4  10  19  34  56  83 108 146 189 229 275 339
#     4  10  17  33  54  80 104 147 185 224 273 335
#     4  10  18  33  59  80 108 147 189 229 277 338
#     4  10  19  38  57  82 112 149 188 230 289 331
#     4  11  21  33  58  84 114 146 195 232 275 344
#     4   9  20  34  61  79 114 147 182 234 287 330
#
# _framework density 19.983989999999999
#
# number of rings (size 3 to 8) (size 9 to 14) (size 15 to 20)
#    1.000    1.000    3.333    4.000    0.000    0.000 
#    0.000    4.167    3.667    0.000    0.000    0.000 
#    0.000    0.000    0.000    0.000    0.000    0.000 
#
# Total GULP energy -133621.747036 kJ/mol
# GULP energy per Si atom -5567.572793 kJ/mol
# Density = 1.993851 g / cm^3
# Si number density = 19.983990 Si / 1000 Ang^3
#
#
#
# Elastic Constant Matrix: (Units=GPa)
#
#
# Indices 1 2 3 4 5 6 
#
# 1 30.7975 -5.8517 8.7170 0.0000 -2.9488 0.0000
# 2 -5.8517 65.1282 19.5515 0.0000 -20.2893 0.0000
# 3 8.7170 19.5515 103.3612 0.0000 -30.8989 0.0000
# 4 0.0000 0.0000 0.0000 29.1978 0.0000 -7.7016
# 5 -2.9488 -20.2893 -30.8989 0.0000 41.7331 0.0000
# 6 0.0000 0.0000 0.0000 -7.7016 0.0000 18.0482
#
#
#
# Elastic Compliance Matrix: (Units=1/GPa)
#
#
# Indices 1 2 3 4 5 6 
#
# 1 0.034490 0.004798 -0.003070 0.000000 0.002497 0.000000
# 2 0.004798 0.018846 -0.001450 0.000000 0.008428 0.000000
# 3 -0.003070 -0.001450 0.012756 0.000000 0.008522 0.000000
# 4 0.000000 0.000000 0.000000 0.038593 0.000000 0.016469
# 5 0.002497 0.008428 0.008522 0.000000 0.034545 0.000000
# 6 0.000000 0.000000 0.000000 0.016469 0.000000 0.062435
#
#
# Mechanical properties :
#
#
# Convention : Reuss Voigt Hill
#
# Bulk Modulus (GPa) = 15.00413 27.12447 21.06430
# Shear Modulus (GPa) = 22.38892 29.58716 25.98804
#
# Velocity S-wave (km/s) = 3.35078 3.85196 3.61008
# Velocity P-wave (km/s) = 4.74286 5.77806 5.28586
#
# Compressibility (1/GPa) = 0.06664832
#
# Stress axis : x y z
#
# Youngs Moduli (GPa) = 28.99405 53.06079 78.39639
#
# Poissons Ratio (x) = -0.25460 0.24067
# Poissons Ratio (y) = -0.13912 0.11369
# Poissons Ratio (z) = 0.08901 0.07695
#
# Static dielectric constant tensor:
#      x y z
#    x 1.782300 0.000000 0.022500 
#    y 0.000000 1.733810 0.000000 
#    z 0.022500 0.000000 1.714880 
# 
# From -- ./inp_files/64485.got.cif
#   From: 2010.05.17/outbox.cif.g08.bks.cpg/sg14_33_cif.got.tgz:64485.got - 2010.06.03 17:49:19.
