data_PCOD9239811
_publ_section_title
;
Structure prediction by ZEFSAII (Michael W. Deem and Ramdas Pophale) SiO2 
 PCOD9239811
Probable space group: P 21/C
;
_chemical_formula_sum "Si O2"
_cell_formula_units_Z 32
_cell_length_a 15.642697
_cell_length_b 5.475358
_cell_length_c 22.480675
_cell_angle_alpha 90.000000
_cell_angle_beta 109.294303
_cell_angle_gamma 90.000000
_cell_volume 1817.310062
_symmetry_space_group_name_H-M "P 21/C"
_symmetry_group_IT_number 14
_symmetry_cell_setting 'monoclinic'
loop_
_space_group_symop_operation_xyz
x,y,z
-x,1/2+y,1/2-z
-x,-y,-z
x,1/2-y,1/2+z
loop_
_atom_site_type_symbol
_atom_site_label
_atom_site_fract_x
_atom_site_fract_y
_atom_site_fract_z
Si Si1 0.222896 0.015366 0.599487
Si Si2 0.616537 0.736017 0.296595
Si Si3 0.369626 0.866148 0.101902
Si Si4 0.404572 0.939305 0.445636
Si Si5 0.134468 0.398627 0.485967
Si Si6 0.468328 0.458248 0.835817
Si Si7 0.320153 0.432643 0.473937
Si Si8 0.953469 0.200183 0.446893
O O1 0.283684 0.813045 0.579502
O O2 0.131660 0.908014 0.607706
O O3 0.292108 0.126228 0.663156
O O4 0.183707 0.204424 0.541640
O O5 0.626467 0.477044 0.331644
O O6 0.595599 0.693409 0.223164
O O7 0.531541 0.871274 0.308655
O O8 0.461369 0.720122 0.115034
O O9 0.360269 0.075999 0.050741
O O10 0.417734 0.911226 0.377799
O O11 0.344811 0.181196 0.446738
O O12 0.500000 0.000000 0.500000
O O13 0.363654 0.682836 0.459099
O O14 0.212530 0.466438 0.457796
O O15 0.095243 0.606284 0.520611
O O16 0.041504 0.304638 0.434360
O O17 0.000000 0.000000 0.500000
#
# Coordination Sequence:
#
# PCOD9239811 Si02
#       8
#     4   4   4   4   4   4   4   4
#     4  10  18  32  52  83 114 147 184 232 296 354
#     4  11  21  35  56  77 110 152 192 255 292 333
#     4  11  20  34  55  78 113 151 198 231 292 346
#     4  12  26  38  56  81 116 163 205 236 276 350
#     4  10  19  32  53  82 120 145 184 229 299 354
#     4  11  24  36  53  79 111 154 205 243 288 335
#     4  12  23  38  58  80 120 161 191 237 289 351
#     4   9  18  30  52  83 119 142 176 235 289 368
#
# _framework density 17.608440999999999
#
# number of rings (size 3 to 8) (size 9 to 14) (size 15 to 20)
#    0.000    1.250    5.000    1.875    3.500    0.000 
#    0.000    0.000    0.000    0.000    0.000    0.000 
#   15.000    0.000    0.000    0.000    0.000    0.000 
#
# Total GULP energy -178341.930738 kJ/mol
# GULP energy per Si atom -5573.185336 kJ/mol
# Density = 1.756836 g / cm^3
# Si number density = 17.608441 Si / 1000 Ang^3
#
#
#
# Elastic Constant Matrix: (Units=GPa)
#
#
# Indices 1 2 3 4 5 6 
#
# 1 123.9040 34.5829 42.5312 0.0000 17.7123 0.0000
# 2 34.5829 61.9112 8.5388 0.0000 9.8263 0.0000
# 3 42.5312 8.5388 70.4017 0.0000 5.4711 0.0000
# 4 0.0000 0.0000 0.0000 24.1952 0.0000 4.0287
# 5 17.7123 9.8263 5.4711 0.0000 20.8557 0.0000
# 6 0.0000 0.0000 0.0000 4.0287 0.0000 39.2025
#
#
#
# Elastic Compliance Matrix: (Units=1/GPa)
#
#
# Indices 1 2 3 4 5 6 
#
# 1 0.012697 -0.005136 -0.006531 0.000000 -0.006650 0.000000
# 2 -0.005136 0.019694 0.001119 0.000000 -0.005210 0.000000
# 3 -0.006531 0.001119 0.017990 0.000000 0.000300 0.000000
# 4 0.000000 0.000000 0.000000 0.042050 0.000000 -0.004321
# 5 -0.006650 -0.005210 0.000300 0.000000 0.055973 0.000000
# 6 0.000000 0.000000 0.000000 -0.004321 0.000000 0.025953
#
#
# Mechanical properties :
#
#
# Convention : Reuss Voigt Hill
#
# Bulk Modulus (GPa) = 34.14624 47.50249 40.82437
# Shear Modulus (GPa) = 24.36495 28.22162 26.29329
#
# Velocity S-wave (km/s) = 3.72386 4.00776 3.86841
# Velocity P-wave (km/s) = 6.15821 6.96074 6.57174
#
# Compressibility (1/GPa) = 0.02928580
#
# Stress axis : x y z
#
# Youngs Moduli (GPa) = 78.76140 50.77761 55.58508
#
# Poissons Ratio (x) = 0.26079 0.36300
# Poissons Ratio (y) = 0.40452 -0.06221
# Poissons Ratio (z) = 0.51436 -0.05683
#
# Static dielectric constant tensor:
#      x y z
#    x 1.649930 0.000000 0.008650 
#    y 0.000000 1.708700 0.000000 
#    z 0.008650 0.000000 1.574430 
# 
# From -- ./inp_files/67864.got.cif
#   From: 2010.05.17/outbox.cif.g08.bks.cpg/sg14_34_cif.got.tgz:67864.got - 2010.06.03 17:49:19.
