data_PCOD9239191
_publ_section_title
;
Structure prediction by ZEFSAII (Michael W. Deem and Ramdas Pophale) SiO2 
 PCOD9239191
Probable space group: P 21/C
;
_chemical_formula_sum "Si O2"
_cell_formula_units_Z 28
_cell_length_a 37.040757
_cell_length_b 6.495631
_cell_length_c 5.110212
_cell_angle_alpha 90.000000
_cell_angle_beta 106.014313
_cell_angle_gamma 90.000000
_cell_volume 1181.818081
_symmetry_space_group_name_H-M "P 21/C"
_symmetry_group_IT_number 14
_symmetry_cell_setting 'monoclinic'
loop_
_space_group_symop_operation_xyz
x,y,z
-x,1/2+y,1/2-z
-x,-y,-z
x,1/2-y,1/2+z
loop_
_atom_site_type_symbol
_atom_site_label
_atom_site_fract_x
_atom_site_fract_y
_atom_site_fract_z
Si Si1 0.383150 0.107544 0.828935
Si Si2 0.696781 0.895358 0.436470
Si Si3 0.804282 0.506976 0.477341
Si Si4 0.037947 0.616899 0.142911
Si Si5 0.882568 0.392064 0.820279
Si Si6 0.538172 0.615702 0.640630
Si Si7 0.773645 0.046750 0.419228
O O1 0.382994 0.299107 0.620492
O O2 0.343699 0.998246 0.690489
O O3 0.422801 0.999236 0.848707
O O4 0.698190 0.785757 0.720287
O O5 0.732330 0.041647 0.457553
O O6 0.845624 0.519799 0.677945
O O7 0.792673 0.265888 0.402393
O O8 0.773320 0.556717 0.634109
O O9 0.800824 0.575758 0.171589
O O10 0.038479 0.688848 0.444184
O O11 0.077161 0.503883 0.153548
O O12 0.000000 0.500000 0.000000
O O13 0.881377 0.202276 0.608291
O O14 0.500000 0.500000 0.500000
O O15 0.538784 0.808931 0.440563
#
# Coordination Sequence:
#
# PCOD9239191 Si02
#       7
#     4   4   4   4   4   4   4
#     4   8  16  30  49  69  91 128 176 206 235 308
#     4  10  19  32  48  69  95 134 171 200 244 301
#     4  10  17  30  48  75  90 123 164 202 243 287
#     4  10  21  35  58  84 110 140 180 219 266 315
#     4  10  16  30  51  78  92 125 172 211 238 297
#     4  10  19  33  55  79 105 137 178 221 269 318
#     4  10  18  28  49  68  98 117 160 210 241 277
#
# _framework density 23.692312000000001
#
# number of rings (size 3 to 8) (size 9 to 14) (size 15 to 20)
#    0.000    2.286    2.857    1.714    0.000    0.000 
#    0.000    0.000    6.286    5.143    0.000    0.000 
#    0.000    0.000    0.000    0.000    0.000    0.000 
#
# Total GULP energy -156156.712426 kJ/mol
# GULP energy per Si atom -5577.025444 kJ/mol
# Density = 2.363839 g / cm^3
# Si number density = 23.692312 Si / 1000 Ang^3
#
#
#
# Elastic Constant Matrix: (Units=GPa)
#
#
# Indices 1 2 3 4 5 6 
#
# 1 169.8082 0.1973 12.2058 0.0000 47.0358 0.0000
# 2 0.1973 24.7329 -20.3140 0.0000 6.0712 0.0000
# 3 12.2058 -20.3140 127.4790 0.0000 -4.6082 0.0000
# 4 0.0000 0.0000 0.0000 -5.8675 0.0000 19.6611
# 5 47.0358 6.0712 -4.6082 0.0000 60.9797 0.0000
# 6 0.0000 0.0000 0.0000 19.6611 0.0000 24.0883
#
#
#
# Elastic Compliance Matrix: (Units=1/GPa)
#
#
# Indices 1 2 3 4 5 6 
#
# 1 0.007612 0.000733 -0.000829 0.000000 -0.006007 0.000000
# 2 0.000733 0.047627 0.007348 0.000000 -0.004752 0.000000
# 3 -0.000829 0.007348 0.009116 0.000000 0.000597 0.000000
# 4 0.000000 0.000000 0.000000 -0.045631 0.000000 0.037244
# 5 -0.006007 -0.004752 0.000597 0.000000 0.021550 0.000000
# 6 0.000000 0.000000 0.000000 0.037244 0.000000 0.011115
#
#
# Mechanical properties :
#
#
# Convention : Reuss Voigt Hill
#
# Bulk Modulus (GPa) = 12.68112 34.02204 23.35158
# Shear Modulus (GPa) = 79.14736 37.83548 58.49142
#
# Velocity S-wave (km/s) = 5.78609 4.00052 4.97409
# Velocity P-wave (km/s) = 7.07125 5.97746 6.54723
#
# Compressibility (1/GPa) = 0.07885740
#
# Stress axis : x y z
#
# Youngs Moduli (GPa) = 131.37923 20.99634 109.69415
#
# Poissons Ratio (x) = -0.01538 0.09095
# Poissons Ratio (y) = -0.09626 -0.80599
# Poissons Ratio (z) = 0.10894 -0.15427
#
# Static dielectric constant tensor:
#      x y z
#    x 1.954170 0.000000 0.010340 
#    y 0.000000 2.986710 0.000000 
#    z 0.010340 0.000000 1.964200 
# 
# From -- ./inp_files/4555.got.cif
#   From: 2010.05.17/outbox.cif.g08.bks.cpg/sg14_3_cif.got.tgz:4555.got - 2010.06.03 17:49:19.
