data_PCOD9239418
_publ_section_title
;
Structure prediction by ZEFSAII (Michael W. Deem and Ramdas Pophale) SiO2 
 PCOD9239418
Probable space group: P 21/C
;
_chemical_formula_sum "Si O2"
_cell_formula_units_Z 28
_cell_length_a 8.197495
_cell_length_b 11.873945
_cell_length_c 14.836702
_cell_angle_alpha 90.000000
_cell_angle_beta 50.613604
_cell_angle_gamma 90.000000
_cell_volume 1116.164047
_symmetry_space_group_name_H-M "P 21/C"
_symmetry_group_IT_number 14
_symmetry_cell_setting 'monoclinic'
loop_
_space_group_symop_operation_xyz
x,y,z
-x,1/2+y,1/2-z
-x,-y,-z
x,1/2-y,1/2+z
loop_
_atom_site_type_symbol
_atom_site_label
_atom_site_fract_x
_atom_site_fract_y
_atom_site_fract_z
Si Si1 0.426360 0.867231 0.970987
Si Si2 0.870085 0.676956 0.366467
Si Si3 0.119606 0.218521 0.359150
Si Si4 0.886174 0.930364 0.384304
Si Si5 0.675932 0.374946 0.061780
Si Si6 0.960886 0.551335 0.659546
Si Si7 0.638296 0.515629 0.237049
O O1 0.634576 0.872322 0.958065
O O2 0.433346 0.735302 0.939525
O O3 0.475227 0.950856 0.871052
O O4 0.199539 0.898262 0.089869
O O5 0.907455 0.694801 0.242678
O O6 0.882853 0.798612 0.405633
O O7 0.018312 0.582367 0.360033
O O8 0.311074 0.139493 0.321608
O O9 0.916013 0.171436 0.482056
O O10 0.131684 0.351680 0.371340
O O11 0.837902 0.940039 0.295863
O O12 0.719593 0.011303 0.490520
O O13 0.126723 0.974861 0.313957
O O14 0.577972 0.420599 0.187847
#
# Coordination Sequence:
#
# PCOD9239418 Si02
#       7
#     4   4   4   4   4   4   4
#     4  10  21  35  56  80 111 150 170 233 288 314
#     4  10  18  31  54  87 116 133 178 225 283 329
#     4   8  16  30  55  80  98 145 180 218 269 316
#     4  10  19  33  58  85 101 147 186 222 272 328
#     4  10  19  36  58  74 108 147 190 216 264 336
#     4  10  17  32  55  82 114 134 178 229 278 330
#     4  10  19  37  58  74 106 150 192 217 265 334
#
# _framework density 25.085919000000001
#
# number of rings (size 3 to 8) (size 9 to 14) (size 15 to 20)
#    0.000    2.286    4.286    2.143    0.000    0.571 
#    2.571    0.000    9.429    2.571    0.000    0.000 
#    0.000    0.000    0.000    0.000    0.000    0.000 
#
# Total GULP energy -156191.524465 kJ/mol
# GULP energy per Si atom -5578.268731 kJ/mol
# Density = 2.502882 g / cm^3
# Si number density = 25.085919 Si / 1000 Ang^3
#
#
#
# Elastic Constant Matrix: (Units=GPa)
#
#
# Indices 1 2 3 4 5 6 
#
# 1 29.7650 24.1326 18.7169 0.0000 -3.5243 0.0000
# 2 24.1326 221.8238 58.8600 0.0000 15.1728 0.0000
# 3 18.7169 58.8600 93.7217 0.0000 -6.6113 0.0000
# 4 0.0000 0.0000 0.0000 45.1303 0.0000 0.8606
# 5 -3.5243 15.1728 -6.6113 0.0000 24.9262 0.0000
# 6 0.0000 0.0000 0.0000 0.8606 0.0000 33.3404
#
#
#
# Elastic Compliance Matrix: (Units=1/GPa)
#
#
# Indices 1 2 3 4 5 6 
#
# 1 0.040563 -0.003377 -0.005534 0.000000 0.006323 0.000000
# 2 -0.003377 0.006178 -0.003571 0.000000 -0.005185 0.000000
# 3 -0.005534 -0.003571 0.014385 0.000000 0.005207 0.000000
# 4 0.000000 0.000000 0.000000 0.022169 0.000000 -0.000572
# 5 0.006323 -0.005185 0.005207 0.000000 0.045550 0.000000
# 6 0.000000 0.000000 0.000000 -0.000572 0.000000 0.030008
#
#
# Mechanical properties :
#
#
# Convention : Reuss Voigt Hill
#
# Bulk Modulus (GPa) = 27.65351 60.96994 44.31172
# Shear Modulus (GPa) = 25.52707 36.91947 31.22327
#
# Velocity S-wave (km/s) = 3.19342 3.84046 3.53179
# Velocity P-wave (km/s) = 4.96434 6.63496 5.85950
#
# Compressibility (1/GPa) = 0.03616178
#
# Stress axis : x y z
#
# Youngs Moduli (GPa) = 24.65308 161.87201 69.51636
#
# Poissons Ratio (x) = 0.54665 0.38469
# Poissons Ratio (y) = 0.08325 0.24825
# Poissons Ratio (z) = 0.13643 0.57807
#
# Static dielectric constant tensor:
#      x y z
#    x 2.052330 0.000000 0.048380 
#    y 0.000000 2.033570 0.000000 
#    z 0.048380 0.000000 2.000640 
# 
# From -- ./inp_files/57519.got.cif
#   From: 2010.05.17/outbox.cif.g08.bks.cpg/sg14_29_cif.got.tgz:57519.got - 2010.06.03 17:49:19.
