data_PCOD9239210
_publ_section_title
;
Structure prediction by ZEFSAII (Michael W. Deem and Ramdas Pophale) SiO2 
 PCOD9239210
Probable space group: P 21/C
;
_chemical_formula_sum "Si O2"
_cell_formula_units_Z 24
_cell_length_a 21.068191
_cell_length_b 5.892688
_cell_length_c 22.645437
_cell_angle_alpha 90.000000
_cell_angle_beta 26.567903
_cell_angle_gamma 90.000000
_cell_volume 1257.417870
_symmetry_space_group_name_H-M "P 21/C"
_symmetry_group_IT_number 14
_symmetry_cell_setting 'monoclinic'
loop_
_space_group_symop_operation_xyz
x,y,z
-x,1/2+y,1/2-z
-x,-y,-z
x,1/2-y,1/2+z
loop_
_atom_site_type_symbol
_atom_site_label
_atom_site_fract_x
_atom_site_fract_y
_atom_site_fract_z
Si Si1 0.064610 0.911694 0.773847
Si Si2 0.184918 0.311610 0.069618
Si Si3 0.465157 0.987238 0.306516
Si Si4 0.524827 0.893185 0.386837
Si Si5 0.281597 0.142187 0.668273
Si Si6 0.301664 0.529955 0.565643
O O1 0.177464 0.713918 0.666808
O O2 0.908093 0.809206 0.902871
O O3 0.079034 0.083652 0.706639
O O4 0.130774 0.034646 0.775870
O O5 0.277576 0.134322 0.030404
O O6 0.294316 0.498363 0.956020
O O7 0.498649 0.732479 0.254016
O O8 0.535449 0.995442 0.313140
O O9 0.664613 0.885963 0.310260
O O10 0.454641 0.645818 0.437145
O O11 0.403003 0.024503 0.525875
O O12 0.283354 0.396650 0.642277
#
# Coordination Sequence:
#
# PCOD9239210 Si02
#       6
#     4   4   4   4   4   4
#     4  10  19  31  57  87 114 149 184 263 318 351
#     4  11  20  34  56  85 123 148 203 245 311 362
#     4  12  26  41  60  86 124 173 207 242 290 367
#     4  10  19  35  55  82 121 149 202 247 303 364
#     4   9  19  32  56  89 114 149 188 260 322 350
#     4  10  16  31  53  89 115 147 179 250 326 354
#
# _framework density 19.086735000000001
#
# number of rings (size 3 to 8) (size 9 to 14) (size 15 to 20)
#    0.000    1.667    6.667    1.500    0.000    0.000 
#    0.000    0.000    0.000    2.000    0.000    0.000 
#    0.000    0.000    0.000    0.000    0.000    0.000 
#
# Total GULP energy -133705.312662 kJ/mol
# GULP energy per Si atom -5571.054694 kJ/mol
# Density = 1.904329 g / cm^3
# Si number density = 19.086735 Si / 1000 Ang^3
#
#
#
# Elastic Constant Matrix: (Units=GPa)
#
#
# Indices 1 2 3 4 5 6 
#
# 1 159.1058 39.5988 35.2256 0.0000 -7.5818 0.0000
# 2 39.5988 76.4709 11.2334 0.0000 5.3204 0.0000
# 3 35.2256 11.2334 22.8531 0.0000 -0.5939 0.0000
# 4 0.0000 0.0000 0.0000 11.2808 0.0000 2.1622
# 5 -7.5818 5.3204 -0.5939 0.0000 22.3897 0.0000
# 6 0.0000 0.0000 0.0000 2.1622 0.0000 14.8992
#
#
#
# Elastic Compliance Matrix: (Units=1/GPa)
#
#
# Indices 1 2 3 4 5 6 
#
# 1 0.010574 -0.003643 -0.014403 0.000000 0.004064 0.000000
# 2 -0.003643 0.015635 -0.002201 0.000000 -0.005007 0.000000
# 3 -0.014403 -0.002201 0.066973 0.000000 -0.002578 0.000000
# 4 0.000000 0.000000 0.000000 0.091182 0.000000 -0.013233
# 5 0.004064 -0.005007 -0.002578 0.000000 0.047161 0.000000
# 6 0.000000 0.000000 0.000000 -0.013233 0.000000 0.069038
#
#
# Mechanical properties :
#
#
# Convention : Reuss Voigt Hill
#
# Bulk Modulus (GPa) = 18.97909 47.83838 33.40873
# Shear Modulus (GPa) = 13.94241 21.20542 17.57392
#
# Velocity S-wave (km/s) = 2.70566 3.33679 3.03766
# Velocity P-wave (km/s) = 4.44140 6.32168 5.46304
#
# Compressibility (1/GPa) = 0.05268956
#
# Stress axis : x y z
#
# Youngs Moduli (GPa) = 94.57072 63.96011 14.93146
#
# Poissons Ratio (x) = 0.23298 0.21505
# Poissons Ratio (y) = 0.34448 0.03286
# Poissons Ratio (z) = 1.36207 0.14076
#
# Static dielectric constant tensor:
#      x y z
#    x 1.675180 0.000000 0.007070 
#    y 0.000000 1.751190 0.000000 
#    z 0.007070 0.000000 1.670850 
# 
# From -- ./inp_files/66232.got.cif
#   From: 2010.05.17/outbox.cif.g08.bks.cpg/sg14_34_cif.got.tgz:66232.got - 2010.06.03 17:49:19.
