data_PCOD9239464
_publ_section_title
;
Structure prediction by ZEFSAII (Michael W. Deem and Ramdas Pophale) SiO2 
 PCOD9239464
Probable space group: P 21/C
;
_chemical_formula_sum "Si O2"
_cell_formula_units_Z 32
_cell_length_a 12.039966
_cell_length_b 30.890347
_cell_length_c 7.441934
_cell_angle_alpha 90.000000
_cell_angle_beta 152.156824
_cell_angle_gamma 90.000000
_cell_volume 1292.707047
_symmetry_space_group_name_H-M "P 21/C"
_symmetry_group_IT_number 14
_symmetry_cell_setting 'monoclinic'
loop_
_space_group_symop_operation_xyz
x,y,z
-x,1/2+y,1/2-z
-x,-y,-z
x,1/2-y,1/2+z
loop_
_atom_site_type_symbol
_atom_site_label
_atom_site_fract_x
_atom_site_fract_y
_atom_site_fract_z
Si Si1 0.964174 0.308171 0.954533
Si Si2 0.334570 0.589166 0.888087
Si Si3 0.280713 0.636349 0.152112
Si Si4 0.034674 0.935741 0.454635
Si Si5 0.963332 0.213148 0.835776
Si Si6 0.428892 0.073920 0.629475
Si Si7 0.054047 0.026596 0.296643
Si Si8 0.112113 0.350482 0.832019
O O1 0.897666 0.262635 0.769400
O O2 0.132862 0.334649 0.064409
O O3 0.735580 0.337863 0.679125
O O4 0.082000 0.294722 0.311744
O O5 0.406497 0.603193 0.192128
O O6 0.542007 0.581453 0.041094
O O7 0.170620 0.546769 0.628914
O O8 0.143801 0.625606 0.550524
O O9 0.258501 0.680228 0.001551
O O10 0.034706 0.607865 0.834287
O O11 0.904807 0.945918 0.457720
O O12 0.009241 0.978194 0.297883
O O13 0.308480 0.931976 0.915627
O O14 0.113001 0.191631 0.207956
O O15 0.275534 0.034222 0.483418
O O16 0.305460 0.115188 0.545779
#
# Coordination Sequence:
#
# PCOD9239464 Si02
#       8
#     4   4   4   4   4   4   4   4
#     4  10  17  33  59  87 107 145 189 230 283 348
#     4   9  19  35  52  81 117 147 187 238 277 328
#     4   9  19  32  53  83 113 142 185 234 281 337
#     4  10  19  36  54  84 113 145 199 234 279 343
#     4   9  19  31  59  88 107 143 189 228 287 345
#     4  10  19  33  55  78 110 157 187 229 281 332
#     4   9  19  34  58  77 110 155 193 236 279 331
#     4  10  18  36  57  81 112 150 188 232 284 332
#
# _framework density 24.754256000000002
#
# number of rings (size 3 to 8) (size 9 to 14) (size 15 to 20)
#    0.750    1.750    1.250    2.625    0.000    0.500 
#    2.250    1.875    0.000   12.000    0.000    0.000 
#    0.000    0.000    0.000    0.000    0.000    0.000 
#
# Total GULP energy -178182.396407 kJ/mol
# GULP energy per Si atom -5568.199888 kJ/mol
# Density = 2.469791 g / cm^3
# Si number density = 24.754256 Si / 1000 Ang^3
#
#
#
# Elastic Constant Matrix: (Units=GPa)
#
#
# Indices 1 2 3 4 5 6 
#
# 1 -63.9043 -119.2082 -45.2653 0.0000 -102.6182 0.0000
# 2 -119.2082 45.0103 -29.6098 0.0000 -63.2997 0.0000
# 3 -45.2653 -29.6098 33.7261 0.0000 -13.6646 0.0000
# 4 0.0000 0.0000 0.0000 14.1351 0.0000 -16.7702
# 5 -102.6182 -63.2997 -13.6646 0.0000 -18.1015 0.0000
# 6 0.0000 0.0000 0.0000 -16.7702 0.0000 35.1525
#
#
#
# Elastic Compliance Matrix: (Units=1/GPa)
#
#
# Indices 1 2 3 4 5 6 
#
# 1 0.003374 -0.002950 -0.001249 0.000000 -0.007868 0.000000
# 2 -0.002950 0.006443 -0.000502 0.000000 -0.005426 0.000000
# 3 -0.001249 -0.000502 0.023826 0.000000 -0.009149 0.000000
# 4 0.000000 0.000000 0.000000 0.163012 0.000000 0.077768
# 5 -0.007868 -0.005426 -0.009149 0.000000 0.015238 0.000000
# 6 0.000000 0.000000 0.000000 0.077768 0.000000 0.065548
#
#
# Mechanical properties :
#
#
# Convention : Reuss Voigt Hill
#
# Bulk Modulus (GPa) = 41.25319 -41.48160 -0.11420
# Shear Modulus (GPa) = 16.95350 20.16492 18.55921
#
# Velocity S-wave (km/s) = 2.61985 2.85722 2.74111
# Velocity P-wave (km/s) = 5.08456 2.43080 3.15784
#
# Compressibility (1/GPa) = 0.02424055
#
# Stress axis : x y z
#
# Youngs Moduli (GPa) = 296.37676 155.21227 41.97022
#
# Poissons Ratio (x) = 0.45793 0.05244
# Poissons Ratio (y) = 0.87440 0.02105
# Poissons Ratio (z) = 0.37029 0.07786
#
# Static dielectric constant tensor:
#      x y z
#    x 2.073750 0.000000 -0.072740 
#    y 0.000000 2.025550 0.000000 
#    z -0.072740 0.000000 2.141840 
# 
# From -- ./inp_files/14688.got.cif
#   From: 2010.05.17/outbox.cif.g08.bks.cpg/sg14_8_cif.got.tgz:14688.got - 2010.06.03 17:49:19.
