data_PCOD9239030
_publ_section_title
;
Structure prediction by ZEFSAII (Michael W. Deem and Ramdas Pophale) SiO2 
 PCOD9239030
Probable space group: P 2/C
;
_chemical_formula_sum "Si O2"
_cell_formula_units_Z 30
_cell_length_a 12.000000
_cell_length_b 12.000000
_cell_length_c 18.000000
_cell_angle_alpha 90.000000
_cell_angle_beta 140.000000
_cell_angle_gamma 90.000000
_cell_volume 1666.105484
_symmetry_space_group_name_H-M "P 2/C"
_symmetry_group_IT_number 13
_symmetry_cell_setting 'monoclinic'
loop_
_space_group_symop_operation_xyz
x,y,z
-x,y,1/2-z
-x,-y,-z
x,-y,1/2+z
loop_
_atom_site_type_symbol
_atom_site_label
_atom_site_fract_x
_atom_site_fract_y
_atom_site_fract_z
Si Si1 0.293802 0.404964 0.650858
Si Si2 0.151103 0.953965 0.474609
Si Si3 0.812504 0.238111 0.260700
Si Si4 0.080643 0.826023 0.027183
Si Si5 0.000000 0.935699 0.750000
Si Si6 0.566465 0.761236 0.869306
Si Si7 0.181102 0.501715 0.260280
Si Si8 0.784323 0.550498 0.044401
O O1 0.500000 0.389530 0.750000
O O2 0.193765 0.285256 0.599790
O O3 0.263540 0.464005 0.719005
O O4 0.242149 0.468344 0.544418
O O5 0.317561 0.873174 0.565551
O O6 0.001076 0.882907 0.440848
O O7 0.173492 0.070999 0.531100
O O8 0.093342 0.989612 0.361585
O O9 0.872967 0.148970 0.229729
O O10 0.610266 0.225894 0.175020
O O11 0.842260 0.367337 0.253614
O O12 0.924610 0.211365 0.392115
O O13 0.500000 0.739326 0.750000
O O14 0.679342 0.659639 0.962565
O O15 0.258176 0.525133 0.386130
O O16 0.992353 0.559297 0.157675
#
# Coordination Sequence:
#
# PCOD9239030 Si02
#       8
#     4   4   4   4   2   4   4   4
#     4  12  25  41  66 102 137 174 218 278 339 395
#     4  10  23  43  68  93 128 172 225 273 330 396
#     4  11  22  42  69  94 130 179 222 266 335 408
#     4  10  22  44  67  91 130 177 219 268 327 404
#     4  10  24  44  66  96 130 178 222 274 340 402
#     4  12  24  40  68 100 131 175 227 277 332 394
#     4  11  24  42  70  98 136 183 223 269 343 410
#     4  11  24  43  68  99 136 176 226 278 332 404
#
# _framework density 18.006063000000001
#
# number of rings (size 3 to 8) (size 9 to 14) (size 15 to 20)
#    0.000    1.067    2.667    4.000    1.867    5.333 
#    0.000    0.000    0.000    0.000    0.000    0.000 
#    0.000    0.000    0.000    0.000    0.000    0.000 
#
# Total GULP energy -167028.713443 kJ/mol
# GULP energy per Si atom -5567.623781 kJ/mol
# Density = 1.796508 g / cm^3
# Si number density = 18.006063 Si / 1000 Ang^3
#
#
#
# Elastic Constant Matrix: (Units=GPa)
#
#
# Indices 1 2 3 4 5 6 
#
# 1 128.0721 48.9565 63.3932 0.0000 -11.9434 0.0000
# 2 48.9565 140.2274 67.6950 0.0000 -7.4560 0.0000
# 3 63.3932 67.6950 133.2500 0.0000 -19.2955 0.0000
# 4 0.0000 0.0000 0.0000 36.5934 0.0000 -4.4657
# 5 -11.9434 -7.4560 -19.2955 0.0000 49.5879 0.0000
# 6 0.0000 0.0000 0.0000 -4.4657 0.0000 33.4321
#
#
#
# Elastic Compliance Matrix: (Units=1/GPa)
#
#
# Indices 1 2 3 4 5 6 
#
# 1 0.010521 -0.001681 -0.004049 0.000000 0.000706 0.000000
# 2 -0.001681 0.009728 -0.004227 0.000000 -0.000587 0.000000
# 3 -0.004049 -0.004227 0.012023 0.000000 0.003067 0.000000
# 4 0.000000 0.000000 0.000000 0.027780 0.000000 0.003711
# 5 0.000706 -0.000587 0.003067 0.000000 0.021441 0.000000
# 6 0.000000 0.000000 0.000000 0.003711 0.000000 0.030407
#
#
# Mechanical properties :
#
#
# Convention : Reuss Voigt Hill
#
# Bulk Modulus (GPa) = 80.92771 84.62653 82.77712
# Shear Modulus (GPa) = 36.78285 38.68967 37.73626
#
# Velocity S-wave (km/s) = 4.52464 4.64044 4.58291
# Velocity P-wave (km/s) = 8.50522 8.70704 8.60672
#
# Compressibility (1/GPa) = 0.01235671
#
# Stress axis : x y z
#
# Youngs Moduli (GPa) = 95.05152 102.80044 83.17516
#
# Poissons Ratio (x) = 0.17278 0.33678
# Poissons Ratio (y) = 0.15976 0.35161
# Poissons Ratio (z) = 0.38487 0.43457
#
# Static dielectric constant tensor:
#      x y z
#    x 1.682130 0.000000 -0.020140 
#    y 0.000000 1.622920 0.000000 
#    z -0.020140 0.000000 1.618230 
# 
# From -- ./inp_files/66666.got.cif
#   From: 2010.05.17/outbox.ucp.g08.bks.cvg/sg13_34_cif.got.tgz:66666.got - 2010.06.11 12:23:55.
