data_PCOD9239325
_publ_section_title
;
Structure prediction by ZEFSAII (Michael W. Deem and Ramdas Pophale) SiO2 
 PCOD9239325
Probable space group: P 21/C
;
_chemical_formula_sum "Si O2"
_cell_formula_units_Z 24
_cell_length_a 9.068985
_cell_length_b 9.539486
_cell_length_c 11.180204
_cell_angle_alpha 90.000000
_cell_angle_beta 71.580373
_cell_angle_gamma 90.000000
_cell_volume 917.684373
_symmetry_space_group_name_H-M "P 21/C"
_symmetry_group_IT_number 14
_symmetry_cell_setting 'monoclinic'
loop_
_space_group_symop_operation_xyz
x,y,z
-x,1/2+y,1/2-z
-x,-y,-z
x,1/2-y,1/2+z
loop_
_atom_site_type_symbol
_atom_site_label
_atom_site_fract_x
_atom_site_fract_y
_atom_site_fract_z
Si Si1 0.309792 0.466360 0.139707
Si Si2 0.666634 0.962342 0.901695
Si Si3 0.348154 0.032689 0.364441
Si Si4 0.825234 0.531989 0.585569
Si Si5 0.877385 0.269058 0.083631
Si Si6 0.872989 0.245635 0.835593
O O1 0.480359 0.469032 0.155000
O O2 0.199025 0.412966 0.274763
O O3 0.249864 0.626319 0.134323
O O4 0.314352 0.402400 0.005242
O O5 0.652212 0.901256 0.770162
O O6 0.775511 0.101757 0.861420
O O7 0.745115 0.890285 0.997083
O O8 0.500000 0.000000 0.000000
O O9 0.222014 0.909030 0.386486
O O10 0.765705 0.368197 0.607504
O O11 0.000000 0.500000 0.500000
O O12 0.962537 0.251309 0.187604
O O13 0.965472 0.270814 0.934867
#
# Coordination Sequence:
#
# PCOD9239325 Si02
#       6
#     4   4   4   4   4   4
#     4   9  16  29  48  79 105 132 171 216 261 310
#     4  10  17  29  48  78 104 132 176 215 253 305
#     4   9  16  28  51  80 100 130 176 215 257 306
#     4  10  19  31  48  76 106 139 173 212 263 316
#     4   8  15  27  44  72  95 132 167 208 246 303
#     4   8  15  25  43  71  98 130 160 207 250 300
#
# _framework density 26.152785999999999
#
# number of rings (size 3 to 8) (size 9 to 14) (size 15 to 20)
#    0.000    3.000    1.667    0.000    0.000    0.000 
#    0.000    0.833    0.000    0.000  130.000    0.000 
#    0.000    0.000    0.000    0.000    0.000    0.000 
#
# Total GULP energy -133621.303311 kJ/mol
# GULP energy per Si atom -5567.554305 kJ/mol
# Density = 2.609326 g / cm^3
# Si number density = 26.152786 Si / 1000 Ang^3
#
#
#
# Elastic Constant Matrix: (Units=GPa)
#
#
# Indices 1 2 3 4 5 6 
#
# 1 69.8090 -2.0723 71.1672 0.0000 27.3821 0.0000
# 2 -2.0723 61.3992 -10.8551 0.0000 -1.6614 0.0000
# 3 71.1672 -10.8551 315.8349 0.0000 65.5509 0.0000
# 4 0.0000 0.0000 0.0000 3.4399 0.0000 -10.7714
# 5 27.3821 -1.6614 65.5509 0.0000 67.7137 0.0000
# 6 0.0000 0.0000 0.0000 -10.7714 0.0000 5.4112
#
#
#
# Elastic Compliance Matrix: (Units=1/GPa)
#
#
# Indices 1 2 3 4 5 6 
#
# 1 0.019672 -0.000076 -0.003484 0.000000 -0.004584 0.000000
# 2 -0.000076 0.016388 0.000614 0.000000 -0.000161 0.000000
# 3 -0.003484 0.000614 0.004601 0.000000 -0.003030 0.000000
# 4 0.000000 0.000000 0.000000 -0.055551 0.000000 -0.110578
# 5 -0.004584 -0.000161 -0.003030 0.000000 0.019552 0.000000
# 6 0.000000 0.000000 0.000000 -0.110578 0.000000 -0.035313
#
#
# Mechanical properties :
#
#
# Convention : Reuss Voigt Hill
#
# Bulk Modulus (GPa) = 28.76034 62.61362 45.68698
# Shear Modulus (GPa) = -379.70523 41.23317 -169.23603
#
# Velocity S-wave (km/s) = -12.06244 3.97498 -8.05301
# Velocity P-wave (km/s) = 13.52710 6.71273 8.30426
#
# Compressibility (1/GPa) = 0.03477011
#
# Stress axis : x y z
#
# Youngs Moduli (GPa) = 50.83254 61.01851 217.32935
#
# Poissons Ratio (x) = 0.00464 0.75716
# Poissons Ratio (y) = 0.00386 -0.13342
# Poissons Ratio (z) = 0.17710 -0.03746
#
# Static dielectric constant tensor:
#      x y z
#    x 2.033060 0.000000 0.056340 
#    y 0.000000 2.253960 0.000000 
#    z 0.056340 0.000000 2.175990 
# 
# From -- ./inp_files/24101.got.cif
#   From: 2010.05.17/outbox.cif.g08.bks.cpg/sg14_13_cif.got.tgz:24101.got - 2010.06.03 17:49:19.
