data_PCOD9239205
_publ_section_title
;
Structure prediction by ZEFSAII (Michael W. Deem and Ramdas Pophale) SiO2 
 PCOD9239205
Probable space group: P 21/C
;
_chemical_formula_sum "Si O2"
_cell_formula_units_Z 28
_cell_length_a 14.407601
_cell_length_b 8.162874
_cell_length_c 9.347659
_cell_angle_alpha 90.000000
_cell_angle_beta 75.972198
_cell_angle_gamma 90.000000
_cell_volume 1066.569471
_symmetry_space_group_name_H-M "P 21/C"
_symmetry_group_IT_number 14
_symmetry_cell_setting 'monoclinic'
loop_
_space_group_symop_operation_xyz
x,y,z
-x,1/2+y,1/2-z
-x,-y,-z
x,1/2-y,1/2+z
loop_
_atom_site_type_symbol
_atom_site_label
_atom_site_fract_x
_atom_site_fract_y
_atom_site_fract_z
Si Si1 0.949322 0.294096 0.615540
Si Si2 0.290270 0.432778 0.177814
Si Si3 0.583547 0.364303 0.650376
Si Si4 0.718019 0.027840 0.873748
Si Si5 0.845073 0.337408 0.922444
Si Si6 0.608229 0.517563 0.131839
Si Si7 0.151002 0.133654 0.962556
O O1 0.937256 0.301591 0.789176
O O2 0.879242 0.162528 0.571122
O O3 0.900550 0.461906 0.571209
O O4 0.057141 0.262187 0.528599
O O5 0.340182 0.574910 0.256825
O O6 0.205636 0.501698 0.111188
O O7 0.233683 0.328337 0.317312
O O8 0.366572 0.389675 0.025888
O O9 0.618146 0.466024 0.499556
O O10 0.481484 0.401924 0.756600
O O11 0.586276 0.173407 0.609032
O O12 0.769926 0.195977 0.905579
O O13 0.690553 0.001726 0.720968
O O14 0.790554 0.897393 0.914358
#
# Coordination Sequence:
#
# PCOD9239205 Si02
#       7
#     4   4   4   4   4   4   4
#     4   9  17  30  53  84 107 139 191 238 295 326
#     4  10  19  34  57  83 115 153 198 239 293 350
#     4  11  22  36  58  86 119 155 197 247 297 343
#     4  10  19  34  57  83 115 153 198 239 293 350
#     4  10  16  30  58  84 108 146 198 244 280 352
#     4  12  21  36  59  89 115 155 202 247 285 352
#     4   8  18  34  52  76 113 151 180 239 291 349
#
# _framework density 26.252393000000001
#
# number of rings (size 3 to 8) (size 9 to 14) (size 15 to 20)
#    0.000    2.000    2.857    2.571    0.000    0.000 
#    0.000    1.429   12.571    6.857    0.000    0.000 
#    0.000    0.000    0.000    0.000    0.000    0.000 
#
# Total GULP energy -156535.831689 kJ/mol
# GULP energy per Si atom -5590.565417 kJ/mol
# Density = 2.619264 g / cm^3
# Si number density = 26.252393 Si / 1000 Ang^3
#
#
#
# Elastic Constant Matrix: (Units=GPa)
#
#
# Indices 1 2 3 4 5 6 
#
# 1 104.6833 15.1950 38.7235 0.0000 -26.1711 0.0000
# 2 15.1950 56.5877 -8.2149 0.0000 -11.4983 0.0000
# 3 38.7235 -8.2149 113.7017 0.0000 -16.0847 0.0000
# 4 0.0000 0.0000 0.0000 18.6108 0.0000 -1.3104
# 5 -26.1711 -11.4983 -16.0847 0.0000 45.0482 0.0000
# 6 0.0000 0.0000 0.0000 -1.3104 0.0000 26.2177
#
#
#
# Elastic Compliance Matrix: (Units=1/GPa)
#
#
# Indices 1 2 3 4 5 6 
#
# 1 0.012692 -0.002883 -0.003783 0.000000 0.005287 0.000000
# 2 -0.002883 0.019795 0.003044 0.000000 0.004464 0.000000
# 3 -0.003783 0.003044 0.010640 0.000000 0.002378 0.000000
# 4 0.000000 0.000000 0.000000 0.053922 0.000000 0.002695
# 5 0.005287 0.004464 0.002378 0.000000 0.027259 0.000000
# 6 0.000000 0.000000 0.000000 0.002695 0.000000 0.038277
#
#
# Mechanical properties :
#
#
# Convention : Reuss Voigt Hill
#
# Bulk Modulus (GPa) = 27.86927 40.70888 34.28908
# Shear Modulus (GPa) = 27.50433 33.25994 30.38214
#
# Velocity S-wave (km/s) = 3.24031 3.56326 3.40562
# Velocity P-wave (km/s) = 4.96371 5.69820 5.34359
#
# Compressibility (1/GPa) = 0.03588181
#
# Stress axis : x y z
#
# Youngs Moduli (GPa) = 78.78821 50.51830 93.98832
#
# Poissons Ratio (x) = 0.14565 0.35556
# Poissons Ratio (y) = 0.22715 -0.28606
# Poissons Ratio (z) = 0.29805 -0.15376
#
# Static dielectric constant tensor:
#      x y z
#    x 2.015860 0.000000 -0.055830 
#    y 0.000000 2.142360 0.000000 
#    z -0.055830 0.000000 2.041910 
# 
# From -- ./inp_files/15507.got.cif
#   From: 2010.05.17/outbox.cif.g08.bks.cpg/sg14_8_cif.got.tgz:15507.got - 2010.06.03 17:49:19.
