data_PCOD9239951
_publ_section_title
;
Structure prediction by ZEFSAII (Michael W. Deem and Ramdas Pophale) SiO2 
 PCOD9239951
Probable space group: P 21/C
;
_chemical_formula_sum "Si O2"
_cell_formula_units_Z 32
_cell_length_a 11.802520
_cell_length_b 11.996526
_cell_length_c 13.219225
_cell_angle_alpha 90.000000
_cell_angle_beta 86.790523
_cell_angle_gamma 90.000000
_cell_volume 1868.764266
_symmetry_space_group_name_H-M "P 21/C"
_symmetry_group_IT_number 14
_symmetry_cell_setting 'monoclinic'
loop_
_space_group_symop_operation_xyz
x,y,z
-x,1/2+y,1/2-z
-x,-y,-z
x,1/2-y,1/2+z
loop_
_atom_site_type_symbol
_atom_site_label
_atom_site_fract_x
_atom_site_fract_y
_atom_site_fract_z
Si Si1 0.326496 0.639455 0.344531
Si Si2 0.578103 0.915915 0.801577
Si Si3 0.154906 0.892009 0.035769
Si Si4 0.714876 0.738754 0.916113
Si Si5 0.440047 0.260264 0.889948
Si Si6 0.733641 0.901096 0.215570
Si Si7 0.664671 0.336344 0.313311
Si Si8 0.898169 0.858038 0.030266
O O1 0.457255 0.608030 0.361091
O O2 0.244271 0.640754 0.444396
O O3 0.284371 0.533143 0.281483
O O4 0.323170 0.753674 0.282075
O O5 0.671644 0.850850 0.862410
O O6 0.569400 0.857863 0.692496
O O7 0.610530 0.044137 0.789707
O O8 0.217646 0.859718 0.135895
O O9 0.031770 0.837519 0.027884
O O10 0.129466 0.024039 0.023560
O O11 0.731937 0.650314 0.826669
O O12 0.617734 0.708206 0.001900
O O13 0.827622 0.765362 0.973636
O O14 0.366735 0.158133 0.845018
O O15 0.570317 0.222882 0.889309
O O16 0.845574 0.871642 0.145182
#
# Coordination Sequence:
#
# PCOD9239951 Si02
#       8
#     4   4   4   4   4   4   4   4
#     4  10  21  35  51  78 112 135 166 217 261 310
#     4  10  19  33  53  79 106 135 174 208 256 314
#     4  10  20  35  53  77 103 136 179 215 256 304
#     4  10  18  33  57  77 101 138 173 216 258 300
#     4   9  19  32  52  82 103 132 173 212 255 311
#     4   9  18  34  54  76 105 134 171 217 260 303
#     4  11  20  34  54  77 108 142 166 211 262 310
#     4   9  19  34  55  78  99 132 184 223 244 298
#
# _framework density 17.123615999999998
#
# number of rings (size 3 to 8) (size 9 to 14) (size 15 to 20)
#    0.000    2.250    2.500    0.750    0.000    2.000 
#    2.250    1.250    0.000    0.750    0.000    0.000 
#    0.000    0.000    0.000    0.000    0.000    0.000 
#
# Total GULP energy -178416.018366 kJ/mol
# GULP energy per Si atom -5575.500574 kJ/mol
# Density = 1.708464 g / cm^3
# Si number density = 17.123616 Si / 1000 Ang^3
#
#
#
# Elastic Constant Matrix: (Units=GPa)
#
#
# Indices 1 2 3 4 5 6 
#
# 1 81.4361 40.4677 20.9799 0.0000 8.8948 0.0000
# 2 40.4677 57.2453 18.2541 0.0000 2.7600 0.0000
# 3 20.9799 18.2541 39.8688 0.0000 6.4546 0.0000
# 4 0.0000 0.0000 0.0000 14.2518 0.0000 -1.5377
# 5 8.8948 2.7600 6.4546 0.0000 14.6859 0.0000
# 6 0.0000 0.0000 0.0000 -1.5377 0.0000 17.4582
#
#
#
# Elastic Compliance Matrix: (Units=1/GPa)
#
#
# Indices 1 2 3 4 5 6 
#
# 1 0.020578 -0.013024 -0.003492 0.000000 -0.008481 0.000000
# 2 -0.013024 0.028700 -0.007203 0.000000 0.005661 0.000000
# 3 -0.003492 -0.007203 0.031928 0.000000 -0.010564 0.000000
# 4 0.000000 0.000000 0.000000 0.070840 0.000000 0.006240
# 5 -0.008481 0.005661 -0.010564 0.000000 0.076808 0.000000
# 6 0.000000 0.000000 0.000000 0.006240 0.000000 0.057829
#
#
# Mechanical properties :
#
#
# Convention : Reuss Voigt Hill
#
# Bulk Modulus (GPa) = 29.61518 37.55041 33.58280
# Shear Modulus (GPa) = 14.47693 15.86908 15.17301
#
# Velocity S-wave (km/s) = 2.91079 3.04754 2.97995
# Velocity P-wave (km/s) = 5.35065 5.86174 5.61201
#
# Compressibility (1/GPa) = 0.03376646
#
# Stress axis : x y z
#
# Youngs Moduli (GPa) = 48.59643 34.84356 31.32033
#
# Poissons Ratio (x) = 0.45381 0.10938
# Poissons Ratio (y) = 0.63293 0.22560
# Poissons Ratio (z) = 0.16971 0.25098
#
# Static dielectric constant tensor:
#      x y z
#    x 1.592360 0.000000 -0.000650 
#    y 0.000000 1.568680 0.000000 
#    z -0.000650 0.000000 1.570130 
# 
# From -- ./inp_files/29103.got.cif
#   From: 2010.05.17/outbox.cif.g08.bks.cpg/sg14_15_cif.got.tgz:29103.got - 2010.06.03 17:49:19.
