data_PCOD9239809
_publ_section_title
;
Structure prediction by ZEFSAII (Michael W. Deem and Ramdas Pophale) SiO2 
 PCOD9239809
Probable space group: P 21/C
;
_chemical_formula_sum "Si O2"
_cell_formula_units_Z 28
_cell_length_a 12.736203
_cell_length_b 5.787628
_cell_length_c 21.001153
_cell_angle_alpha 90.000000
_cell_angle_beta 62.661622
_cell_angle_gamma 90.000000
_cell_volume 1375.144016
_symmetry_space_group_name_H-M "P 21/C"
_symmetry_group_IT_number 14
_symmetry_cell_setting 'monoclinic'
loop_
_space_group_symop_operation_xyz
x,y,z
-x,1/2+y,1/2-z
-x,-y,-z
x,1/2-y,1/2+z
loop_
_atom_site_type_symbol
_atom_site_label
_atom_site_fract_x
_atom_site_fract_y
_atom_site_fract_z
Si Si1 0.462042 0.252821 0.981812
Si Si2 0.342978 0.123310 0.295914
Si Si3 0.871753 0.843906 0.080510
Si Si4 0.503661 0.099194 0.837608
Si Si5 0.821083 0.757999 0.943575
Si Si6 0.281912 0.768063 0.911821
Si Si7 0.120810 0.733507 0.072114
O O1 0.515386 0.257260 0.895498
O O2 0.500000 0.500000 0.000000
O O3 0.319985 0.249534 0.022308
O O4 0.500000 0.000000 0.000000
O O5 0.221488 0.256743 0.340640
O O6 0.454766 0.271167 0.288835
O O7 0.378344 0.028639 0.217474
O O8 0.325778 0.930132 0.354293
O O9 0.999774 0.767173 0.066537
O O10 0.833500 0.111627 0.087448
O O11 0.850383 0.765808 0.012537
O O12 0.392859 0.937487 0.886487
O O13 0.878762 0.524477 0.898150
O O14 0.862075 0.007842 0.903847
O O15 0.234942 0.707893 0.994168
#
# Coordination Sequence:
#
# PCOD9239809 Si02
#       7
#     4   4   4   4   4   4   4
#     4  12  26  41  62  86 124 170 216 256 296 356
#     4  11  20  33  58  83 127 156 194 248 325 382
#     4  10  21  31  53  90 121 154 187 240 319 381
#     4  11  22  36  56  88 119 171 202 254 316 381
#     4  11  20  36  55  82 120 153 196 247 299 357
#     4  10  18  32  52  80 123 157 189 233 309 375
#     4  11  20  33  58  85 128 151 188 245 312 384
#
# _framework density 20.361502999999999
#
# number of rings (size 3 to 8) (size 9 to 14) (size 15 to 20)
#    0.000    1.143    7.143    3.000    4.000    0.000 
#    0.000    0.000    0.000    0.000    0.000    4.000 
#    0.000    0.000    0.000    0.000    0.000    0.000 
#
# Total GULP energy -155869.376762 kJ/mol
# GULP energy per Si atom -5566.763456 kJ/mol
# Density = 2.031516 g / cm^3
# Si number density = 20.361503 Si / 1000 Ang^3
#
#
#
# Elastic Constant Matrix: (Units=GPa)
#
#
# Indices 1 2 3 4 5 6 
#
# 1 74.0918 36.1280 6.6556 0.0000 -9.9309 0.0000
# 2 36.1280 123.1333 0.0180 0.0000 -7.7732 0.0000
# 3 6.6556 0.0180 46.6995 0.0000 -13.9525 0.0000
# 4 0.0000 0.0000 0.0000 29.3795 0.0000 -0.3072
# 5 -9.9309 -7.7732 -13.9525 0.0000 14.2423 0.0000
# 6 0.0000 0.0000 0.0000 -0.3072 0.0000 18.5886
#
#
#
# Elastic Compliance Matrix: (Units=1/GPa)
#
#
# Indices 1 2 3 4 5 6 
#
# 1 0.016893 -0.004326 0.000577 0.000000 0.009983 0.000000
# 2 -0.004326 0.009645 0.001816 0.000000 0.004026 0.000000
# 3 0.000577 0.001816 0.030746 0.000000 0.031514 0.000000
# 4 0.000000 0.000000 0.000000 0.034043 0.000000 0.000563
# 5 0.009983 0.004026 0.031514 0.000000 0.110244 0.000000
# 6 0.000000 0.000000 0.000000 0.000563 0.000000 0.053806
#
#
# Mechanical properties :
#
#
# Convention : Reuss Voigt Hill
#
# Bulk Modulus (GPa) = 18.72121 36.61421 27.66771
# Shear Modulus (GPa) = 18.04734 25.85026 21.94880
#
# Velocity S-wave (km/s) = 2.98039 3.56696 3.28679
# Velocity P-wave (km/s) = 4.58890 5.91485 5.29355
#
# Compressibility (1/GPa) = 0.05341535
#
# Stress axis : x y z
#
# Youngs Moduli (GPa) = 59.19780 103.68584 32.52452
#
# Poissons Ratio (x) = 0.44857 -0.01876
# Poissons Ratio (y) = 0.25610 -0.05906
# Poissons Ratio (z) = -0.03414 -0.18826
#
# Static dielectric constant tensor:
#      x y z
#    x 1.769360 0.000000 0.019640 
#    y 0.000000 1.907310 0.000000 
#    z 0.019640 0.000000 1.703010 
# 
# From -- ./inp_files/66453.got.cif
#   From: 2010.05.17/outbox.cif.g08.bks.cpg/sg14_34_cif.got.tgz:66453.got - 2010.06.03 17:49:19.
