data_PCOD9239431
_publ_section_title
;
Structure prediction by ZEFSAII (Michael W. Deem and Ramdas Pophale) SiO2 
 PCOD9239431
Probable space group: P 21/C
;
_chemical_formula_sum "Si O2"
_cell_formula_units_Z 22
_cell_length_a 6.768319
_cell_length_b 5.441727
_cell_length_c 25.754964
_cell_angle_alpha 90.000000
_cell_angle_beta 123.613335
_cell_angle_gamma 90.000000
_cell_volume 789.978518
_symmetry_space_group_name_H-M "P 21/C"
_symmetry_group_IT_number 14
_symmetry_cell_setting 'monoclinic'
loop_
_space_group_symop_operation_xyz
x,y,z
-x,1/2+y,1/2-z
-x,-y,-z
x,1/2-y,1/2+z
loop_
_atom_site_type_symbol
_atom_site_label
_atom_site_fract_x
_atom_site_fract_y
_atom_site_fract_z
Si Si1 0.348926 0.172687 0.837213
Si Si2 0.167211 0.307904 0.111887
Si Si3 0.300576 0.675440 0.779603
Si Si4 0.000000 0.000000 0.500000
Si Si5 0.457880 0.749892 0.025685
Si Si6 0.871278 0.313423 0.361542
O O1 0.239184 0.408594 0.792834
O O2 0.363616 0.231503 0.899415
O O3 0.615357 0.157149 0.852838
O O4 0.248288 0.906167 0.808851
O O5 0.408285 0.331771 0.180712
O O6 0.030705 0.572148 0.095391
O O7 0.024155 0.079814 0.112367
O O8 0.216202 0.322634 0.058064
O O9 0.184720 0.719563 0.706912
O O10 0.804632 0.211622 0.488282
O O11 0.500000 0.500000 0.000000
O O12 0.500000 0.000000 0.000000
#
# Coordination Sequence:
#
# PCOD9239431 Si02
#       6
#     4   4   4   2   4   4
#     4  10  18  35  56  91 133 166 229 290 348 423
#     4  10  20  32  57  92 132 175 223 284 363 416
#     4  10  17  32  59  96 130 170 233 295 349 436
#     4  12  26  48  72 100 154 192 238 322 360 458
#     4  12  28  46  69 104 143 197 248 293 376 456
#     4  10  18  32  57  98 130 169 237 290 349 441
#
# _framework density 27.848859000000001
#
# number of rings (size 3 to 8) (size 9 to 14) (size 15 to 20)
#    0.000    1.455    3.636    6.545    2.545    2.909 
#    0.000    0.000    0.000    0.000    0.000   43.273 
#    0.000    0.000    0.000    0.000    0.000    0.000 
#
# Total GULP energy -122787.539935 kJ/mol
# GULP energy per Si atom -5581.251815 kJ/mol
# Density = 2.778547 g / cm^3
# Si number density = 27.848859 Si / 1000 Ang^3
#
#
#
# Elastic Constant Matrix: (Units=GPa)
#
#
# Indices 1 2 3 4 5 6 
#
# 1 96.3668 21.5968 3.9556 0.0000 -1.2417 0.0000
# 2 21.5968 226.2153 25.5135 0.0000 -20.4932 0.0000
# 3 3.9556 25.5135 72.7910 0.0000 1.4394 0.0000
# 4 0.0000 0.0000 0.0000 145.1619 0.0000 62.1639
# 5 -1.2417 -20.4932 1.4394 0.0000 47.1100 0.0000
# 6 0.0000 0.0000 0.0000 62.1639 0.0000 89.7193
#
#
#
# Elastic Compliance Matrix: (Units=1/GPa)
#
#
# Indices 1 2 3 4 5 6 
#
# 1 0.010609 -0.001001 -0.000223 0.000000 -0.000149 0.000000
# 2 -0.001001 0.004904 -0.001707 0.000000 0.002159 0.000000
# 3 -0.000223 -0.001707 0.014372 0.000000 -0.001188 0.000000
# 4 0.000000 0.000000 0.000000 0.009795 0.000000 -0.006787
# 5 -0.000149 0.002159 -0.001188 0.000000 0.022199 0.000000
# 6 0.000000 0.000000 0.000000 -0.006787 0.000000 0.015848
#
#
# Mechanical properties :
#
#
# Convention : Reuss Voigt Hill
#
# Bulk Modulus (GPa) = 41.62730 55.27831 48.45281
# Shear Modulus (GPa) = 54.58711 79.35204 66.96957
#
# Velocity S-wave (km/s) = 4.43213 5.34375 4.90915
# Velocity P-wave (km/s) = 6.41652 7.61359 7.04054
#
# Compressibility (1/GPa) = 0.02402270
#
# Stress axis : x y z
#
# Youngs Moduli (GPa) = 94.26300 203.90229 69.57998
#
# Poissons Ratio (x) = 0.20415 0.01549
# Poissons Ratio (y) = 0.09438 0.11879
# Poissons Ratio (z) = 0.02098 0.34812
#
# Static dielectric constant tensor:
#      x y z
#    x 4.672640 0.000000 -0.671920 
#    y 0.000000 2.215140 0.000000 
#    z -0.671920 0.000000 2.354760 
# 
# From -- ./inp_files/75974.got.cif
#   From: 2010.05.17/outbox.cif.g08.bks.cpg/sg14_38_cif.got.tgz:75974.got - 2010.06.03 17:49:19.
