data_PCOD9239412
_publ_section_title
;
Structure prediction by ZEFSAII (Michael W. Deem and Ramdas Pophale) SiO2 
 PCOD9239412
Probable space group: P 21/C
;
_chemical_formula_sum "Si O2"
_cell_formula_units_Z 20
_cell_length_a 8.785646
_cell_length_b 5.135398
_cell_length_c 27.425781
_cell_angle_alpha 90.000000
_cell_angle_beta 66.080016
_cell_angle_gamma 90.000000
_cell_volume 1131.114326
_symmetry_space_group_name_H-M "P 21/C"
_symmetry_group_IT_number 14
_symmetry_cell_setting 'monoclinic'
loop_
_space_group_symop_operation_xyz
x,y,z
-x,1/2+y,1/2-z
-x,-y,-z
x,1/2-y,1/2+z
loop_
_atom_site_type_symbol
_atom_site_label
_atom_site_fract_x
_atom_site_fract_y
_atom_site_fract_z
Si Si1 0.046240 0.776445 0.382812
Si Si2 0.939027 0.287362 0.231239
Si Si3 0.548491 0.184057 0.273822
Si Si4 0.737018 0.723590 0.615505
Si Si5 0.108028 0.250242 0.500833
O O1 0.000664 0.761625 0.332322
O O2 0.176186 0.545733 0.379231
O O3 0.439275 0.239544 0.335925
O O4 0.142930 0.046364 0.380285
O O5 0.743367 0.222519 0.256730
O O6 0.969792 0.576650 0.246895
O O7 0.489868 0.397189 0.241603
O O8 0.737517 0.742428 0.556433
O O9 0.000000 0.500000 0.500000
O O10 0.108378 0.246263 0.559362
O O11 0.000000 0.000000 0.500000
#
# Coordination Sequence:
#
# PCOD9239412 Si02
#       5
#     4   4   4   4   4
#     4  10  18  33  52  76 107 136 173 218 262 315
#     4  12  24  36  52  78 114 147 176 213 272 324
#     4  12  21  36  57  79 107 142 180 227 263 307
#     4  10  17  32  54  80 101 130 178 226 262 302
#     4   8  16  27  49  77 101 127 167 222 267 298
#
# _framework density 17.681678999999999
#
# number of rings (size 3 to 8) (size 9 to 14) (size 15 to 20)
#    0.000    1.600    4.000    2.400    0.000    0.000 
#    0.000    0.000    0.000    2.400    0.000    0.000 
#    0.000    0.000    0.000    0.000    0.000    0.000 
#
# Total GULP energy -111508.950267 kJ/mol
# GULP energy per Si atom -5575.447513 kJ/mol
# Density = 1.764143 g / cm^3
# Si number density = 17.681679 Si / 1000 Ang^3
#
#
#
# Elastic Constant Matrix: (Units=GPa)
#
#
# Indices 1 2 3 4 5 6 
#
# 1 26.6072 -11.6036 9.8775 0.0000 -3.6757 0.0000
# 2 -11.6036 75.0742 -14.4710 0.0000 4.4821 0.0000
# 3 9.8775 -14.4710 196.0037 0.0000 -2.8183 0.0000
# 4 0.0000 0.0000 0.0000 26.3013 0.0000 3.9376
# 5 -3.6757 4.4821 -2.8183 0.0000 15.6981 0.0000
# 6 0.0000 0.0000 0.0000 3.9376 0.0000 18.6650
#
#
#
# Elastic Compliance Matrix: (Units=1/GPa)
#
#
# Indices 1 2 3 4 5 6 
#
# 1 0.041730 0.005677 -0.001571 0.000000 0.007868 0.000000
# 2 0.005677 0.014501 0.000746 0.000000 -0.002677 0.000000
# 3 -0.001571 0.000746 0.005241 0.000000 0.000360 0.000000
# 4 0.000000 0.000000 0.000000 0.039261 0.000000 -0.008282
# 5 0.007868 -0.002677 0.000360 0.000000 0.066373 0.000000
# 6 0.000000 0.000000 0.000000 -0.008282 0.000000 0.055323
#
#
# Mechanical properties :
#
#
# Convention : Reuss Voigt Hill
#
# Bulk Modulus (GPa) = 14.04931 29.47678 21.76304
# Shear Modulus (GPa) = 21.14607 33.05835 27.10221
#
# Velocity S-wave (km/s) = 3.46198 4.32862 3.91933
# Velocity P-wave (km/s) = 4.89319 6.45675 5.72857
#
# Compressibility (1/GPa) = 0.07117786
#
# Stress axis : x y z
#
# Youngs Moduli (GPa) = 23.96369 68.95942 190.79034
#
# Poissons Ratio (x) = -0.39151 0.29967
# Poissons Ratio (y) = -0.13605 -0.14234
# Poissons Ratio (z) = 0.03764 -0.05145
#
# Static dielectric constant tensor:
#      x y z
#    x 1.542520 0.000000 -0.008540 
#    y 0.000000 1.596060 0.000000 
#    z -0.008540 0.000000 1.681390 
# 
# From -- ./inp_files/71484.got.cif
#   From: 2010.05.17/outbox.cif.g08.bks.cpg/sg14_36_cif.got.tgz:71484.got - 2010.06.03 17:49:19.
