data_PCOD9239215
_publ_section_title
;
Structure prediction by ZEFSAII (Michael W. Deem and Ramdas Pophale) SiO2 
 PCOD9239215
Probable space group: P 21/C
;
_chemical_formula_sum "Si O2"
_cell_formula_units_Z 32
_cell_length_a 8.406912
_cell_length_b 16.504285
_cell_length_c 11.659198
_cell_angle_alpha 90.000000
_cell_angle_beta 91.042566
_cell_angle_gamma 90.000000
_cell_volume 1617.446751
_symmetry_space_group_name_H-M "P 21/C"
_symmetry_group_IT_number 14
_symmetry_cell_setting 'monoclinic'
loop_
_space_group_symop_operation_xyz
x,y,z
-x,1/2+y,1/2-z
-x,-y,-z
x,1/2-y,1/2+z
loop_
_atom_site_type_symbol
_atom_site_label
_atom_site_fract_x
_atom_site_fract_y
_atom_site_fract_z
Si Si1 0.597191 0.598892 0.445422
Si Si2 0.217089 0.105135 0.663371
Si Si3 0.108844 0.968809 0.268270
Si Si4 0.911924 0.121999 0.173155
Si Si5 0.320642 0.091781 0.405218
Si Si6 0.785919 0.785456 0.792208
Si Si7 0.385462 0.941291 0.720031
Si Si8 0.719938 0.076404 0.950673
O O1 0.700728 0.673872 0.402562
O O2 0.502080 0.570304 0.329584
O O3 0.456691 0.613135 0.534534
O O4 0.699557 0.519978 0.480076
O O5 0.266044 0.109947 0.531634
O O6 0.249297 0.191514 0.719650
O O7 0.031931 0.081479 0.675500
O O8 0.317922 0.031639 0.717128
O O9 0.208023 0.919946 0.174756
O O10 0.227173 0.012186 0.358604
O O11 0.021488 0.043327 0.200523
O O12 0.765296 0.116488 0.259968
O O13 0.026712 0.197790 0.190101
O O14 0.836256 0.114469 0.046495
O O15 0.271274 0.164145 0.318818
O O16 0.508239 0.077148 0.389256
#
# Coordination Sequence:
#
# PCOD9239215 Si02
#       8
#     4   4   4   4   4   4   4   4
#     4   9  18  33  58  83 117 143 181 234 284 323
#     4  11  23  36  58  85 106 152 193 227 284 338
#     4  10  19  34  55  82 110 144 195 230 261 334
#     4   9  18  31  57  84 112 144 181 228 278 331
#     4  10  20  41  57  77 115 154 182 236 278 328
#     4  10  21  39  52  84 122 142 177 242 296 325
#     4   9  18  37  60  83 106 147 201 225 260 345
#     4  10  16  31  57  84 103 146 190 221 271 325
#
# _framework density 19.784268000000001
#
# number of rings (size 3 to 8) (size 9 to 14) (size 15 to 20)
#    0.000    2.250    3.750    1.125    0.000    1.000 
#    6.750    5.000    0.000    0.000    0.000    0.000 
#    0.000    0.000    0.000    0.000    0.000    0.000 
#
# Total GULP energy -178600.081660 kJ/mol
# GULP energy per Si atom -5581.252552 kJ/mol
# Density = 1.973924 g / cm^3
# Si number density = 19.784268 Si / 1000 Ang^3
#
#
#
# Elastic Constant Matrix: (Units=GPa)
#
#
# Indices 1 2 3 4 5 6 
#
# 1 101.4359 34.3098 31.6713 0.0000 -24.3223 0.0000
# 2 34.3098 63.3519 14.4812 0.0000 -11.8837 0.0000
# 3 31.6713 14.4812 57.9765 0.0000 -26.7619 0.0000
# 4 0.0000 0.0000 0.0000 10.3166 0.0000 0.7915
# 5 -24.3223 -11.8837 -26.7619 0.0000 35.5877 0.0000
# 6 0.0000 0.0000 0.0000 0.7915 0.0000 9.1257
#
#
#
# Elastic Compliance Matrix: (Units=1/GPa)
#
#
# Indices 1 2 3 4 5 6 
#
# 1 0.014273 -0.005904 -0.004181 0.000000 0.004639 0.000000
# 2 -0.005904 0.019515 -0.000772 0.000000 0.001901 0.000000
# 3 -0.004181 -0.000772 0.028010 0.000000 0.017948 0.000000
# 4 0.000000 0.000000 0.000000 0.097580 0.000000 -0.008463
# 5 0.004639 0.001901 0.017948 0.000000 0.045402 0.000000
# 6 0.000000 0.000000 0.000000 -0.008463 0.000000 0.110315
#
#
# Mechanical properties :
#
#
# Convention : Reuss Voigt Hill
#
# Bulk Modulus (GPa) = 24.94663 42.63211 33.78937
# Shear Modulus (GPa) = 14.27873 20.49281 17.38577
#
# Velocity S-wave (km/s) = 2.68940 3.22190 2.96762
# Velocity P-wave (km/s) = 4.72023 5.95282 5.37199
#
# Compressibility (1/GPa) = 0.04008557
#
# Stress axis : x y z
#
# Youngs Moduli (GPa) = 70.06084 51.24158 35.70151
#
# Poissons Ratio (x) = 0.30254 0.14926
# Poissons Ratio (y) = 0.41365 0.02755
# Poissons Ratio (z) = 0.29292 0.03954
#
# Static dielectric constant tensor:
#      x y z
#    x 1.728150 0.000000 -0.026950 
#    y 0.000000 1.675130 0.000000 
#    z -0.026950 0.000000 1.706980 
# 
# From -- ./inp_files/25517.got.cif
#   From: 2010.05.17/outbox.cif.g08.bks.cpg/sg14_13_cif.got.tgz:25517.got - 2010.06.03 17:49:19.
