data_PCOD9239034
_publ_section_title
;
Structure prediction by ZEFSAII (Michael W. Deem and Ramdas Pophale) SiO2 
 PCOD9239034
Probable space group: P 2/C
;
_chemical_formula_sum "Si O2"
_cell_formula_units_Z 24
_cell_length_a 12.000000
_cell_length_b 12.000000
_cell_length_c 12.000000
_cell_angle_alpha 90.000000
_cell_angle_beta 130.000000
_cell_angle_gamma 90.000000
_cell_volume 1323.724798
_symmetry_space_group_name_H-M "P 2/C"
_symmetry_group_IT_number 13
_symmetry_cell_setting 'monoclinic'
loop_
_space_group_symop_operation_xyz
x,y,z
-x,y,1/2-z
-x,-y,-z
x,-y,1/2+z
loop_
_atom_site_type_symbol
_atom_site_label
_atom_site_fract_x
_atom_site_fract_y
_atom_site_fract_z
Si Si1 0.858415 0.838185 0.385569
Si Si2 0.810987 0.910925 0.933347
Si Si3 0.149276 0.346242 0.420264
Si Si4 0.673055 0.563673 0.878837
Si Si5 0.673040 0.227606 0.543968
Si Si6 0.673710 0.738114 0.677730
O O1 0.871341 0.743782 0.491706
O O2 0.759416 0.794751 0.216520
O O3 0.020597 0.871242 0.446724
O O4 0.802540 0.956157 0.403409
O O5 0.748506 0.843615 0.786404
O O6 0.723816 0.866419 0.986363
O O7 0.225474 0.456970 0.524925
O O8 0.258157 0.294818 0.397113
O O9 0.000000 0.366719 0.250000
O O10 0.500000 0.532996 0.750000
O O11 0.700945 0.634807 0.782590
O O12 0.698807 0.653741 0.995791
O O13 0.497644 0.232535 0.445236
#
# Coordination Sequence:
#
# PCOD9239034 Si02
#       6
#     4   4   4   4   4   4
#     4  11  25  39  69  96 128 170 213 259 323 377
#     4  10  22  45  65  91 132 171 209 263 318 378
#     4  12  26  41  63  97 133 163 215 266 316 387
#     4   9  23  43  67  91 127 173 206 262 324 379
#     4  10  23  44  67  94 125 169 218 261 314 385
#     4  10  23  45  65  92 131 167 212 264 322 378
#
# _framework density 18.130656999999999
#
# number of rings (size 3 to 8) (size 9 to 14) (size 15 to 20)
#    0.000    1.667    1.667    2.000    7.000    5.333 
#    3.000    0.000    0.000    0.000    0.000    0.000 
#    0.000    0.000    0.000    0.000    0.000    0.000 
#
# Total GULP energy -133867.630786 kJ/mol
# GULP energy per Si atom -5577.817949 kJ/mol
# Density = 1.808939 g / cm^3
# Si number density = 18.130657 Si / 1000 Ang^3
#
#
#
# Elastic Constant Matrix: (Units=GPa)
#
#
# Indices 1 2 3 4 5 6 
#
# 1 98.9457 32.5675 43.2533 0.0000 1.7534 0.0000
# 2 32.5675 138.8449 66.5614 0.0000 4.0128 0.0000
# 3 43.2533 66.5614 170.9314 0.0000 0.7538 0.0000
# 4 0.0000 0.0000 0.0000 36.5434 0.0000 3.9789
# 5 1.7534 4.0128 0.7538 0.0000 36.3696 0.0000
# 6 0.0000 0.0000 0.0000 3.9789 0.0000 26.6677
#
#
#
# Elastic Compliance Matrix: (Units=1/GPa)
#
#
# Indices 1 2 3 4 5 6 
#
# 1 0.011658 -0.001612 -0.002321 0.000000 -0.000336 0.000000
# 2 -0.001612 0.009108 -0.003135 0.000000 -0.000862 0.000000
# 3 -0.002321 -0.003135 0.007657 0.000000 0.000299 0.000000
# 4 0.000000 0.000000 0.000000 0.027817 0.000000 -0.004150
# 5 -0.000336 -0.000862 0.000299 0.000000 0.027601 0.000000
# 6 0.000000 0.000000 0.000000 -0.004150 0.000000 0.038118
#
#
# Mechanical properties :
#
#
# Convention : Reuss Voigt Hill
#
# Bulk Modulus (GPa) = 69.99295 77.05405 73.52350
# Shear Modulus (GPa) = 35.49723 37.67212 36.58467
#
# Velocity S-wave (km/s) = 4.42957 4.56325 4.49691
# Velocity P-wave (km/s) = 8.05295 8.38784 8.22210
#
# Compressibility (1/GPa) = 0.01428715
#
# Stress axis : x y z
#
# Youngs Moduli (GPa) = 85.78097 109.79023 130.59955
#
# Poissons Ratio (x) = 0.17701 0.30307
# Poissons Ratio (y) = 0.13830 0.40943
# Poissons Ratio (z) = 0.19906 0.34420
#
# Static dielectric constant tensor:
#      x y z
#    x 1.650760 0.000000 0.016060 
#    y 0.000000 1.625000 0.000000 
#    z 0.016060 0.000000 1.606880 
# 
# From -- ./inp_files/33938.got.cif
#   From: 2010.05.17/outbox.ucp.g08.bks.cvg/sg13_17_cif.got.tgz:33938.got - 2010.06.11 12:23:55.
