data_PCOD9239918
_publ_section_title
;
Structure prediction by ZEFSAII (Michael W. Deem and Ramdas Pophale) SiO2 
 PCOD9239918
Probable space group: P 21/C
;
_chemical_formula_sum "Si O2"
_cell_formula_units_Z 24
_cell_length_a 8.979368
_cell_length_b 5.894827
_cell_length_c 18.195998
_cell_angle_alpha 90.000000
_cell_angle_beta 106.769026
_cell_angle_gamma 90.000000
_cell_volume 922.190054
_symmetry_space_group_name_H-M "P 21/C"
_symmetry_group_IT_number 14
_symmetry_cell_setting 'monoclinic'
loop_
_space_group_symop_operation_xyz
x,y,z
-x,1/2+y,1/2-z
-x,-y,-z
x,1/2-y,1/2+z
loop_
_atom_site_type_symbol
_atom_site_label
_atom_site_fract_x
_atom_site_fract_y
_atom_site_fract_z
Si Si1 0.193569 0.527584 0.420898
Si Si2 0.786108 0.087659 0.473303
Si Si3 0.013862 0.863472 0.623666
Si Si4 0.570344 0.074069 0.783493
Si Si5 0.797005 0.081444 0.694393
Si Si6 0.538550 0.740894 0.083825
O O1 0.163006 0.665180 0.490527
O O2 0.040050 0.392812 0.377215
O O3 0.224943 0.692917 0.356413
O O4 0.354376 0.391352 0.453387
O O5 0.603434 0.083329 0.461927
O O6 0.830021 0.059582 0.394554
O O7 0.886621 0.933594 0.541767
O O8 0.964771 0.987728 0.691810
O O9 0.489052 0.313625 0.742197
O O10 0.740657 0.098650 0.769939
O O11 0.547031 0.104363 0.866873
O O12 0.670034 0.907202 0.643325
#
# Coordination Sequence:
#
# PCOD9239918 Si02
#       6
#     4   4   4   4   4   4
#     4  10  18  33  53  80 106 144 182 230 282 337
#     4  10  20  34  52  80 114 144 186 225 288 337
#     4   9  20  35  53  74 112 152 182 225 281 352
#     4  10  19  36  59  84 113 147 193 241 293 338
#     4   9  19  34  55  76 105 144 186 231 283 335
#     4  10  20  32  54  82 109 140 187 242 282 332
#
# _framework density 26.025003000000002
#
# number of rings (size 3 to 8) (size 9 to 14) (size 15 to 20)
#    0.000    2.333    1.667    1.000    0.000    7.333 
#    0.000    0.000    3.667    0.000    0.000    0.000 
#    0.000    0.000    0.000    0.000    0.000    0.000 
#
# Total GULP energy -133886.440878 kJ/mol
# GULP energy per Si atom -5578.601703 kJ/mol
# Density = 2.596577 g / cm^3
# Si number density = 26.025003 Si / 1000 Ang^3
#
#
#
# Elastic Constant Matrix: (Units=GPa)
#
#
# Indices 1 2 3 4 5 6 
#
# 1 131.8186 20.1471 29.4132 0.0000 -38.8467 0.0000
# 2 20.1471 67.1615 12.1839 0.0000 -6.7695 0.0000
# 3 29.4132 12.1839 70.3603 0.0000 -21.6717 0.0000
# 4 0.0000 0.0000 0.0000 28.0725 0.0000 -21.5177
# 5 -38.8467 -6.7695 -21.6717 0.0000 52.5278 0.0000
# 6 0.0000 0.0000 0.0000 -21.5177 0.0000 9.3187
#
#
#
# Elastic Compliance Matrix: (Units=1/GPa)
#
#
# Indices 1 2 3 4 5 6 
#
# 1 0.010253 -0.002070 -0.001918 0.000000 0.006525 0.000000
# 2 -0.002070 0.015837 -0.001970 0.000000 -0.000303 0.000000
# 3 -0.001918 -0.001970 0.017001 0.000000 0.005342 0.000000
# 4 0.000000 0.000000 0.000000 -0.046267 0.000000 -0.106834
# 5 0.006525 -0.000303 0.005342 0.000000 0.026028 0.000000
# 6 0.000000 0.000000 0.000000 -0.106834 0.000000 -0.139379
#
#
# Mechanical properties :
#
#
# Convention : Reuss Voigt Hill
#
# Bulk Modulus (GPa) = 32.07769 43.64768 37.86269
# Shear Modulus (GPa) = -53.06868 31.82355 -10.62257
#
# Velocity S-wave (km/s) = -4.52059 3.50066 -2.02251
# Velocity P-wave (km/s) = 3.85942 5.75737 3.02095
#
# Compressibility (1/GPa) = 0.03117431
#
# Stress axis : x y z
#
# Youngs Moduli (GPa) = 97.52863 63.14163 58.82043
#
# Poissons Ratio (x) = 0.13072 0.11283
# Poissons Ratio (y) = 0.20190 0.11590
# Poissons Ratio (z) = 0.18708 0.12441
#
# Static dielectric constant tensor:
#      x y z
#    x 2.098870 0.000000 0.059550 
#    y 0.000000 2.174100 0.000000 
#    z 0.059550 0.000000 2.107530 
# 
# From -- ./inp_files/71623.got.cif
#   From: 2010.05.17/outbox.cif.g08.bks.cpg/sg14_36_cif.got.tgz:71623.got - 2010.06.03 17:49:19.
