data_PCOD9239709
_publ_section_title
;
Structure prediction by ZEFSAII (Michael W. Deem and Ramdas Pophale) SiO2 
 PCOD9239709
Probable space group: P 21/C
;
_chemical_formula_sum "Si O2"
_cell_formula_units_Z 32
_cell_length_a 15.417998
_cell_length_b 5.025420
_cell_length_c 28.517449
_cell_angle_alpha 90.000000
_cell_angle_beta 62.522715
_cell_angle_gamma 90.000000
_cell_volume 1960.331563
_symmetry_space_group_name_H-M "P 21/C"
_symmetry_group_IT_number 14
_symmetry_cell_setting 'monoclinic'
loop_
_space_group_symop_operation_xyz
x,y,z
-x,1/2+y,1/2-z
-x,-y,-z
x,1/2-y,1/2+z
loop_
_atom_site_type_symbol
_atom_site_label
_atom_site_fract_x
_atom_site_fract_y
_atom_site_fract_z
Si Si1 0.581307 0.398706 0.179815
Si Si2 0.601894 0.011360 0.920407
Si Si3 0.990356 0.365196 0.283587
Si Si4 0.582584 0.282466 0.574580
Si Si5 0.218699 0.749048 0.178834
Si Si6 0.801029 0.750082 0.751688
Si Si7 0.402303 0.271543 0.986224
Si Si8 0.368753 0.101706 0.775935
O O1 0.602404 0.316056 0.121585
O O2 0.632461 0.193711 0.202823
O O3 0.465101 0.375788 0.219113
O O4 0.612937 0.694330 0.185951
O O5 0.534437 0.834799 0.902459
O O6 0.686728 0.167393 0.873548
O O7 0.520032 0.217975 0.960545
O O8 0.637850 0.826353 0.954049
O O9 0.085715 0.301683 0.290304
O O10 0.005471 0.169047 0.234799
O O11 0.880777 0.294608 0.326104
O O12 0.627845 0.561703 0.546798
O O13 0.614461 0.062606 0.528875
O O14 0.210831 0.954778 0.224580
O O15 0.220352 0.455020 0.200080
O O16 0.725491 0.683688 0.729835
#
# Coordination Sequence:
#
# PCOD9239709 Si02
#       8
#     4   4   4   4   4   4   4   4
#     4  10  20  30  42  60  86 108 153 178 208 243
#     4   9  20  28  45  65  90 113 146 173 212 259
#     4   8  16  30  42  63  87 110 141 179 206 252
#     4  10  18  31  44  58  85 122 140 173 214 254
#     4  10  19  27  48  66  87 117 147 171 209 265
#     4  10  19  31  45  63  89 119 146 172 219 249
#     4   9  20  29  43  62  90 116 141 179 210 251
#     4  10  20  30  41  62  84 113 141 190 205 239
#
# _framework density 16.323771000000001
#
# number of rings (size 3 to 8) (size 9 to 14) (size 15 to 20)
#    0.750    1.750    0.000    2.625    3.500    1.000 
#    0.000    0.000    0.000    0.000    0.000    0.000 
#    0.000    6.000    0.000    0.000    0.000    0.000 
#
# Total GULP energy -178239.345180 kJ/mol
# GULP energy per Si atom -5569.979537 kJ/mol
# Density = 1.628662 g / cm^3
# Si number density = 16.323771 Si / 1000 Ang^3
#
#
#
# Elastic Constant Matrix: (Units=GPa)
#
#
# Indices 1 2 3 4 5 6 
#
# 1 61.6462 -12.1597 2.2748 0.0000 -1.0605 0.0000
# 2 -12.1597 53.0022 -7.8178 0.0000 -2.9501 0.0000
# 3 2.2748 -7.8178 22.3834 0.0000 6.6269 0.0000
# 4 0.0000 0.0000 0.0000 13.1834 0.0000 0.5870
# 5 -1.0605 -2.9501 6.6269 0.0000 13.6135 0.0000
# 6 0.0000 0.0000 0.0000 0.5870 0.0000 13.2128
#
#
#
# Elastic Compliance Matrix: (Units=1/GPa)
#
#
# Indices 1 2 3 4 5 6 
#
# 1 0.017082 0.003897 -0.001191 0.000000 0.002755 0.000000
# 2 0.003897 0.020795 0.006359 0.000000 0.001714 0.000000
# 3 -0.001191 0.006359 0.054491 0.000000 -0.025240 0.000000
# 4 0.000000 0.000000 0.000000 0.076003 0.000000 -0.003377
# 5 0.002755 0.001714 -0.025240 0.000000 0.086329 0.000000
# 6 0.000000 0.000000 0.000000 -0.003377 0.000000 0.075834
#
#
# Mechanical properties :
#
#
# Convention : Reuss Voigt Hill
#
# Bulk Modulus (GPa) = 9.04996 11.29180 10.17088
# Shear Modulus (GPa) = 14.31699 18.31758 16.31728
#
# Velocity S-wave (km/s) = 2.96474 3.35347 3.16508
# Velocity P-wave (km/s) = 4.15640 4.68260 4.42733
#
# Compressibility (1/GPa) = 0.11049769
#
# Stress axis : x y z
#
# Youngs Moduli (GPa) = 58.54278 48.08963 18.35169
#
# Poissons Ratio (x) = -0.18738 0.02185
# Poissons Ratio (y) = -0.22811 -0.11671
# Poissons Ratio (z) = 0.06970 -0.30582
#
# Static dielectric constant tensor:
#      x y z
#    x 1.563300 0.000000 -0.005940 
#    y 0.000000 1.578280 0.000000 
#    z -0.005940 0.000000 1.539370 
# 
# From -- ./inp_files/80075.got.cif
#   From: 2010.05.17/outbox.cif.g08.bks.cpg/sg14_41_cif.got.tgz:80075.got - 2010.06.03 17:49:19.
