data_PCOD9239619
_publ_section_title
;
Structure prediction by ZEFSAII (Michael W. Deem and Ramdas Pophale) SiO2 
 PCOD9239619
Probable space group: P 21/C
;
_chemical_formula_sum "Si O2"
_cell_formula_units_Z 32
_cell_length_a 11.807353
_cell_length_b 20.039723
_cell_length_c 9.720892
_cell_angle_alpha 90.000000
_cell_angle_beta 151.889349
_cell_angle_gamma 90.000000
_cell_volume 1083.760724
_symmetry_space_group_name_H-M "P 21/C"
_symmetry_group_IT_number 14
_symmetry_cell_setting 'monoclinic'
loop_
_space_group_symop_operation_xyz
x,y,z
-x,1/2+y,1/2-z
-x,-y,-z
x,1/2-y,1/2+z
loop_
_atom_site_type_symbol
_atom_site_label
_atom_site_fract_x
_atom_site_fract_y
_atom_site_fract_z
Si Si1 0.609332 0.422335 0.016213
Si Si2 0.576765 0.796385 0.593654
Si Si3 0.293372 0.163369 0.826003
Si Si4 0.617882 0.077845 0.015646
Si Si5 0.971999 0.332409 0.718257
Si Si6 0.120966 0.698962 0.794602
Si Si7 0.835215 0.954062 0.157870
Si Si8 0.818905 0.544299 0.154570
O O1 0.518297 0.128253 0.538225
O O2 0.382603 0.435826 0.677254
O O3 0.786425 0.376707 0.112442
O O4 0.733188 0.492995 0.180912
O O5 0.629375 0.736728 0.542300
O O6 0.345747 0.772918 0.438864
O O7 0.841547 0.805252 0.945653
O O8 0.110173 0.117687 0.715016
O O9 0.520539 0.115927 0.044065
O O10 0.187361 0.173859 0.559908
O O11 0.403080 0.058816 0.683053
O O12 0.778021 0.128413 0.099864
O O13 0.749492 0.007632 0.182179
O O14 0.892783 0.256812 0.603090
O O15 0.051333 0.384252 0.685004
O O16 0.011222 0.998845 0.257744
#
# Coordination Sequence:
#
# PCOD9239619 Si02
#       8
#     4   4   4   4   4   4   4   4
#     4   9  18  31  46  60  89 122 159 190 240 272
#     4   9  18  31  49  61  82 118 159 194 228 267
#     4  10  18  28  41  63  87 122 159 194 225 265
#     4   9  16  28  38  58  90 126 155 182 218 263
#     4   9  17  28  43  63  90 121 162 193 226 266
#     4   9  17  31  50  63  83 119 160 195 229 266
#     4  10  19  27  40  62  92 122 155 190 229 272
#     4   9  18  28  41  63  92 126 153 192 230 272
#
# _framework density 29.526810999999999
#
# number of rings (size 3 to 8) (size 9 to 14) (size 15 to 20)
#    0.750    2.000    1.250    1.125    0.000    6.500 
#    0.000    0.000    0.000    0.000    0.000    0.000 
#    0.000    1.000    0.000   65.375    0.000  135.125 
#
# Total GULP energy -178848.839633 kJ/mol
# GULP energy per Si atom -5589.026239 kJ/mol
# Density = 2.945961 g / cm^3
# Si number density = 29.526811 Si / 1000 Ang^3
#
#
#
# Elastic Constant Matrix: (Units=GPa)
#
#
# Indices 1 2 3 4 5 6 
#
# 1 117.0997 30.6088 42.4331 0.0000 14.4991 0.0000
# 2 30.6088 191.6274 68.5155 0.0000 -11.5351 0.0000
# 3 42.4331 68.5155 145.5448 0.0000 24.4115 0.0000
# 4 0.0000 0.0000 0.0000 32.0153 0.0000 11.9543
# 5 14.4991 -11.5351 24.4115 0.0000 41.4896 0.0000
# 6 0.0000 0.0000 0.0000 11.9543 0.0000 26.6811
#
#
#
# Elastic Compliance Matrix: (Units=1/GPa)
#
#
# Indices 1 2 3 4 5 6 
#
# 1 0.009834 -0.001028 -0.001951 0.000000 -0.002574 0.000000
# 2 -0.001028 0.006995 -0.003750 0.000000 0.004510 0.000000
# 3 -0.001951 -0.003750 0.010280 0.000000 -0.006409 0.000000
# 4 0.000000 0.000000 0.000000 0.037510 0.000000 -0.016806
# 5 -0.002574 0.004510 -0.006409 0.000000 0.030027 0.000000
# 6 0.000000 0.000000 0.000000 -0.016806 0.000000 0.045010
#
#
# Mechanical properties :
#
#
# Convention : Reuss Voigt Hill
#
# Bulk Modulus (GPa) = 73.25596 81.93184 77.59390
# Shear Modulus (GPa) = 31.71301 40.88483 36.29892
#
# Velocity S-wave (km/s) = 3.28081 3.72515 3.51002
# Velocity P-wave (km/s) = 6.26223 6.80521 6.53936
#
# Compressibility (1/GPa) = 0.01365077
#
# Stress axis : x y z
#
# Youngs Moduli (GPa) = 101.68433 142.96324 97.27921
#
# Poissons Ratio (x) = 0.14698 0.18983
# Poissons Ratio (y) = 0.10454 0.36475
# Poissons Ratio (z) = 0.19843 0.53605
#
# Static dielectric constant tensor:
#      x y z
#    x 2.271300 0.000000 0.066000 
#    y 0.000000 2.350700 0.000000 
#    z 0.066000 0.000000 2.367180 
# 
# From -- ./inp_files/49322.got.cif
#   From: 2010.05.17/outbox.cif.g08.bks.cpg/sg14_25_cif.got.tgz:49322.got - 2010.06.03 17:49:19.
