data_PCOD9239542
_publ_section_title
;
Structure prediction by ZEFSAII (Michael W. Deem and Ramdas Pophale) SiO2 
 PCOD9239542
Probable space group: P 21/C
;
_chemical_formula_sum "Si O2"
_cell_formula_units_Z 32
_cell_length_a 19.176708
_cell_length_b 15.540828
_cell_length_c 12.931778
_cell_angle_alpha 90.000000
_cell_angle_beta 158.510964
_cell_angle_gamma 90.000000
_cell_volume 1411.792424
_symmetry_space_group_name_H-M "P 21/C"
_symmetry_group_IT_number 14
_symmetry_cell_setting 'monoclinic'
loop_
_space_group_symop_operation_xyz
x,y,z
-x,1/2+y,1/2-z
-x,-y,-z
x,1/2-y,1/2+z
loop_
_atom_site_type_symbol
_atom_site_label
_atom_site_fract_x
_atom_site_fract_y
_atom_site_fract_z
Si Si1 0.619708 0.965333 0.871832
Si Si2 0.419625 0.127507 0.843459
Si Si3 0.945217 0.604045 0.043601
Si Si4 0.142852 0.424927 0.596145
Si Si5 0.824895 0.427507 0.832295
Si Si6 0.378667 0.181921 0.273605
Si Si7 0.242588 0.506734 0.942557
Si Si8 0.731828 0.093548 0.856912
O O1 0.693885 0.882600 0.914838
O O2 0.412978 0.941839 0.626385
O O3 0.609370 0.044032 0.775974
O O4 0.723013 0.007857 0.110480
O O5 0.275356 0.130320 0.743288
O O6 0.380571 0.220468 0.741281
O O7 0.329672 0.049266 0.654678
O O8 0.650048 0.113135 0.156644
O O9 0.042655 0.625486 0.066558
O O10 0.086605 0.633197 0.331868
O O11 0.949755 0.498776 0.064065
O O12 0.249694 0.344391 0.694121
O O13 0.167929 0.438659 0.753147
O O14 0.211614 0.515187 0.639907
O O15 0.922426 0.426545 0.262221
O O16 0.592743 0.157115 0.604906
#
# Coordination Sequence:
#
# PCOD9239542 Si02
#       8
#     4   4   4   4   4   4   4   4
#     4   9  17  35  61  86 116 157 210 250 298 376
#     4  11  23  39  61  94 135 160 203 271 324 360
#     4  10  20  41  64  86 118 170 213 250 302 376
#     4  10  18  34  63  88 115 160 217 250 304 380
#     4   9  21  40  66  87 119 173 219 246 301 387
#     4  11  21  37  57  96 129 160 194 271 332 355
#     4  10  18  34  62  91 114 162 211 260 294 382
#     4  10  17  35  63  85 116 155 207 256 302 370
#
# _framework density 22.666222000000001
#
# number of rings (size 3 to 8) (size 9 to 14) (size 15 to 20)
#    0.000    2.000    3.750    1.125    0.000    0.000 
#    4.500    5.000    0.000    0.000    0.000    0.000 
#    0.000    0.000    0.000    0.000    0.000    0.000 
#
# Total GULP energy -178277.498428 kJ/mol
# GULP energy per Si atom -5571.171826 kJ/mol
# Density = 2.261463 g / cm^3
# Si number density = 22.666222 Si / 1000 Ang^3
#
#
#
# Elastic Constant Matrix: (Units=GPa)
#
#
# Indices 1 2 3 4 5 6 
#
# 1 62.9370 2.9587 31.4090 0.0000 20.5357 0.0000
# 2 2.9587 42.8108 -10.2914 0.0000 8.3881 0.0000
# 3 31.4090 -10.2914 78.9079 0.0000 28.8420 0.0000
# 4 0.0000 0.0000 0.0000 10.9060 0.0000 1.0413
# 5 20.5357 8.3881 28.8420 0.0000 47.6647 0.0000
# 6 0.0000 0.0000 0.0000 1.0413 0.0000 11.9838
#
#
#
# Elastic Compliance Matrix: (Units=1/GPa)
#
#
# Indices 1 2 3 4 5 6 
#
# 1 0.020930 -0.002284 -0.007036 0.000000 -0.004358 0.000000
# 2 -0.002284 0.026922 0.007437 0.000000 -0.008254 0.000000
# 3 -0.007036 0.007437 0.020305 0.000000 -0.010564 0.000000
# 4 0.000000 0.000000 0.000000 0.092459 0.000000 -0.008034
# 5 -0.004358 -0.008254 -0.010564 0.000000 0.030702 0.000000
# 6 0.000000 0.000000 0.000000 -0.008034 0.000000 0.084144
#
#
# Mechanical properties :
#
#
# Convention : Reuss Voigt Hill
#
# Bulk Modulus (GPa) = 15.53023 25.86759 20.69891
# Shear Modulus (GPa) = 16.62839 24.81620 20.72229
#
# Velocity S-wave (km/s) = 2.71148 3.31245 3.02692
# Velocity P-wave (km/s) = 4.08282 5.10558 4.62257
#
# Compressibility (1/GPa) = 0.06439055
#
# Stress axis : x y z
#
# Youngs Moduli (GPa) = 47.77940 37.14496 49.24911
#
# Poissons Ratio (x) = 0.08484 0.34652
# Poissons Ratio (y) = 0.10913 -0.36628
# Poissons Ratio (z) = 0.33617 -0.27626
#
# Static dielectric constant tensor:
#      x y z
#    x 1.946780 0.000000 0.024670 
#    y 0.000000 1.791480 0.000000 
#    z 0.024670 0.000000 1.987490 
# 
# From -- ./inp_files/50702.got.cif
#   From: 2010.05.17/outbox.cif.g08.bks.cpg/sg14_26_cif.got.tgz:50702.got - 2010.06.03 17:49:19.
