data_PCOD9239419
_publ_section_title
;
Structure prediction by ZEFSAII (Michael W. Deem and Ramdas Pophale) SiO2 
 PCOD9239419
Probable space group: P 21/C
;
_chemical_formula_sum "Si O2"
_cell_formula_units_Z 28
_cell_length_a 13.397883
_cell_length_b 9.452446
_cell_length_c 18.410767
_cell_angle_alpha 90.000000
_cell_angle_beta 145.345013
_cell_angle_gamma 90.000000
_cell_volume 1325.820323
_symmetry_space_group_name_H-M "P 21/C"
_symmetry_group_IT_number 14
_symmetry_cell_setting 'monoclinic'
loop_
_space_group_symop_operation_xyz
x,y,z
-x,1/2+y,1/2-z
-x,-y,-z
x,1/2-y,1/2+z
loop_
_atom_site_type_symbol
_atom_site_label
_atom_site_fract_x
_atom_site_fract_y
_atom_site_fract_z
Si Si1 0.704798 0.842193 0.925245
Si Si2 0.567381 0.356053 0.001733
Si Si3 0.302223 0.574230 0.195375
Si Si4 0.679504 0.542091 0.952433
Si Si5 0.308553 0.836010 0.278023
Si Si6 0.744358 0.769876 0.281911
Si Si7 0.005292 0.458099 0.588015
O O1 0.508636 0.889335 0.826859
O O2 0.760441 0.700148 0.002581
O O3 0.708747 0.791242 0.842701
O O4 0.826954 0.977630 0.011293
O O5 0.708022 0.423927 0.030681
O O6 0.416548 0.279749 0.865222
O O7 0.500000 0.500000 0.000000
O O8 0.627032 0.268049 0.107664
O O9 0.276344 0.530192 0.097017
O O10 0.218915 0.719686 0.172982
O O11 0.248698 0.437933 0.208895
O O12 0.469681 0.585002 0.832880
O O13 0.165683 0.950352 0.214644
O O14 0.926731 0.700811 0.364774
O O15 0.000000 0.500000 0.500000
#
# Coordination Sequence:
#
# PCOD9239419 Si02
#       7
#     4   4   4   4   4   4   4
#     4   9  18  31  55  81 109 138 181 234 277 307
#     4  10  17  32  56  80 104 143 190 217 269 330
#     4  10  19  33  56  85 110 135 192 236 260 312
#     4   9  16  32  53  83 104 144 185 231 262 318
#     4  10  20  33  57  81 106 149 184 223 274 327
#     4  10  18  32  55  82 106 143 185 221 272 332
#     4  10  18  34  53  78 108 144 179 221 281 330
#
# _framework density 21.119
#
# number of rings (size 3 to 8) (size 9 to 14) (size 15 to 20)
#    0.000    2.286    4.286    0.857    0.000    0.571 
#    0.000    6.429    3.143    0.000    0.000    0.000 
#    0.000    0.000    0.000    0.000    0.000    0.000 
#
# Total GULP energy -155974.183894 kJ/mol
# GULP energy per Si atom -5570.506568 kJ/mol
# Density = 2.107093 g / cm^3
# Si number density = 21.119000 Si / 1000 Ang^3
#
#
#
# Elastic Constant Matrix: (Units=GPa)
#
#
# Indices 1 2 3 4 5 6 
#
# 1 25.1825 19.1664 5.4327 0.0000 -8.7676 0.0000
# 2 19.1664 83.5118 1.2037 0.0000 -8.3503 0.0000
# 3 5.4327 1.2037 46.6573 0.0000 -13.7738 0.0000
# 4 0.0000 0.0000 0.0000 19.3390 0.0000 -2.7249
# 5 -8.7676 -8.3503 -13.7738 0.0000 26.8031 0.0000
# 6 0.0000 0.0000 0.0000 -2.7249 0.0000 23.9787
#
#
#
# Elastic Compliance Matrix: (Units=1/GPa)
#
#
# Indices 1 2 3 4 5 6 
#
# 1 0.052868 -0.010818 -0.002082 0.000000 0.012854 0.000000
# 2 -0.010818 0.014610 0.001393 0.000000 0.001729 0.000000
# 3 -0.002082 0.001393 0.025423 0.000000 0.012818 0.000000
# 4 0.000000 0.000000 0.000000 0.052551 0.000000 0.005972
# 5 0.012854 0.001729 0.012818 0.000000 0.048639 0.000000
# 6 0.000000 0.000000 0.000000 0.005972 0.000000 0.042382
#
#
# Mechanical properties :
#
#
# Convention : Reuss Voigt Hill
#
# Bulk Modulus (GPa) = 14.30888 22.99524 18.65206
# Shear Modulus (GPa) = 17.68133 22.66074 20.17104
#
# Velocity S-wave (km/s) = 2.89662 3.27923 3.09384
# Velocity P-wave (km/s) = 4.23996 5.02492 4.64904
#
# Compressibility (1/GPa) = 0.06988667
#
# Stress axis : x y z
#
# Youngs Moduli (GPa) = 18.91490 68.44626 39.33396
#
# Poissons Ratio (x) = 0.74048 0.08190
# Poissons Ratio (y) = 0.20463 -0.05479
# Poissons Ratio (z) = 0.03938 -0.09535
#
# Static dielectric constant tensor:
#      x y z
#    x 1.806300 0.000000 -0.009960 
#    y 0.000000 1.823520 0.000000 
#    z -0.009960 0.000000 1.888440 
# 
# From -- ./inp_files/59081.got.cif
#   From: 2010.05.17/outbox.cif.g08.bks.cpg/sg14_30_cif.got.tgz:59081.got - 2010.06.03 17:49:19.
