data_PCOD9239362
_publ_section_title
;
Structure prediction by ZEFSAII (Michael W. Deem and Ramdas Pophale) SiO2 
 PCOD9239362
Probable space group: P 21/C
;
_chemical_formula_sum "Si O2"
_cell_formula_units_Z 32
_cell_length_a 8.056459
_cell_length_b 31.807591
_cell_length_c 9.868867
_cell_angle_alpha 90.000000
_cell_angle_beta 33.121805
_cell_angle_gamma 90.000000
_cell_volume 1381.877176
_symmetry_space_group_name_H-M "P 21/C"
_symmetry_group_IT_number 14
_symmetry_cell_setting 'monoclinic'
loop_
_space_group_symop_operation_xyz
x,y,z
-x,1/2+y,1/2-z
-x,-y,-z
x,1/2-y,1/2+z
loop_
_atom_site_type_symbol
_atom_site_label
_atom_site_fract_x
_atom_site_fract_y
_atom_site_fract_z
Si Si1 0.790124 0.324303 0.746320
Si Si2 0.030930 0.422256 0.252051
Si Si3 0.108911 0.586340 0.260786
Si Si4 0.554074 0.566364 0.764047
Si Si5 0.440896 0.533135 0.249055
Si Si6 0.901955 0.815181 0.674272
Si Si7 0.847105 0.783062 0.245140
Si Si8 0.777809 0.334864 0.319987
O O1 0.750948 0.374305 0.753733
O O2 0.943206 0.321629 0.787523
O O3 0.019497 0.307471 0.476286
O O4 0.471666 0.300174 0.977860
O O5 0.733545 0.447531 0.503613
O O6 0.946096 0.375776 0.263661
O O7 0.243010 0.422238 0.241719
O O8 0.232606 0.446471 0.003420
O O9 0.232125 0.545485 0.259280
O O10 0.746999 0.586947 0.513741
O O11 0.231130 0.584419 0.025590
O O12 0.537251 0.516740 0.757235
O O13 0.834276 0.765323 0.713099
O O14 0.126800 0.829132 0.401037
O O15 0.575165 0.837375 0.901039
O O16 0.089961 0.793465 0.195709
#
# Coordination Sequence:
#
# PCOD9239362 Si02
#       8
#     4   4   4   4   4   4   4   4
#     4  12  25  42  65  92 126 166 209 258 314 373
#     4  10  18  31  51  81 116 150 186 238 303 357
#     4  10  18  31  50  80 116 150 186 237 302 358
#     4  10  18  30  52  88 119 146 192 258 304 339
#     4  10  17  30  53  88 119 146 192 258 305 339
#     4  12  26  43  61  91 127 167 205 254 321 379
#     4  12  23  43  67  91 118 160 217 270 304 359
#     4  12  25  42  65  93 127 165 209 259 313 372
#
# _framework density 23.156907
#
# number of rings (size 3 to 8) (size 9 to 14) (size 15 to 20)
#    0.000    1.000    0.000   12.000    0.000    0.000 
#    0.000    0.000    0.000    0.000    0.000   29.750 
#    0.000    0.000    0.000    0.000    0.000    0.000 
#
# Total GULP energy -179081.834888 kJ/mol
# GULP energy per Si atom -5596.307340 kJ/mol
# Density = 2.310420 g / cm^3
# Si number density = 23.156907 Si / 1000 Ang^3
#
#
#
# Elastic Constant Matrix: (Units=GPa)
#
#
# Indices 1 2 3 4 5 6 
#
# 1 33.0058 -12.8816 -11.5013 0.0000 12.2370 0.0000
# 2 -12.8816 95.2058 20.7008 0.0000 12.0155 0.0000
# 3 -11.5013 20.7008 150.8936 0.0000 30.7328 0.0000
# 4 0.0000 0.0000 0.0000 34.6806 0.0000 5.7469
# 5 12.2370 12.0155 30.7328 0.0000 26.6866 0.0000
# 6 0.0000 0.0000 0.0000 5.7469 0.0000 14.6718
#
#
#
# Elastic Compliance Matrix: (Units=1/GPa)
#
#
# Indices 1 2 3 4 5 6 
#
# 1 0.053939 0.010180 0.011347 0.000000 -0.042385 0.000000
# 2 0.010180 0.013109 0.001477 0.000000 -0.012271 0.000000
# 3 0.011347 0.001477 0.011085 0.000000 -0.018634 0.000000
# 4 0.000000 0.000000 0.000000 0.030836 0.000000 -0.012078
# 5 -0.042385 -0.012271 -0.018634 0.000000 0.083891 0.000000
# 6 0.000000 0.000000 0.000000 -0.012078 0.000000 0.072889
#
#
# Mechanical properties :
#
#
# Convention : Reuss Voigt Hill
#
# Bulk Modulus (GPa) = 8.05533 30.19344 19.12439
# Shear Modulus (GPa) = 19.14825 34.06029 26.60427
#
# Velocity S-wave (km/s) = 2.87869 3.83932 3.39318
# Velocity P-wave (km/s) = 3.81252 5.72021 4.86087
#
# Compressibility (1/GPa) = 0.12414133
#
# Stress axis : x y z
#
# Youngs Moduli (GPa) = 18.53930 76.28637 90.21514
#
# Poissons Ratio (x) = -0.77661 -1.02371
# Poissons Ratio (y) = -0.18873 -0.13323
# Poissons Ratio (z) = -0.21037 -0.11266
#
# Static dielectric constant tensor:
#      x y z
#    x 1.840710 0.000000 0.007170 
#    y 0.000000 1.918020 0.000000 
#    z 0.007170 0.000000 1.971460 
# 
# From -- ./inp_files/27147.got.cif
#   From: 2010.05.17/outbox.cif.g08.bks.cpg/sg14_14_cif.got.tgz:27147.got - 2010.06.03 17:49:19.
