data_PCOD9239521
_publ_section_title
;
Structure prediction by ZEFSAII (Michael W. Deem and Ramdas Pophale) SiO2 
 PCOD9239521
Probable space group: P 21/C
;
_chemical_formula_sum "Si O2"
_cell_formula_units_Z 32
_cell_length_a 8.465709
_cell_length_b 19.049045
_cell_length_c 13.275360
_cell_angle_alpha 90.000000
_cell_angle_beta 127.794461
_cell_angle_gamma 90.000000
_cell_volume 1691.717001
_symmetry_space_group_name_H-M "P 21/C"
_symmetry_group_IT_number 14
_symmetry_cell_setting 'monoclinic'
loop_
_space_group_symop_operation_xyz
x,y,z
-x,1/2+y,1/2-z
-x,-y,-z
x,1/2-y,1/2+z
loop_
_atom_site_type_symbol
_atom_site_label
_atom_site_fract_x
_atom_site_fract_y
_atom_site_fract_z
Si Si1 0.368579 0.168674 0.714553
Si Si2 0.496764 0.611593 0.220039
Si Si3 0.930335 0.900767 0.956506
Si Si4 0.990267 0.242903 0.474094
Si Si5 0.650578 0.240132 0.202777
Si Si6 0.361390 0.010464 0.790389
Si Si7 0.411856 0.768417 0.552529
Si Si8 0.800768 0.009980 0.060079
O O1 0.555839 0.189667 0.716206
O O2 0.352418 0.088690 0.742899
O O3 0.420646 0.218764 0.830295
O O4 0.167327 0.192589 0.578959
O O5 0.723598 0.586308 0.317258
O O6 0.459568 0.673711 0.288181
O O7 0.355654 0.547978 0.200266
O O8 0.463966 0.651061 0.101614
O O9 0.930268 0.821418 0.991574
O O10 0.932098 0.950472 0.055418
O O11 0.109543 0.918550 0.950474
O O12 0.881561 0.230478 0.324772
O O13 0.803009 0.240334 0.477569
O O14 0.610404 0.246901 0.070501
O O15 0.209794 0.996837 0.823892
O O16 0.578451 0.001905 0.928301
#
# Coordination Sequence:
#
# PCOD9239521 Si02
#       8
#     4   4   4   4   4   4   4   4
#     4  10  21  38  59  88 117 150 199 246 290 344
#     4   9  20  39  56  83 120 152 190 246 290 347
#     4  10  17  35  54  87 119 143 195 245 287 348
#     4  10  20  37  57  85 117 149 194 249 286 350
#     4  10  22  38  58  83 116 156 196 238 299 346
#     4  10  20  35  57  85 120 155 193 238 297 350
#     4  10  22  38  59  87 118 154 197 241 300 343
#     4   9  20  30  57  88 118 152 190 239 301 344
#
# _framework density 18.915693000000001
#
# number of rings (size 3 to 8) (size 9 to 14) (size 15 to 20)
#    0.000    2.500    2.500    1.500    7.000    2.000 
#    0.000    3.125    0.000    0.000    0.000    0.000 
#    0.000    0.000    0.000    0.000    0.000    0.000 
#
# Total GULP energy -178244.236928 kJ/mol
# GULP energy per Si atom -5570.132404 kJ/mol
# Density = 1.887264 g / cm^3
# Si number density = 18.915693 Si / 1000 Ang^3
#
#
#
# Elastic Constant Matrix: (Units=GPa)
#
#
# Indices 1 2 3 4 5 6 
#
# 1 35.1177 4.3835 19.2755 0.0000 -3.5883 0.0000
# 2 4.3835 81.9974 8.1600 0.0000 -13.6109 0.0000
# 3 19.2755 8.1600 93.3388 0.0000 -14.6525 0.0000
# 4 0.0000 0.0000 0.0000 21.2786 0.0000 -5.4130
# 5 -3.5883 -13.6109 -14.6525 0.0000 22.5549 0.0000
# 6 0.0000 0.0000 0.0000 -5.4130 0.0000 -24.0612
#
#
#
# Elastic Compliance Matrix: (Units=1/GPa)
#
#
# Indices 1 2 3 4 5 6 
#
# 1 0.032210 -0.001029 -0.006520 0.000000 0.000268 0.000000
# 2 -0.001029 0.013587 0.000319 0.000000 0.008242 0.000000
# 3 -0.006520 0.000319 0.013251 0.000000 0.007763 0.000000
# 4 0.000000 0.000000 0.000000 0.044452 0.000000 -0.010000
# 5 0.000268 0.008242 0.007763 0.000000 0.054396 0.000000
# 6 0.000000 0.000000 0.000000 -0.010000 0.000000 -0.039311
#
#
# Mechanical properties :
#
#
# Convention : Reuss Voigt Hill
#
# Bulk Modulus (GPa) = 22.42740 30.45467 26.44103
# Shear Modulus (GPa) = 33.80502 15.86346 24.83424
#
# Velocity S-wave (km/s) = 4.23205 2.89907 3.62731
# Velocity P-wave (km/s) = 5.98018 5.22889 5.61711
#
# Compressibility (1/GPa) = 0.04458831
#
# Stress axis : x y z
#
# Youngs Moduli (GPa) = 31.04626 73.59988 75.46658
#
# Poissons Ratio (x) = 0.07570 0.49202
# Poissons Ratio (y) = 0.03193 -0.02404
# Poissons Ratio (z) = 0.20241 -0.02344
#
# Static dielectric constant tensor:
#      x y z
#    x 1.689680 0.000000 0.011450 
#    y 0.000000 1.687880 0.000000 
#    z 0.011450 0.000000 1.679970 
# 
# From -- ./inp_files/41712.got.cif
#   From: 2010.05.17/outbox.cif.g08.bks.cpg/sg14_21_cif.got.tgz:41712.got - 2010.06.03 17:49:19.
