data_PCOD9239462
_publ_section_title
;
Structure prediction by ZEFSAII (Michael W. Deem and Ramdas Pophale) SiO2 
 PCOD9239462
Probable space group: P 21/C
;
_chemical_formula_sum "Si O2"
_cell_formula_units_Z 28
_cell_length_a 12.283726
_cell_length_b 7.915638
_cell_length_c 15.484275
_cell_angle_alpha 90.000000
_cell_angle_beta 130.267665
_cell_angle_gamma 90.000000
_cell_volume 1148.815722
_symmetry_space_group_name_H-M "P 21/C"
_symmetry_group_IT_number 14
_symmetry_cell_setting 'monoclinic'
loop_
_space_group_symop_operation_xyz
x,y,z
-x,1/2+y,1/2-z
-x,-y,-z
x,1/2-y,1/2+z
loop_
_atom_site_type_symbol
_atom_site_label
_atom_site_fract_x
_atom_site_fract_y
_atom_site_fract_z
Si Si1 0.677564 0.785669 0.194354
Si Si2 0.920281 0.776239 0.435395
Si Si3 0.739155 0.406422 0.160600
Si Si4 0.545809 0.194481 0.274784
Si Si5 0.455835 0.307613 0.542880
Si Si6 0.237898 0.469368 0.004982
Si Si7 0.815209 0.105937 0.880121
O O1 0.831438 0.843760 0.308019
O O2 0.694849 0.594445 0.168171
O O3 0.579282 0.758908 0.227864
O O4 0.611104 0.887323 0.079266
O O5 0.884556 0.896074 0.497006
O O6 0.854268 0.587480 0.418925
O O7 0.085693 0.729415 0.513168
O O8 0.594744 0.297082 0.082074
O O9 0.840054 0.351236 0.291394
O O10 0.807086 0.422317 0.101447
O O11 0.504282 0.117859 0.160255
O O12 0.650215 0.352565 0.308147
O O13 0.645384 0.069364 0.379550
O O14 0.328778 0.186955 0.512971
#
# Coordination Sequence:
#
# PCOD9239462 Si02
#       7
#     4   4   4   4   4   4   4
#     4  10  17  33  59  85 115 150 197 238 286 354
#     4  10  21  38  60  81 117 158 198 236 295 367
#     4   9  17  34  59  82 114 151 199 238 291 357
#     4  11  20  33  63  89 114 156 197 247 292 346
#     4  10  18  32  57  88 119 151 189 241 300 348
#     4  11  19  33  62  92 111 152 207 245 285 350
#     4   9  22  40  57  81 121 163 189 238 312 359
#
# _framework density 24.372924000000001
#
# number of rings (size 3 to 8) (size 9 to 14) (size 15 to 20)
#    0.000    2.000    4.286    0.857    0.000    0.571 
#    0.000    6.429    6.286    0.000    0.000    0.000 
#    0.000    0.000    0.000    0.000    0.000    0.000 
#
# Total GULP energy -156457.896906 kJ/mol
# GULP energy per Si atom -5587.782032 kJ/mol
# Density = 2.431745 g / cm^3
# Si number density = 24.372924 Si / 1000 Ang^3
#
#
#
# Elastic Constant Matrix: (Units=GPa)
#
#
# Indices 1 2 3 4 5 6 
#
# 1 62.2786 12.5181 54.4449 0.0000 -12.5246 0.0000
# 2 12.5181 40.9761 24.3160 0.0000 -6.7802 0.0000
# 3 54.4449 24.3160 182.2294 0.0000 -26.0813 0.0000
# 4 0.0000 0.0000 0.0000 35.4412 0.0000 -3.0445
# 5 -12.5246 -6.7802 -26.0813 0.0000 44.2050 0.0000
# 6 0.0000 0.0000 0.0000 -3.0445 0.0000 26.0421
#
#
#
# Elastic Compliance Matrix: (Units=1/GPa)
#
#
# Indices 1 2 3 4 5 6 
#
# 1 0.022308 -0.002898 -0.005939 0.000000 0.002372 0.000000
# 2 -0.002898 0.027070 -0.002479 0.000000 0.001868 0.000000
# 3 -0.005939 -0.002479 0.007971 0.000000 0.002640 0.000000
# 4 0.000000 0.000000 0.000000 0.028502 0.000000 0.003332
# 5 0.002372 0.001868 0.002640 0.000000 0.025138 0.000000
# 6 0.000000 0.000000 0.000000 0.003332 0.000000 0.038789
#
#
# Mechanical properties :
#
#
# Convention : Reuss Voigt Hill
#
# Bulk Modulus (GPa) = 28.80444 52.00469 40.40457
# Shear Modulus (GPa) = 27.17657 34.08468 30.63062
#
# Velocity S-wave (km/s) = 3.34283 3.74366 3.54891
# Velocity P-wave (km/s) = 5.17139 6.33009 5.77985
#
# Compressibility (1/GPa) = 0.03471687
#
# Stress axis : x y z
#
# Youngs Moduli (GPa) = 44.82634 36.94124 125.46235
#
# Poissons Ratio (x) = 0.10707 0.74510
# Poissons Ratio (y) = 0.12992 0.31099
# Poissons Ratio (z) = 0.26622 0.09157
#
# Static dielectric constant tensor:
#      x y z
#    x 1.899870 0.000000 -0.000830 
#    y 0.000000 2.022910 0.000000 
#    z -0.000830 0.000000 2.016030 
# 
# From -- ./inp_files/43825.got.cif
#   From: 2010.05.17/outbox.cif.g08.bks.cpg/sg14_22_cif.got.tgz:43825.got - 2010.06.03 17:49:19.
