data_PCOD9239549
_publ_section_title
;
Structure prediction by ZEFSAII (Michael W. Deem and Ramdas Pophale) SiO2 
 PCOD9239549
Probable space group: P 21/C
;
_chemical_formula_sum "Si O2"
_cell_formula_units_Z 28
_cell_length_a 14.602333
_cell_length_b 8.559725
_cell_length_c 13.748371
_cell_angle_alpha 90.000000
_cell_angle_beta 37.114354
_cell_angle_gamma 90.000000
_cell_volume 1036.917517
_symmetry_space_group_name_H-M "P 21/C"
_symmetry_group_IT_number 14
_symmetry_cell_setting 'monoclinic'
loop_
_space_group_symop_operation_xyz
x,y,z
-x,1/2+y,1/2-z
-x,-y,-z
x,1/2-y,1/2+z
loop_
_atom_site_type_symbol
_atom_site_label
_atom_site_fract_x
_atom_site_fract_y
_atom_site_fract_z
Si Si1 0.048163 0.868389 0.130247
Si Si2 0.798412 0.664956 0.414417
Si Si3 0.285687 0.844800 0.536346
Si Si4 0.206167 0.833863 0.819509
Si Si5 0.543010 0.661954 0.407919
Si Si6 0.530321 0.853705 0.611454
Si Si7 0.173087 0.477077 0.825338
O O1 0.160401 0.729070 0.072963
O O2 0.896641 0.824209 0.317279
O O3 0.118522 0.037583 0.090783
O O4 0.051961 0.852537 0.010553
O O5 0.623678 0.710464 0.581008
O O6 0.814647 0.584660 0.294533
O O7 0.211769 0.890136 0.704010
O O8 0.409117 0.707908 0.449656
O O9 0.384249 0.993264 0.424722
O O10 0.350693 0.885320 0.761807
O O11 0.235328 0.650442 0.782859
O O12 0.500000 0.500000 0.500000
O O13 0.554260 0.803954 0.476586
O O14 0.708238 0.634884 0.220451
O O15 0.000000 0.500000 0.000000
#
# Coordination Sequence:
#
# PCOD9239549 Si02
#       7
#     4   4   4   4   4   4   4
#     4  12  25  42  70  94 137 174 223 273 338 399
#     4  11  24  44  64  98 132 179 213 279 339 396
#     4  11  22  43  67  97 137 176 219 284 328 392
#     4  11  22  41  70  99 126 173 226 271 323 403
#     4  10  17  35  67  93 125 175 216 267 332 383
#     4  10  22  41  68  93 135 172 225 271 338 391
#     4  11  20  39  67  97 129 170 223 270 327 397
#
# _framework density 27.003112000000002
#
# number of rings (size 3 to 8) (size 9 to 14) (size 15 to 20)
#    0.000    1.143    5.714    3.429    0.000    1.143 
#    0.000    7.143    0.000    0.000    0.000    0.000 
#    0.000    0.000    0.000    0.000    0.000    0.000 
#
# Total GULP energy -156625.456473 kJ/mol
# GULP energy per Si atom -5593.766303 kJ/mol
# Density = 2.694165 g / cm^3
# Si number density = 27.003112 Si / 1000 Ang^3
#
#
#
# Elastic Constant Matrix: (Units=GPa)
#
#
# Indices 1 2 3 4 5 6 
#
# 1 71.1775 13.2581 9.0619 0.0000 -6.5180 0.0000
# 2 13.2581 96.6240 7.4562 0.0000 -5.1520 0.0000
# 3 9.0619 7.4562 111.6167 0.0000 -3.5914 0.0000
# 4 0.0000 0.0000 0.0000 27.7929 0.0000 -13.8594
# 5 -6.5180 -5.1520 -3.5914 0.0000 35.7901 0.0000
# 6 0.0000 0.0000 0.0000 -13.8594 0.0000 49.3291
#
#
#
# Elastic Compliance Matrix: (Units=1/GPa)
#
#
# Indices 1 2 3 4 5 6 
#
# 1 0.014728 -0.001820 -0.001000 0.000000 0.002320 0.000000
# 2 -0.001820 0.010702 -0.000530 0.000000 0.001156 0.000000
# 3 -0.001000 -0.000530 0.009097 0.000000 0.000655 0.000000
# 4 0.000000 0.000000 0.000000 0.041843 0.000000 0.011756
# 5 0.002320 0.001156 0.000655 0.000000 0.028595 0.000000
# 6 0.000000 0.000000 0.000000 0.011756 0.000000 0.023575
#
#
# Mechanical properties :
#
#
# Convention : Reuss Voigt Hill
#
# Bulk Modulus (GPa) = 35.93558 37.66342 36.79950
# Shear Modulus (GPa) = 34.59861 39.22521 36.91191
#
# Velocity S-wave (km/s) = 3.58338 3.81546 3.70124
# Velocity P-wave (km/s) = 5.51885 5.77827 5.65005
#
# Compressibility (1/GPa) = 0.02782757
#
# Stress axis : x y z
#
# Youngs Moduli (GPa) = 67.89735 93.44349 109.92829
#
# Poissons Ratio (x) = 0.17007 0.10988
# Poissons Ratio (y) = 0.12358 0.05825
# Poissons Ratio (z) = 0.06786 0.04952
#
# Static dielectric constant tensor:
#      x y z
#    x 2.151110 0.000000 -0.048410 
#    y 0.000000 2.103480 0.000000 
#    z -0.048410 0.000000 2.224550 
# 
# From -- ./inp_files/46720.got.cif
#   From: 2010.05.17/outbox.cif.g08.bks.cpg/sg14_24_cif.got.tgz:46720.got - 2010.06.03 17:49:19.
