data_PCOD9239376
_publ_section_title
;
Structure prediction by ZEFSAII (Michael W. Deem and Ramdas Pophale) SiO2 
 PCOD9239376
Probable space group: P 21/C
;
_chemical_formula_sum "Si O2"
_cell_formula_units_Z 32
_cell_length_a 21.435285
_cell_length_b 5.027399
_cell_length_c 22.732338
_cell_angle_alpha 90.000000
_cell_angle_beta 129.842034
_cell_angle_gamma 90.000000
_cell_volume 1880.929792
_symmetry_space_group_name_H-M "P 21/C"
_symmetry_group_IT_number 14
_symmetry_cell_setting 'monoclinic'
loop_
_space_group_symop_operation_xyz
x,y,z
-x,1/2+y,1/2-z
-x,-y,-z
x,1/2-y,1/2+z
loop_
_atom_site_type_symbol
_atom_site_label
_atom_site_fract_x
_atom_site_fract_y
_atom_site_fract_z
Si Si1 0.916539 0.316203 0.523493
Si Si2 0.501086 0.786201 0.290562
Si Si3 0.055850 0.170266 0.276847
Si Si4 0.676282 0.672943 0.395436
Si Si5 0.674100 0.172423 0.310906
Si Si6 0.846142 0.682829 0.046124
Si Si7 0.163316 0.667119 0.652168
Si Si8 0.097459 0.172499 0.670732
O O1 0.899238 0.600281 0.542542
O O2 0.889376 0.323598 0.439608
O O3 0.009283 0.231260 0.589039
O O4 0.862237 0.098830 0.524762
O O5 0.583916 0.217652 0.230095
O O6 0.499880 0.088626 0.266983
O O7 0.588220 0.723250 0.371354
O O8 0.121960 0.171820 0.368354
O O9 0.090054 0.259189 0.234730
O O10 0.985986 0.382445 0.251623
O O11 0.680145 0.382182 0.368792
O O12 0.753076 0.730535 0.482450
O O13 0.681320 0.881542 0.343935
O O14 0.746951 0.239367 0.311433
O O15 0.159050 0.372941 0.675779
O O16 0.123469 0.872739 0.673530
#
# Coordination Sequence:
#
# PCOD9239376 Si02
#       8
#     4   4   4   4   4   4   4   4
#     4  12  22  36  53  76 105 134 171 211 264 304
#     4   8  16  27  47  72 103 133 157 195 249 313
#     4  12  23  41  56  70  98 137 183 223 255 289
#     4  10  17  31  50  78 103 128 169 204 253 308
#     4  10  18  32  49  74 108 136 157 200 259 309
#     4  12  20  35  58  76  99 138 172 217 260 294
#     4  12  22  35  52  77 107 136 170 204 256 320
#     4  12  24  37  51  73 101 142 179 208 250 305
#
# _framework density 17.012862999999999
#
# number of rings (size 3 to 8) (size 9 to 14) (size 15 to 20)
#    0.000    1.000    5.000    3.750    0.000    0.000 
#    0.000    0.000    0.000    0.000    0.000    1.750 
#    0.000    0.000    0.000    0.000    0.000    0.000 
#
# Total GULP energy -178745.530364 kJ/mol
# GULP energy per Si atom -5585.797824 kJ/mol
# Density = 1.697414 g / cm^3
# Si number density = 17.012863 Si / 1000 Ang^3
#
#
#
# Elastic Constant Matrix: (Units=GPa)
#
#
# Indices 1 2 3 4 5 6 
#
# 1 46.2443 -9.2068 29.2094 0.0000 12.9436 0.0000
# 2 -9.2068 57.5923 -4.4696 0.0000 -5.4478 0.0000
# 3 29.2094 -4.4696 42.1408 0.0000 9.2110 0.0000
# 4 0.0000 0.0000 0.0000 4.6012 0.0000 11.4334
# 5 12.9436 -5.4478 9.2110 0.0000 34.8667 0.0000
# 6 0.0000 0.0000 0.0000 11.4334 0.0000 15.0567
#
#
#
# Elastic Compliance Matrix: (Units=1/GPa)
#
#
# Indices 1 2 3 4 5 6 
#
# 1 0.041310 0.003813 -0.026540 0.000000 -0.007729 0.000000
# 2 0.003813 0.018048 -0.001099 0.000000 0.001695 0.000000
# 3 -0.026540 -0.001099 0.042338 0.000000 -0.001504 0.000000
# 4 0.000000 0.000000 0.000000 -0.245049 0.000000 0.186079
# 5 -0.007729 0.001695 -0.001504 0.000000 0.032212 0.000000
# 6 0.000000 0.000000 0.000000 0.186079 0.000000 -0.074885
#
#
# Mechanical properties :
#
#
# Convention : Reuss Voigt Hill
#
# Bulk Modulus (GPa) = 18.50342 19.67149 19.08746
# Shear Modulus (GPa) = -41.54223 19.60122 -10.97051
#
# Velocity S-wave (km/s) = -4.94683 3.39800 -2.54212
# Velocity P-wave (km/s) = 4.66138 5.19452 1.62090
#
# Compressibility (1/GPa) = 0.05404406
#
# Stress axis : x y z
#
# Youngs Moduli (GPa) = 24.20716 55.40777 23.61945
#
# Poissons Ratio (x) = -0.21128 0.62686
# Poissons Ratio (y) = -0.09231 0.02596
# Poissons Ratio (z) = 0.64246 0.06091
#
# Static dielectric constant tensor:
#      x y z
#    x 1.597100 0.000000 0.042200 
#    y 0.000000 1.584490 0.000000 
#    z 0.042200 0.000000 1.557450 
# 
# From -- ./inp_files/68922.got.cif
#   From: 2010.05.17/outbox.cif.g08.bks.cpg/sg14_35_cif.got.tgz:68922.got - 2010.06.03 17:49:19.
