data_PCOD9239989
_publ_section_title
;
Structure prediction by ZEFSAII (Michael W. Deem and Ramdas Pophale) SiO2 
 PCOD9239989
Probable space group: P 21/C
;
_chemical_formula_sum "Si O2"
_cell_formula_units_Z 32
_cell_length_a 13.353660
_cell_length_b 17.841663
_cell_length_c 9.227791
_cell_angle_alpha 90.000000
_cell_angle_beta 140.825504
_cell_angle_gamma 90.000000
_cell_volume 1388.780059
_symmetry_space_group_name_H-M "P 21/C"
_symmetry_group_IT_number 14
_symmetry_cell_setting 'monoclinic'
loop_
_space_group_symop_operation_xyz
x,y,z
-x,1/2+y,1/2-z
-x,-y,-z
x,1/2-y,1/2+z
loop_
_atom_site_type_symbol
_atom_site_label
_atom_site_fract_x
_atom_site_fract_y
_atom_site_fract_z
Si Si1 0.458031 0.277740 0.920655
Si Si2 0.678771 0.830199 0.436876
Si Si3 0.051878 0.377245 0.557546
Si Si4 0.758056 0.477273 0.304237
Si Si5 0.570090 0.043219 0.889710
Si Si6 0.570383 0.096358 0.342431
Si Si7 0.768490 0.178715 0.199919
Si Si8 0.136222 0.703952 0.901722
O O1 0.430064 0.295416 0.056362
O O2 0.324537 0.224381 0.703501
O O3 0.465503 0.351940 0.830405
O O4 0.622302 0.233403 0.081214
O O5 0.846088 0.839838 0.701502
O O6 0.587916 0.905966 0.290540
O O7 0.165464 0.441099 0.617715
O O8 0.902246 0.418801 0.460548
O O9 0.987390 0.327917 0.352944
O O10 0.646532 0.464517 0.315425
O O11 0.660923 0.460749 0.050038
O O12 0.524712 0.956918 0.875532
O O13 0.702008 0.094420 0.117800
O O14 0.705916 0.151194 0.434340
O O15 0.900600 0.193824 0.470602
O O16 0.821709 0.212795 0.105675
#
# Coordination Sequence:
#
# PCOD9239989 Si02
#       8
#     4   4   4   4   4   4   4   4
#     4  10  20  34  59  86 121 143 201 249 296 347
#     4  11  21  37  57  90 117 154 194 250 300 349
#     4  10  22  36  60  85 123 153 201 242 296 355
#     4  10  19  36  60  92 115 157 200 244 290 368
#     4  11  20  35  66  88 116 152 204 248 301 348
#     4  10  18  33  62  90 117 151 194 253 297 353
#     4  10  22  39  61  89 117 162 203 245 294 361
#     4  10  23  39  58  85 125 160 200 240 297 364
#
# _framework density 23.041803999999999
#
# number of rings (size 3 to 8) (size 9 to 14) (size 15 to 20)
#    0.000    1.750    2.500    3.375    3.500    1.500 
#    0.000    0.625    0.000    0.000    0.000    0.000 
#    0.000    0.000    0.000    0.000    0.000    0.000 
#
# Total GULP energy -178901.040266 kJ/mol
# GULP energy per Si atom -5590.657508 kJ/mol
# Density = 2.298936 g / cm^3
# Si number density = 23.041804 Si / 1000 Ang^3
#
#
#
# Elastic Constant Matrix: (Units=GPa)
#
#
# Indices 1 2 3 4 5 6 
#
# 1 39.6516 19.9172 -1.3307 0.0000 1.2849 0.0000
# 2 19.9172 86.0258 35.9058 0.0000 0.4745 0.0000
# 3 -1.3307 35.9058 105.8409 0.0000 -0.1450 0.0000
# 4 0.0000 0.0000 0.0000 40.4990 0.0000 3.0178
# 5 1.2849 0.4745 -0.1450 0.0000 32.0717 0.0000
# 6 0.0000 0.0000 0.0000 3.0178 0.0000 25.0822
#
#
#
# Elastic Compliance Matrix: (Units=1/GPa)
#
#
# Indices 1 2 3 4 5 6 
#
# 1 0.029432 -0.008111 0.003120 0.000000 -0.001045 0.000000
# 2 -0.008111 0.015779 -0.005455 0.000000 0.000067 0.000000
# 3 0.003120 -0.005455 0.011338 0.000000 0.000007 0.000000
# 4 0.000000 0.000000 0.000000 0.024915 0.000000 -0.002998
# 5 -0.001045 0.000067 0.000007 0.000000 0.031221 0.000000
# 6 0.000000 0.000000 0.000000 -0.002998 0.000000 0.040230
#
#
# Mechanical properties :
#
#
# Convention : Reuss Voigt Hill
#
# Bulk Modulus (GPa) = 28.04418 37.83368 32.93893
# Shear Modulus (GPa) = 26.92635 31.33230 29.12933
#
# Velocity S-wave (km/s) = 3.42217 3.69155 3.55941
# Velocity P-wave (km/s) = 5.27375 5.88433 5.58738
#
# Compressibility (1/GPa) = 0.03565803
#
# Stress axis : x y z
#
# Youngs Moduli (GPa) = 33.97618 63.37684 88.20014
#
# Poissons Ratio (x) = 0.51404 -0.27520
# Poissons Ratio (y) = 0.27558 0.48110
# Poissons Ratio (z) = -0.10601 0.34570
#
# Static dielectric constant tensor:
#      x y z
#    x 1.880800 0.000000 -0.003480 
#    y 0.000000 1.892290 0.000000 
#    z -0.003480 0.000000 1.893190 
# 
# From -- ./inp_files/16869.got.cif
#   From: 2010.05.17/outbox.cif.g08.bks.cpg/sg14_9_cif.got.tgz:16869.got - 2010.06.03 17:49:19.
