data_PCOD9239789
_publ_section_title
;
Structure prediction by ZEFSAII (Michael W. Deem and Ramdas Pophale) SiO2 
 PCOD9239789
Probable space group: P 21/C
;
_chemical_formula_sum "Si O2"
_cell_formula_units_Z 32
_cell_length_a 19.289756
_cell_length_b 15.634546
_cell_length_c 5.470706
_cell_angle_alpha 90.000000
_cell_angle_beta 56.029804
_cell_angle_gamma 90.000000
_cell_volume 1368.301778
_symmetry_space_group_name_H-M "P 21/C"
_symmetry_group_IT_number 14
_symmetry_cell_setting 'monoclinic'
loop_
_space_group_symop_operation_xyz
x,y,z
-x,1/2+y,1/2-z
-x,-y,-z
x,1/2-y,1/2+z
loop_
_atom_site_type_symbol
_atom_site_label
_atom_site_fract_x
_atom_site_fract_y
_atom_site_fract_z
Si Si1 0.644755 0.417834 0.397454
Si Si2 0.292791 0.351870 0.046396
Si Si3 0.774934 0.658522 0.318254
Si Si4 0.232121 0.742965 0.851231
Si Si5 0.894045 0.478376 0.428991
Si Si6 0.481235 0.305173 0.740510
Si Si7 0.296390 0.925091 0.715640
Si Si8 0.069253 0.080473 0.643069
O O1 0.718087 0.345551 0.243794
O O2 0.555773 0.372695 0.586229
O O3 0.663809 0.461404 0.616682
O O4 0.655727 0.460736 0.113313
O O5 0.263083 0.252602 0.081125
O O6 0.242360 0.384021 0.383835
O O7 0.269419 0.386824 0.825052
O O8 0.390325 0.348283 0.909221
O O9 0.871534 0.659325 0.046302
O O10 0.182883 0.747863 0.697708
O O11 0.300879 0.820220 0.715408
O O12 0.802225 0.439290 0.617535
O O13 0.907027 0.543563 0.634656
O O14 0.969769 0.411532 0.324025
O O15 0.907437 0.515816 0.128042
O O16 0.487307 0.247555 0.482401
#
# Coordination Sequence:
#
# PCOD9239789 Si02
#       8
#     4   4   4   4   4   4   4   4
#     4  10  19  28  48  75 109 145 171 207 266 311
#     4  10  19  32  53  83 115 136 173 212 265 346
#     4  10  18  35  53  79 113 139 168 222 278 327
#     4   8  14  25  39  62  92 131 158 195 234 305
#     4  10  21  37  57  84 101 134 194 233 269 304
#     4  12  18  30  48  81 116 139 176 223 248 313
#     4  10  18  32  48  71 108 139 172 223 257 322
#     4  10  21  37  60  81 104 135 182 243 271 316
#
# _framework density 23.386654
#
# number of rings (size 3 to 8) (size 9 to 14) (size 15 to 20)
#    0.000    2.000    2.500    4.500    0.000    0.000 
#    0.000    0.000   16.500    0.000    0.000   17.500 
#    0.000    0.000    0.000    0.000    0.000    0.000 
#
# Total GULP energy -178598.361521 kJ/mol
# GULP energy per Si atom -5581.198798 kJ/mol
# Density = 2.333342 g / cm^3
# Si number density = 23.386654 Si / 1000 Ang^3
#
#
#
# Elastic Constant Matrix: (Units=GPa)
#
#
# Indices 1 2 3 4 5 6 
#
# 1 132.2095 11.2353 81.4482 0.0000 22.5973 0.0000
# 2 11.2353 43.1504 9.4615 0.0000 3.2297 0.0000
# 3 81.4482 9.4615 160.2959 0.0000 31.8781 0.0000
# 4 0.0000 0.0000 0.0000 28.2978 0.0000 -7.2845
# 5 22.5973 3.2297 31.8781 0.0000 77.2769 0.0000
# 6 0.0000 0.0000 0.0000 -7.2845 0.0000 17.9627
#
#
#
# Elastic Compliance Matrix: (Units=1/GPa)
#
#
# Indices 1 2 3 4 5 6 
#
# 1 0.011197 -0.001659 -0.005397 0.000000 -0.000979 0.000000
# 2 -0.001659 0.023738 -0.000498 0.000000 -0.000301 0.000000
# 3 -0.005397 -0.000498 0.009469 0.000000 -0.002307 0.000000
# 4 0.000000 0.000000 0.000000 0.039458 0.000000 0.016002
# 5 -0.000979 -0.000301 -0.002307 0.000000 0.014191 0.000000
# 6 0.000000 0.000000 0.000000 0.016002 0.000000 0.062160
#
#
# Mechanical properties :
#
#
# Convention : Reuss Voigt Hill
#
# Bulk Modulus (GPa) = 34.13392 59.99401 47.06396
# Shear Modulus (GPa) = 27.01453 40.27486 33.64470
#
# Velocity S-wave (km/s) = 3.40240 4.15436 3.79704
# Velocity P-wave (km/s) = 5.48291 6.98000 6.27625
#
# Compressibility (1/GPa) = 0.02929637
#
# Stress axis : x y z
#
# Youngs Moduli (GPa) = 89.31311 42.12566 105.61032
#
# Poissons Ratio (x) = 0.06988 0.56994
# Poissons Ratio (y) = 0.14815 0.05263
# Poissons Ratio (z) = 0.48199 0.02099
#
# Static dielectric constant tensor:
#      x y z
#    x 1.905990 0.000000 0.105030 
#    y 0.000000 2.006500 0.000000 
#    z 0.105030 0.000000 1.936870 
# 
# From -- ./inp_files/4276.got.cif
#   From: 2010.05.17/outbox.cif.g08.bks.cpg/sg14_3_cif.got.tgz:4276.got - 2010.06.03 17:49:19.
