data_PCOD9239662
_publ_section_title
;
Structure prediction by ZEFSAII (Michael W. Deem and Ramdas Pophale) SiO2 
 PCOD9239662
Probable space group: P 21/C
;
_chemical_formula_sum "Si O2"
_cell_formula_units_Z 32
_cell_length_a 11.272011
_cell_length_b 19.563128
_cell_length_c 9.570391
_cell_angle_alpha 90.000000
_cell_angle_beta 64.469394
_cell_angle_gamma 90.000000
_cell_volume 1904.350573
_symmetry_space_group_name_H-M "P 21/C"
_symmetry_group_IT_number 14
_symmetry_cell_setting 'monoclinic'
loop_
_space_group_symop_operation_xyz
x,y,z
-x,1/2+y,1/2-z
-x,-y,-z
x,1/2-y,1/2+z
loop_
_atom_site_type_symbol
_atom_site_label
_atom_site_fract_x
_atom_site_fract_y
_atom_site_fract_z
Si Si1 0.395443 0.038597 0.649881
Si Si2 0.533425 0.188001 0.197698
Si Si3 0.584377 0.040798 0.068687
Si Si4 0.170304 0.834692 0.620125
Si Si5 0.880633 0.428177 0.432156
Si Si6 0.511868 0.318573 0.030182
Si Si7 0.152093 0.786957 0.938154
Si Si8 0.882592 0.481105 0.754044
O O1 0.404745 0.004309 0.796979
O O2 0.433651 0.117653 0.631942
O O3 0.500000 0.000000 0.500000
O O4 0.250915 0.023890 0.663174
O O5 0.481311 0.189085 0.381766
O O6 0.690818 0.200318 0.129081
O O7 0.517775 0.113143 0.140447
O O8 0.482834 0.249130 0.127428
O O9 0.500000 0.000000 0.000000
O O10 0.734505 0.058059 0.947938
O O11 0.330614 0.834374 0.539742
O O12 0.123865 0.799340 0.789274
O O13 0.125052 0.787382 0.515048
O O14 0.122767 0.912885 0.649618
O O15 0.908079 0.347469 0.435933
O O16 0.880163 0.453930 0.594245
O O17 0.990554 0.471224 0.296503
#
# Coordination Sequence:
#
# PCOD9239662 Si02
#       8
#     4   4   4   4   4   4   4   4
#     4  11  18  32  52  77 101 131 169 209 249 297
#     4   9  18  30  46  72 100 128 165 207 251 300
#     4  10  20  33  52  77 104 131 169 212 252 297
#     4   9  15  27  46  73  92 121 157 205 242 286
#     4   8  16  32  49  72  95 130 168 201 239 297
#     4  10  18  30  48  73 102 129 166 208 254 296
#     4   8  15  27  46  67  94 117 160 202 238 284
#     4   9  16  29  54  72  94 129 172 204 239 293
#
# _framework density 16.803629000000001
#
# number of rings (size 3 to 8) (size 9 to 14) (size 15 to 20)
#    0.000    2.750    2.500    1.500    1.750    0.000 
#    2.250    0.000    2.750    4.500    0.000    0.000 
#    0.000    0.000    0.000    0.000    0.000    0.000 
#
# Total GULP energy -178240.644048 kJ/mol
# GULP energy per Si atom -5570.020127 kJ/mol
# Density = 1.676538 g / cm^3
# Si number density = 16.803629 Si / 1000 Ang^3
#
#
#
# Elastic Constant Matrix: (Units=GPa)
#
#
# Indices 1 2 3 4 5 6 
#
# 1 38.5557 27.5183 16.2706 0.0000 -9.1134 0.0000
# 2 27.5183 142.9247 45.2448 0.0000 -7.6075 0.0000
# 3 16.2706 45.2448 43.3551 0.0000 -9.9116 0.0000
# 4 0.0000 0.0000 0.0000 33.4202 0.0000 -1.1875
# 5 -9.1134 -7.6075 -9.9116 0.0000 13.6616 0.0000
# 6 0.0000 0.0000 0.0000 -1.1875 0.0000 21.7677
#
#
#
# Elastic Compliance Matrix: (Units=1/GPa)
#
#
# Indices 1 2 3 4 5 6 
#
# 1 0.035182 -0.004380 -0.004585 0.000000 0.017704 0.000000
# 2 -0.004380 0.011066 -0.010986 0.000000 -0.004730 0.000000
# 3 -0.004585 -0.010986 0.040944 0.000000 0.020529 0.000000
# 4 0.000000 0.000000 0.000000 0.029980 0.000000 0.001635
# 5 0.017704 -0.004730 0.020529 0.000000 0.097267 0.000000
# 6 0.000000 0.000000 0.000000 0.001635 0.000000 0.046029
#
#
# Mechanical properties :
#
#
# Convention : Reuss Voigt Hill
#
# Bulk Modulus (GPa) = 21.14609 44.76697 32.95653
# Shear Modulus (GPa) = 15.81608 22.82337 19.31973
#
# Velocity S-wave (km/s) = 3.07128 3.68943 3.39445
# Velocity P-wave (km/s) = 5.01882 6.69689 5.91764
#
# Compressibility (1/GPa) = 0.04729006
#
# Stress axis : x y z
#
# Youngs Moduli (GPa) = 28.42347 90.36713 24.42364
#
# Poissons Ratio (x) = 0.39582 0.11198
# Poissons Ratio (y) = 0.12450 0.26831
# Poissons Ratio (z) = 0.13032 0.99276
#
# Static dielectric constant tensor:
#      x y z
#    x 1.555040 0.000000 -0.003670 
#    y 0.000000 1.463640 0.000000 
#    z -0.003670 0.000000 1.570680 
# 
# From -- ./inp_files/13729.got.cif
#   From: 2010.05.17/outbox.cif.g08.bks.cpg/sg14_7_cif.got.tgz:13729.got - 2010.06.03 17:49:19.
