data_PCOD9239964
_publ_section_title
;
Structure prediction by ZEFSAII (Michael W. Deem and Ramdas Pophale) SiO2 
 PCOD9239964
Probable space group: P 21/C
;
_chemical_formula_sum "Si O2"
_cell_formula_units_Z 28
_cell_length_a 15.038670
_cell_length_b 16.728938
_cell_length_c 18.702430
_cell_angle_alpha 90.000000
_cell_angle_beta 18.673887
_cell_angle_gamma 90.000000
_cell_volume 1506.509056
_symmetry_space_group_name_H-M "P 21/C"
_symmetry_group_IT_number 14
_symmetry_cell_setting 'monoclinic'
loop_
_space_group_symop_operation_xyz
x,y,z
-x,1/2+y,1/2-z
-x,-y,-z
x,1/2-y,1/2+z
loop_
_atom_site_type_symbol
_atom_site_label
_atom_site_fract_x
_atom_site_fract_y
_atom_site_fract_z
Si Si1 0.072333 0.631167 0.459940
Si Si2 0.805134 0.496782 0.979654
Si Si3 0.956036 0.583040 0.075750
Si Si4 0.012734 0.716609 0.912241
Si Si5 0.557559 0.354605 0.689242
Si Si6 0.425856 0.020658 0.637351
Si Si7 0.687352 0.384034 0.429819
O O1 0.064407 0.696663 0.404288
O O2 0.226870 0.663877 0.412551
O O3 0.247373 0.554658 0.301204
O O4 0.767425 0.598628 0.710906
O O5 0.863360 0.425170 0.990211
O O6 0.093195 0.545145 0.751412
O O7 0.589674 0.559996 0.179788
O O8 0.682328 0.472299 0.996735
O O9 0.630588 0.591864 0.341755
O O10 0.000000 0.500000 0.000000
O O11 0.032565 0.654080 0.963399
O O12 0.220381 0.687382 0.692565
O O13 0.700180 0.706033 0.120342
O O14 0.699594 0.360791 0.503894
O O15 0.500000 0.000000 0.500000
#
# Coordination Sequence:
#
# PCOD9239964 Si02
#       7
#     4   4   4   4   4   4   4
#     4  10  22  41  58  80 117 150 190 247 289 336
#     4  10  19  33  57  87 113 147 196 237 287 344
#     4  11  19  34  55  89 120 150 184 234 289 341
#     4  10  22  35  55  86 117 150 189 233 288 349
#     4   9  19  36  57  79 113 157 185 232 293 340
#     4  10  22  40  62  82 107 153 203 242 286 345
#     4  10  18  33  58  86 115 154 189 229 291 348
#
# _framework density 18.586016000000001
#
# number of rings (size 3 to 8) (size 9 to 14) (size 15 to 20)
#    0.000    2.000    4.286    1.286    0.000    3.429 
#    0.000    1.429    0.000    0.000    0.000    0.000 
#    0.000    0.000    0.000    0.000    0.000    0.000 
#
# Total GULP energy -156254.782591 kJ/mol
# GULP energy per Si atom -5580.527950 kJ/mol
# Density = 1.854371 g / cm^3
# Si number density = 18.586016 Si / 1000 Ang^3
#
#
#
# Elastic Constant Matrix: (Units=GPa)
#
#
# Indices 1 2 3 4 5 6 
#
# 1 156.6378 29.1393 44.4091 0.0000 -1.7676 0.0000
# 2 29.1393 43.2173 21.5201 0.0000 -7.4362 0.0000
# 3 44.4091 21.5201 82.1291 0.0000 20.4182 0.0000
# 4 0.0000 0.0000 0.0000 10.7176 0.0000 2.5147
# 5 -1.7676 -7.4362 20.4182 0.0000 27.3235 0.0000
# 6 0.0000 0.0000 0.0000 2.5147 0.0000 29.1589
#
#
#
# Elastic Compliance Matrix: (Units=1/GPa)
#
#
# Indices 1 2 3 4 5 6 
#
# 1 0.008207 -0.002753 -0.004497 0.000000 0.003142 0.000000
# 2 -0.002753 0.034004 -0.011886 0.000000 0.017958 0.000000
# 3 -0.004497 -0.011886 0.022842 0.000000 -0.020595 0.000000
# 4 0.000000 0.000000 0.000000 0.095231 0.000000 -0.008213
# 5 0.003142 0.017958 -0.020595 0.000000 0.057080 0.000000
# 6 0.000000 0.000000 0.000000 -0.008213 0.000000 0.035003
#
#
# Mechanical properties :
#
#
# Convention : Reuss Voigt Hill
#
# Bulk Modulus (GPa) = 37.34108 52.45788 44.89948
# Shear Modulus (GPa) = 16.69077 25.90104 21.29591
#
# Velocity S-wave (km/s) = 2.99996 3.73711 3.38864
# Velocity P-wave (km/s) = 5.66871 6.84887 6.28654
#
# Compressibility (1/GPa) = 0.02678016
#
# Stress axis : x y z
#
# Youngs Moduli (GPa) = 121.84846 29.40852 43.77810
#
# Poissons Ratio (x) = 0.08097 0.19689
# Poissons Ratio (y) = 0.33548 0.52033
# Poissons Ratio (z) = 0.54801 0.34954
#
# Static dielectric constant tensor:
#      x y z
#    x 1.653880 0.000000 -0.007000 
#    y 0.000000 1.626610 0.000000 
#    z -0.007000 0.000000 1.636660 
# 
# From -- ./inp_files/59678.got.cif
#   From: 2010.05.17/outbox.cif.g08.bks.cpg/sg14_30_cif.got.tgz:59678.got - 2010.06.03 17:49:19.
