data_PCOD9239000
_publ_section_title
;
Structure prediction by ZEFSAII (Michael W. Deem and Ramdas Pophale) SiO2 
 PCOD9239000
Probable space group: P 2/C
;
_chemical_formula_sum "Si O2"
_cell_formula_units_Z 32
_cell_length_a 18.000000
_cell_length_b 15.000000
_cell_length_c 12.000000
_cell_angle_alpha 90.000000
_cell_angle_beta 30.000000
_cell_angle_gamma 90.000000
_cell_volume 1620.000000
_symmetry_space_group_name_H-M "P 2/C"
_symmetry_group_IT_number 13
_symmetry_cell_setting 'monoclinic'
loop_
_space_group_symop_operation_xyz
x,y,z
-x,y,1/2-z
-x,-y,-z
x,-y,1/2+z
loop_
_atom_site_type_symbol
_atom_site_label
_atom_site_fract_x
_atom_site_fract_y
_atom_site_fract_z
Si Si1 0.662355 0.386793 0.589830
Si Si2 0.099929 0.414729 0.405890
Si Si3 0.847727 0.092588 0.878515
Si Si4 0.174039 0.289700 0.686225
Si Si5 0.602443 0.309879 0.895776
Si Si6 0.632954 0.993797 0.491092
Si Si7 0.438748 0.124947 0.091864
Si Si8 0.327082 0.578791 0.814162
O O1 0.500000 0.365767 0.750000
O O2 0.794483 0.379211 0.329740
O O3 0.682854 0.328757 0.674559
O O4 0.663601 0.490015 0.625289
O O5 0.212977 0.436111 0.360292
O O6 0.000000 0.500000 0.500000
O O7 0.979752 0.341060 0.595646
O O8 0.861899 0.189120 0.802475
O O9 0.784412 0.027543 0.861662
O O10 0.000000 0.070247 0.750000
O O11 0.707452 0.104268 0.144540
O O12 0.281440 0.294811 0.654947
O O13 0.261582 0.341708 0.475014
O O14 0.491723 0.226120 0.028059
O O15 0.492090 0.392859 0.062197
O O16 0.583325 0.928445 0.453462
O O17 0.609156 0.090450 0.467601
O O18 0.500000 0.978576 0.750000
#
# Coordination Sequence:
#
# PCOD9239000 Si02
#       8
#     4   4   4   4   4   4   4   4
#     4  12  26  43  63  94 132 176 232 277 331 390
#     4  12  26  44  63  92 134 180 221 278 336 394
#     4  11  22  38  66  99 132 169 216 277 329 396
#     4  12  24  40  65  97 131 171 229 276 330 391
#     4  12  24  41  68  94 130 172 224 279 333 391
#     4   9  20  41  66  95 128 164 216 259 329 406
#     4  10  21  40  66  95 127 168 214 270 325 399
#     4  12  24  41  66  93 128 178 223 277 325 386
#
# _framework density 19.753086
#
# number of rings (size 3 to 8) (size 9 to 14) (size 15 to 20)
#    0.000    0.750    5.000    3.375    0.000    2.500 
#    0.000    0.000    0.000    0.000    0.000    0.000 
#    0.000    0.000    0.000    0.000    0.000    0.000 
#
# Total GULP energy -178803.060635 kJ/mol
# GULP energy per Si atom -5587.595645 kJ/mol
# Density = 1.970813 g / cm^3
# Si number density = 19.753086 Si / 1000 Ang^3
#
#
#
# Elastic Constant Matrix: (Units=GPa)
#
#
# Indices 1 2 3 4 5 6 
#
# 1 147.5533 10.8853 21.3905 0.0000 -16.9056 0.0000
# 2 10.8853 24.4612 -15.2992 0.0000 -4.6356 0.0000
# 3 21.3905 -15.2992 79.0193 0.0000 -7.4259 0.0000
# 4 0.0000 0.0000 0.0000 24.0795 0.0000 1.7954
# 5 -16.9056 -4.6356 -7.4259 0.0000 35.8561 0.0000
# 6 0.0000 0.0000 0.0000 1.7954 0.0000 36.5612
#
#
#
# Elastic Compliance Matrix: (Units=1/GPa)
#
#
# Indices 1 2 3 4 5 6 
#
# 1 0.007821 -0.004763 -0.002805 0.000000 0.002491 0.000000
# 2 -0.004763 0.051800 0.011970 0.000000 0.006930 0.000000
# 3 -0.002805 0.011970 0.016066 0.000000 0.003552 0.000000
# 4 0.000000 0.000000 0.000000 0.041682 0.000000 -0.002047
# 5 0.002491 0.006930 0.003552 0.000000 0.030695 0.000000
# 6 0.000000 0.000000 0.000000 -0.002047 0.000000 0.027452
#
#
# Mechanical properties :
#
#
# Convention : Reuss Voigt Hill
#
# Bulk Modulus (GPa) = 11.83563 31.66523 21.75043
# Shear Modulus (GPa) = 25.65750 34.90319 30.28034
#
# Velocity S-wave (km/s) = 3.60795 4.20810 3.91953
# Velocity P-wave (km/s) = 4.83334 6.29890 5.61415
#
# Compressibility (1/GPa) = 0.08449065
#
# Stress axis : x y z
#
# Youngs Moduli (GPa) = 127.86817 19.30495 62.24412
#
# Poissons Ratio (x) = 0.09194 0.17460
# Poissons Ratio (y) = 0.60898 -0.74504
# Poissons Ratio (z) = 0.35868 -0.23107
#
# Static dielectric constant tensor:
#      x y z
#    x 1.702560 0.000000 0.036470 
#    y 0.000000 1.730410 0.000000 
#    z 0.036470 0.000000 1.694400 
# 
# From -- ./inp_files/39463.got.cif
#   From: 2010.05.17/outbox.ucp.g08.bks.cvg/sg13_20_cif.got.tgz:39463.got - 2010.06.11 12:23:55.
