data_PCOD9239526
_publ_section_title
;
Structure prediction by ZEFSAII (Michael W. Deem and Ramdas Pophale) SiO2 
 PCOD9239526
Probable space group: P 21/C
;
_chemical_formula_sum "Si O2"
_cell_formula_units_Z 32
_cell_length_a 9.126438
_cell_length_b 5.342821
_cell_length_c 26.838752
_cell_angle_alpha 90.000000
_cell_angle_beta 79.866923
_cell_angle_gamma 90.000000
_cell_volume 1288.269242
_symmetry_space_group_name_H-M "P 21/C"
_symmetry_group_IT_number 14
_symmetry_cell_setting 'monoclinic'
loop_
_space_group_symop_operation_xyz
x,y,z
-x,1/2+y,1/2-z
-x,-y,-z
x,1/2-y,1/2+z
loop_
_atom_site_type_symbol
_atom_site_label
_atom_site_fract_x
_atom_site_fract_y
_atom_site_fract_z
Si Si1 0.637858 0.776126 0.955665
Si Si2 0.695772 0.262660 0.635256
Si Si3 0.241219 0.717691 0.101668
Si Si4 0.540623 0.154814 0.841148
Si Si5 0.375187 0.055844 0.440419
Si Si6 0.922300 0.675161 0.275750
Si Si7 0.943753 0.589098 0.643145
Si Si8 0.693580 0.620206 0.217484
O O1 0.684821 0.047831 0.933180
O O2 0.466476 0.681105 0.958376
O O3 0.720779 0.554596 0.921173
O O4 0.668601 0.734035 0.012275
O O5 0.530058 0.381651 0.644437
O O6 0.817452 0.469177 0.617468
O O7 0.738640 0.061521 0.591268
O O8 0.702667 0.149297 0.690616
O O9 0.291427 0.764322 0.156527
O O10 0.065647 0.749615 0.109230
O O11 0.473854 0.307041 0.892704
O O12 0.457490 0.253609 0.795728
O O13 0.964991 0.617810 0.330426
O O14 0.744772 0.645896 0.271679
O O15 0.007727 0.445292 0.242193
O O16 0.836085 0.739526 0.686297
#
# Coordination Sequence:
#
# PCOD9239526 Si02
#       8
#     4   4   4   4   4   4   4   4
#     4  10  22  36  59  83 114 150 193 239 278 343
#     4  10  17  35  58  83 108 148 194 235 276 331
#     4  11  23  38  56  86 118 153 182 229 300 339
#     4   9  19  34  59  82 112 147 189 236 277 337
#     4   9  19  34  59  84 108 146 202 240 274 322
#     4  10  19  35  59  87 108 143 191 234 270 327
#     4  10  22  35  59  82 119 147 185 232 288 345
#     4   9  19  35  59  84 107 146 194 232 271 328
#
# _framework density 24.839528999999999
#
# number of rings (size 3 to 8) (size 9 to 14) (size 15 to 20)
#    0.000    2.250    2.500    0.000    3.500    1.500 
#    0.000    1.250    2.750    0.000    0.000    0.000 
#    0.000    0.000    0.000    0.000    0.000    0.000 
#
# Total GULP energy -178360.826496 kJ/mol
# GULP energy per Si atom -5573.775828 kJ/mol
# Density = 2.478299 g / cm^3
# Si number density = 24.839529 Si / 1000 Ang^3
#
#
#
# Elastic Constant Matrix: (Units=GPa)
#
#
# Indices 1 2 3 4 5 6 
#
# 1 56.2618 4.0463 0.7640 0.0000 -0.3507 0.0000
# 2 4.0463 84.8653 9.7044 0.0000 7.2940 0.0000
# 3 0.7640 9.7044 67.4437 0.0000 10.2604 0.0000
# 4 0.0000 0.0000 0.0000 38.1862 0.0000 14.9493
# 5 -0.3507 7.2940 10.2604 0.0000 9.1349 0.0000
# 6 0.0000 0.0000 0.0000 14.9493 0.0000 20.6830
#
#
#
# Elastic Compliance Matrix: (Units=1/GPa)
#
#
# Indices 1 2 3 4 5 6 
#
# 1 0.017860 -0.000971 -0.000344 0.000000 0.001847 0.000000
# 2 -0.000971 0.012711 -0.000324 0.000000 -0.009823 0.000000
# 3 -0.000344 -0.000324 0.017899 0.000000 -0.019859 0.000000
# 4 0.000000 0.000000 0.000000 0.036521 0.000000 -0.026397
# 5 0.001847 -0.009823 -0.019859 0.000000 0.139691 0.000000
# 6 0.000000 0.000000 0.000000 -0.026397 0.000000 0.067428
#
#
# Mechanical properties :
#
#
# Convention : Reuss Voigt Hill
#
# Bulk Modulus (GPa) = 22.12696 26.40001 24.26349
# Shear Modulus (GPa) = 16.10557 26.53790 21.32174
#
# Velocity S-wave (km/s) = 2.54910 3.27214 2.93299
# Velocity P-wave (km/s) = 4.19419 4.99272 4.61077
#
# Compressibility (1/GPa) = 0.04519373
#
# Stress axis : x y z
#
# Youngs Moduli (GPa) = 55.99089 78.67227 55.86948
#
# Poissons Ratio (x) = 0.07639 0.01919
# Poissons Ratio (y) = 0.05437 0.01808
# Poissons Ratio (z) = 0.01924 0.02545
#
# Static dielectric constant tensor:
#      x y z
#    x 2.179510 0.000000 0.085560 
#    y 0.000000 2.049200 0.000000 
#    z 0.085560 0.000000 2.126070 
# 
# From -- ./inp_files/79245.got.cif
#   From: 2010.05.17/outbox.cif.g08.bks.cpg/sg14_40_cif.got.tgz:79245.got - 2010.06.03 17:49:19.
