data_PCOD9239399
_publ_section_title
;
Structure prediction by ZEFSAII (Michael W. Deem and Ramdas Pophale) SiO2 
 PCOD9239399
Probable space group: P 21/C
;
_chemical_formula_sum "Si O2"
_cell_formula_units_Z 32
_cell_length_a 15.016010
_cell_length_b 5.184433
_cell_length_c 21.705728
_cell_angle_alpha 90.000000
_cell_angle_beta 111.278716
_cell_angle_gamma 90.000000
_cell_volume 1574.581133
_symmetry_space_group_name_H-M "P 21/C"
_symmetry_group_IT_number 14
_symmetry_cell_setting 'monoclinic'
loop_
_space_group_symop_operation_xyz
x,y,z
-x,1/2+y,1/2-z
-x,-y,-z
x,1/2-y,1/2+z
loop_
_atom_site_type_symbol
_atom_site_label
_atom_site_fract_x
_atom_site_fract_y
_atom_site_fract_z
Si Si1 0.612264 0.131826 0.647715
Si Si2 0.469821 0.521870 0.704404
Si Si3 0.644843 0.507224 0.542728
Si Si4 0.722426 0.167177 0.799670
Si Si5 0.217550 0.272343 0.848130
Si Si6 0.514433 0.221347 0.919905
Si Si7 0.977344 0.465998 0.205321
Si Si8 0.836036 0.851358 0.298554
O O1 0.652707 0.219522 0.723455
O O2 0.685602 0.892780 0.654214
O O3 0.508173 0.999170 0.614888
O O4 0.636879 0.309062 0.596814
O O5 0.479182 0.255410 0.744826
O O6 0.357528 0.592619 0.670881
O O7 0.507564 0.531549 0.643557
O O8 0.747139 0.636540 0.580402
O O9 0.557052 0.699727 0.538856
O O10 0.615618 0.361178 0.473530
O O11 0.792773 0.927315 0.804109
O O12 0.782536 0.426127 0.822376
O O13 0.132666 0.475056 0.838116
O O14 0.183200 0.106868 0.780220
O O15 0.049510 0.376760 0.169830
O O16 0.984559 0.238444 0.257626
#
# Coordination Sequence:
#
# PCOD9239399 Si02
#       8
#     4   4   4   4   4   4   4   4
#     4  10  17  32  49  73 106 141 175 215 272 323
#     4  12  24  38  56  80 108 145 192 233 272 313
#     4  10  19  35  53  74 112 142 186 215 281 324
#     4  11  20  33  53  74 106 144 180 218 271 321
#     4   9  19  28  49  76 105 138 171 216 269 331
#     4  10  22  34  51  79 103 149 185 229 264 328
#     4  10  19  31  49  79 111 140 173 218 274 335
#     4  10  19  33  50  76 107 142 174 217 273 329
#
# _framework density 20.322865
#
# number of rings (size 3 to 8) (size 9 to 14) (size 15 to 20)
#    0.000    1.750    2.500    4.125    3.500    0.000 
#    0.000    0.000    0.000    0.000    0.000    1.750 
#    0.000    0.000    0.000    0.000    0.000    0.000 
#
# Total GULP energy -178207.363714 kJ/mol
# GULP energy per Si atom -5568.980116 kJ/mol
# Density = 2.027661 g / cm^3
# Si number density = 20.322865 Si / 1000 Ang^3
#
#
#
# Elastic Constant Matrix: (Units=GPa)
#
#
# Indices 1 2 3 4 5 6 
#
# 1 55.6215 -13.5098 3.6003 0.0000 1.5841 0.0000
# 2 -13.5098 66.3373 5.4261 0.0000 0.1104 0.0000
# 3 3.6003 5.4261 50.2447 0.0000 -2.9123 0.0000
# 4 0.0000 0.0000 0.0000 16.2486 0.0000 9.6841
# 5 1.5841 0.1104 -2.9123 0.0000 17.1234 0.0000
# 6 0.0000 0.0000 0.0000 9.6841 0.0000 29.2528
#
#
#
# Elastic Compliance Matrix: (Units=1/GPa)
#
#
# Indices 1 2 3 4 5 6 
#
# 1 0.019151 0.004062 -0.001934 0.000000 -0.002127 0.000000
# 2 0.004062 0.016073 -0.002075 0.000000 -0.000832 0.000000
# 3 -0.001934 -0.002075 0.020478 0.000000 0.003675 0.000000
# 4 0.000000 0.000000 0.000000 0.076671 0.000000 -0.025382
# 5 -0.002127 -0.000832 0.003675 0.000000 0.059227 0.000000
# 6 0.000000 0.000000 0.000000 -0.025382 0.000000 0.042587
#
#
# Mechanical properties :
#
#
# Convention : Reuss Voigt Hill
#
# Bulk Modulus (GPa) = 17.91876 18.13742 18.02809
# Shear Modulus (GPa) = 19.78754 24.30409 22.04581
#
# Velocity S-wave (km/s) = 3.12374 3.46193 3.29717
# Velocity P-wave (km/s) = 4.67402 4.99239 4.83583
#
# Compressibility (1/GPa) = 0.05580742
#
# Stress axis : x y z
#
# Youngs Moduli (GPa) = 52.21655 62.21689 48.83212
#
# Poissons Ratio (x) = -0.25272 0.09445
# Poissons Ratio (y) = -0.21210 0.10133
# Poissons Ratio (z) = 0.10100 0.12910
#
# Static dielectric constant tensor:
#      x y z
#    x 1.860270 0.000000 0.020550 
#    y 0.000000 1.909650 0.000000 
#    z 0.020550 0.000000 1.748060 
# 
# From -- ./inp_files/67882.got.cif
#   From: 2010.05.17/outbox.cif.g08.bks.cpg/sg14_34_cif.got.tgz:67882.got - 2010.06.03 17:49:19.
