data_PCOD9239516
_publ_section_title
;
Structure prediction by ZEFSAII (Michael W. Deem and Ramdas Pophale) SiO2 
 PCOD9239516
Probable space group: P 21/C
;
_chemical_formula_sum "Si O2"
_cell_formula_units_Z 28
_cell_length_a 8.948629
_cell_length_b 17.959747
_cell_length_c 12.531295
_cell_angle_alpha 90.000000
_cell_angle_beta 144.019102
_cell_angle_gamma 90.000000
_cell_volume 1183.237703
_symmetry_space_group_name_H-M "P 21/C"
_symmetry_group_IT_number 14
_symmetry_cell_setting 'monoclinic'
loop_
_space_group_symop_operation_xyz
x,y,z
-x,1/2+y,1/2-z
-x,-y,-z
x,1/2-y,1/2+z
loop_
_atom_site_type_symbol
_atom_site_label
_atom_site_fract_x
_atom_site_fract_y
_atom_site_fract_z
Si Si1 0.582606 0.851756 0.708032
Si Si2 0.340048 0.635295 0.288807
Si Si3 0.223025 0.377527 0.002100
Si Si4 0.745764 0.970227 0.293509
Si Si5 0.332992 0.244490 0.922418
Si Si6 0.215088 0.479429 0.798772
Si Si7 0.964902 0.119308 0.718164
O O1 0.512748 0.839799 0.789237
O O2 0.694081 0.781696 0.708967
O O3 0.757572 0.923497 0.783720
O O4 0.308524 0.869182 0.494617
O O5 0.384096 0.546118 0.320568
O O6 0.436798 0.686015 0.440769
O O7 0.041122 0.649915 0.098416
O O8 0.370493 0.312711 0.026338
O O9 0.124489 0.431850 0.849553
O O10 0.378297 0.422532 0.181964
O O11 0.843448 0.917932 0.256368
O O12 0.000000 0.000000 0.500000
O O13 0.084938 0.198351 0.813352
O O14 0.068865 0.557298 0.709548
O O15 0.500000 0.500000 0.000000
#
# Coordination Sequence:
#
# PCOD9239516 Si02
#       7
#     4   4   4   4   4   4   4
#     4  10  21  38  61  86 115 161 206 236 291 373
#     4  11  21  39  60  90 120 156 206 245 300 362
#     4  10  19  39  59  83 116 160 201 239 288 363
#     4  10  17  34  65  83 105 161 205 233 274 370
#     4  11  26  35  58  95 127 150 192 265 312 339
#     4   9  17  33  61  85 104 146 207 240 271 348
#     4  11  19  38  61  85 119 154 199 250 298 345
#
# _framework density 23.663882999999998
#
# number of rings (size 3 to 8) (size 9 to 14) (size 15 to 20)
#    0.000    1.714    5.714    1.714    2.000    0.571 
#    0.000    0.714    0.000    0.000    0.000    0.000 
#    0.000    0.000    0.000    0.000    0.000    0.000 
#
# Total GULP energy -156322.903488 kJ/mol
# GULP energy per Si atom -5582.960839 kJ/mol
# Density = 2.361002 g / cm^3
# Si number density = 23.663883 Si / 1000 Ang^3
#
#
#
# Elastic Constant Matrix: (Units=GPa)
#
#
# Indices 1 2 3 4 5 6 
#
# 1 89.1610 23.3792 -3.0964 0.0000 2.6156 0.0000
# 2 23.3792 110.3932 12.0277 0.0000 4.6539 0.0000
# 3 -3.0964 12.0277 28.8507 0.0000 3.6030 0.0000
# 4 0.0000 0.0000 0.0000 23.7666 0.0000 18.6797
# 5 2.6156 4.6539 3.6030 0.0000 11.0825 0.0000
# 6 0.0000 0.0000 0.0000 18.6797 0.0000 33.9451
#
#
#
# Elastic Compliance Matrix: (Units=1/GPa)
#
#
# Indices 1 2 3 4 5 6 
#
# 1 0.012111 -0.002758 0.002774 0.000000 -0.002603 0.000000
# 2 -0.002758 0.010202 -0.004269 0.000000 -0.002246 0.000000
# 3 0.002774 -0.004269 0.038145 0.000000 -0.011264 0.000000
# 4 0.000000 0.000000 0.000000 0.074144 0.000000 -0.040801
# 5 -0.002603 -0.002246 -0.011264 0.000000 0.095452 0.000000
# 6 0.000000 0.000000 0.000000 -0.040801 0.000000 0.051912
#
#
# Mechanical properties :
#
#
# Convention : Reuss Voigt Hill
#
# Bulk Modulus (GPa) = 19.24731 32.55844 25.90288
# Shear Modulus (GPa) = 16.24493 26.83178 21.53835
#
# Velocity S-wave (km/s) = 2.62293 3.37095 3.02019
# Velocity P-wave (km/s) = 4.16225 5.37956 4.80957
#
# Compressibility (1/GPa) = 0.05195531
#
# Stress axis : x y z
#
# Youngs Moduli (GPa) = 82.56664 98.01715 26.21554
#
# Poissons Ratio (x) = 0.27029 -0.07273
# Poissons Ratio (y) = 0.22768 0.11191
# Poissons Ratio (z) = -0.22908 0.41841
#
# Static dielectric constant tensor:
#      x y z
#    x 2.011070 0.000000 0.030090 
#    y 0.000000 1.986150 0.000000 
#    z 0.030090 0.000000 1.913370 
# 
# From -- ./inp_files/41820.got.cif
#   From: 2010.05.17/outbox.cif.g08.bks.cpg/sg14_21_cif.got.tgz:41820.got - 2010.06.03 17:49:19.
