data_PCOD9239939
_publ_section_title
;
Structure prediction by ZEFSAII (Michael W. Deem and Ramdas Pophale) SiO2 
 PCOD9239939
Probable space group: P 21/C
;
_chemical_formula_sum "Si O2"
_cell_formula_units_Z 28
_cell_length_a 11.048941
_cell_length_b 18.837292
_cell_length_c 20.270613
_cell_angle_alpha 90.000000
_cell_angle_beta 157.024081
_cell_angle_gamma 90.000000
_cell_volume 1646.848890
_symmetry_space_group_name_H-M "P 21/C"
_symmetry_group_IT_number 14
_symmetry_cell_setting 'monoclinic'
loop_
_space_group_symop_operation_xyz
x,y,z
-x,1/2+y,1/2-z
-x,-y,-z
x,1/2-y,1/2+z
loop_
_atom_site_type_symbol
_atom_site_label
_atom_site_fract_x
_atom_site_fract_y
_atom_site_fract_z
Si Si1 0.661737 0.420522 0.661106
Si Si2 0.403484 0.441684 0.808674
Si Si3 0.341931 0.667131 0.955581
Si Si4 0.602565 0.676071 0.579490
Si Si5 0.366224 0.444489 0.985885
Si Si6 0.321645 0.969666 0.689072
Si Si7 0.675639 0.445207 0.469255
O O1 0.529470 0.353550 0.556177
O O2 0.716598 0.416638 0.767642
O O3 0.418523 0.485792 0.534211
O O4 0.995572 0.440261 0.798356
O O5 0.489816 0.434518 0.775735
O O6 0.039870 0.438381 0.641424
O O7 0.568639 0.382812 0.937335
O O8 0.527494 0.519594 0.892853
O O9 0.972880 0.671630 0.765227
O O10 0.487885 0.744675 0.035222
O O11 0.486369 0.629230 0.963234
O O12 0.466504 0.622777 0.566359
O O13 0.500000 0.500000 0.000000
O O14 0.000000 0.000000 0.500000
O O15 0.510027 0.034803 0.817177
#
# Coordination Sequence:
#
# PCOD9239939 Si02
#       7
#     4   4   4   4   4   4   4
#     4  10  21  34  58  82 117 147 184 238 282 334
#     4  11  19  38  57  86 115 145 197 227 287 334
#     4  11  24  35  62  79 115 152 186 243 281 344
#     4  12  21  40  54  86 114 146 195 231 293 333
#     4  10  18  33  55  84 107 144 186 234 276 324
#     4  10  20  36  57  85 114 149 187 233 282 331
#     4  10  21  33  61  85 113 150 185 245 273 340
#
# _framework density 17.002168999999999
#
# number of rings (size 3 to 8) (size 9 to 14) (size 15 to 20)
#    0.857    0.571    1.429    7.714    0.000    0.000 
#    0.000    0.000    3.143    3.429    0.000    0.000 
#    0.000    0.000    0.000    0.000    0.000    0.000 
#
# Total GULP energy -156087.081958 kJ/mol
# GULP energy per Si atom -5574.538641 kJ/mol
# Density = 1.696347 g / cm^3
# Si number density = 17.002169 Si / 1000 Ang^3
#
#
#
# Elastic Constant Matrix: (Units=GPa)
#
#
# Indices 1 2 3 4 5 6 
#
# 1 113.0680 38.9214 48.2983 0.0000 2.9702 0.0000
# 2 38.9214 89.2940 22.5951 0.0000 -2.6171 0.0000
# 3 48.2983 22.5951 131.4048 0.0000 11.2379 0.0000
# 4 0.0000 0.0000 0.0000 27.2681 0.0000 2.4180
# 5 2.9702 -2.6171 11.2379 0.0000 37.1396 0.0000
# 6 0.0000 0.0000 0.0000 2.4180 0.0000 9.0163
#
#
#
# Elastic Compliance Matrix: (Units=1/GPa)
#
#
# Indices 1 2 3 4 5 6 
#
# 1 0.011858 -0.004259 -0.003613 0.000000 -0.000155 0.000000
# 2 -0.004259 0.013317 -0.000856 0.000000 0.001538 0.000000
# 3 -0.003613 -0.000856 0.009306 0.000000 -0.002587 0.000000
# 4 0.000000 0.000000 0.000000 0.037566 0.000000 -0.010075
# 5 -0.000155 0.001538 -0.002587 0.000000 0.027829 0.000000
# 6 0.000000 0.000000 0.000000 -0.010075 0.000000 0.113612
#
#
# Mechanical properties :
#
#
# Convention : Reuss Voigt Hill
#
# Bulk Modulus (GPa) = 58.73444 61.48847 60.11146
# Shear Modulus (GPa) = 21.13099 29.61492 25.37295
#
# Velocity S-wave (km/s) = 3.52922 4.17805 3.86727
# Velocity P-wave (km/s) = 7.15734 7.71482 7.44130
#
# Compressibility (1/GPa) = 0.01702578
#
# Stress axis : x y z
#
# Youngs Moduli (GPa) = 84.33447 75.09198 107.45290
#
# Poissons Ratio (x) = 0.31981 0.38819
# Poissons Ratio (y) = 0.35917 0.09198
# Poissons Ratio (z) = 0.30467 0.06428
#
# Static dielectric constant tensor:
#      x y z
#    x 1.618170 0.000000 -0.018950 
#    y 0.000000 1.562420 0.000000 
#    z -0.018950 0.000000 1.577520 
# 
# From -- ./inp_files/73361.got.cif
#   From: 2010.05.17/outbox.cif.g08.bks.cpg/sg14_37_cif.got.tgz:73361.got - 2010.06.03 17:49:19.
