data_PCOD9239900
_publ_section_title
;
Structure prediction by ZEFSAII (Michael W. Deem and Ramdas Pophale) SiO2 
 PCOD9239900
Probable space group: P 21/C
;
_chemical_formula_sum "Si O2"
_cell_formula_units_Z 20
_cell_length_a 4.935791
_cell_length_b 12.519758
_cell_length_c 12.272601
_cell_angle_alpha 90.000000
_cell_angle_beta 99.308202
_cell_angle_gamma 90.000000
_cell_volume 748.398290
_symmetry_space_group_name_H-M "P 21/C"
_symmetry_group_IT_number 14
_symmetry_cell_setting 'monoclinic'
loop_
_space_group_symop_operation_xyz
x,y,z
-x,1/2+y,1/2-z
-x,-y,-z
x,1/2-y,1/2+z
loop_
_atom_site_type_symbol
_atom_site_label
_atom_site_fract_x
_atom_site_fract_y
_atom_site_fract_z
Si Si1 0.492299 0.196664 0.266707
Si Si2 0.779061 0.961885 0.071593
Si Si3 0.210271 0.241848 0.035806
Si Si4 0.705821 0.148741 0.620224
Si Si5 0.991751 0.436303 0.809034
O O1 0.213212 0.155559 0.302008
O O2 0.729830 0.126804 0.337876
O O3 0.394582 0.174313 0.134941
O O4 0.628439 0.312148 0.240804
O O5 0.860323 0.010861 0.191949
O O6 0.792866 0.833384 0.068693
O O7 0.500000 0.000000 0.000000
O O8 0.000000 0.000000 0.000000
O O9 0.409197 0.344452 0.043302
O O10 0.923870 0.271495 0.075055
O O11 0.853787 0.035449 0.627027
#
# Coordination Sequence:
#
# PCOD9239900 Si02
#       5
#     4   4   4   4   4
#     4  10  18  33  47  72 107 126 164 210 240 295
#     4  12  18  30  50  78 104 129 156 206 270 314
#     4  10  18  33  46  68 112 129 153 208 250 295
#     4  10  20  33  47  72 105 135 171 195 243 315
#     4  12  20  31  54  78  99 139 166 197 260 310
#
# _framework density 26.723738000000001
#
# number of rings (size 3 to 8) (size 9 to 14) (size 15 to 20)
#    1.200    0.000    6.000    2.400    0.000    0.000 
#    0.000    0.000    0.000    0.000    0.000    8.400 
#    0.000    0.000    0.000    0.000    0.000    0.000 
#
# Total GULP energy -111525.371354 kJ/mol
# GULP energy per Si atom -5576.268568 kJ/mol
# Density = 2.666291 g / cm^3
# Si number density = 26.723738 Si / 1000 Ang^3
#
#
#
# Elastic Constant Matrix: (Units=GPa)
#
#
# Indices 1 2 3 4 5 6 
#
# 1 193.1636 25.6577 18.7131 0.0000 27.7826 0.0000
# 2 25.6577 125.1983 45.0705 0.0000 11.6936 0.0000
# 3 18.7131 45.0705 67.6286 0.0000 11.6071 0.0000
# 4 0.0000 0.0000 0.0000 47.3866 0.0000 16.9463
# 5 27.7826 11.6936 11.6071 0.0000 12.5455 0.0000
# 6 0.0000 0.0000 0.0000 16.9463 0.0000 15.0869
#
#
#
# Elastic Compliance Matrix: (Units=1/GPa)
#
#
# Indices 1 2 3 4 5 6 
#
# 1 0.007656 -0.000325 0.001136 0.000000 -0.017704 0.000000
# 2 -0.000325 0.010689 -0.006475 0.000000 -0.003253 0.000000
# 3 0.001136 -0.006475 0.021616 0.000000 -0.016480 0.000000
# 4 0.000000 0.000000 0.000000 0.035271 0.000000 -0.039618
# 5 -0.017704 -0.003253 -0.016480 0.000000 0.137197 0.000000
# 6 0.000000 0.000000 0.000000 -0.039618 0.000000 0.110783
#
#
# Mechanical properties :
#
#
# Convention : Reuss Voigt Hill
#
# Bulk Modulus (GPa) = 34.92322 62.76369 48.84346
# Shear Modulus (GPa) = 14.53133 34.77374 24.65254
#
# Velocity S-wave (km/s) = 2.33440 3.61117 3.04056
# Velocity P-wave (km/s) = 4.51248 6.39723 5.53566
#
# Compressibility (1/GPa) = 0.02863424
#
# Stress axis : x y z
#
# Youngs Moduli (GPa) = 130.61022 93.55634 46.26178
#
# Poissons Ratio (x) = 0.03036 -0.05257
# Poissons Ratio (y) = 0.04239 0.29956
# Poissons Ratio (z) = -0.14842 0.60580
#
# Static dielectric constant tensor:
#      x y z
#    x 2.497870 0.000000 -0.109880 
#    y 0.000000 2.319260 0.000000 
#    z -0.109880 0.000000 2.146810 
# 
# From -- ./inp_files/52877.got.cif
#   From: 2010.05.17/outbox.cif.g08.bks.cpg/sg14_27_cif.got.tgz:52877.got - 2010.06.03 17:49:19.
