data_PCOD9239907
_publ_section_title
;
Structure prediction by ZEFSAII (Michael W. Deem and Ramdas Pophale) SiO2 
 PCOD9239907
Probable space group: P 21/C
;
_chemical_formula_sum "Si O2"
_cell_formula_units_Z 28
_cell_length_a 11.302783
_cell_length_b 18.356767
_cell_length_c 5.471882
_cell_angle_alpha 90.000000
_cell_angle_beta 87.266554
_cell_angle_gamma 90.000000
_cell_volume 1134.028293
_symmetry_space_group_name_H-M "P 21/C"
_symmetry_group_IT_number 14
_symmetry_cell_setting 'monoclinic'
loop_
_space_group_symop_operation_xyz
x,y,z
-x,1/2+y,1/2-z
-x,-y,-z
x,1/2-y,1/2+z
loop_
_atom_site_type_symbol
_atom_site_label
_atom_site_fract_x
_atom_site_fract_y
_atom_site_fract_z
Si Si1 0.836114 0.633594 0.269332
Si Si2 0.343834 0.674659 0.390588
Si Si3 0.071261 0.713006 0.382997
Si Si4 0.104900 0.536442 0.740991
Si Si5 0.160594 0.519190 0.229733
Si Si6 0.288227 0.372355 0.216212
Si Si7 0.438280 0.837777 0.383793
O O1 0.844562 0.545958 0.257473
O O2 0.759791 0.654357 0.515954
O O3 0.969015 0.658946 0.303484
O O4 0.782668 0.657722 0.014350
O O5 0.211069 0.699765 0.347342
O O6 0.416749 0.750747 0.404113
O O7 0.367255 0.637328 0.649366
O O8 0.392982 0.632299 0.149212
O O9 0.050822 0.724514 0.676216
O O10 0.151793 0.563927 0.479804
O O11 0.962443 0.529085 0.755469
O O12 0.149336 0.568047 0.990272
O O13 0.263560 0.459828 0.218872
O O14 0.424869 0.355038 0.168569
#
# Coordination Sequence:
#
# PCOD9239907 Si02
#       7
#     4   4   4   4   4   4   4
#     4  10  21  33  47  74 103 126 151 192 244 294
#     4  10  19  35  51  64  81 122 176 200 222 260
#     4  12  21  38  52  66  93 125 169 206 229 272
#     4   8  14  27  44  66  94 125 155 176 221 280
#     4   8  14  25  46  66  94 127 148 182 216 284
#     4  10  19  33  47  76 105 121 152 186 249 295
#     4  10  18  33  51  66  90 120 157 206 223 273
#
# _framework density 24.690740999999999
#
# number of rings (size 3 to 8) (size 9 to 14) (size 15 to 20)
#    0.000    2.286    2.857    1.714    0.000    0.000 
#   15.429    0.000    0.000    0.000    0.000    2.000 
#    0.000    0.000    0.000    0.000    0.000    0.000 
#
# Total GULP energy -156503.936563 kJ/mol
# GULP energy per Si atom -5589.426306 kJ/mol
# Density = 2.463454 g / cm^3
# Si number density = 24.690741 Si / 1000 Ang^3
#
#
#
# Elastic Constant Matrix: (Units=GPa)
#
#
# Indices 1 2 3 4 5 6 
#
# 1 57.6487 7.9508 43.2533 0.0000 20.5178 0.0000
# 2 7.9508 28.6642 10.3812 0.0000 5.9921 0.0000
# 3 43.2533 10.3812 237.8521 0.0000 -5.1948 0.0000
# 4 0.0000 0.0000 0.0000 21.6733 0.0000 4.2068
# 5 20.5178 5.9921 -5.1948 0.0000 37.8713 0.0000
# 6 0.0000 0.0000 0.0000 4.2068 0.0000 34.9273
#
#
#
# Elastic Compliance Matrix: (Units=1/GPa)
#
#
# Indices 1 2 3 4 5 6 
#
# 1 0.026775 -0.002490 -0.005084 0.000000 -0.014810 0.000000
# 2 -0.002490 0.037014 -0.001265 0.000000 -0.004681 0.000000
# 3 -0.005084 -0.001265 0.005264 0.000000 0.003677 0.000000
# 4 0.000000 0.000000 0.000000 0.047244 0.000000 -0.005690
# 5 -0.014810 -0.004681 0.003677 0.000000 0.035674 0.000000
# 6 0.000000 0.000000 0.000000 -0.005690 0.000000 0.029316
#
#
# Mechanical properties :
#
#
# Convention : Reuss Voigt Hill
#
# Bulk Modulus (GPa) = 19.46421 49.70394 34.58407
# Shear Modulus (GPa) = 23.13852 36.39969 29.76911
#
# Velocity S-wave (km/s) = 3.06458 3.84373 3.47606
# Velocity P-wave (km/s) = 4.51913 6.31453 5.49071
#
# Compressibility (1/GPa) = 0.05137634
#
# Stress axis : x y z
#
# Youngs Moduli (GPa) = 37.34828 27.01680 189.95913
#
# Poissons Ratio (x) = 0.06726 0.96572
# Poissons Ratio (y) = 0.09299 0.24030
# Poissons Ratio (z) = 0.18987 0.03418
#
# Static dielectric constant tensor:
#      x y z
#    x 1.884870 0.000000 -0.041870 
#    y 0.000000 1.975420 0.000000 
#    z -0.041870 0.000000 2.125320 
# 
# From -- ./inp_files/1894.got.cif
#   From: 2010.05.17/outbox.cif.g08.bks.cpg/sg14_1_cif.got.tgz:1894.got - 2010.06.03 17:49:19.
