data_PCOD9239075
_publ_section_title
;
Structure prediction by ZEFSAII (Michael W. Deem and Ramdas Pophale) SiO2 
 PCOD9239075
Probable space group: P 2/C
;
_chemical_formula_sum "Si O2"
_cell_formula_units_Z 24
_cell_length_a 15.000000
_cell_length_b 9.000000
_cell_length_c 15.000000
_cell_angle_alpha 90.000000
_cell_angle_beta 40.000000
_cell_angle_gamma 90.000000
_cell_volume 1301.644910
_symmetry_space_group_name_H-M "P 2/C"
_symmetry_group_IT_number 13
_symmetry_cell_setting 'monoclinic'
loop_
_space_group_symop_operation_xyz
x,y,z
-x,y,1/2-z
-x,-y,-z
x,-y,1/2+z
loop_
_atom_site_type_symbol
_atom_site_label
_atom_site_fract_x
_atom_site_fract_y
_atom_site_fract_z
Si Si1 0.682675 0.103876 0.470098
Si Si2 0.608576 0.249664 0.036291
Si Si3 0.146957 0.175928 0.343947
Si Si4 0.173600 0.117992 0.944218
Si Si5 0.597684 0.691170 0.333808
Si Si6 0.668018 0.627961 0.687348
O O1 0.767456 0.143107 0.313741
O O2 0.768040 0.123451 0.498337
O O3 0.545551 0.213006 0.573572
O O4 0.648915 0.925232 0.496215
O O5 0.618043 0.319699 0.927552
O O6 0.448508 0.257772 0.187885
O O7 0.677470 0.337938 0.071396
O O8 0.197751 0.323749 0.357914
O O9 0.984462 0.176950 0.441825
O O10 0.169727 0.044631 0.400038
O O11 0.277565 0.213163 0.803419
O O12 0.610870 0.533330 0.268205
#
# Coordination Sequence:
#
# PCOD9239075 Si02
#       6
#     4   4   4   4   4   4
#     4  12  23  42  70  98 132 175 226 272 325 399
#     4  11  23  41  66  99 130 174 216 276 330 387
#     4  11  23  45  64  94 138 173 222 269 329 393
#     4  11  25  40  67  99 129 178 221 273 321 395
#     4  12  25  42  70 102 132 169 227 273 335 394
#     4  11  25  41  66 100 137 172 213 282 334 391
#
# _framework density 18.438207999999999
#
# number of rings (size 3 to 8) (size 9 to 14) (size 15 to 20)
#    0.000    0.667    5.000    3.000    7.000    0.667 
#    0.000    0.833    0.000    0.000    0.000    0.000 
#    0.000    0.000    0.000    0.000    0.000    0.000 
#
# Total GULP energy -133792.847148 kJ/mol
# GULP energy per Si atom -5574.701964 kJ/mol
# Density = 1.839624 g / cm^3
# Si number density = 18.438208 Si / 1000 Ang^3
#
#
#
# Elastic Constant Matrix: (Units=GPa)
#
#
# Indices 1 2 3 4 5 6 
#
# 1 174.8872 55.2819 66.8862 0.0000 22.6276 0.0000
# 2 55.2819 89.2599 32.7014 0.0000 -3.2013 0.0000
# 3 66.8862 32.7014 119.4041 0.0000 4.7794 0.0000
# 4 0.0000 0.0000 0.0000 31.1151 0.0000 5.5379
# 5 22.6276 -3.2013 4.7794 0.0000 52.5352 0.0000
# 6 0.0000 0.0000 0.0000 5.5379 0.0000 31.4116
#
#
#
# Elastic Compliance Matrix: (Units=1/GPa)
#
#
# Indices 1 2 3 4 5 6 
#
# 1 0.009002 -0.004357 -0.003697 0.000000 -0.003806 0.000000
# 2 -0.004357 0.014622 -0.001681 0.000000 0.002921 0.000000
# 3 -0.003697 -0.001681 0.010886 0.000000 0.000499 0.000000
# 4 0.000000 0.000000 0.000000 0.033180 0.000000 -0.005850
# 5 -0.003806 0.002921 0.000499 0.000000 0.020807 0.000000
# 6 0.000000 0.000000 0.000000 -0.005850 0.000000 0.032867
#
#
# Mechanical properties :
#
#
# Convention : Reuss Voigt Hill
#
# Bulk Modulus (GPa) = 66.48699 77.03225 71.75962
# Shear Modulus (GPa) = 34.28269 38.25783 36.27026
#
# Velocity S-wave (km/s) = 4.31667 4.56007 4.44004
# Velocity P-wave (km/s) = 7.80913 8.34236 8.08014
#
# Compressibility (1/GPa) = 0.01504054
#
# Stress axis : x y z
#
# Youngs Moduli (GPa) = 111.09171 68.38865 91.86079
#
# Poissons Ratio (x) = 0.29798 0.33958
# Poissons Ratio (y) = 0.48405 0.15440
# Poissons Ratio (z) = 0.41068 0.11495
#
# Static dielectric constant tensor:
#      x y z
#    x 1.684110 0.000000 -0.001480 
#    y 0.000000 1.681780 0.000000 
#    z -0.001480 0.000000 1.627620 
# 
# From -- ./inp_files/52893.got.cif
#   From: 2010.05.17/outbox.ucp.g08.bks.cvg/sg13_27_cif.got.tgz:52893.got - 2010.06.11 12:23:55.
