data_PCOD9239819
_publ_section_title
;
Structure prediction by ZEFSAII (Michael W. Deem and Ramdas Pophale) SiO2 
 PCOD9239819
Probable space group: P 21/C
;
_chemical_formula_sum "Si O2"
_cell_formula_units_Z 32
_cell_length_a 11.595358
_cell_length_b 7.111289
_cell_length_c 12.797151
_cell_angle_alpha 90.000000
_cell_angle_beta 85.266761
_cell_angle_gamma 90.000000
_cell_volume 1051.628076
_symmetry_space_group_name_H-M "P 21/C"
_symmetry_group_IT_number 14
_symmetry_cell_setting 'monoclinic'
loop_
_space_group_symop_operation_xyz
x,y,z
-x,1/2+y,1/2-z
-x,-y,-z
x,1/2-y,1/2+z
loop_
_atom_site_type_symbol
_atom_site_label
_atom_site_fract_x
_atom_site_fract_y
_atom_site_fract_z
Si Si1 0.142371 0.011448 0.334409
Si Si2 0.836809 0.409940 0.937752
Si Si3 0.371653 0.837299 0.780826
Si Si4 0.378328 0.053089 0.247464
Si Si5 0.897530 0.528429 0.402457
Si Si6 0.406264 0.767416 0.506957
Si Si7 0.872499 0.433444 0.704609
Si Si8 0.342861 0.174487 0.029248
O O1 0.113790 0.998884 0.459626
O O2 0.272412 0.094358 0.330890
O O3 0.105249 0.091909 0.222768
O O4 0.130790 0.791781 0.306341
O O5 0.860936 0.185601 0.930756
O O6 0.892016 0.484004 0.825419
O O7 0.695543 0.409666 0.945484
O O8 0.352962 0.659865 0.705227
O O9 0.392159 0.712164 0.882443
O O10 0.263018 0.971584 0.803962
O O11 0.487000 0.939172 0.741441
O O12 0.361381 0.193520 0.151973
O O13 0.799515 0.661571 0.463638
O O14 0.038430 0.504732 0.391133
O O15 0.542979 0.782004 0.527105
O O16 0.376939 0.543688 0.506875
#
# Coordination Sequence:
#
# PCOD9239819 Si02
#       8
#     4   4   4   4   4   4   4   4
#     4   9  18  36  54  76 103 148 190 222 287 345
#     4  10  18  33  58  76 102 150 185 228 284 344
#     4  10  18  32  53  81 112 149 183 232 282 340
#     4   9  17  32  54  79 110 145 184 228 283 333
#     4   9  19  33  51  82 107 144 185 223 276 335
#     4   9  14  28  53  80  96 136 187 223 272 331
#     4  10  20  34  53  81 113 145 186 230 283 341
#     4   8  16  28  50  79 107 134 182 235 267 325
#
# _framework density 30.429012
#
# number of rings (size 3 to 8) (size 9 to 14) (size 15 to 20)
#    0.000    2.750    2.500    2.250    0.000    1.000 
#    0.000    8.125    0.000    0.000    9.750    0.000 
#    0.000    0.000    0.000    0.000    0.000    0.000 
#
# Total GULP energy -178351.946060 kJ/mol
# GULP energy per Si atom -5573.498314 kJ/mol
# Density = 3.035975 g / cm^3
# Si number density = 30.429012 Si / 1000 Ang^3
#
#
#
# Elastic Constant Matrix: (Units=GPa)
#
#
# Indices 1 2 3 4 5 6 
#
# 1 120.6210 17.4059 37.0895 0.0000 -42.9268 0.0000
# 2 17.4059 72.0393 11.6099 0.0000 -3.9703 0.0000
# 3 37.0895 11.6099 106.1207 0.0000 -40.9665 0.0000
# 4 0.0000 0.0000 0.0000 40.6158 0.0000 -14.0327
# 5 -42.9268 -3.9703 -40.9665 0.0000 74.8354 0.0000
# 6 0.0000 0.0000 0.0000 -14.0327 0.0000 33.2693
#
#
#
# Elastic Compliance Matrix: (Units=1/GPa)
#
#
# Indices 1 2 3 4 5 6 
#
# 1 0.010968 -0.002107 -0.001543 0.000000 0.005334 0.000000
# 2 -0.002107 0.014536 -0.001297 0.000000 -0.001147 0.000000
# 3 -0.001543 -0.001297 0.012345 0.000000 0.005804 0.000000
# 4 0.000000 0.000000 0.000000 0.028821 0.000000 0.012156
# 5 0.005334 -0.001147 0.005804 0.000000 0.019539 0.000000
# 6 0.000000 0.000000 0.000000 0.012156 0.000000 0.035185
#
#
# Mechanical properties :
#
#
# Convention : Reuss Voigt Hill
#
# Bulk Modulus (GPa) = 35.77294 47.88797 41.83045
# Shear Modulus (GPa) = 35.56026 45.25581 40.40804
#
# Velocity S-wave (km/s) = 3.42223 3.86068 3.64805
# Velocity P-wave (km/s) = 5.23424 5.97034 5.61437
#
# Compressibility (1/GPa) = 0.02795409
#
# Stress axis : x y z
#
# Youngs Moduli (GPa) = 91.17841 68.79379 81.00443
#
# Poissons Ratio (x) = 0.14496 0.12502
# Poissons Ratio (y) = 0.19213 0.10504
# Poissons Ratio (z) = 0.14072 0.08921
#
# Static dielectric constant tensor:
#      x y z
#    x 2.658320 0.000000 0.165640 
#    y 0.000000 2.434130 0.000000 
#    z 0.165640 0.000000 2.728440 
# 
# From -- ./inp_files/44371.got.cif
#   From: 2010.05.17/outbox.cif.g08.bks.cpg/sg14_23_cif.got.tgz:44371.got - 2010.06.03 17:49:19.
