data_PCOD9239082
_publ_section_title
;
Structure prediction by ZEFSAII (Michael W. Deem and Ramdas Pophale) SiO2 
 PCOD9239082
Probable space group: P 2/C
;
_chemical_formula_sum "Si O2"
_cell_formula_units_Z 28
_cell_length_a 6.000000
_cell_length_b 12.000000
_cell_length_c 21.000000
_cell_angle_alpha 90.000000
_cell_angle_beta 120.000000
_cell_angle_gamma 90.000000
_cell_volume 1309.430411
_symmetry_space_group_name_H-M "P 2/C"
_symmetry_group_IT_number 13
_symmetry_cell_setting 'monoclinic'
loop_
_space_group_symop_operation_xyz
x,y,z
-x,y,1/2-z
-x,-y,-z
x,-y,1/2+z
loop_
_atom_site_type_symbol
_atom_site_label
_atom_site_fract_x
_atom_site_fract_y
_atom_site_fract_z
Si Si1 0.603725 0.877664 0.658695
Si Si2 0.767268 0.230753 0.823333
Si Si3 0.747483 0.949733 0.431281
Si Si4 0.166747 0.390871 0.949293
Si Si5 0.612088 0.213032 0.017289
Si Si6 0.500000 0.294509 0.250000
Si Si7 0.071214 0.374727 0.087148
Si Si8 0.000000 0.932661 0.250000
O O1 0.580693 0.822266 0.586185
O O2 0.642004 0.787637 0.719671
O O3 0.342238 0.947579 0.625901
O O4 0.801211 0.980122 0.690681
O O5 0.500000 0.265469 0.750000
O O6 0.746904 0.153047 0.882627
O O7 0.936743 0.331357 0.876353
O O8 0.897024 0.150245 0.789472
O O9 0.588087 0.894020 0.467500
O O10 0.000000 0.000000 0.500000
O O11 0.120777 0.521018 0.924999
O O12 0.413136 0.311901 0.969435
O O13 0.164259 0.391602 0.026981
O O14 0.897574 0.264544 0.056192
O O15 0.293534 0.358877 0.173692
#
# Coordination Sequence:
#
# PCOD9239082 Si02
#       8
#     4   4   4   4   4   2   4   2
#     4  12  23  40  66  99 141 179 219 275 341 411
#     4  12  25  45  66 101 138 180 231 287 343 406
#     4  12  23  42  68 101 139 187 226 275 342 418
#     4  11  25  47  73  98 133 184 235 292 353 410
#     4  12  23  45  71 105 135 183 238 283 345 425
#     4  12  24  46  68 106 140 184 228 290 352 418
#     4  11  25  47  73  99 138 177 236 296 354 409
#     4  12  24  42  64 100 142 182 220 280 338 418
#
# _framework density 21.383343
#
# number of rings (size 3 to 8) (size 9 to 14) (size 15 to 20)
#    0.000    0.286    4.286    6.000    1.000    0.000 
#    0.000    1.429    0.000    0.000    0.000    0.000 
#    0.000    0.000    0.000    0.000    0.000    0.000 
#
# Total GULP energy -156158.043496 kJ/mol
# GULP energy per Si atom -5577.072982 kJ/mol
# Density = 2.133467 g / cm^3
# Si number density = 21.383343 Si / 1000 Ang^3
#
#
#
# Elastic Constant Matrix: (Units=GPa)
#
#
# Indices 1 2 3 4 5 6 
#
# 1 31.5930 14.1081 20.0026 0.0000 -1.0231 0.0000
# 2 14.1081 94.7331 34.9764 0.0000 2.9181 0.0000
# 3 20.0026 34.9764 150.5787 0.0000 20.2937 0.0000
# 4 0.0000 0.0000 0.0000 40.6821 0.0000 10.6352
# 5 -1.0231 2.9181 20.2937 0.0000 43.8633 0.0000
# 6 0.0000 0.0000 0.0000 10.6352 0.0000 38.5485
#
#
#
# Elastic Compliance Matrix: (Units=1/GPa)
#
#
# Indices 1 2 3 4 5 6 
#
# 1 0.036232 -0.003894 -0.004327 0.000000 0.003106 0.000000
# 2 -0.003894 0.011975 -0.002287 0.000000 0.000171 0.000000
# 3 -0.004327 -0.002287 0.008255 0.000000 -0.003768 0.000000
# 4 0.000000 0.000000 0.000000 0.026491 0.000000 -0.007309
# 5 0.003106 0.000171 -0.003768 0.000000 0.024602 0.000000
# 6 0.000000 0.000000 0.000000 -0.007309 0.000000 0.027958
#
#
# Mechanical properties :
#
#
# Convention : Reuss Voigt Hill
#
# Bulk Modulus (GPa) = 28.21263 46.11990 37.16627
# Shear Modulus (GPa) = 29.70092 38.47330 34.08711
#
# Velocity S-wave (km/s) = 3.73094 4.24632 3.99695
# Velocity P-wave (km/s) = 5.63757 6.75697 6.22249
#
# Compressibility (1/GPa) = 0.03544512
#
# Stress axis : x y z
#
# Youngs Moduli (GPa) = 27.60022 83.50657 121.13910
#
# Poissons Ratio (x) = 0.32516 0.52418
# Poissons Ratio (y) = 0.10747 0.27709
# Poissons Ratio (z) = 0.11943 0.19101
#
# Static dielectric constant tensor:
#      x y z
#    x 1.903010 0.000000 0.069710 
#    y 0.000000 1.783890 0.000000 
#    z 0.069710 0.000000 1.561330 
# 
# From -- ./inp_files/73747.got.cif
#   From: 2010.05.17/outbox.ucp.g08.bks.cvg/sg13_37_cif.got.tgz:73747.got - 2010.06.11 12:23:55.
