data_PCOD9239942
_publ_section_title
;
Structure prediction by ZEFSAII (Michael W. Deem and Ramdas Pophale) SiO2 
 PCOD9239942
Probable space group: P 21/C
;
_chemical_formula_sum "Si O2"
_cell_formula_units_Z 24
_cell_length_a 15.433105
_cell_length_b 6.152791
_cell_length_c 16.356884
_cell_angle_alpha 90.000000
_cell_angle_beta 53.754120
_cell_angle_gamma 90.000000
_cell_volume 1252.631950
_symmetry_space_group_name_H-M "P 21/C"
_symmetry_group_IT_number 14
_symmetry_cell_setting 'monoclinic'
loop_
_space_group_symop_operation_xyz
x,y,z
-x,1/2+y,1/2-z
-x,-y,-z
x,1/2-y,1/2+z
loop_
_atom_site_type_symbol
_atom_site_label
_atom_site_fract_x
_atom_site_fract_y
_atom_site_fract_z
Si Si1 0.719066 0.038170 0.767407
Si Si2 0.087017 0.810636 0.438571
Si Si3 0.849834 0.765151 0.321253
Si Si4 0.475099 0.308447 0.578582
Si Si5 0.967752 0.490163 0.383171
Si Si6 0.334462 0.922422 0.577162
O O1 0.797015 0.096539 0.649802
O O2 0.692615 0.252980 0.835282
O O3 0.787082 0.878331 0.788890
O O4 0.606244 0.917289 0.811515
O O5 0.085129 0.662862 0.519729
O O6 0.044797 0.660148 0.387609
O O7 0.000000 0.000000 0.500000
O O8 0.880070 0.618155 0.380620
O O9 0.958075 0.852622 0.219334
O O10 0.775261 0.966228 0.389347
O O11 0.500000 0.500000 0.500000
O O12 0.591133 0.201648 0.530533
O O13 0.406192 0.118691 0.573634
#
# Coordination Sequence:
#
# PCOD9239942 Si02
#       6
#     4   4   4   4   4   4
#     4  10  18  33  56  79 117 149 189 239 289 341
#     4  11  22  38  52  79 122 157 191 238 284 355
#     4  11  21  34  53  80 116 155 191 241 289 344
#     4   8  16  29  51  83 114 133 183 238 290 336
#     4  11  24  34  53  79 118 158 197 230 291 354
#     4   9  17  31  52  81 118 137 180 244 287 337
#
# _framework density 19.159658
#
# number of rings (size 3 to 8) (size 9 to 14) (size 15 to 20)
#    0.000    2.000    3.333    1.000    0.000    0.000 
#    0.000    0.000    0.000    0.000    0.000    0.000 
#  415.000    0.000    0.000    0.000    0.000    1.333 
#
# Total GULP energy -133849.404107 kJ/mol
# GULP energy per Si atom -5577.058504 kJ/mol
# Density = 1.911605 g / cm^3
# Si number density = 19.159658 Si / 1000 Ang^3
#
#
#
# Elastic Constant Matrix: (Units=GPa)
#
#
# Indices 1 2 3 4 5 6 
#
# 1 31.1964 12.0176 32.6300 0.0000 -12.0185 0.0000
# 2 12.0176 86.5347 33.8280 0.0000 -13.7574 0.0000
# 3 32.6300 33.8280 99.1064 0.0000 -34.0010 0.0000
# 4 0.0000 0.0000 0.0000 30.7616 0.0000 -21.2659
# 5 -12.0185 -13.7574 -34.0010 0.0000 32.0800 0.0000
# 6 0.0000 0.0000 0.0000 -21.2659 0.0000 45.5167
#
#
#
# Elastic Compliance Matrix: (Units=1/GPa)
#
#
# Indices 1 2 3 4 5 6 
#
# 1 0.048992 -0.000520 -0.015293 0.000000 0.001922 0.000000
# 2 -0.000520 0.013381 -0.003920 0.000000 0.001389 0.000000
# 3 -0.015293 -0.003920 0.021875 0.000000 0.015775 0.000000
# 4 0.000000 0.000000 0.000000 0.048017 0.000000 0.022434
# 5 0.001922 0.001389 0.015775 0.000000 0.049208 0.000000
# 6 0.000000 0.000000 0.000000 0.022434 0.000000 0.032451
#
#
# Mechanical properties :
#
#
# Convention : Reuss Voigt Hill
#
# Bulk Modulus (GPa) = 22.32987 41.53207 31.93097
# Shear Modulus (GPa) = 18.63464 30.89578 24.76521
#
# Velocity S-wave (km/s) = 3.12203 4.02001 3.59913
# Velocity P-wave (km/s) = 4.96750 6.57808 5.82869
#
# Compressibility (1/GPa) = 0.04478307
#
# Stress axis : x y z
#
# Youngs Moduli (GPa) = 20.41162 74.73061 45.71389
#
# Poissons Ratio (x) = 0.03884 0.69911
# Poissons Ratio (y) = 0.01061 0.17918
# Poissons Ratio (z) = 0.31216 0.29292
#
# Static dielectric constant tensor:
#      x y z
#    x 1.670000 0.000000 -0.041490 
#    y 0.000000 1.690740 0.000000 
#    z -0.041490 0.000000 1.670440 
# 
# From -- ./inp_files/45796.got.cif
#   From: 2010.05.17/outbox.cif.g08.bks.cpg/sg14_23_cif.got.tgz:45796.got - 2010.06.03 17:49:19.
