data_PCOD9239511
_publ_section_title
;
Structure prediction by ZEFSAII (Michael W. Deem and Ramdas Pophale) SiO2 
 PCOD9239511
Probable space group: P 21/C
;
_chemical_formula_sum "Si O2"
_cell_formula_units_Z 28
_cell_length_a 9.450735
_cell_length_b 15.053050
_cell_length_c 8.709869
_cell_angle_alpha 90.000000
_cell_angle_beta 81.777945
_cell_angle_gamma 90.000000
_cell_volume 1226.350493
_symmetry_space_group_name_H-M "P 21/C"
_symmetry_group_IT_number 14
_symmetry_cell_setting 'monoclinic'
loop_
_space_group_symop_operation_xyz
x,y,z
-x,1/2+y,1/2-z
-x,-y,-z
x,1/2-y,1/2+z
loop_
_atom_site_type_symbol
_atom_site_label
_atom_site_fract_x
_atom_site_fract_y
_atom_site_fract_z
Si Si1 0.779357 0.067174 0.262378
Si Si2 0.738452 0.632785 0.046121
Si Si3 0.993100 0.109562 0.005048
Si Si4 0.998612 0.420305 0.165726
Si Si5 0.443011 0.437794 0.371465
Si Si6 0.276064 0.193449 0.106038
Si Si7 0.318774 0.564922 0.912346
O O1 0.847772 0.128577 0.120539
O O2 0.699109 0.111394 0.419226
O O3 0.913216 0.011275 0.313455
O O4 0.678970 0.994935 0.195416
O O5 0.708928 0.667512 0.220106
O O6 0.660787 0.538779 0.045711
O O7 0.907766 0.621534 0.984770
O O8 0.698337 0.702909 0.922995
O O9 0.121715 0.156582 0.073997
O O10 0.001711 0.134228 0.824708
O O11 0.000000 0.000000 0.000000
O O12 0.834843 0.433042 0.148318
O O13 0.500000 0.500000 0.500000
O O14 0.380627 0.355135 0.472166
O O15 0.561965 0.411576 0.228870
#
# Coordination Sequence:
#
# PCOD9239511 Si02
#       7
#     4   4   4   4   4   4   4
#     4  10  20  35  61  92 121 156 209 261 309 365
#     4  11  23  38  61  91 125 163 209 261 324 373
#     4  10  17  34  62  89 120 155 207 258 300 361
#     4  10  19  38  66  94 123 158 209 266 306 373
#     4  12  23  39  61  93 126 173 216 264 313 388
#     4  12  23  39  62  93 127 167 213 264 322 385
#     4  11  22  39  66  96 127 159 217 261 321 380
#
# _framework density 22.831973000000001
#
# number of rings (size 3 to 8) (size 9 to 14) (size 15 to 20)
#    0.000    1.143    4.286    6.429    2.000    0.000 
#    0.000    0.000    3.143    1.714    3.714    0.000 
#    0.000    0.000    0.000    0.000    0.000    0.000 
#
# Total GULP energy -156467.420046 kJ/mol
# GULP energy per Si atom -5588.122144 kJ/mol
# Density = 2.278001 g / cm^3
# Si number density = 22.831973 Si / 1000 Ang^3
#
#
#
# Elastic Constant Matrix: (Units=GPa)
#
#
# Indices 1 2 3 4 5 6 
#
# 1 78.7395 5.6730 35.6090 0.0000 -26.4880 0.0000
# 2 5.6730 20.5938 4.6604 0.0000 -4.4872 0.0000
# 3 35.6090 4.6604 190.4764 0.0000 -42.8773 0.0000
# 4 0.0000 0.0000 0.0000 26.2729 0.0000 4.5495
# 5 -26.4880 -4.4872 -42.8773 0.0000 55.5877 0.0000
# 6 0.0000 0.0000 0.0000 4.5495 0.0000 10.6193
#
#
#
# Elastic Compliance Matrix: (Units=1/GPa)
#
#
# Indices 1 2 3 4 5 6 
#
# 1 0.015606 -0.002639 -0.001485 0.000000 0.006078 0.000000
# 2 -0.002639 0.049896 -0.000126 0.000000 0.002673 0.000000
# 3 -0.001485 -0.000126 0.006497 0.000000 0.004294 0.000000
# 4 0.000000 0.000000 0.000000 0.041112 0.000000 -0.017613
# 5 0.006078 0.002673 0.004294 0.000000 0.024414 0.000000
# 6 0.000000 0.000000 0.000000 -0.017613 0.000000 0.101714
#
#
# Mechanical properties :
#
#
# Convention : Reuss Voigt Hill
#
# Bulk Modulus (GPa) = 15.74767 42.41049 29.07908
# Shear Modulus (GPa) = 18.59393 34.75380 26.67386
#
# Velocity S-wave (km/s) = 2.85683 3.90571 3.42170
# Velocity P-wave (km/s) = 4.21831 6.24138 5.32677
#
# Compressibility (1/GPa) = 0.06350144
#
# Stress axis : x y z
#
# Youngs Moduli (GPa) = 64.07614 20.04165 153.91172
#
# Poissons Ratio (x) = 0.05288 0.22852
# Poissons Ratio (y) = 0.16908 0.01935
# Poissons Ratio (z) = 0.09514 0.00252
#
# Static dielectric constant tensor:
#      x y z
#    x 1.887560 0.000000 -0.025200 
#    y 0.000000 2.147600 0.000000 
#    z -0.025200 0.000000 1.899360 
# 
# From -- ./inp_files/9405.got.cif
#   From: 2010.05.17/outbox.cif.g08.bks.cpg/sg14_5_cif.got.tgz:9405.got - 2010.06.03 17:49:19.
