data_PCOD9239112
_publ_section_title
;
Structure prediction by ZEFSAII (Michael W. Deem and Ramdas Pophale) SiO2 
 PCOD9239112
Probable space group: P 21/C
;
_chemical_formula_sum "Si O2"
_cell_formula_units_Z 32
_cell_length_a 5.704791
_cell_length_b 6.986882
_cell_length_c 32.666166
_cell_angle_alpha 90.000000
_cell_angle_beta 74.359825
_cell_angle_gamma 90.000000
_cell_volume 1253.821660
_symmetry_space_group_name_H-M "P 21/C"
_symmetry_group_IT_number 14
_symmetry_cell_setting 'monoclinic'
loop_
_space_group_symop_operation_xyz
x,y,z
-x,1/2+y,1/2-z
-x,-y,-z
x,1/2-y,1/2+z
loop_
_atom_site_type_symbol
_atom_site_label
_atom_site_fract_x
_atom_site_fract_y
_atom_site_fract_z
Si Si1 0.529024 0.229990 0.494591
Si Si2 0.424318 0.292432 0.286723
Si Si3 0.251498 0.529844 0.885281
Si Si4 0.980152 0.198763 0.526035
Si Si5 0.178986 0.932336 0.293944
Si Si6 0.743333 0.929111 0.124858
Si Si7 0.727481 0.116599 0.899129
Si Si8 0.278300 0.960632 0.662636
O O1 0.737780 0.292612 0.517285
O O2 0.631443 0.288744 0.445438
O O3 0.246591 0.296524 0.512397
O O4 0.500000 0.000000 0.500000
O O5 0.610628 0.344334 0.242705
O O6 0.324993 0.447357 0.323631
O O7 0.574201 0.150495 0.309304
O O8 0.202625 0.160264 0.282886
O O9 0.088274 0.629628 0.925729
O O10 0.196314 0.593597 0.841857
O O11 0.237814 0.298437 0.888731
O O12 0.537910 0.571856 0.875623
O O13 0.000000 0.000000 0.500000
O O14 0.893811 0.897956 0.303641
O O15 0.504778 0.988649 0.110556
O O16 0.019864 0.995712 0.105345
O O17 0.805254 0.285783 0.863016
#
# Coordination Sequence:
#
# PCOD9239112 Si02
#       8
#     4   4   4   4   4   4   4   4
#     4  10  17  22  36  57  85 124 158 197 232 292
#     4   9  20  32  48  77  88 138 167 217 260 298
#     4   9  18  27  41  63  87 134 164 194 252 298
#     4  10  18  24  36  60  91 125 167 195 234 300
#     4  10  19  34  52  66 105 126 181 210 257 310
#     4   9  16  27  43  60  88 118 164 198 242 296
#     4  10  15  27  41  60  89 126 166 195 246 293
#     4   9  17  29  45  65  90 129 166 205 243 308
#
# _framework density 25.521971000000001
#
# number of rings (size 3 to 8) (size 9 to 14) (size 15 to 20)
#    0.000    3.000    2.500    5.250    1.750    2.000 
#    0.000    0.000    0.000    0.000    0.000    0.000 
#    0.000    0.000    0.000   46.125    0.000    0.000 
#
# Total GULP energy -178399.385257 kJ/mol
# GULP energy per Si atom -5574.980789 kJ/mol
# Density = 2.546388 g / cm^3
# Si number density = 25.521971 Si / 1000 Ang^3
#
#
#
# Elastic Constant Matrix: (Units=GPa)
#
#
# Indices 1 2 3 4 5 6 
#
# 1 176.0638 9.9942 41.8139 0.0000 -30.7153 0.0000
# 2 9.9942 76.1417 34.3395 0.0000 -4.1201 0.0000
# 3 41.8139 34.3395 167.6850 0.0000 -41.4297 0.0000
# 4 0.0000 0.0000 0.0000 20.6454 0.0000 -11.6727
# 5 -30.7153 -4.1201 -41.4297 0.0000 42.0916 0.0000
# 6 0.0000 0.0000 0.0000 -11.6727 0.0000 -13.3009
#
#
#
# Elastic Compliance Matrix: (Units=1/GPa)
#
#
# Indices 1 2 3 4 5 6 
#
# 1 0.006565 -0.000405 -0.000503 0.000000 0.004256 0.000000
# 2 -0.000405 0.014621 -0.003452 0.000000 -0.002262 0.000000
# 3 -0.000503 -0.003452 0.008749 0.000000 0.007907 0.000000
# 4 0.000000 0.000000 0.000000 0.032374 0.000000 -0.028411
# 5 0.004256 -0.002262 0.007907 0.000000 0.034425 0.000000
# 6 0.000000 0.000000 0.000000 -0.028411 0.000000 -0.050250
#
#
# Mechanical properties :
#
#
# Convention : Reuss Voigt Hill
#
# Bulk Modulus (GPa) = 47.13348 65.79842 56.46595
# Shear Modulus (GPa) = 80.28921 32.13673 56.21297
#
# Velocity S-wave (km/s) = 5.61490 3.55234 4.69821
# Velocity P-wave (km/s) = 7.78101 6.53166 7.18355
#
# Compressibility (1/GPa) = 0.02121634
#
# Stress axis : x y z
#
# Youngs Moduli (GPa) = 152.33263 68.39466 114.29278
#
# Poissons Ratio (x) = 0.02768 0.05743
# Poissons Ratio (y) = 0.06165 0.39455
# Poissons Ratio (z) = 0.07655 0.23611
#
# Static dielectric constant tensor:
#      x y z
#    x 2.335950 0.000000 -0.002150 
#    y 0.000000 2.071910 0.000000 
#    z -0.002150 0.000000 1.969700 
# 
# From -- ./inp_files/78922.got.cif
#   From: 2010.05.17/outbox.cif.g08.bks.cpg/sg14_40_cif.got.tgz:78922.got - 2010.06.03 17:49:19.
