data_PCOD9239794
_publ_section_title
;
Structure prediction by ZEFSAII (Michael W. Deem and Ramdas Pophale) SiO2 
 PCOD9239794
Probable space group: P 21/C
;
_chemical_formula_sum "Si O2"
_cell_formula_units_Z 32
_cell_length_a 15.751074
_cell_length_b 5.226559
_cell_length_c 20.103861
_cell_angle_alpha 90.000000
_cell_angle_beta 93.480111
_cell_angle_gamma 90.000000
_cell_volume 1651.976607
_symmetry_space_group_name_H-M "P 21/C"
_symmetry_group_IT_number 14
_symmetry_cell_setting 'monoclinic'
loop_
_space_group_symop_operation_xyz
x,y,z
-x,1/2+y,1/2-z
-x,-y,-z
x,1/2-y,1/2+z
loop_
_atom_site_type_symbol
_atom_site_label
_atom_site_fract_x
_atom_site_fract_y
_atom_site_fract_z
Si Si1 0.277304 0.472304 0.222654
Si Si2 0.910954 0.016622 0.695909
Si Si3 0.439655 0.741482 0.061929
Si Si4 0.619757 0.548326 0.560414
Si Si5 0.603444 0.287088 0.191200
Si Si6 0.419375 0.254335 0.648502
Si Si7 0.739415 0.680683 0.143351
Si Si8 0.095765 0.015085 0.713384
O O1 0.343648 0.697080 0.242381
O O2 0.334029 0.269165 0.186743
O O3 0.250954 0.379214 0.295236
O O4 0.187427 0.522543 0.183204
O O5 0.827688 0.973128 0.646827
O O6 0.906634 0.795617 0.752592
O O7 0.006002 0.990190 0.670587
O O8 0.905404 0.291079 0.731133
O O9 0.539208 0.764232 0.045884
O O10 0.426456 0.969915 0.114755
O O11 0.419031 0.469230 0.092677
O O12 0.385886 0.831669 0.995690
O O13 0.605553 0.419742 0.631705
O O14 0.709265 0.689660 0.573765
O O15 0.502787 0.316934 0.196835
O O16 0.657664 0.516995 0.162944
#
# Coordination Sequence:
#
# PCOD9239794 Si02
#       8
#     4   4   4   4   4   4   4   4
#     4  10  22  32  49  73 109 138 168 197 247 310
#     4   9  17  29  49  70 102 123 166 200 254 300
#     4  10  22  37  51  71  97 136 176 212 245 284
#     4   9  20  34  52  71  98 129 172 219 253 286
#     4  10  20  31  50  73 103 132 167 204 252 290
#     4  11  24  34  50  73 103 141 171 199 240 302
#     4  10  18  32  49  77  99 133 159 213 254 299
#     4   9  17  31  46  71  97 137 158 201 243 302
#
# _framework density 19.370735
#
# number of rings (size 3 to 8) (size 9 to 14) (size 15 to 20)
#    0.000    2.250    2.500    0.000    5.250    1.500 
#    0.000    0.000    0.000    0.000    0.000    1.750 
#    0.000    0.000    0.000    0.000    0.000    0.000 
#
# Total GULP energy -178269.498226 kJ/mol
# GULP energy per Si atom -5570.921820 kJ/mol
# Density = 1.932665 g / cm^3
# Si number density = 19.370735 Si / 1000 Ang^3
#
#
#
# Elastic Constant Matrix: (Units=GPa)
#
#
# Indices 1 2 3 4 5 6 
#
# 1 148.4327 6.0912 23.1876 0.0000 7.1329 0.0000
# 2 6.0912 66.1451 15.1080 0.0000 1.6605 0.0000
# 3 23.1876 15.1080 28.6334 0.0000 1.2235 0.0000
# 4 0.0000 0.0000 0.0000 23.0889 0.0000 -1.2386
# 5 7.1329 1.6605 1.2235 0.0000 11.2014 0.0000
# 6 0.0000 0.0000 0.0000 -1.2386 0.0000 21.3464
#
#
#
# Elastic Compliance Matrix: (Units=1/GPa)
#
#
# Indices 1 2 3 4 5 6 
#
# 1 0.007968 0.000920 -0.006747 0.000000 -0.004473 0.000000
# 2 0.000920 0.017323 -0.009796 0.000000 -0.002083 0.000000
# 3 -0.006747 -0.009796 0.045523 0.000000 0.000776 0.000000
# 4 0.000000 0.000000 0.000000 0.043446 0.000000 0.002521
# 5 -0.004473 -0.002083 0.000776 0.000000 0.092347 0.000000
# 6 0.000000 0.000000 0.000000 0.002521 0.000000 0.046993
#
#
# Mechanical properties :
#
#
# Convention : Reuss Voigt Hill
#
# Bulk Modulus (GPa) = 25.27268 36.88720 31.07994
# Shear Modulus (GPa) = 16.77645 24.38230 20.57937
#
# Velocity S-wave (km/s) = 2.94610 3.55169 3.26298
# Velocity P-wave (km/s) = 4.96466 5.99195 5.50233
#
# Compressibility (1/GPa) = 0.03956842
#
# Stress axis : x y z
#
# Youngs Moduli (GPa) = 125.49804 57.72540 21.96672
#
# Poissons Ratio (x) = -0.05308 0.14820
# Poissons Ratio (y) = -0.11540 0.21519
# Poissons Ratio (z) = 0.84671 0.56548
#
# Static dielectric constant tensor:
#      x y z
#    x 1.784030 0.000000 0.033090 
#    y 0.000000 1.764630 0.000000 
#    z 0.033090 0.000000 1.683580 
# 
# From -- ./inp_files/58455.got.cif
#   From: 2010.05.17/outbox.cif.g08.bks.cpg/sg14_30_cif.got.tgz:58455.got - 2010.06.03 17:49:19.
