data_PCOD9239270
_publ_section_title
;
Structure prediction by ZEFSAII (Michael W. Deem and Ramdas Pophale) SiO2 
 PCOD9239270
Probable space group: P 21/C
;
_chemical_formula_sum "Si O2"
_cell_formula_units_Z 32
_cell_length_a 17.579541
_cell_length_b 14.804277
_cell_length_c 12.603155
_cell_angle_alpha 90.000000
_cell_angle_beta 26.027947
_cell_angle_gamma 90.000000
_cell_volume 1439.295706
_symmetry_space_group_name_H-M "P 21/C"
_symmetry_group_IT_number 14
_symmetry_cell_setting 'monoclinic'
loop_
_space_group_symop_operation_xyz
x,y,z
-x,1/2+y,1/2-z
-x,-y,-z
x,1/2-y,1/2+z
loop_
_atom_site_type_symbol
_atom_site_label
_atom_site_fract_x
_atom_site_fract_y
_atom_site_fract_z
Si Si1 0.489615 0.782920 0.234377
Si Si2 0.689427 0.587838 0.166650
Si Si3 0.001796 0.875247 0.910263
Si Si4 0.660775 0.103170 0.764479
Si Si5 0.775026 0.275817 0.736465
Si Si6 0.760504 0.708992 0.566415
Si Si7 0.282002 0.018691 0.602232
Si Si8 0.524243 0.377187 0.917872
O O1 0.432686 0.864528 0.227828
O O2 0.358658 0.766576 0.497057
O O3 0.676493 0.797648 0.055300
O O4 0.481907 0.695649 0.169393
O O5 0.494687 0.592767 0.455754
O O6 0.755820 0.492812 0.131854
O O7 0.773756 0.685216 0.081472
O O8 0.694171 0.574111 0.035107
O O9 0.040017 0.794189 0.943599
O O10 0.181439 0.929681 0.690059
O O11 0.937600 0.840207 0.877681
O O12 0.855153 0.935920 0.146747
O O13 0.769171 0.187186 0.672228
O O14 0.706660 0.359803 0.748755
O O15 0.616816 0.661812 0.822398
O O16 0.462593 0.028544 0.441161
#
# Coordination Sequence:
#
# PCOD9239270 Si02
#       8
#     4   4   4   4   4   4   4   4
#     4  10  16  35  60  84 111 152 194 234 296 344
#     4  11  19  37  61  88 115 152 188 244 303 340
#     4  10  23  38  57  83 120 157 199 233 283 358
#     4  10  21  34  64  91 115 138 200 259 286 338
#     4  10  19  36  55  91 114 148 193 246 286 338
#     4  10  19  36  60  81 115 161 190 225 295 366
#     4  10  20  39  58  82 116 159 194 237 290 349
#     4   9  17  33  60  83 111 149 196 244 286 337
#
# _framework density 22.233094999999999
#
# number of rings (size 3 to 8) (size 9 to 14) (size 15 to 20)
#    0.000    2.000    5.000    0.750    0.000    0.500 
#    6.750    3.125    5.500    0.000    0.000    0.000 
#    0.000    0.000    0.000    0.000    0.000    0.000 
#
# Total GULP energy -178398.332093 kJ/mol
# GULP energy per Si atom -5574.947878 kJ/mol
# Density = 2.218249 g / cm^3
# Si number density = 22.233095 Si / 1000 Ang^3
#
#
#
# Elastic Constant Matrix: (Units=GPa)
#
#
# Indices 1 2 3 4 5 6 
#
# 1 122.1731 33.0167 16.3381 0.0000 -6.3112 0.0000
# 2 33.0167 91.4625 13.2516 0.0000 -4.4160 0.0000
# 3 16.3381 13.2516 38.8282 0.0000 17.8913 0.0000
# 4 0.0000 0.0000 0.0000 16.7366 0.0000 5.2880
# 5 -6.3112 -4.4160 17.8913 0.0000 21.8531 0.0000
# 6 0.0000 0.0000 0.0000 5.2880 0.0000 32.5696
#
#
#
# Elastic Compliance Matrix: (Units=1/GPa)
#
#
# Indices 1 2 3 4 5 6 
#
# 1 0.010239 -0.002175 -0.007589 0.000000 0.008730 0.000000
# 2 -0.002175 0.013152 -0.007240 0.000000 0.007957 0.000000
# 3 -0.007589 -0.007240 0.053155 0.000000 -0.047173 0.000000
# 4 0.000000 0.000000 0.000000 0.062980 0.000000 -0.010225
# 5 0.008730 0.007957 -0.047173 0.000000 0.088511 0.000000
# 6 0.000000 0.000000 0.000000 -0.010225 0.000000 0.032364
#
#
# Mechanical properties :
#
#
# Convention : Reuss Voigt Hill
#
# Bulk Modulus (GPa) = 23.50805 41.96406 32.73606
# Shear Modulus (GPa) = 16.20295 26.88902 21.54599
#
# Velocity S-wave (km/s) = 2.70251 3.48144 3.11641
# Velocity P-wave (km/s) = 4.50938 5.92251 5.26358
#
# Compressibility (1/GPa) = 0.04253862
#
# Stress axis : x y z
#
# Youngs Moduli (GPa) = 97.66842 76.03590 18.81292
#
# Poissons Ratio (x) = 0.16538 0.14277
# Poissons Ratio (y) = 0.21243 0.13620
# Poissons Ratio (z) = 0.74118 0.55047
#
# Static dielectric constant tensor:
#      x y z
#    x 1.849490 0.000000 -0.009650 
#    y 0.000000 1.927390 0.000000 
#    z -0.009650 0.000000 1.810860 
# 
# From -- ./inp_files/34208.got.cif
#   From: 2010.05.17/outbox.cif.g08.bks.cpg/sg14_18_cif.got.tgz:34208.got - 2010.06.03 17:49:19.
