data_PCOD9239401
_publ_section_title
;
Structure prediction by ZEFSAII (Michael W. Deem and Ramdas Pophale) SiO2 
 PCOD9239401
Probable space group: P 21/C
;
_chemical_formula_sum "Si O2"
_cell_formula_units_Z 20
_cell_length_a 15.965806
_cell_length_b 5.058831
_cell_length_c 23.229186
_cell_angle_alpha 90.000000
_cell_angle_beta 146.680665
_cell_angle_gamma 90.000000
_cell_volume 1030.595957
_symmetry_space_group_name_H-M "P 21/C"
_symmetry_group_IT_number 14
_symmetry_cell_setting 'monoclinic'
loop_
_space_group_symop_operation_xyz
x,y,z
-x,1/2+y,1/2-z
-x,-y,-z
x,1/2-y,1/2+z
loop_
_atom_site_type_symbol
_atom_site_label
_atom_site_fract_x
_atom_site_fract_y
_atom_site_fract_z
Si Si1 0.126347 0.922221 0.618599
Si Si2 0.536759 0.107849 0.235375
Si Si3 0.794474 0.906761 0.768494
Si Si4 0.354649 0.808543 0.409256
Si Si5 0.505920 0.103083 0.907711
O O1 0.287807 0.947462 0.678994
O O2 0.133157 0.629507 0.649102
O O3 0.123309 0.134412 0.668885
O O4 0.000000 0.000000 0.500000
O O5 0.515821 0.400605 0.246857
O O6 0.452453 0.045203 0.126811
O O7 0.613398 0.840074 0.676297
O O8 0.782695 0.026422 0.697465
O O9 0.350682 0.684808 0.470638
O O10 0.404746 0.586906 0.391436
O O11 0.500000 0.000000 0.500000
#
# Coordination Sequence:
#
# PCOD9239401 Si02
#       5
#     4   4   4   4   4
#     4  11  22  36  54  78 113 148 189 220 261 325
#     4  11  22  35  54  79 118 144 171 219 277 332
#     4  10  17  32  51  77 108 134 178 233 269 302
#     4   9  16  28  53  76 111 135 175 235 276 308
#     4   9  18  31  49  80 113 138 176 220 285 317
#
# _framework density 19.406248000000001
#
# number of rings (size 3 to 8) (size 9 to 14) (size 15 to 20)
#    0.000    2.000    4.000    3.000    2.800    0.000 
#    0.000    0.000    0.000    0.000    0.000    5.600 
#    0.000    0.000    0.000    0.000    0.000    0.000 
#
# Total GULP energy -111334.717362 kJ/mol
# GULP energy per Si atom -5566.735868 kJ/mol
# Density = 1.936208 g / cm^3
# Si number density = 19.406248 Si / 1000 Ang^3
#
#
#
# Elastic Constant Matrix: (Units=GPa)
#
#
# Indices 1 2 3 4 5 6 
#
# 1 23.7028 -2.3042 -0.4599 0.0000 -15.6807 0.0000
# 2 -2.3042 92.9784 15.6560 0.0000 -5.2617 0.0000
# 3 -0.4599 15.6560 61.5563 0.0000 -19.9506 0.0000
# 4 0.0000 0.0000 0.0000 37.1643 0.0000 -14.6838
# 5 -15.6807 -5.2617 -19.9506 0.0000 25.3403 0.0000
# 6 0.0000 0.0000 0.0000 -14.6838 0.0000 18.0396
#
#
#
# Elastic Compliance Matrix: (Units=1/GPa)
#
#
# Indices 1 2 3 4 5 6 
#
# 1 0.096513 0.002543 0.026317 0.000000 0.080970 0.000000
# 2 0.002543 0.011304 -0.002128 0.000000 0.002245 0.000000
# 3 0.026317 -0.002128 0.029695 0.000000 0.039223 0.000000
# 4 0.000000 0.000000 0.000000 0.039663 0.000000 0.032285
# 5 0.080970 0.002245 0.039223 0.000000 0.120913 0.000000
# 6 0.000000 0.000000 0.000000 0.032285 0.000000 0.081713
#
#
# Mechanical properties :
#
#
# Convention : Reuss Voigt Hill
#
# Bulk Modulus (GPa) = 5.23632 22.66903 13.95267
# Shear Modulus (GPa) = 12.82060 27.13189 19.97625
#
# Velocity S-wave (km/s) = 2.57309 3.74318 3.21186
# Velocity P-wave (km/s) = 3.39585 5.51257 4.57823
#
# Compressibility (1/GPa) = 0.19097398
#
# Stress axis : x y z
#
# Youngs Moduli (GPa) = 10.36133 88.46730 33.67526
#
# Poissons Ratio (x) = -0.22493 -0.88623
# Poissons Ratio (y) = -0.02634 0.07167
# Poissons Ratio (z) = -0.27268 0.18829
#
# Static dielectric constant tensor:
#      x y z
#    x 1.694640 0.000000 -0.054260 
#    y 0.000000 1.789150 0.000000 
#    z -0.054260 0.000000 1.747460 
# 
# From -- ./inp_files/67647.got.cif
#   From: 2010.05.17/outbox.cif.g08.bks.cpg/sg14_34_cif.got.tgz:67647.got - 2010.06.03 17:49:19.
