data_PCOD9239054
_publ_section_title
;
Structure prediction by ZEFSAII (Michael W. Deem and Ramdas Pophale) SiO2 
 PCOD9239054
Probable space group: P 2/C
;
_chemical_formula_sum "Si O2"
_cell_formula_units_Z 22
_cell_length_a 21.000000
_cell_length_b 6.000000
_cell_length_c 9.000000
_cell_angle_alpha 90.000000
_cell_angle_beta 70.000000
_cell_angle_gamma 90.000000
_cell_volume 1065.611432
_symmetry_space_group_name_H-M "P 2/C"
_symmetry_group_IT_number 13
_symmetry_cell_setting 'monoclinic'
loop_
_space_group_symop_operation_xyz
x,y,z
-x,y,1/2-z
-x,-y,-z
x,-y,1/2+z
loop_
_atom_site_type_symbol
_atom_site_label
_atom_site_fract_x
_atom_site_fract_y
_atom_site_fract_z
Si Si1 0.917983 0.311975 0.333817
Si Si2 0.368975 0.709201 0.911826
Si Si3 0.144221 0.986899 0.363012
Si Si4 0.574211 0.047469 0.872558
Si Si5 0.500000 0.421976 0.750000
Si Si6 0.793659 0.687854 0.440580
O O1 0.904199 0.168288 0.495267
O O2 0.855756 0.499780 0.388185
O O3 0.000000 0.376395 0.250000
O O4 0.898779 0.147615 0.212216
O O5 0.440316 0.565169 0.881145
O O6 0.392010 0.845840 0.746387
O O7 0.373221 0.881827 0.043829
O O8 0.288665 0.624921 0.976226
O O9 0.191878 0.829300 0.221980
O O10 0.187795 0.146060 0.437794
O O11 0.552756 0.258524 0.790980
O O12 0.500000 0.000000 0.000000
#
# Coordination Sequence:
#
# PCOD9239054 Si02
#       6
#     4   4   4   4   2   4
#     4  11  24  45  72 102 135 178 228 279 337 405
#     4  12  26  42  69  96 134 173 223 280 333 400
#     4  10  24  45  68  99 138 179 226 272 341 399
#     4  12  23  46  64  95 128 174 223 276 333 398
#     4  12  24  40  70  94 126 170 228 272 340 390
#     4  11  25  44  67 101 138 181 223 279 342 405
#
# _framework density 20.645423999999998
#
# number of rings (size 3 to 8) (size 9 to 14) (size 15 to 20)
#    0.000    0.727    3.636    3.273    0.000   11.636 
#    0.000    0.000    0.000    0.000    0.000    0.000 
#    0.000    0.000    0.000    0.000    0.000    0.000 
#
# Total GULP energy -122477.921698 kJ/mol
# GULP energy per Si atom -5567.178259 kJ/mol
# Density = 2.059843 g / cm^3
# Si number density = 20.645424 Si / 1000 Ang^3
#
#
#
# Elastic Constant Matrix: (Units=GPa)
#
#
# Indices 1 2 3 4 5 6 
#
# 1 140.4224 23.1632 31.2447 0.0000 -46.2915 0.0000
# 2 23.1632 74.1478 28.4309 0.0000 -15.0937 0.0000
# 3 31.2447 28.4309 103.6263 0.0000 -15.6286 0.0000
# 4 0.0000 0.0000 0.0000 36.9723 0.0000 -2.4135
# 5 -46.2915 -15.0937 -15.6286 0.0000 48.4472 0.0000
# 6 0.0000 0.0000 0.0000 -2.4135 0.0000 38.8243
#
#
#
# Elastic Compliance Matrix: (Units=1/GPa)
#
#
# Indices 1 2 3 4 5 6 
#
# 1 0.010738 -0.000815 -0.001582 0.000000 0.009496 0.000000
# 2 -0.000815 0.015732 -0.003625 0.000000 0.002953 0.000000
# 3 -0.001582 -0.003625 0.011272 0.000000 0.000995 0.000000
# 4 0.000000 0.000000 0.000000 0.027157 0.000000 0.001688
# 5 0.009496 0.002953 0.000995 0.000000 0.030956 0.000000
# 6 0.000000 0.000000 0.000000 0.001688 0.000000 0.025862
#
#
# Mechanical properties :
#
#
# Convention : Reuss Voigt Hill
#
# Bulk Modulus (GPa) = 38.91312 53.76380 46.33846
# Shear Modulus (GPa) = 35.13011 40.53929 37.83470
#
# Velocity S-wave (km/s) = 4.12951 4.43606 4.28553
# Velocity P-wave (km/s) = 6.45185 7.23437 6.85429
#
# Compressibility (1/GPa) = 0.02569827
#
# Stress axis : x y z
#
# Youngs Moduli (GPa) = 93.12440 63.56323 88.71743
#
# Poissons Ratio (x) = 0.05180 0.14035
# Poissons Ratio (y) = 0.07589 0.32162
# Poissons Ratio (z) = 0.14732 0.23043
#
# Static dielectric constant tensor:
#      x y z
#    x 1.743010 0.000000 0.031500 
#    y 0.000000 1.857180 0.000000 
#    z 0.031500 0.000000 1.869600 
# 
# From -- ./inp_files/22227.got.cif
#   From: 2010.05.17/outbox.ucp.g08.bks.cvg/sg13_12_cif.got.tgz:22227.got - 2010.06.11 12:23:55.
