data_PCOD9239021
_publ_section_title
;
Structure prediction by ZEFSAII (Michael W. Deem and Ramdas Pophale) SiO2 
 PCOD9239021
Probable space group: P 2/C
;
_chemical_formula_sum "Si O2"
_cell_formula_units_Z 28
_cell_length_a 30.000000
_cell_length_b 9.000000
_cell_length_c 30.000000
_cell_angle_alpha 90.000000
_cell_angle_beta 170.000000
_cell_angle_gamma 90.000000
_cell_volume 1406.550239
_symmetry_space_group_name_H-M "P 2/C"
_symmetry_group_IT_number 13
_symmetry_cell_setting 'monoclinic'
loop_
_space_group_symop_operation_xyz
x,y,z
-x,y,1/2-z
-x,-y,-z
x,-y,1/2+z
loop_
_atom_site_type_symbol
_atom_site_label
_atom_site_fract_x
_atom_site_fract_y
_atom_site_fract_z
Si Si1 0.760850 0.127330 0.340679
Si Si2 0.050567 0.345408 0.900017
Si Si3 0.427762 0.217936 0.127182
Si Si4 0.955900 0.820871 0.495748
Si Si5 0.037473 0.709402 0.898544
Si Si6 0.481450 0.684033 0.975129
Si Si7 0.522561 0.093361 0.868303
O O1 0.949442 0.234773 0.555999
O O2 0.587597 0.245270 0.141718
O O3 0.915610 0.999895 0.464378
O O4 0.581166 0.014972 0.193315
O O5 0.833120 0.287751 0.650990
O O6 0.335388 0.301907 0.163724
O O7 0.024829 0.527558 0.879755
O O8 0.500000 0.239659 0.250000
O O9 0.418671 0.039310 0.108898
O O10 0.908030 0.740462 0.495862
O O11 0.239454 0.759327 0.762765
O O12 0.743678 0.755674 0.252515
O O13 0.285427 0.796259 0.121318
O O14 0.773754 0.802735 0.626520
O O15 0.500000 0.500000 0.000000
#
# Coordination Sequence:
#
# PCOD9239021 Si02
#       7
#     4   4   4   4   4   4   4
#     4  10  23  42  64  91 122 166 213 249 305 374
#     4  11  24  41  68  93 125 164 202 254 308 366
#     4  11  23  43  66  95 126 161 202 247 304 373
#     4  11  23  39  60  86 123 165 207 258 304 358
#     4  11  22  42  63  93 125 161 210 253 304 363
#     4  12  25  39  58  90 125 161 207 264 314 349
#     4  10  22  40  65  90 121 164 205 249 302 369
#
# _framework density 19.906860999999999
#
# number of rings (size 3 to 8) (size 9 to 14) (size 15 to 20)
#    0.000    1.143    0.000    7.714    0.000    8.000 
#    0.000    4.286    0.000    0.000    0.000    0.000 
#    0.000    0.000    0.000    0.000    0.000    0.000 
#
# Total GULP energy -156109.952917 kJ/mol
# GULP energy per Si atom -5575.355461 kJ/mol
# Density = 1.986155 g / cm^3
# Si number density = 19.906861 Si / 1000 Ang^3
#
#
#
# Elastic Constant Matrix: (Units=GPa)
#
#
# Indices 1 2 3 4 5 6 
#
# 1 55.0408 35.3181 14.2683 0.0000 -24.6782 0.0000
# 2 35.3181 227.7251 62.2255 0.0000 -16.4287 0.0000
# 3 14.2683 62.2255 142.5002 0.0000 -23.3368 0.0000
# 4 0.0000 0.0000 0.0000 53.3316 0.0000 -3.6838
# 5 -24.6782 -16.4287 -23.3368 0.0000 37.4256 0.0000
# 6 0.0000 0.0000 0.0000 -3.6838 0.0000 26.1502
#
#
#
# Elastic Compliance Matrix: (Units=1/GPa)
#
#
# Indices 1 2 3 4 5 6 
#
# 1 0.028059 -0.003510 0.001671 0.000000 0.018004 0.000000
# 2 -0.003510 0.005454 -0.002247 0.000000 -0.001321 0.000000
# 3 0.001671 -0.002247 0.008743 0.000000 0.005568 0.000000
# 4 0.000000 0.000000 0.000000 0.018935 0.000000 0.002667
# 5 0.018004 -0.001321 0.005568 0.000000 0.041483 0.000000
# 6 0.000000 0.000000 0.000000 0.002667 0.000000 0.038616
#
#
# Mechanical properties :
#
#
# Convention : Reuss Voigt Hill
#
# Bulk Modulus (GPa) = 29.33686 72.09888 50.71787
# Shear Modulus (GPa) = 31.09020 44.27842 37.68431
#
# Velocity S-wave (km/s) = 3.95623 4.72134 4.35562
# Velocity P-wave (km/s) = 5.96976 8.12516 7.12938
#
# Compressibility (1/GPa) = 0.03408681
#
# Stress axis : x y z
#
# Youngs Moduli (GPa) = 35.63896 183.34670 114.37752
#
# Poissons Ratio (x) = 0.64347 -0.19117
# Poissons Ratio (y) = 0.12508 0.25696
# Poissons Ratio (z) = -0.05957 0.41190
#
# Static dielectric constant tensor:
#      x y z
#    x 1.848160 0.000000 0.052690 
#    y 0.000000 1.690160 0.000000 
#    z 0.052690 0.000000 1.699650 
# 
# From -- ./inp_files/98108.got.cif
#   From: 2010.05.17/outbox.ucp.g08.bks.cvg/sg13_50_cif.got.tgz:98108.got - 2010.06.11 12:23:55.
