data_PCOD9239202
_publ_section_title
;
Structure prediction by ZEFSAII (Michael W. Deem and Ramdas Pophale) SiO2 
 PCOD9239202
Probable space group: P 21/C
;
_chemical_formula_sum "Si O2"
_cell_formula_units_Z 28
_cell_length_a 21.535691
_cell_length_b 8.850446
_cell_length_c 16.627734
_cell_angle_alpha 90.000000
_cell_angle_beta 155.970117
_cell_angle_gamma 90.000000
_cell_volume 1290.561566
_symmetry_space_group_name_H-M "P 21/C"
_symmetry_group_IT_number 14
_symmetry_cell_setting 'monoclinic'
loop_
_space_group_symop_operation_xyz
x,y,z
-x,1/2+y,1/2-z
-x,-y,-z
x,1/2-y,1/2+z
loop_
_atom_site_type_symbol
_atom_site_label
_atom_site_fract_x
_atom_site_fract_y
_atom_site_fract_z
Si Si1 0.369641 0.615986 0.112220
Si Si2 0.734695 0.449999 0.318326
Si Si3 0.828061 0.704836 0.700170
Si Si4 0.418616 0.403185 0.015025
Si Si5 0.646296 0.062404 0.974534
Si Si6 0.118749 0.737640 0.138821
Si Si7 0.058630 0.967016 0.216620
O O1 0.388225 0.533408 0.046230
O O2 0.487248 0.521689 0.304809
O O3 0.402238 0.790059 0.132936
O O4 0.192931 0.604299 0.928976
O O5 0.598414 0.393562 0.212467
O O6 0.803307 0.317058 0.344952
O O7 0.882329 0.529546 0.531885
O O8 0.655916 0.556266 0.158838
O O9 0.680190 0.762107 0.573510
O O10 0.758624 0.564494 0.568757
O O11 0.887910 0.858057 0.728872
O O12 0.964703 0.663570 0.922379
O O13 0.755249 0.130059 0.172422
O O14 0.070809 0.868411 0.147613
#
# Coordination Sequence:
#
# PCOD9239202 Si02
#       7
#     4   4   4   4   4   4   4
#     4  10  20  34  51  76 101 138 179 212 262 309
#     4  10  16  30  56  80 107 134 167 206 257 313
#     4  10  17  31  52  80 103 132 170 216 257 301
#     4  10  18  30  55  79 107 137 168 203 258 318
#     4  11  21  33  54  75 104 135 178 225 254 305
#     4  10  17  33  53  83 104 133 175 217 258 303
#     4   9  16  31  54  76 103 132 170 211 251 309
#
# _framework density 21.695982000000001
#
# number of rings (size 3 to 8) (size 9 to 14) (size 15 to 20)
#    0.000    2.000    5.714    3.000    0.000    0.000 
#    0.000    0.714    0.000   17.143    0.000    0.000 
#    0.000    0.000    0.000    0.000    0.000    0.000 
#
# Total GULP energy -155917.635023 kJ/mol
# GULP energy per Si atom -5568.486965 kJ/mol
# Density = 2.164660 g / cm^3
# Si number density = 21.695982 Si / 1000 Ang^3
#
#
#
# Elastic Constant Matrix: (Units=GPa)
#
#
# Indices 1 2 3 4 5 6 
#
# 1 49.3193 2.6861 33.6200 0.0000 18.6968 0.0000
# 2 2.6861 80.4660 50.2694 0.0000 2.7698 0.0000
# 3 33.6200 50.2694 179.6858 0.0000 37.7728 0.0000
# 4 0.0000 0.0000 0.0000 53.4393 0.0000 -2.7031
# 5 18.6968 2.7698 37.7728 0.0000 32.2214 0.0000
# 6 0.0000 0.0000 0.0000 -2.7031 0.0000 0.6097
#
#
#
# Elastic Compliance Matrix: (Units=1/GPa)
#
#
# Indices 1 2 3 4 5 6 
#
# 1 0.026796 0.001252 -0.002750 0.000000 -0.012432 0.000000
# 2 0.001252 0.015708 -0.005563 0.000000 0.004445 0.000000
# 3 -0.002750 -0.005563 0.009555 0.000000 -0.009127 0.000000
# 4 0.000000 0.000000 0.000000 0.024122 0.000000 0.106940
# 5 -0.012432 0.004445 -0.009127 0.000000 0.048566 0.000000
# 6 0.000000 0.000000 0.000000 0.106940 0.000000 2.114134
#
#
# Mechanical properties :
#
#
# Convention : Reuss Voigt Hill
#
# Bulk Modulus (GPa) = 26.36093 53.62469 39.99281
# Shear Modulus (GPa) = 2.20687 32.11380 17.16034
#
# Velocity S-wave (km/s) = 1.00965 3.85148 2.81543
# Velocity P-wave (km/s) = 3.67909 6.67447 5.38908
#
# Compressibility (1/GPa) = 0.03793492
#
# Stress axis : x y z
#
# Youngs Moduli (GPa) = 37.31959 63.66045 104.65834
#
# Poissons Ratio (x) = -0.07968 0.28785
# Poissons Ratio (y) = -0.04671 0.58224
# Poissons Ratio (z) = 0.10264 0.35416
#
# Static dielectric constant tensor:
#      x y z
#    x 1.770510 0.000000 -0.029520 
#    y 0.000000 1.862890 0.000000 
#    z -0.029520 0.000000 1.893730 
# 
# From -- ./inp_files/70410.got.cif
#   From: 2010.05.17/outbox.cif.g08.bks.cpg/sg14_36_cif.got.tgz:70410.got - 2010.06.03 17:49:19.
