data_PCOD9239708
_publ_section_title
;
Structure prediction by ZEFSAII (Michael W. Deem and Ramdas Pophale) SiO2 
 PCOD9239708
Probable space group: P 21/C
;
_chemical_formula_sum "Si O2"
_cell_formula_units_Z 30
_cell_length_a 12.064993
_cell_length_b 17.979315
_cell_length_c 7.213189
_cell_angle_alpha 90.000000
_cell_angle_beta 117.694173
_cell_angle_gamma 90.000000
_cell_volume 1385.438028
_symmetry_space_group_name_H-M "P 21/C"
_symmetry_group_IT_number 14
_symmetry_cell_setting 'monoclinic'
loop_
_space_group_symop_operation_xyz
x,y,z
-x,1/2+y,1/2-z
-x,-y,-z
x,1/2-y,1/2+z
loop_
_atom_site_type_symbol
_atom_site_label
_atom_site_fract_x
_atom_site_fract_y
_atom_site_fract_z
Si Si1 0.246079 0.494880 0.931335
Si Si2 0.000000 0.000000 0.500000
Si Si3 0.091758 0.575025 0.350306
Si Si4 0.616752 0.080454 0.923613
Si Si5 0.680258 0.679236 0.461553
Si Si6 0.101860 0.077417 0.992341
Si Si7 0.622268 0.654522 0.840624
Si Si8 0.477999 0.571518 0.227910
O O1 0.315443 0.417251 0.022581
O O2 0.357124 0.555292 0.008802
O O3 0.146285 0.509528 0.014189
O O4 0.173887 0.479906 0.684309
O O5 0.014063 0.911300 0.604888
O O6 0.235850 0.593807 0.472028
O O7 0.073979 0.481301 0.302298
O O8 0.016216 0.598905 0.474083
O O9 0.527127 0.142870 0.766098
O O10 0.569876 0.000296 0.809478
O O11 0.580556 0.077699 0.112570
O O12 0.809818 0.644321 0.492589
O O13 0.659653 0.651803 0.653841
O O14 0.670284 0.767392 0.452377
O O15 0.565586 0.642122 0.257710
#
# Coordination Sequence:
#
# PCOD9239708 Si02
#       8
#     4   2   4   4   4   4   4   4
#     4  10  19  34  52  90 104 143 179 228 277 327
#     4  10  18  30  60  76 108 136 182 224 266 336
#     4  10  18  34  52  84 111 139 180 225 278 325
#     4   9  16  33  55  81 105 146 174 228 273 328
#     4  11  20  37  52  80 106 149 180 228 265 333
#     4  10  21  31  54  81 115 141 175 227 276 321
#     4  10  22  35  59  76 110 143 189 223 281 322
#     4   9  17  30  58  79 107 137 181 223 276 318
#
# _framework density 21.653804000000001
#
# number of rings (size 3 to 8) (size 9 to 14) (size 15 to 20)
#    0.000    2.133    2.667    2.400    0.000    0.533 
#    2.400    0.000    2.933    1.600    0.000    0.000 
#    0.000    0.000    0.000    0.000    0.000    0.000 
#
# Total GULP energy -167165.475273 kJ/mol
# GULP energy per Si atom -5572.182509 kJ/mol
# Density = 2.160452 g / cm^3
# Si number density = 21.653804 Si / 1000 Ang^3
#
#
#
# Elastic Constant Matrix: (Units=GPa)
#
#
# Indices 1 2 3 4 5 6 
#
# 1 165.2525 19.9694 27.6541 0.0000 12.8363 0.0000
# 2 19.9694 62.3173 -0.9241 0.0000 8.0952 0.0000
# 3 27.6541 -0.9241 67.2184 0.0000 7.6199 0.0000
# 4 0.0000 0.0000 0.0000 16.0008 0.0000 6.6162
# 5 12.8363 8.0952 7.6199 0.0000 42.2010 0.0000
# 6 0.0000 0.0000 0.0000 6.6162 0.0000 25.1936
#
#
#
# Elastic Compliance Matrix: (Units=1/GPa)
#
#
# Indices 1 2 3 4 5 6 
#
# 1 0.006849 -0.002080 -0.002711 0.000000 -0.001195 0.000000
# 2 -0.002080 0.017112 0.001420 0.000000 -0.002906 0.000000
# 3 -0.002711 0.001420 0.016282 0.000000 -0.002388 0.000000
# 4 0.000000 0.000000 0.000000 0.070110 0.000000 -0.018412
# 5 -0.001195 -0.002906 -0.002388 0.000000 0.025048 0.000000
# 6 0.000000 0.000000 0.000000 -0.018412 0.000000 0.044528
#
#
# Mechanical properties :
#
#
# Convention : Reuss Voigt Hill
#
# Bulk Modulus (GPa) = 29.84826 43.13190 36.49008
# Shear Modulus (GPa) = 25.27318 33.21833 29.24576
#
# Velocity S-wave (km/s) = 3.42006 3.92096 3.67905
# Velocity P-wave (km/s) = 5.42310 6.36087 5.91061
#
# Compressibility (1/GPa) = 0.03350279
#
# Stress axis : x y z
#
# Youngs Moduli (GPa) = 146.00372 58.43859 61.41608
#
# Poissons Ratio (x) = 0.12154 0.16649
# Poissons Ratio (y) = 0.30365 -0.08723
# Poissons Ratio (z) = 0.39580 -0.08300
#
# Static dielectric constant tensor:
#      x y z
#    x 1.836940 0.000000 -0.096900 
#    y 0.000000 1.818660 0.000000 
#    z -0.096900 0.000000 2.203790 
# 
# From -- ./inp_files/13780.got.cif
#   From: 2010.05.17/outbox.cif.g08.bks.cpg/sg14_7_cif.got.tgz:13780.got - 2010.06.03 17:49:19.
