data_PCOD9239965
_publ_section_title
;
Structure prediction by ZEFSAII (Michael W. Deem and Ramdas Pophale) SiO2 
 PCOD9239965
Probable space group: P 21/C
;
_chemical_formula_sum "Si O2"
_cell_formula_units_Z 32
_cell_length_a 12.900442
_cell_length_b 12.676122
_cell_length_c 10.430336
_cell_angle_alpha 90.000000
_cell_angle_beta 68.740867
_cell_angle_gamma 90.000000
_cell_volume 1589.578397
_symmetry_space_group_name_H-M "P 21/C"
_symmetry_group_IT_number 14
_symmetry_cell_setting 'monoclinic'
loop_
_space_group_symop_operation_xyz
x,y,z
-x,1/2+y,1/2-z
-x,-y,-z
x,1/2-y,1/2+z
loop_
_atom_site_type_symbol
_atom_site_label
_atom_site_fract_x
_atom_site_fract_y
_atom_site_fract_z
Si Si1 0.527317 0.872506 0.754723
Si Si2 0.583403 0.763176 0.457487
Si Si3 0.031312 0.305423 0.800751
Si Si4 0.395098 0.008639 0.643522
Si Si5 0.922123 0.580158 0.611481
Si Si6 0.172970 0.553498 0.121789
Si Si7 0.795014 0.802418 0.987374
Si Si8 0.222340 0.083036 0.358774
O O1 0.535831 0.801763 0.617689
O O2 0.508326 0.798938 0.887770
O O3 0.645988 0.930777 0.727515
O O4 0.436863 0.961052 0.758626
O O5 0.629858 0.866973 0.361843
O O6 0.690744 0.691157 0.440090
O O7 0.033919 0.198146 0.881643
O O8 0.090656 0.283010 0.639517
O O9 0.116349 0.396912 0.814179
O O10 0.906744 0.346408 0.845138
O O11 0.500000 0.000000 0.500000
O O12 0.293684 0.940564 0.633115
O O13 0.891097 0.530531 0.760546
O O14 0.813987 0.599382 0.571417
O O15 0.000000 0.500000 0.500000
O O16 0.189426 0.506417 0.973997
O O17 0.771951 0.697304 0.076416
#
# Coordination Sequence:
#
# PCOD9239965 Si02
#       8
#     4   4   4   4   4   4   4   4
#     4  10  20  36  63  89 113 153 207 260 298 353
#     4  10  19  35  64  84 111 153 203 252 299 352
#     4  11  21  34  58  88 117 151 201 236 304 365
#     4  10  20  38  60  84 115 156 202 244 299 358
#     4  11  23  38  58  86 128 158 193 250 307 362
#     4  12  21  37  61  87 119 163 195 243 306 364
#     4  10  18  33  58  89 109 148 198 243 291 358
#     4  10  19  33  58  88 111 148 201 250 287 355
#
# _framework density 20.131122999999999
#
# number of rings (size 3 to 8) (size 9 to 14) (size 15 to 20)
#    0.000    1.500    7.500    0.375    3.500    0.000 
#    0.000    3.125    5.500    0.000    0.000    0.000 
#    0.000    0.000    0.000    0.000    0.000    0.000 
#
# Total GULP energy -178204.931199 kJ/mol
# GULP energy per Si atom -5568.904100 kJ/mol
# Density = 2.008530 g / cm^3
# Si number density = 20.131123 Si / 1000 Ang^3
#
#
#
# Elastic Constant Matrix: (Units=GPa)
#
#
# Indices 1 2 3 4 5 6 
#
# 1 105.5512 32.3058 1.1206 0.0000 10.8904 0.0000
# 2 32.3058 48.7747 5.2907 0.0000 14.8217 0.0000
# 3 1.1206 5.2907 25.3784 0.0000 12.6958 0.0000
# 4 0.0000 0.0000 0.0000 7.3586 0.0000 5.8980
# 5 10.8904 14.8217 12.6958 0.0000 25.4456 0.0000
# 6 0.0000 0.0000 0.0000 5.8980 0.0000 35.9266
#
#
#
# Elastic Compliance Matrix: (Units=1/GPa)
#
#
# Indices 1 2 3 4 5 6 
#
# 1 0.011956 -0.007635 0.001864 0.000000 -0.001600 0.000000
# 2 -0.007635 0.029933 0.001579 0.000000 -0.014955 0.000000
# 3 0.001864 0.001579 0.053107 0.000000 -0.028214 0.000000
# 4 0.000000 0.000000 0.000000 0.156485 0.000000 -0.025690
# 5 -0.001600 -0.014955 -0.028214 0.000000 0.062773 0.000000
# 6 0.000000 0.000000 0.000000 -0.025690 0.000000 0.032052
#
#
# Mechanical properties :
#
#
# Convention : Reuss Voigt Hill
#
# Bulk Modulus (GPa) = 11.54589 28.57094 20.05842
# Shear Modulus (GPa) = 13.03570 23.14530 18.09050
#
# Velocity S-wave (km/s) = 2.54744 3.39444 3.00097
# Velocity P-wave (km/s) = 3.79479 5.43932 4.68970
#
# Compressibility (1/GPa) = 0.08661090
#
# Stress axis : x y z
#
# Youngs Moduli (GPa) = 83.63828 33.40787 18.82994
#
# Poissons Ratio (x) = 0.25508 -0.03510
# Poissons Ratio (y) = 0.63860 -0.02972
# Poissons Ratio (z) = -0.15591 -0.05273
#
# Static dielectric constant tensor:
#      x y z
#    x 1.744800 0.000000 0.019610 
#    y 0.000000 1.757430 0.000000 
#    z 0.019610 0.000000 1.795230 
# 
# From -- ./inp_files/32194.got.cif
#   From: 2010.05.17/outbox.cif.g08.bks.cpg/sg14_17_cif.got.tgz:32194.got - 2010.06.03 17:49:19.
