data_PCOD9239425
_publ_section_title
;
Structure prediction by ZEFSAII (Michael W. Deem and Ramdas Pophale) SiO2 
 PCOD9239425
Probable space group: P 21/C
;
_chemical_formula_sum "Si O2"
_cell_formula_units_Z 24
_cell_length_a 16.838584
_cell_length_b 8.170525
_cell_length_c 17.353645
_cell_angle_alpha 90.000000
_cell_angle_beta 155.792185
_cell_angle_gamma 90.000000
_cell_volume 978.994711
_symmetry_space_group_name_H-M "P 21/C"
_symmetry_group_IT_number 14
_symmetry_cell_setting 'monoclinic'
loop_
_space_group_symop_operation_xyz
x,y,z
-x,1/2+y,1/2-z
-x,-y,-z
x,1/2-y,1/2+z
loop_
_atom_site_type_symbol
_atom_site_label
_atom_site_fract_x
_atom_site_fract_y
_atom_site_fract_z
Si Si1 0.075961 0.827527 0.093720
Si Si2 0.166775 0.723310 0.010258
Si Si3 0.103114 0.359702 0.943964
Si Si4 0.399291 0.563962 0.988856
Si Si5 0.668006 0.382067 0.489666
Si Si6 0.731952 0.765256 0.056119
O O1 0.195576 0.876848 0.274556
O O2 0.921004 0.700519 0.990071
O O3 0.187065 0.757764 0.118605
O O4 0.000000 0.000000 0.000000
O O5 0.206715 0.533507 0.029517
O O6 0.293687 0.834370 0.065513
O O7 0.935685 0.743685 0.784542
O O8 0.206350 0.233723 0.978711
O O9 0.889029 0.385884 0.718561
O O10 0.456307 0.732647 0.083159
O O11 0.374413 0.404074 0.018728
O O12 0.500000 0.500000 0.000000
O O13 0.611242 0.568024 0.460689
#
# Coordination Sequence:
#
# PCOD9239425 Si02
#       6
#     4   4   4   4   4   4
#     4  11  20  33  56  88 112 141 184 238 281 317
#     4  10  17  32  57  86 117 135 184 242 282 321
#     4   9  18  30  55  89 114 140 183 235 284 328
#     4  11  23  39  57  79 117 153 188 224 275 341
#     4   9  19  33  58  84 109 152 187 224 279 337
#     4  10  18  34  57  84 111 147 187 228 277 335
#
# _framework density 24.514945000000001
#
# number of rings (size 3 to 8) (size 9 to 14) (size 15 to 20)
#    0.000    2.000    3.333    1.500    4.667    0.667 
#    0.000    0.000    7.333    0.000    0.000    0.000 
#    0.000    0.000    0.000    0.000    0.000    0.000 
#
# Total GULP energy -133949.089927 kJ/mol
# GULP energy per Si atom -5581.212080 kJ/mol
# Density = 2.445915 g / cm^3
# Si number density = 24.514945 Si / 1000 Ang^3
#
#
#
# Elastic Constant Matrix: (Units=GPa)
#
#
# Indices 1 2 3 4 5 6 
#
# 1 112.9147 56.6442 1.7750 0.0000 -21.1152 0.0000
# 2 56.6442 172.3712 8.1728 0.0000 -11.7536 0.0000
# 3 1.7750 8.1728 69.1462 0.0000 -0.0839 0.0000
# 4 0.0000 0.0000 0.0000 4.8879 0.0000 -12.4944
# 5 -21.1152 -11.7536 -0.0839 0.0000 29.7918 0.0000
# 6 0.0000 0.0000 0.0000 -12.4944 0.0000 40.0505
#
#
#
# Elastic Compliance Matrix: (Units=1/GPa)
#
#
# Indices 1 2 3 4 5 6 
#
# 1 0.011901 -0.003433 0.000109 0.000000 0.007081 0.000000
# 2 -0.003433 0.006986 -0.000737 0.000000 0.000321 0.000000
# 3 0.000109 -0.000737 0.014546 0.000000 -0.000173 0.000000
# 4 0.000000 0.000000 0.000000 1.010028 0.000000 0.315095
# 5 0.007081 0.000321 -0.000173 0.000000 0.038711 0.000000
# 6 0.000000 0.000000 0.000000 0.315095 0.000000 0.123267
#
#
# Mechanical properties :
#
#
# Convention : Reuss Voigt Hill
#
# Bulk Modulus (GPa) = 39.50933 54.17959 46.84446
# Shear Modulus (GPa) = 4.09165 34.13539 19.11352
#
# Velocity S-wave (km/s) = 1.29332 3.73558 2.79528
# Velocity P-wave (km/s) = 4.28738 6.38394 5.43766
#
# Compressibility (1/GPa) = 0.02531048
#
# Stress axis : x y z
#
# Youngs Moduli (GPa) = 84.02727 143.13349 68.74630
#
# Poissons Ratio (x) = 0.49140 -0.00748
# Poissons Ratio (y) = 0.28848 0.05068
# Poissons Ratio (z) = -0.00915 0.10553
#
# Static dielectric constant tensor:
#      x y z
#    x 1.590560 0.000000 -0.492510 
#    y 0.000000 2.001590 0.000000 
#    z -0.492510 0.000000 1.581840 
# 
# From -- ./inp_files/46596.got.cif
#   From: 2010.05.17/outbox.cif.g08.bks.cpg/sg14_24_cif.got.tgz:46596.got - 2010.06.03 17:49:19.
