data_PCOD9239981
_publ_section_title
;
Structure prediction by ZEFSAII (Michael W. Deem and Ramdas Pophale) SiO2 
 PCOD9239981
Probable space group: P 21/C
;
_chemical_formula_sum "Si O2"
_cell_formula_units_Z 28
_cell_length_a 8.767344
_cell_length_b 18.116394
_cell_length_c 18.787051
_cell_angle_alpha 90.000000
_cell_angle_beta 147.906553
_cell_angle_gamma 90.000000
_cell_volume 1585.402781
_symmetry_space_group_name_H-M "P 21/C"
_symmetry_group_IT_number 14
_symmetry_cell_setting 'monoclinic'
loop_
_space_group_symop_operation_xyz
x,y,z
-x,1/2+y,1/2-z
-x,-y,-z
x,1/2-y,1/2+z
loop_
_atom_site_type_symbol
_atom_site_label
_atom_site_fract_x
_atom_site_fract_y
_atom_site_fract_z
Si Si1 0.794946 0.381556 0.925644
Si Si2 0.293253 0.685978 0.257571
Si Si3 0.596960 0.334050 0.997711
Si Si4 0.270159 0.213584 0.952356
Si Si5 0.921275 0.940473 0.671100
Si Si6 0.066958 0.911250 0.242929
Si Si7 0.349354 0.043766 0.590505
O O1 0.670277 0.336710 0.809779
O O2 0.740806 0.339304 0.977741
O O3 0.655794 0.463569 0.875556
O O4 0.129604 0.400687 0.042448
O O5 0.565276 0.715346 0.407702
O O6 0.028908 0.742675 0.159088
O O7 0.181950 0.612588 0.254127
O O8 0.466864 0.256618 0.972797
O O9 0.328882 0.391282 0.892375
O O10 0.813390 0.361862 0.144411
O O11 0.189751 0.131895 0.895500
O O12 0.783357 0.966931 0.541488
O O13 0.001717 0.009339 0.751023
O O14 0.336283 0.923246 0.296387
#
# Coordination Sequence:
#
# PCOD9239981 Si02
#       7
#     4   4   4   4   4   4   4
#     4  10  18  33  60  85 117 140 198 243 286 336
#     4  10  23  39  56  84 121 157 194 236 300 349
#     4  10  18  36  59  87 111 148 203 239 281 345
#     4  11  23  40  58  80 118 166 194 232 292 361
#     4   9  17  33  61  86 110 146 198 243 279 340
#     4  11  18  35  63  84 115 152 205 236 287 342
#     4   9  17  31  58  92 110 149 186 243 292 346
#
# _framework density 17.661127
#
# number of rings (size 3 to 8) (size 9 to 14) (size 15 to 20)
#    0.000    2.000    4.286    1.714    0.000    0.571 
#    2.571    0.714    0.000    0.000    0.000    0.000 
#    0.000    0.000    0.000    0.000    0.000    0.000 
#
# Total GULP energy -156227.961903 kJ/mol
# GULP energy per Si atom -5579.570068 kJ/mol
# Density = 1.762093 g / cm^3
# Si number density = 17.661127 Si / 1000 Ang^3
#
#
#
# Elastic Constant Matrix: (Units=GPa)
#
#
# Indices 1 2 3 4 5 6 
#
# 1 91.7937 7.5161 8.6492 0.0000 -15.0932 0.0000
# 2 7.5161 42.4538 10.6174 0.0000 -4.3945 0.0000
# 3 8.6492 10.6174 59.8502 0.0000 -4.5229 0.0000
# 4 0.0000 0.0000 0.0000 27.6911 0.0000 -6.1956
# 5 -15.0932 -4.3945 -4.5229 0.0000 11.2232 0.0000
# 6 0.0000 0.0000 0.0000 -6.1956 0.0000 28.0130
#
#
#
# Elastic Compliance Matrix: (Units=1/GPa)
#
#
# Indices 1 2 3 4 5 6 
#
# 1 0.014016 -0.000432 -0.000554 0.000000 0.018457 0.000000
# 2 -0.000432 0.025404 -0.003854 0.000000 0.007813 0.000000
# 3 -0.000554 -0.003854 0.017845 0.000000 0.004937 0.000000
# 4 0.000000 0.000000 0.000000 0.037993 0.000000 0.008403
# 5 0.018457 0.007813 0.004937 0.000000 0.118972 0.000000
# 6 0.000000 0.000000 0.000000 0.008403 0.000000 0.037556
#
#
# Mechanical properties :
#
#
# Convention : Reuss Voigt Hill
#
# Bulk Modulus (GPa) = 21.01492 27.51812 24.26652
# Shear Modulus (GPa) = 18.02914 24.53979 21.28446
#
# Velocity S-wave (km/s) = 3.19852 3.73162 3.47531
# Velocity P-wave (km/s) = 5.05624 5.84651 5.46567
#
# Compressibility (1/GPa) = 0.04758523
#
# Stress axis : x y z
#
# Youngs Moduli (GPa) = 71.34486 39.36372 56.03737
#
# Poissons Ratio (x) = 0.01702 0.03105
# Poissons Ratio (y) = 0.03085 0.21596
# Poissons Ratio (z) = 0.03953 0.15170
#
# Static dielectric constant tensor:
#      x y z
#    x 1.611490 0.000000 0.007980 
#    y 0.000000 1.634220 0.000000 
#    z 0.007980 0.000000 1.583560 
# 
# From -- ./inp_files/16645.got.cif
#   From: 2010.05.17/outbox.cif.g08.bks.cpg/sg14_9_cif.got.tgz:16645.got - 2010.06.03 17:49:19.
