data_PCOD9239249
_publ_section_title
;
Structure prediction by ZEFSAII (Michael W. Deem and Ramdas Pophale) SiO2 
 PCOD9239249
Probable space group: P 21/C
;
_chemical_formula_sum "Si O2"
_cell_formula_units_Z 28
_cell_length_a 10.129317
_cell_length_b 14.663708
_cell_length_c 13.308492
_cell_angle_alpha 90.000000
_cell_angle_beta 35.197226
_cell_angle_gamma 90.000000
_cell_volume 1139.387174
_symmetry_space_group_name_H-M "P 21/C"
_symmetry_group_IT_number 14
_symmetry_cell_setting 'monoclinic'
loop_
_space_group_symop_operation_xyz
x,y,z
-x,1/2+y,1/2-z
-x,-y,-z
x,1/2-y,1/2+z
loop_
_atom_site_type_symbol
_atom_site_label
_atom_site_fract_x
_atom_site_fract_y
_atom_site_fract_z
Si Si1 0.044256 0.318433 0.500150
Si Si2 0.774327 0.656975 0.416475
Si Si3 0.797835 0.385130 0.482172
Si Si4 0.907097 0.126401 0.582692
Si Si5 0.335658 0.457722 0.706163
Si Si6 0.275340 0.163084 0.655125
Si Si7 0.275751 0.827582 0.518825
O O1 0.219921 0.360955 0.468758
O O2 0.857679 0.383032 0.564314
O O3 0.930681 0.227008 0.612751
O O4 0.176927 0.285549 0.316720
O O5 0.667745 0.594868 0.397065
O O6 0.689450 0.760604 0.450655
O O7 0.043033 0.653959 0.222475
O O8 0.590944 0.451029 0.588672
O O9 0.712949 0.282928 0.502924
O O10 0.051343 0.399505 0.274221
O O11 0.763354 0.133407 0.568403
O O12 0.157069 0.088942 0.395871
O O13 0.773711 0.057315 0.735969
O O14 0.515891 0.129682 0.547770
#
# Coordination Sequence:
#
# PCOD9239249 Si02
#       7
#     4   4   4   4   4   4   4
#     4   9  18  34  53  82 101 135 182 214 261 313
#     4  10  18  31  55  81 102 135 177 219 261 306
#     4   8  16  30  52  71 103 132 176 205 262 309
#     4   9  18  30  55  78 108 138 179 214 273 309
#     4  10  16  33  56  78 106 141 172 225 267 314
#     4   9  17  33  51  77 105 133 181 213 262 310
#     4   9  15  33  50  74 104 135 174 217 252 315
#
# _framework density 24.574612999999999
#
# number of rings (size 3 to 8) (size 9 to 14) (size 15 to 20)
#    0.857    2.000    4.286    0.000    0.000    0.000 
#    7.714    0.714    3.143    8.571    0.000    0.000 
#    0.000    0.000    0.000    0.000    0.000    0.000 
#
# Total GULP energy -156266.552964 kJ/mol
# GULP energy per Si atom -5580.948320 kJ/mol
# Density = 2.451868 g / cm^3
# Si number density = 24.574613 Si / 1000 Ang^3
#
#
#
# Elastic Constant Matrix: (Units=GPa)
#
#
# Indices 1 2 3 4 5 6 
#
# 1 147.5181 23.2764 32.9706 0.0000 -18.8141 0.0000
# 2 23.2764 40.2068 9.5700 0.0000 -4.9128 0.0000
# 3 32.9706 9.5700 61.7521 0.0000 -24.9194 0.0000
# 4 0.0000 0.0000 0.0000 2.5650 0.0000 -5.4280
# 5 -18.8141 -4.9128 -24.9194 0.0000 43.2119 0.0000
# 6 0.0000 0.0000 0.0000 -5.4280 0.0000 24.2420
#
#
#
# Elastic Compliance Matrix: (Units=1/GPa)
#
#
# Indices 1 2 3 4 5 6 
#
# 1 0.008290 -0.003855 -0.003322 0.000000 0.001255 0.000000
# 2 -0.003855 0.027639 -0.002130 0.000000 0.000236 0.000000
# 3 -0.003322 -0.002130 0.022959 0.000000 0.011551 0.000000
# 4 0.000000 0.000000 0.000000 0.740923 0.000000 0.165897
# 5 0.001255 0.000236 0.011551 0.000000 0.030377 0.000000
# 6 0.000000 0.000000 0.000000 0.165897 0.000000 0.078396
#
#
# Mechanical properties :
#
#
# Convention : Reuss Voigt Hill
#
# Bulk Modulus (GPa) = 24.83024 42.34567 33.58795
# Shear Modulus (GPa) = 5.31563 26.24778 15.78171
#
# Velocity S-wave (km/s) = 1.47233 3.27170 2.53691
# Velocity P-wave (km/s) = 3.60781 5.61613 4.72002
#
# Compressibility (1/GPa) = 0.04027348
#
# Stress axis : x y z
#
# Youngs Moduli (GPa) = 120.63217 36.18094 43.55576
#
# Poissons Ratio (x) = 0.13948 0.14469
# Poissons Ratio (y) = 0.46503 0.09278
# Poissons Ratio (z) = 0.40075 0.07707
#
# Static dielectric constant tensor:
#      x y z
#    x 2.003630 0.000000 -0.016710 
#    y 0.000000 2.058730 0.000000 
#    z -0.016710 0.000000 1.991030 
# 
# From -- ./inp_files/41552.got.cif
#   From: 2010.05.17/outbox.cif.g08.bks.cpg/sg14_21_cif.got.tgz:41552.got - 2010.06.03 17:49:19.
