data_PCOD9239463
_publ_section_title
;
Structure prediction by ZEFSAII (Michael W. Deem and Ramdas Pophale) SiO2 
 PCOD9239463
Probable space group: P 21/C
;
_chemical_formula_sum "Si O2"
_cell_formula_units_Z 32
_cell_length_a 16.718355
_cell_length_b 15.473475
_cell_length_c 19.493202
_cell_angle_alpha 90.000000
_cell_angle_beta 160.190752
_cell_angle_gamma 90.000000
_cell_volume 1708.925214
_symmetry_space_group_name_H-M "P 21/C"
_symmetry_group_IT_number 14
_symmetry_cell_setting 'monoclinic'
loop_
_space_group_symop_operation_xyz
x,y,z
-x,1/2+y,1/2-z
-x,-y,-z
x,1/2-y,1/2+z
loop_
_atom_site_type_symbol
_atom_site_label
_atom_site_fract_x
_atom_site_fract_y
_atom_site_fract_z
Si Si1 0.029245 0.901364 0.110128
Si Si2 0.380908 0.074670 0.697912
Si Si3 0.874225 0.506291 0.773349
Si Si4 0.471940 0.805093 0.458907
Si Si5 0.542485 0.872897 0.091585
Si Si6 0.650846 0.546106 0.203523
Si Si7 0.690693 0.897995 0.514385
Si Si8 0.872787 0.984021 0.118796
O O1 0.191626 0.819445 0.224290
O O2 0.170112 0.985895 0.195407
O O3 0.974957 0.917834 0.145673
O O4 0.791143 0.902700 0.874788
O O5 0.417204 0.133498 0.794330
O O6 0.360446 0.118991 0.606809
O O7 0.135315 0.022310 0.505466
O O8 0.610253 0.012425 0.885165
O O9 0.701121 0.424212 0.621110
O O10 0.748819 0.567571 0.726707
O O11 0.880301 0.549775 0.702720
O O12 0.534707 0.717234 0.546483
O O13 0.539352 0.885391 0.562369
O O14 0.608395 0.821753 0.498003
O O15 0.468197 0.480651 0.091304
O O16 0.957079 0.931039 0.741812
#
# Coordination Sequence:
#
# PCOD9239463 Si02
#       8
#     4   4   4   4   4   4   4   4
#     4  10  18  31  55  85 121 150 182 218 282 351
#     4  10  20  36  64  80 106 150 201 241 277 338
#     4   9  21  40  62  78 100 150 207 241 279 333
#     4  11  21  34  56  87 122 149 179 238 291 341
#     4  10  22  41  59  79 109 151 197 243 286 331
#     4  10  18  31  54  86 117 156 188 217 274 356
#     4  10  18  33  59  87 116 150 186 229 287 345
#     4  10  17  33  59  86 110 144 189 235 275 338
#
# _framework density 18.72522
#
# number of rings (size 3 to 8) (size 9 to 14) (size 15 to 20)
#    0.000    2.000    3.750    1.125    0.000    1.000 
#    0.000    5.000    0.000    0.000    0.000    0.000 
#    0.000    0.000    0.000    0.000    0.000    0.000 
#
# Total GULP energy -178497.043233 kJ/mol
# GULP energy per Si atom -5578.032601 kJ/mol
# Density = 1.868260 g / cm^3
# Si number density = 18.725220 Si / 1000 Ang^3
#
#
#
# Elastic Constant Matrix: (Units=GPa)
#
#
# Indices 1 2 3 4 5 6 
#
# 1 122.3155 34.9630 32.4819 0.0000 -7.7817 0.0000
# 2 34.9630 46.8186 18.7482 0.0000 -9.2452 0.0000
# 3 32.4819 18.7482 110.6167 0.0000 1.1437 0.0000
# 4 0.0000 0.0000 0.0000 5.8657 0.0000 -7.9154
# 5 -7.7817 -9.2452 1.1437 0.0000 33.1797 0.0000
# 6 0.0000 0.0000 0.0000 -7.9154 0.0000 14.3728
#
#
#
# Elastic Compliance Matrix: (Units=1/GPa)
#
#
# Indices 1 2 3 4 5 6 
#
# 1 0.010776 -0.007143 -0.001960 0.000000 0.000605 0.000000
# 2 -0.007143 0.029152 -0.002911 0.000000 0.006548 0.000000
# 3 -0.001960 -0.002911 0.010126 0.000000 -0.001620 0.000000
# 4 0.000000 0.000000 0.000000 0.663802 0.000000 0.365571
# 5 0.000605 0.006548 -0.001620 0.000000 0.032161 0.000000
# 6 0.000000 0.000000 0.000000 0.365571 0.000000 0.270904
#
#
# Mechanical properties :
#
#
# Convention : Reuss Voigt Hill
#
# Bulk Modulus (GPa) = 38.42333 50.23742 44.33038
# Shear Modulus (GPa) = 4.76360 23.58749 14.17555
#
# Velocity S-wave (km/s) = 1.59671 3.55303 2.75440
# Velocity P-wave (km/s) = 4.89524 6.61203 5.81732
#
# Compressibility (1/GPa) = 0.02602585
#
# Stress axis : x y z
#
# Youngs Moduli (GPa) = 92.79548 34.30268 98.75667
#
# Poissons Ratio (x) = 0.24503 0.19356
# Poissons Ratio (y) = 0.66287 0.28749
# Poissons Ratio (z) = 0.18188 0.09986
#
# Static dielectric constant tensor:
#      x y z
#    x 1.683000 0.000000 -0.000720 
#    y 0.000000 1.604280 0.000000 
#    z -0.000720 0.000000 1.693770 
# 
# From -- ./inp_files/69434.got.cif
#   From: 2010.05.17/outbox.cif.g08.bks.cpg/sg14_35_cif.got.tgz:69434.got - 2010.06.03 17:49:19.
