data_PCOD9239673
_publ_section_title
;
Structure prediction by ZEFSAII (Michael W. Deem and Ramdas Pophale) SiO2 
 PCOD9239673
Probable space group: P 21/C
;
_chemical_formula_sum "Si O2"
_cell_formula_units_Z 32
_cell_length_a 10.581730
_cell_length_b 8.980479
_cell_length_c 20.790396
_cell_angle_alpha 90.000000
_cell_angle_beta 48.987215
_cell_angle_gamma 90.000000
_cell_volume 1490.783378
_symmetry_space_group_name_H-M "P 21/C"
_symmetry_group_IT_number 14
_symmetry_cell_setting 'monoclinic'
loop_
_space_group_symop_operation_xyz
x,y,z
-x,1/2+y,1/2-z
-x,-y,-z
x,1/2-y,1/2+z
loop_
_atom_site_type_symbol
_atom_site_label
_atom_site_fract_x
_atom_site_fract_y
_atom_site_fract_z
Si Si1 0.521589 0.003585 0.334894
Si Si2 0.729350 0.906977 0.728569
Si Si3 0.808938 0.474465 0.983317
Si Si4 0.115122 0.372494 0.273919
Si Si5 0.407275 0.714556 0.296151
Si Si6 0.016050 0.871066 0.317521
Si Si7 0.068281 0.282820 0.957369
Si Si8 0.965550 0.400313 0.597375
O O1 0.385242 0.992316 0.436481
O O2 0.451205 0.881253 0.305782
O O3 0.708180 0.958740 0.293144
O O4 0.538815 0.162077 0.293619
O O5 0.826571 0.798173 0.744248
O O6 0.532732 0.883352 0.799009
O O7 0.809513 0.067127 0.711799
O O8 0.791909 0.832688 0.640513
O O9 0.892384 0.322519 0.981120
O O10 0.871726 0.517351 0.892033
O O11 0.904607 0.597777 0.994414
O O12 0.046820 0.438822 0.364564
O O13 0.989358 0.382566 0.256957
O O14 0.217884 0.657597 0.363557
O O15 0.986623 0.709264 0.358693
O O16 0.077197 0.132762 0.996785
#
# Coordination Sequence:
#
# PCOD9239673 Si02
#       8
#     4   4   4   4   4   4   4   4
#     4  10  18  31  49  74 106 126 159 210 246 299
#     4  10  19  32  53  75 101 128 162 214 246 296
#     4   9  16  29  52  74  97 128 168 206 242 295
#     4  10  22  32  46  77 104 134 168 197 245 293
#     4  10  18  30  50  78 102 122 160 206 264 288
#     4  10  20  35  53  69  97 143 172 193 237 301
#     4   9  16  29  52  78  96 126 166 204 260 290
#     4  10  19  32  53  75 101 128 162 214 246 296
#
# _framework density 21.465225
#
# number of rings (size 3 to 8) (size 9 to 14) (size 15 to 20)
#    0.000    2.250    2.500    2.250    0.000    1.000 
#    0.000    0.000    0.000    0.000    0.000    1.750 
#    0.000    0.000    0.000    0.000    0.000    0.000 
#
# Total GULP energy -178228.025800 kJ/mol
# GULP energy per Si atom -5569.625806 kJ/mol
# Density = 2.141637 g / cm^3
# Si number density = 21.465225 Si / 1000 Ang^3
#
#
#
# Elastic Constant Matrix: (Units=GPa)
#
#
# Indices 1 2 3 4 5 6 
#
# 1 56.8306 1.1016 19.5831 0.0000 3.4476 0.0000
# 2 1.1016 66.7217 -10.1083 0.0000 5.8626 0.0000
# 3 19.5831 -10.1083 47.2972 0.0000 -8.3855 0.0000
# 4 0.0000 0.0000 0.0000 21.2737 0.0000 0.4221
# 5 3.4476 5.8626 -8.3855 0.0000 23.5089 0.0000
# 6 0.0000 0.0000 0.0000 0.4221 0.0000 11.7323
#
#
#
# Elastic Compliance Matrix: (Units=1/GPa)
#
#
# Indices 1 2 3 4 5 6 
#
# 1 0.021600 -0.001357 -0.010392 0.000000 -0.006536 0.000000
# 2 -0.001357 0.015757 0.003489 0.000000 -0.002486 0.000000
# 3 -0.010392 0.003489 0.028083 0.000000 0.010671 0.000000
# 4 0.000000 0.000000 0.000000 0.047040 0.000000 -0.001692
# 5 -0.006536 -0.002486 0.010671 0.000000 0.047922 0.000000
# 6 0.000000 0.000000 0.000000 -0.001692 0.000000 0.085296
#
#
# Mechanical properties :
#
#
# Convention : Reuss Voigt Hill
#
# Bulk Modulus (GPa) = 20.44173 21.33360 20.88767
# Shear Modulus (GPa) = 17.95174 21.98786 19.96980
#
# Velocity S-wave (km/s) = 2.89505 3.20402 3.05344
# Velocity P-wave (km/s) = 4.55181 4.86291 4.70993
#
# Compressibility (1/GPa) = 0.04891953
#
# Stress axis : x y z
#
# Youngs Moduli (GPa) = 46.29648 63.46389 35.60855
#
# Poissons Ratio (x) = 0.08610 0.37005
# Poissons Ratio (y) = 0.06281 -0.12422
# Poissons Ratio (z) = 0.48112 -0.22140
#
# Static dielectric constant tensor:
#      x y z
#    x 1.776480 0.000000 0.023350 
#    y 0.000000 1.877280 0.000000 
#    z 0.023350 0.000000 1.839030 
# 
# From -- ./inp_files/67020.got.cif
#   From: 2010.05.17/outbox.cif.g08.bks.cpg/sg14_34_cif.got.tgz:67020.got - 2010.06.03 17:49:19.
