data_PCOD9239643
_publ_section_title
;
Structure prediction by ZEFSAII (Michael W. Deem and Ramdas Pophale) SiO2 
 PCOD9239643
Probable space group: P 21/C
;
_chemical_formula_sum "Si O2"
_cell_formula_units_Z 28
_cell_length_a 11.989669
_cell_length_b 17.961474
_cell_length_c 19.525153
_cell_angle_alpha 90.000000
_cell_angle_beta 161.933064
_cell_angle_gamma 90.000000
_cell_volume 1304.020424
_symmetry_space_group_name_H-M "P 21/C"
_symmetry_group_IT_number 14
_symmetry_cell_setting 'monoclinic'
loop_
_space_group_symop_operation_xyz
x,y,z
-x,1/2+y,1/2-z
-x,-y,-z
x,1/2-y,1/2+z
loop_
_atom_site_type_symbol
_atom_site_label
_atom_site_fract_x
_atom_site_fract_y
_atom_site_fract_z
Si Si1 0.801820 0.822594 0.231510
Si Si2 0.857683 0.435428 0.824422
Si Si3 0.816099 0.544215 0.309203
Si Si4 0.279059 0.542932 0.458045
Si Si5 0.315812 0.586502 0.125003
Si Si6 0.358944 0.406908 0.005051
Si Si7 0.404270 0.670833 0.984993
O O1 0.622637 0.742890 0.137231
O O2 0.113042 0.846872 0.466803
O O3 0.995970 0.822533 0.271174
O O4 0.498324 0.884709 0.063657
O O5 0.512018 0.469221 0.584153
O O6 0.726124 0.402138 0.818948
O O7 0.107511 0.385061 0.922244
O O8 0.093882 0.510470 0.977476
O O9 0.712663 0.570418 0.325376
O O10 0.565972 0.599862 0.118805
O O11 0.194008 0.549760 0.490259
O O12 0.669015 0.461676 0.211108
O O13 0.913421 0.544054 0.201546
O O14 0.519360 0.343832 0.050089
#
# Coordination Sequence:
#
# PCOD9239643 Si02
#       7
#     4   4   4   4   4   4   4
#     4  10  20  33  52  73  96 133 175 214 253 312
#     4   9  17  30  50  73 103 136 163 209 256 302
#     4   9  18  31  49  76 109 137 166 215 257 301
#     4  10  18  29  49  77 107 135 169 211 260 308
#     4   8  17  33  49  71 101 133 171 206 253 299
#     4  10  19  31  49  78 109 135 168 211 262 305
#     4  10  18  31  49  71  98 130 169 212 256 301
#
# _framework density 21.472057
#
# number of rings (size 3 to 8) (size 9 to 14) (size 15 to 20)
#    0.000    2.571    0.000    4.714    0.000    1.714 
#    0.000    0.000    0.000    6.857    0.000    0.000 
#    0.000    0.000    0.000    0.000    0.000    0.000 
#
# Total GULP energy -156231.292524 kJ/mol
# GULP energy per Si atom -5579.689019 kJ/mol
# Density = 2.142319 g / cm^3
# Si number density = 21.472057 Si / 1000 Ang^3
#
#
#
# Elastic Constant Matrix: (Units=GPa)
#
#
# Indices 1 2 3 4 5 6 
#
# 1 171.1582 28.7586 32.9907 0.0000 34.1661 0.0000
# 2 28.7586 57.2361 23.9512 0.0000 5.4980 0.0000
# 3 32.9907 23.9512 66.3526 0.0000 16.4322 0.0000
# 4 0.0000 0.0000 0.0000 20.2009 0.0000 9.1697
# 5 34.1661 5.4980 16.4322 0.0000 40.8434 0.0000
# 6 0.0000 0.0000 0.0000 9.1697 0.0000 18.5997
#
#
#
# Elastic Compliance Matrix: (Units=1/GPa)
#
#
# Indices 1 2 3 4 5 6 
#
# 1 0.007673 -0.002710 -0.001486 0.000000 -0.005456 0.000000
# 2 -0.002710 0.021539 -0.006965 0.000000 0.002169 0.000000
# 3 -0.001486 -0.006965 0.019752 0.000000 -0.005766 0.000000
# 4 0.000000 0.000000 0.000000 0.063774 0.000000 -0.031441
# 5 -0.005456 0.002169 -0.005766 0.000000 0.031076 0.000000
# 6 0.000000 0.000000 0.000000 -0.031441 0.000000 0.069265
#
#
# Mechanical properties :
#
#
# Convention : Reuss Voigt Hill
#
# Bulk Modulus (GPa) = 37.53260 51.79421 44.66341
# Shear Modulus (GPa) = 20.46820 29.86524 25.16672
#
# Velocity S-wave (km/s) = 3.09082 3.73351 3.42726
# Velocity P-wave (km/s) = 5.50048 6.53907 6.04213
#
# Compressibility (1/GPa) = 0.02664350
#
# Stress axis : x y z
#
# Youngs Moduli (GPa) = 130.32004 46.42710 50.62802
#
# Poissons Ratio (x) = 0.12580 0.07523
# Poissons Ratio (y) = 0.35312 0.35262
# Poissons Ratio (z) = 0.19364 0.32336
#
# Static dielectric constant tensor:
#      x y z
#    x 1.916900 0.000000 0.024960 
#    y 0.000000 1.722920 0.000000 
#    z 0.024960 0.000000 1.815400 
# 
# From -- ./inp_files/67563.got.cif
#   From: 2010.05.17/outbox.cif.g08.bks.cpg/sg14_34_cif.got.tgz:67563.got - 2010.06.03 17:49:19.
