data_PCOD9239326
_publ_section_title
;
Structure prediction by ZEFSAII (Michael W. Deem and Ramdas Pophale) SiO2 
 PCOD9239326
Probable space group: P 21/C
;
_chemical_formula_sum "Si O2"
_cell_formula_units_Z 28
_cell_length_a 9.984217
_cell_length_b 13.178730
_cell_length_c 10.540640
_cell_angle_alpha 90.000000
_cell_angle_beta 82.988451
_cell_angle_gamma 90.000000
_cell_volume 1376.557970
_symmetry_space_group_name_H-M "P 21/C"
_symmetry_group_IT_number 14
_symmetry_cell_setting 'monoclinic'
loop_
_space_group_symop_operation_xyz
x,y,z
-x,1/2+y,1/2-z
-x,-y,-z
x,1/2-y,1/2+z
loop_
_atom_site_type_symbol
_atom_site_label
_atom_site_fract_x
_atom_site_fract_y
_atom_site_fract_z
Si Si1 0.890104 0.687859 0.468645
Si Si2 0.242151 0.657666 0.240188
Si Si3 0.192101 0.745137 0.995809
Si Si4 0.197435 0.171212 0.755565
Si Si5 0.631366 0.530073 0.906904
Si Si6 0.150452 0.515468 0.929489
Si Si7 0.985868 0.518717 0.302489
O O1 0.793700 0.706969 0.599848
O O2 0.849330 0.747228 0.344636
O O3 0.913219 0.568182 0.433321
O O4 0.035463 0.726485 0.500663
O O5 0.267701 0.689997 0.380802
O O6 0.337313 0.569245 0.180300
O O7 0.092341 0.607383 0.252523
O O8 0.239933 0.746683 0.135495
O O9 0.199268 0.629117 0.949570
O O10 0.338602 0.122832 0.691481
O O11 0.079781 0.082360 0.780837
O O12 0.500000 0.500000 0.000000
O O13 0.747908 0.549167 0.998714
O O14 0.133090 0.493154 0.785026
O O15 0.000000 0.500000 0.000000
#
# Coordination Sequence:
#
# PCOD9239326 Si02
#       7
#     4   4   4   4   4   4   4
#     4  11  21  31  57  89 121 150 188 240 289 333
#     4   9  19  32  54  79 109 144 184 223 277 334
#     4  10  17  29  49  85 113 140 175 230 277 327
#     4  11  22  36  54  87 119 153 193 238 286 351
#     4  10  22  40  59  75 111 158 190 231 294 345
#     4  11  17  33  59  81 109 147 192 227 278 339
#     4  10  19  33  54  85 120 148 188 233 288 337
#
# _framework density 20.340589000000001
#
# number of rings (size 3 to 8) (size 9 to 14) (size 15 to 20)
#    0.000    1.714    5.714    2.143    2.000    0.000 
#    0.000    2.857    0.000    0.857    0.000    0.000 
#    0.000    0.000    0.000    0.000    0.000    0.000 
#
# Total GULP energy -155993.663697 kJ/mol
# GULP energy per Si atom -5571.202275 kJ/mol
# Density = 2.029429 g / cm^3
# Si number density = 20.340589 Si / 1000 Ang^3
#
#
#
# Elastic Constant Matrix: (Units=GPa)
#
#
# Indices 1 2 3 4 5 6 
#
# 1 22.3510 1.4735 24.6386 0.0000 -10.5808 0.0000
# 2 1.4735 54.8924 28.1979 0.0000 -0.9465 0.0000
# 3 24.6386 28.1979 124.4815 0.0000 -10.6858 0.0000
# 4 0.0000 0.0000 0.0000 39.8097 0.0000 3.1810
# 5 -10.5808 -0.9465 -10.6858 0.0000 30.6204 0.0000
# 6 0.0000 0.0000 0.0000 3.1810 0.0000 10.8171
#
#
#
# Elastic Compliance Matrix: (Units=1/GPa)
#
#
# Indices 1 2 3 4 5 6 
#
# 1 0.067656 0.005151 -0.012925 0.000000 0.019027 0.000000
# 2 0.005151 0.021040 -0.005749 0.000000 0.000424 0.000000
# 3 -0.012925 -0.005749 0.011850 0.000000 -0.000508 0.000000
# 4 0.000000 0.000000 0.000000 0.025724 0.000000 -0.007565
# 5 0.019027 0.000424 -0.000508 0.000000 0.039068 0.000000
# 6 0.000000 0.000000 0.000000 -0.007565 0.000000 0.094671
#
#
# Mechanical properties :
#
#
# Convention : Reuss Voigt Hill
#
# Bulk Modulus (GPa) = 13.60524 34.48276 24.04400
# Shear Modulus (GPa) = 16.04852 26.07710 21.06281
#
# Velocity S-wave (km/s) = 2.81194 3.58442 3.22142
# Velocity P-wave (km/s) = 4.15282 5.84125 5.06785
#
# Compressibility (1/GPa) = 0.07350111
#
# Stress axis : x y z
#
# Youngs Moduli (GPa) = 14.78060 47.52894 84.38666
#
# Poissons Ratio (x) = -0.24484 1.09068
# Poissons Ratio (y) = -0.07614 0.48516
# Poissons Ratio (z) = 0.19104 0.27325
#
# Static dielectric constant tensor:
#      x y z
#    x 1.681540 0.000000 0.030310 
#    y 0.000000 1.256540 0.000000 
#    z 0.030310 0.000000 1.853780 
# 
# From -- ./inp_files/29538.got.cif
#   From: 2010.05.17/outbox.cif.g08.bks.cpg/sg14_15_cif.got.tgz:29538.got - 2010.06.03 17:49:19.
