data_PCOD9239905
_publ_section_title
;
Structure prediction by ZEFSAII (Michael W. Deem and Ramdas Pophale) SiO2 
 PCOD9239905
Probable space group: P 21/C
;
_chemical_formula_sum "Si O2"
_cell_formula_units_Z 32
_cell_length_a 10.509700
_cell_length_b 19.173133
_cell_length_c 11.195931
_cell_angle_alpha 90.000000
_cell_angle_beta 41.224005
_cell_angle_gamma 90.000000
_cell_volume 1486.729946
_symmetry_space_group_name_H-M "P 21/C"
_symmetry_group_IT_number 14
_symmetry_cell_setting 'monoclinic'
loop_
_space_group_symop_operation_xyz
x,y,z
-x,1/2+y,1/2-z
-x,-y,-z
x,1/2-y,1/2+z
loop_
_atom_site_type_symbol
_atom_site_label
_atom_site_fract_x
_atom_site_fract_y
_atom_site_fract_z
Si Si1 0.904032 0.939345 0.492459
Si Si2 0.415213 0.716992 0.257799
Si Si3 0.147797 0.290677 0.288018
Si Si4 0.111486 0.284950 0.047615
Si Si5 0.773396 0.949397 0.331134
Si Si6 0.649823 0.059056 0.244731
Si Si7 0.560504 0.213341 0.000203
Si Si8 0.483838 0.554362 0.406103
O O1 0.968141 0.858838 0.444583
O O2 0.906887 0.959954 0.351602
O O3 0.689919 0.935874 0.697711
O O4 0.000000 0.000000 0.500000
O O5 0.651744 0.708577 0.101847
O O6 0.325122 0.641291 0.293843
O O7 0.361485 0.742555 0.428262
O O8 0.361982 0.764107 0.182948
O O9 0.067190 0.270748 0.475554
O O10 0.189610 0.373461 0.251747
O O11 0.342438 0.243724 0.148675
O O12 0.047749 0.274058 0.230342
O O13 0.558139 0.946380 0.541420
O O14 0.786405 0.012828 0.230336
O O15 0.646133 0.029382 0.112904
O O16 0.572868 0.130341 0.005988
O O17 0.500000 0.500000 0.500000
#
# Coordination Sequence:
#
# PCOD9239905 Si02
#       8
#     4   4   4   4   4   4   4   4
#     4  10  18  33  50  70  98 127 166 201 245 300
#     4   9  14  26  42  66 102 123 153 209 249 285
#     4   9  14  25  43  66 103 111 159 209 249 274
#     4   9  15  27  44  73  94 117 159 211 253 275
#     4   9  16  27  44  74  91 129 163 199 239 289
#     4   9  15  27  43  66 106 123 155 199 243 285
#     4   9  15  26  41  66 100 120 157 201 256 276
#     4  10  19  31  45  75 102 127 158 207 246 289
#
# _framework density 21.523748000000001
#
# number of rings (size 3 to 8) (size 9 to 14) (size 15 to 20)
#    0.000    2.750    7.500    0.000    0.000    3.000 
#    2.250    0.000    0.000    0.750    6.500    0.000 
#    0.000    0.000    0.000    0.000    0.000    0.000 
#
# Total GULP energy -178291.177473 kJ/mol
# GULP energy per Si atom -5571.599296 kJ/mol
# Density = 2.147476 g / cm^3
# Si number density = 21.523748 Si / 1000 Ang^3
#
#
#
# Elastic Constant Matrix: (Units=GPa)
#
#
# Indices 1 2 3 4 5 6 
#
# 1 45.6334 56.1759 69.0211 0.0000 33.9934 0.0000
# 2 56.1759 93.4752 48.1441 0.0000 52.0131 0.0000
# 3 69.0211 48.1441 89.0264 0.0000 43.8976 0.0000
# 4 0.0000 0.0000 0.0000 36.7767 0.0000 22.0997
# 5 33.9934 52.0131 43.8976 0.0000 64.7945 0.0000
# 6 0.0000 0.0000 0.0000 22.0997 0.0000 34.2091
#
#
#
# Elastic Compliance Matrix: (Units=1/GPa)
#
#
# Indices 1 2 3 4 5 6 
#
# 1 -0.065951 0.025452 0.045621 0.000000 -0.016739 0.000000
# 2 0.025452 0.010622 -0.022056 0.000000 -0.006937 0.000000
# 3 0.045621 -0.022056 -0.013721 0.000000 0.003067 0.000000
# 4 0.000000 0.000000 0.000000 0.044445 0.000000 -0.028712
# 5 -0.016739 -0.006937 0.003067 0.000000 0.027705 0.000000
# 6 0.000000 0.000000 0.000000 -0.028712 0.000000 0.047781
#
#
# Mechanical properties :
#
#
# Convention : Reuss Voigt Hill
#
# Bulk Modulus (GPa) = 34.50422 63.86856 49.18639
# Shear Modulus (GPa) = -133.36271 30.80899 -51.27686
#
# Velocity S-wave (km/s) = -7.88005 3.78748 -4.88622
# Velocity P-wave (km/s) = 8.16873 6.99033 2.98860
#
# Compressibility (1/GPa) = 0.02898196
#
# Stress axis : x y z
#
# Youngs Moduli (GPa) = -15.16270 94.14374 -72.87920
#
# Poissons Ratio (x) = -2.39614 3.32480
# Poissons Ratio (y) = 0.38592 -1.60746
# Poissons Ratio (z) = 0.69173 2.07648
#
# Static dielectric constant tensor:
#      x y z
#    x 1.844300 0.000000 0.002420 
#    y 0.000000 1.727070 0.000000 
#    z 0.002420 0.000000 1.712370 
# 
# From -- ./inp_files/29808.got.cif
#   From: 2010.05.17/outbox.cif.g08.bks.cpg/sg14_15_cif.got.tgz:29808.got - 2010.06.03 17:49:19.
