data_PCOD9239827
_publ_section_title
;
Structure prediction by ZEFSAII (Michael W. Deem and Ramdas Pophale) SiO2 
 PCOD9239827
Probable space group: P 21/C
;
_chemical_formula_sum "Si O2"
_cell_formula_units_Z 24
_cell_length_a 25.301709
_cell_length_b 4.994977
_cell_length_c 19.554426
_cell_angle_alpha 90.000000
_cell_angle_beta 149.112800
_cell_angle_gamma 90.000000
_cell_volume 1268.649357
_symmetry_space_group_name_H-M "P 21/C"
_symmetry_group_IT_number 14
_symmetry_cell_setting 'monoclinic'
loop_
_space_group_symop_operation_xyz
x,y,z
-x,1/2+y,1/2-z
-x,-y,-z
x,1/2-y,1/2+z
loop_
_atom_site_type_symbol
_atom_site_label
_atom_site_fract_x
_atom_site_fract_y
_atom_site_fract_z
Si Si1 0.930571 0.207547 0.500623
Si Si2 0.063809 0.833328 0.836520
Si Si3 0.861597 0.790334 0.844827
Si Si4 0.316024 0.164253 0.949805
Si Si5 0.523253 0.283156 0.231873
Si Si6 0.267889 0.664931 0.986670
O O1 0.910959 0.285909 0.556314
O O2 0.873876 0.410155 0.385849
O O3 0.051814 0.239441 0.617459
O O4 0.894655 0.910324 0.442001
O O5 0.158092 0.741068 0.894316
O O6 0.968752 0.637646 0.712908
O O7 0.751283 0.724098 0.691216
O O8 0.276680 0.369804 0.965056
O O9 0.295671 0.868398 0.955862
O O10 0.438364 0.219469 0.080517
O O11 0.511633 0.587525 0.244184
O O12 0.642838 0.212041 0.357422
#
# Coordination Sequence:
#
# PCOD9239827 Si02
#       6
#     4   4   4   4   4   4
#     4  10  21  33  47  70  96 129 163 198 243 282
#     4  12  23  35  52  74 102 133 164 197 245 302
#     4  10  19  33  50  67  96 128 164 204 234 285
#     4  10  18  32  54  77  97 128 167 201 248 289
#     4   8  16  29  48  74  99 123 158 204 247 283
#     4  10  19  32  51  76 104 127 158 208 249 287
#
# _framework density 18.917757000000002
#
# number of rings (size 3 to 8) (size 9 to 14) (size 15 to 20)
#    0.000    2.000    0.000    5.000    0.000    2.667 
#    0.000    0.000    0.000    2.000    0.000    0.000 
#    0.000    0.000    0.000    0.000    0.000    0.000 
#
# Total GULP energy -133951.088736 kJ/mol
# GULP energy per Si atom -5581.295364 kJ/mol
# Density = 1.887470 g / cm^3
# Si number density = 18.917757 Si / 1000 Ang^3
#
#
#
# Elastic Constant Matrix: (Units=GPa)
#
#
# Indices 1 2 3 4 5 6 
#
# 1 13.0932 -8.7176 2.7680 0.0000 0.2829 0.0000
# 2 -8.7176 59.9787 -13.6588 0.0000 1.1321 0.0000
# 3 2.7680 -13.6588 68.3872 0.0000 5.4627 0.0000
# 4 0.0000 0.0000 0.0000 20.2187 0.0000 4.2745
# 5 0.2829 1.1321 5.4627 0.0000 17.4339 0.0000
# 6 0.0000 0.0000 0.0000 4.2745 0.0000 10.4557
#
#
#
# Elastic Compliance Matrix: (Units=1/GPa)
#
#
# Indices 1 2 3 4 5 6 
#
# 1 0.084686 0.012151 -0.000849 0.000000 -0.001897 0.000000
# 2 0.012151 0.019300 0.003568 0.000000 -0.002568 0.000000
# 3 -0.000849 0.003568 0.015782 0.000000 -0.005163 0.000000
# 4 0.000000 0.000000 0.000000 0.054138 0.000000 -0.022132
# 5 -0.001897 -0.002568 -0.005163 0.000000 0.059175 0.000000
# 6 0.000000 0.000000 0.000000 -0.022132 0.000000 0.104689
#
#
# Mechanical properties :
#
#
# Convention : Reuss Voigt Hill
#
# Bulk Modulus (GPa) = 6.68863 11.36026 9.02444
# Shear Modulus (GPa) = 13.97170 20.35950 17.16560
#
# Velocity S-wave (km/s) = 2.72057 3.28412 3.01554
# Velocity P-wave (km/s) = 3.66224 4.51650 4.11162
#
# Compressibility (1/GPa) = 0.14950744
#
# Stress axis : x y z
#
# Youngs Moduli (GPa) = 11.80832 51.81431 63.36310
#
# Poissons Ratio (x) = -0.62960 0.05381
# Poissons Ratio (y) = -0.14348 -0.22608
# Poissons Ratio (z) = 0.01003 -0.18488
#
# Static dielectric constant tensor:
#      x y z
#    x 1.618090 0.000000 0.019180 
#    y 0.000000 1.640980 0.000000 
#    z 0.019180 0.000000 1.702910 
# 
# From -- ./inp_files/51693.got.cif
#   From: 2010.05.17/outbox.cif.g08.bks.cpg/sg14_26_cif.got.tgz:51693.got - 2010.06.03 17:49:19.
