data_PCOD9239610
_publ_section_title
;
Structure prediction by ZEFSAII (Michael W. Deem and Ramdas Pophale) SiO2 
 PCOD9239610
Probable space group: P 21/C
;
_chemical_formula_sum "Si O2"
_cell_formula_units_Z 28
_cell_length_a 5.982276
_cell_length_b 29.269123
_cell_length_c 7.505153
_cell_angle_alpha 90.000000
_cell_angle_beta 66.298665
_cell_angle_gamma 90.000000
_cell_volume 1203.280106
_symmetry_space_group_name_H-M "P 21/C"
_symmetry_group_IT_number 14
_symmetry_cell_setting 'monoclinic'
loop_
_space_group_symop_operation_xyz
x,y,z
-x,1/2+y,1/2-z
-x,-y,-z
x,1/2-y,1/2+z
loop_
_atom_site_type_symbol
_atom_site_label
_atom_site_fract_x
_atom_site_fract_y
_atom_site_fract_z
Si Si1 0.015397 0.660770 0.611211
Si Si2 0.437482 0.407088 0.264058
Si Si3 0.753880 0.329171 0.077454
Si Si4 0.563237 0.103603 0.144183
Si Si5 0.304465 0.503708 0.390095
Si Si6 0.250489 0.318190 0.795009
Si Si7 0.647113 0.727840 0.602788
O O1 0.097195 0.663257 0.787560
O O2 0.225438 0.641349 0.417736
O O3 0.806658 0.622597 0.664764
O O4 0.904988 0.709398 0.594244
O O5 0.624017 0.377814 0.084826
O O6 0.522407 0.403646 0.443982
O O7 0.384718 0.460106 0.246885
O O8 0.559126 0.291367 0.199887
O O9 0.959509 0.315046 0.873814
O O10 0.638674 0.054712 0.196005
O O11 0.328649 0.129607 0.295961
O O12 0.500000 0.500000 0.500000
O O13 0.000000 0.500000 0.500000
O O14 0.343405 0.282119 0.910533
O O15 0.372349 0.298635 0.576510
#
# Coordination Sequence:
#
# PCOD9239610 Si02
#       7
#     4   4   4   4   4   4   4
#     4  10  17  40  63  85 127 166 211 269 320 386
#     4   9  18  38  63  95 127 169 213 269 326 397
#     4  10  23  41  61  91 127 169 214 274 329 395
#     4  10  20  37  62  95 132 165 220 267 328 402
#     4  10  19  33  67 105 133 179 225 271 341 411
#     4  12  24  43  62  91 128 170 221 275 338 395
#     4  11  25  41  61  89 124 168 220 268 333 400
#
# _framework density 23.269724
#
# number of rings (size 3 to 8) (size 9 to 14) (size 15 to 20)
#    0.000    1.714    5.714    0.857    2.000    1.143 
#    5.143    0.714    0.000    0.857    0.000    0.000 
#    0.000    0.000    0.000    0.000    0.000    0.000 
#
# Total GULP energy -156207.477669 kJ/mol
# GULP energy per Si atom -5578.838488 kJ/mol
# Density = 2.321676 g / cm^3
# Si number density = 23.269724 Si / 1000 Ang^3
#
#
#
# Elastic Constant Matrix: (Units=GPa)
#
#
# Indices 1 2 3 4 5 6 
#
# 1 81.2296 22.1858 24.4340 0.0000 -10.6887 0.0000
# 2 22.1858 158.3237 42.5646 0.0000 -29.2574 0.0000
# 3 24.4340 42.5646 65.3350 0.0000 -21.3485 0.0000
# 4 0.0000 0.0000 0.0000 17.5266 0.0000 -0.4715
# 5 -10.6887 -29.2574 -21.3485 0.0000 42.6861 0.0000
# 6 0.0000 0.0000 0.0000 -0.4715 0.0000 29.7616
#
#
#
# Elastic Compliance Matrix: (Units=1/GPa)
#
#
# Indices 1 2 3 4 5 6 
#
# 1 0.013952 -0.000574 -0.004579 0.000000 0.000810 0.000000
# 2 -0.000574 0.008088 -0.003933 0.000000 0.003433 0.000000
# 3 -0.004579 -0.003933 0.021904 0.000000 0.007113 0.000000
# 4 0.000000 0.000000 0.000000 0.057081 0.000000 0.000904
# 5 0.000810 0.003433 0.007113 0.000000 0.029540 0.000000
# 6 0.000000 0.000000 0.000000 0.000904 0.000000 0.033615
#
#
# Mechanical properties :
#
#
# Convention : Reuss Voigt Hill
#
# Bulk Modulus (GPa) = 38.80131 53.69524 46.24827
# Shear Modulus (GPa) = 26.18589 32.37511 29.28050
#
# Velocity S-wave (km/s) = 3.35822 3.73406 3.55111
# Velocity P-wave (km/s) = 5.63450 6.45880 6.06068
#
# Compressibility (1/GPa) = 0.02577232
#
# Stress axis : x y z
#
# Youngs Moduli (GPa) = 71.67674 123.63364 45.65280
#
# Poissons Ratio (x) = 0.07101 0.20903
# Poissons Ratio (y) = 0.04117 0.17955
# Poissons Ratio (z) = 0.32819 0.48623
#
# Static dielectric constant tensor:
#      x y z
#    x 1.992810 0.000000 0.002100 
#    y 0.000000 1.862690 0.000000 
#    z 0.002100 0.000000 1.916500 
# 
# From -- ./inp_files/6749.got.cif
#   From: 2010.05.17/outbox.cif.g08.bks.cpg/sg14_4_cif.got.tgz:6749.got - 2010.06.03 17:49:19.
