data_PCOD9239341
_publ_section_title
;
Structure prediction by ZEFSAII (Michael W. Deem and Ramdas Pophale) SiO2 
 PCOD9239341
Probable space group: P 21/C
;
_chemical_formula_sum "Si O2"
_cell_formula_units_Z 32
_cell_length_a 20.895317
_cell_length_b 5.080196
_cell_length_c 19.429877
_cell_angle_alpha 90.000000
_cell_angle_beta 54.407515
_cell_angle_gamma 90.000000
_cell_volume 1677.199124
_symmetry_space_group_name_H-M "P 21/C"
_symmetry_group_IT_number 14
_symmetry_cell_setting 'monoclinic'
loop_
_space_group_symop_operation_xyz
x,y,z
-x,1/2+y,1/2-z
-x,-y,-z
x,1/2-y,1/2+z
loop_
_atom_site_type_symbol
_atom_site_label
_atom_site_fract_x
_atom_site_fract_y
_atom_site_fract_z
Si Si1 0.653999 0.239990 0.618435
Si Si2 0.427478 0.769026 0.077907
Si Si3 0.398569 0.265765 0.272719
Si Si4 0.165524 0.273737 0.331316
Si Si5 0.994498 0.250217 0.953696
Si Si6 0.462744 0.601783 0.912012
Si Si7 0.674408 0.718904 0.824137
Si Si8 0.176675 0.773486 0.425030
O O1 0.618775 0.529278 0.655595
O O2 0.624278 0.122406 0.564594
O O3 0.746815 0.246799 0.575078
O O4 0.618571 0.031198 0.695194
O O5 0.494522 0.666661 0.089356
O O6 0.367476 0.518973 0.110443
O O7 0.373677 0.014803 0.131166
O O8 0.465382 0.782499 0.978415
O O9 0.483178 0.299994 0.184832
O O10 0.340667 0.343533 0.246980
O O11 0.232045 0.256933 0.231061
O O12 0.174392 0.541573 0.369634
O O13 0.075606 0.253085 0.360449
O O14 0.178982 0.039940 0.378355
O O15 0.905589 0.257576 0.981327
O O16 0.000000 0.500000 0.000000
O O17 0.000000 0.000000 0.000000
#
# Coordination Sequence:
#
# PCOD9239341 Si02
#       8
#     4   4   4   4   4   4   4   4
#     4  12  21  34  53  77 102 135 164 212 262 315
#     4  10  24  38  53  71  97 140 181 220 250 292
#     4  11  22  34  52  76 101 130 167 209 266 311
#     4  10  17  30  49  75 105 132 162 203 250 306
#     4   8  16  26  44  70 105 135 156 190 245 314
#     4  10  24  39  52  71 102 135 180 219 258 301
#     4  11  19  35  56  75 101 133 174 216 255 297
#     4  10  17  30  47  76 106 133 161 196 258 316
#
# _framework density 19.079429000000001
#
# number of rings (size 3 to 8) (size 9 to 14) (size 15 to 20)
#    0.000    1.750    2.500    3.000    0.000    8.500 
#    0.000    0.000    0.000    0.000    0.000    1.750 
#    0.000    0.000    0.000    0.000    0.000    0.000 
#
# Total GULP energy -178398.321762 kJ/mol
# GULP energy per Si atom -5574.947555 kJ/mol
# Density = 1.903600 g / cm^3
# Si number density = 19.079429 Si / 1000 Ang^3
#
#
#
# Elastic Constant Matrix: (Units=GPa)
#
#
# Indices 1 2 3 4 5 6 
#
# 1 112.2948 12.8465 51.9897 0.0000 -33.9912 0.0000
# 2 12.8465 103.4008 16.4862 0.0000 -13.5980 0.0000
# 3 51.9897 16.4862 65.7337 0.0000 -32.2541 0.0000
# 4 0.0000 0.0000 0.0000 22.7464 0.0000 -3.4057
# 5 -33.9912 -13.5980 -32.2541 0.0000 36.6809 0.0000
# 6 0.0000 0.0000 0.0000 -3.4057 0.0000 14.0336
#
#
#
# Elastic Compliance Matrix: (Units=1/GPa)
#
#
# Indices 1 2 3 4 5 6 
#
# 1 0.014778 0.000368 -0.008784 0.000000 0.006107 0.000000
# 2 0.000368 0.010233 -0.001458 0.000000 0.002852 0.000000
# 3 -0.008784 -0.001458 0.032129 0.000000 0.019571 0.000000
# 4 0.000000 0.000000 0.000000 0.045621 0.000000 0.011071
# 5 0.006107 0.002852 0.019571 0.000000 0.051188 0.000000
# 6 0.000000 0.000000 0.000000 0.011071 0.000000 0.073945
#
#
# Mechanical properties :
#
#
# Convention : Reuss Voigt Hill
#
# Bulk Modulus (GPa) = 26.74333 49.34157 38.04245
# Shear Modulus (GPa) = 19.22291 28.03263 23.62777
#
# Velocity S-wave (km/s) = 3.17759 3.83725 3.52289
# Velocity P-wave (km/s) = 5.24500 6.74907 6.04400
#
# Compressibility (1/GPa) = 0.03739250
#
# Stress axis : x y z
#
# Youngs Moduli (GPa) = 67.66591 97.72353 31.12439
#
# Poissons Ratio (x) = -0.03592 0.27340
# Poissons Ratio (y) = -0.02487 0.04537
# Poissons Ratio (z) = 0.59438 0.14244
#
# Static dielectric constant tensor:
#      x y z
#    x 1.738100 0.000000 -0.078340 
#    y 0.000000 1.706940 0.000000 
#    z -0.078340 0.000000 1.718300 
# 
# From -- ./inp_files/70007.got.cif
#   From: 2010.05.17/outbox.cif.g08.bks.cpg/sg14_36_cif.got.tgz:70007.got - 2010.06.03 17:49:19.
