data_PCOD9239451
_publ_section_title
;
Structure prediction by ZEFSAII (Michael W. Deem and Ramdas Pophale) SiO2 
 PCOD9239451
Probable space group: P 21/C
;
_chemical_formula_sum "Si O2"
_cell_formula_units_Z 32
_cell_length_a 11.985113
_cell_length_b 10.473477
_cell_length_c 16.904091
_cell_angle_alpha 90.000000
_cell_angle_beta 33.381704
_cell_angle_gamma 90.000000
_cell_volume 1167.499149
_symmetry_space_group_name_H-M "P 21/C"
_symmetry_group_IT_number 14
_symmetry_cell_setting 'monoclinic'
loop_
_space_group_symop_operation_xyz
x,y,z
-x,1/2+y,1/2-z
-x,-y,-z
x,1/2-y,1/2+z
loop_
_atom_site_type_symbol
_atom_site_label
_atom_site_fract_x
_atom_site_fract_y
_atom_site_fract_z
Si Si1 0.783352 0.656669 0.080202
Si Si2 0.338014 0.885622 0.095865
Si Si3 0.981240 0.589643 0.220701
Si Si4 0.222670 0.029122 0.706365
Si Si5 0.772618 0.364761 0.510073
Si Si6 0.769825 0.557541 0.631819
Si Si7 0.810233 0.126913 0.573894
Si Si8 0.634984 0.725395 0.994944
O O1 0.711843 0.512378 0.144596
O O2 0.713489 0.683339 0.033047
O O3 0.022509 0.644356 0.957808
O O4 0.739377 0.790327 0.151451
O O5 0.120367 0.950962 0.231919
O O6 0.418584 0.794268 0.116504
O O7 0.334620 0.830984 0.008599
O O8 0.500000 0.000000 0.000000
O O9 0.803177 0.680258 0.356778
O O10 0.080175 0.619124 0.078040
O O11 0.136165 0.581995 0.202122
O O12 0.710300 0.235742 0.115526
O O13 0.320328 0.003160 0.733587
O O14 0.365732 0.110862 0.566478
O O15 0.014799 0.113232 0.849353
O O16 0.707924 0.502183 0.583490
O O17 0.000000 0.500000 0.500000
#
# Coordination Sequence:
#
# PCOD9239451 Si02
#       8
#     4   4   4   4   4   4   4   4
#     4  11  21  33  55  87 122 157 190 251 318 355
#     4   9  20  35  58  86 118 163 202 247 299 374
#     4  10  19  35  56  88 117 153 206 255 299 360
#     4  10  18  31  57  87 113 150 204 257 287 354
#     4  10  19  36  58  89 113 159 205 253 295 358
#     4  10  17  33  55  85 116 151 201 250 300 348
#     4  11  21  34  56  90 121 153 195 260 311 350
#     4  11  19  34  58  88 120 161 203 244 305 363
#
# _framework density 27.409013999999999
#
# number of rings (size 3 to 8) (size 9 to 14) (size 15 to 20)
#    0.000    1.750    5.000    3.000    0.000    0.000 
#    0.000    0.625    0.000   16.500    0.000    0.000 
#    0.000    0.000    0.000    0.000    0.000    0.000 
#
# Total GULP energy -178905.756687 kJ/mol
# GULP energy per Si atom -5590.804896 kJ/mol
# Density = 2.734663 g / cm^3
# Si number density = 27.409014 Si / 1000 Ang^3
#
#
#
# Elastic Constant Matrix: (Units=GPa)
#
#
# Indices 1 2 3 4 5 6 
#
# 1 158.9022 37.6646 23.1389 0.0000 25.3530 0.0000
# 2 37.6646 122.9863 10.7657 0.0000 -1.6570 0.0000
# 3 23.1389 10.7657 72.5859 0.0000 -1.1316 0.0000
# 4 0.0000 0.0000 0.0000 16.6797 0.0000 11.3271
# 5 25.3530 -1.6570 -1.1316 0.0000 36.8107 0.0000
# 6 0.0000 0.0000 0.0000 11.3271 0.0000 58.3172
#
#
#
# Elastic Compliance Matrix: (Units=1/GPa)
#
#
# Indices 1 2 3 4 5 6 
#
# 1 0.008110 -0.002358 -0.002326 0.000000 -0.005764 0.000000
# 2 -0.002358 0.008928 -0.000541 0.000000 0.002009 0.000000
# 3 -0.002326 -0.000541 0.014630 0.000000 0.002027 0.000000
# 4 0.000000 0.000000 0.000000 0.069063 0.000000 -0.013414
# 5 -0.005764 0.002009 0.002027 0.000000 0.031288 0.000000
# 6 0.000000 0.000000 0.000000 -0.013414 0.000000 0.019753
#
#
# Mechanical properties :
#
#
# Convention : Reuss Voigt Hill
#
# Bulk Modulus (GPa) = 47.12821 55.29029 51.20925
# Shear Modulus (GPa) = 29.53441 41.22185 35.37813
#
# Velocity S-wave (km/s) = 3.28616 3.88229 3.59660
# Velocity P-wave (km/s) = 5.62407 6.34920 5.99760
#
# Compressibility (1/GPa) = 0.02121871
#
# Stress axis : x y z
#
# Youngs Moduli (GPa) = 123.30036 112.01315 68.35280
#
# Poissons Ratio (x) = 0.26411 0.15896
# Poissons Ratio (y) = 0.29072 0.03699
# Poissons Ratio (z) = 0.28674 0.06062
#
# Static dielectric constant tensor:
#      x y z
#    x 2.110030 0.000000 -0.050770 
#    y 0.000000 2.287070 0.000000 
#    z -0.050770 0.000000 2.180060 
# 
# From -- ./inp_files/67169.got.cif
#   From: 2010.05.17/outbox.cif.g08.bks.cpg/sg14_34_cif.got.tgz:67169.got - 2010.06.03 17:49:19.
