data_PCOD9239863
_publ_section_title
;
Structure prediction by ZEFSAII (Michael W. Deem and Ramdas Pophale) SiO2 
 PCOD9239863
Probable space group: P 21/C
;
_chemical_formula_sum "Si O2"
_cell_formula_units_Z 24
_cell_length_a 10.510715
_cell_length_b 20.466410
_cell_length_c 5.363546
_cell_angle_alpha 90.000000
_cell_angle_beta 124.274111
_cell_angle_gamma 90.000000
_cell_volume 953.435818
_symmetry_space_group_name_H-M "P 21/C"
_symmetry_group_IT_number 14
_symmetry_cell_setting 'monoclinic'
loop_
_space_group_symop_operation_xyz
x,y,z
-x,1/2+y,1/2-z
-x,-y,-z
x,1/2-y,1/2+z
loop_
_atom_site_type_symbol
_atom_site_label
_atom_site_fract_x
_atom_site_fract_y
_atom_site_fract_z
Si Si1 0.450779 0.079681 0.219266
Si Si2 0.986630 0.899373 0.747851
Si Si3 0.569262 0.215921 0.182036
Si Si4 0.811644 0.764822 0.550546
Si Si5 0.905831 0.157739 0.629617
Si Si6 0.700457 0.974496 0.450355
O O1 0.475635 0.154070 0.180251
O O2 0.370521 0.067191 0.396408
O O3 0.616554 0.043582 0.398606
O O4 0.352669 0.048743 0.883455
O O5 0.865890 0.838767 0.602269
O O6 0.883285 0.963592 0.662045
O O7 0.072410 0.890979 0.580576
O O8 0.083611 0.880744 0.098210
O O9 0.553058 0.273466 0.368116
O O10 0.748761 0.195559 0.419641
O O11 0.724047 0.747211 0.206227
O O12 0.956884 0.713401 0.717485
#
# Coordination Sequence:
#
# PCOD9239863 Si02
#       6
#     4   4   4   4   4   4
#     4  10  23  42  63  87 116 166 207 247 310 356
#     4  10  18  32  56  84 111 148 194 238 289 353
#     4  12  23  40  63  88 124 160 202 247 294 371
#     4   8  14  25  41  68 101 135 170 205 269 332
#     4  10  19  33  54  85 120 154 187 234 304 358
#     4  10  21  42  65  84 120 159 206 257 302 362
#
# _framework density 25.172118999999999
#
# number of rings (size 3 to 8) (size 9 to 14) (size 15 to 20)
#    0.000    2.000    0.000    6.000    0.000    0.000 
#    0.000   16.667    0.000    0.000    0.000    0.000 
#    0.000    0.000    0.000    0.000    0.000    0.000 
#
# Total GULP energy -134355.214587 kJ/mol
# GULP energy per Si atom -5598.133941 kJ/mol
# Density = 2.511483 g / cm^3
# Si number density = 25.172119 Si / 1000 Ang^3
#
#
#
# Elastic Constant Matrix: (Units=GPa)
#
#
# Indices 1 2 3 4 5 6 
#
# 1 57.1658 2.1351 27.0181 0.0000 -20.5459 0.0000
# 2 2.1351 64.1875 6.7313 0.0000 -3.4425 0.0000
# 3 27.0181 6.7313 149.0536 0.0000 -28.3393 0.0000
# 4 0.0000 0.0000 0.0000 26.6287 0.0000 -1.5474
# 5 -20.5459 -3.4425 -28.3393 0.0000 45.2670 0.0000
# 6 0.0000 0.0000 0.0000 -1.5474 0.0000 32.7061
#
#
#
# Elastic Compliance Matrix: (Units=1/GPa)
#
#
# Indices 1 2 3 4 5 6 
#
# 1 0.021592 -0.000027 -0.002327 0.000000 0.008341 0.000000
# 2 -0.000027 0.015682 -0.000544 0.000000 0.000840 0.000000
# 3 -0.002327 -0.000544 0.007885 0.000000 0.003839 0.000000
# 4 0.000000 0.000000 0.000000 0.037657 0.000000 0.001782
# 5 0.008341 0.000840 0.003839 0.000000 0.028345 0.000000
# 6 0.000000 0.000000 0.000000 0.001782 0.000000 0.030660
#
#
# Mechanical properties :
#
#
# Convention : Reuss Voigt Hill
#
# Bulk Modulus (GPa) = 25.40333 38.01953 31.71143
# Shear Modulus (GPa) = 31.10688 36.55519 33.83104
#
# Velocity S-wave (km/s) = 3.51916 3.81492 3.67002
# Velocity P-wave (km/s) = 5.16008 5.87720 5.53027
#
# Compressibility (1/GPa) = 0.03936492
#
# Stress axis : x y z
#
# Youngs Moduli (GPa) = 46.31431 63.76610 126.81965
#
# Poissons Ratio (x) = 0.00171 0.29506
# Poissons Ratio (y) = 0.00124 0.06894
# Poissons Ratio (z) = 0.10776 0.03466
#
# Static dielectric constant tensor:
#      x y z
#    x 2.019460 0.000000 0.038140 
#    y 0.000000 1.948600 0.000000 
#    z 0.038140 0.000000 2.008930 
# 
# From -- ./inp_files/2903.got.cif
#   From: 2010.05.17/outbox.cif.g08.bks.cpg/sg14_2_cif.got.tgz:2903.got - 2010.06.03 17:49:19.
