data_PCOD9239896
_publ_section_title
;
Structure prediction by ZEFSAII (Michael W. Deem and Ramdas Pophale) SiO2 
 PCOD9239896
Probable space group: P 21/C
;
_chemical_formula_sum "Si O2"
_cell_formula_units_Z 30
_cell_length_a 7.165920
_cell_length_b 19.907294
_cell_length_c 8.997386
_cell_angle_alpha 90.000000
_cell_angle_beta 77.754174
_cell_angle_gamma 90.000000
_cell_volume 1254.309436
_symmetry_space_group_name_H-M "P 21/C"
_symmetry_group_IT_number 14
_symmetry_cell_setting 'monoclinic'
loop_
_space_group_symop_operation_xyz
x,y,z
-x,1/2+y,1/2-z
-x,-y,-z
x,1/2-y,1/2+z
loop_
_atom_site_type_symbol
_atom_site_label
_atom_site_fract_x
_atom_site_fract_y
_atom_site_fract_z
Si Si1 0.628989 0.379559 0.927830
Si Si2 0.981523 0.108611 0.924775
Si Si3 0.840890 0.017779 0.197628
Si Si4 0.588419 0.816869 0.780881
Si Si5 0.787198 0.732740 0.508799
Si Si6 0.500000 0.000000 0.500000
Si Si7 0.050547 0.857920 0.398344
Si Si8 0.188568 0.449406 0.847942
O O1 0.688461 0.455361 0.845468
O O2 0.592905 0.332112 0.793470
O O3 0.448425 0.414811 0.032271
O O4 0.773248 0.347498 0.017946
O O5 0.895403 0.128040 0.780326
O O6 0.156979 0.057380 0.860345
O O7 0.066415 0.172236 0.994194
O O8 0.841899 0.067879 0.057989
O O9 0.042620 0.025705 0.246994
O O10 0.708803 0.760458 0.675765
O O11 0.603519 0.791797 0.945370
O O12 0.701769 0.886820 0.745461
O O13 0.907314 0.794966 0.423246
O O14 0.660628 0.001974 0.615312
O O15 0.943790 0.920130 0.497225
#
# Coordination Sequence:
#
# PCOD9239896 Si02
#       8
#     4   4   4   4   4   2   4   4
#     4  10  22  41  62  93 123 162 203 258 310 370
#     4  11  21  36  65  92 118 157 208 252 309 358
#     4  10  21  38  63  91 124 155 206 260 308 366
#     4  10  21  40  62  85 122 160 199 250 314 360
#     4  11  21  41  62  87 118 167 204 251 304 375
#     4  10  18  32  62  88 124 154 198 248 306 368
#     4  10  21  38  65  89 117 159 214 250 296 371
#     4   9  18  35  62  87 118 158 200 249 305 363
#
# _framework density 23.917541
#
# number of rings (size 3 to 8) (size 9 to 14) (size 15 to 20)
#    0.000    1.867    2.667    1.600    0.000    2.133 
#    4.800    0.667    5.867    0.000    0.000    0.000 
#    0.000    0.000    0.000    0.000    0.000    0.000 
#
# Total GULP energy -167208.426565 kJ/mol
# GULP energy per Si atom -5573.614219 kJ/mol
# Density = 2.386310 g / cm^3
# Si number density = 23.917541 Si / 1000 Ang^3
#
#
#
# Elastic Constant Matrix: (Units=GPa)
#
#
# Indices 1 2 3 4 5 6 
#
# 1 63.6447 0.3734 29.5621 0.0000 32.3047 0.0000
# 2 0.3734 89.4071 28.4447 0.0000 10.7989 0.0000
# 3 29.5621 28.4447 109.8756 0.0000 18.9698 0.0000
# 4 0.0000 0.0000 0.0000 -0.2924 0.0000 23.8171
# 5 32.3047 10.7989 18.9698 0.0000 48.3357 0.0000
# 6 0.0000 0.0000 0.0000 23.8171 0.0000 20.9874
#
#
#
# Elastic Compliance Matrix: (Units=1/GPa)
#
#
# Indices 1 2 3 4 5 6 
#
# 1 0.026436 0.003524 -0.005190 0.000000 -0.016419 0.000000
# 2 0.003524 0.012774 -0.003600 0.000000 -0.003796 0.000000
# 3 -0.005190 -0.003600 0.011469 0.000000 -0.000228 0.000000
# 4 0.000000 0.000000 0.000000 -0.036602 0.000000 0.041537
# 5 -0.016419 -0.003796 -0.000228 0.000000 0.032600 0.000000
# 6 0.000000 0.000000 0.000000 0.041537 0.000000 0.000510
#
#
# Mechanical properties :
#
#
# Convention : Reuss Voigt Hill
#
# Bulk Modulus (GPa) = 24.90845 42.18751 33.54798
# Shear Modulus (GPa) = 70.32349 27.44263 48.88306
#
# Velocity S-wave (km/s) = 5.42829 3.39098 4.52576
# Velocity P-wave (km/s) = 7.05162 5.74532 6.43172
#
# Compressibility (1/GPa) = 0.04014702
#
# Stress axis : x y z
#
# Youngs Moduli (GPa) = 37.82701 78.28515 87.19249
#
# Poissons Ratio (x) = -0.27588 0.45256
# Poissons Ratio (y) = -0.13330 0.31386
# Poissons Ratio (z) = 0.19633 0.28179
#
# Static dielectric constant tensor:
#      x y z
#    x 2.069890 0.000000 -0.019440 
#    y 0.000000 1.990910 0.000000 
#    z -0.019440 0.000000 2.005470 
# 
# From -- ./inp_files/10246.got.cif
#   From: 2010.05.17/outbox.cif.g08.bks.cpg/sg14_6_cif.got.tgz:10246.got - 2010.06.03 17:49:19.
