data_PCOD9239447
_publ_section_title
;
Structure prediction by ZEFSAII (Michael W. Deem and Ramdas Pophale) SiO2 
 PCOD9239447
Probable space group: P 21/C
;
_chemical_formula_sum "Si O2"
_cell_formula_units_Z 28
_cell_length_a 8.273254
_cell_length_b 18.964383
_cell_length_c 19.386276
_cell_angle_alpha 90.000000
_cell_angle_beta 30.459569
_cell_angle_gamma 90.000000
_cell_volume 1541.905128
_symmetry_space_group_name_H-M "P 21/C"
_symmetry_group_IT_number 14
_symmetry_cell_setting 'monoclinic'
loop_
_space_group_symop_operation_xyz
x,y,z
-x,1/2+y,1/2-z
-x,-y,-z
x,1/2-y,1/2+z
loop_
_atom_site_type_symbol
_atom_site_label
_atom_site_fract_x
_atom_site_fract_y
_atom_site_fract_z
Si Si1 0.463614 0.777562 0.673448
Si Si2 0.116499 0.710077 0.446957
Si Si3 0.487608 0.775608 0.951057
Si Si4 0.939074 0.318962 0.273821
Si Si5 0.979841 0.107287 0.205343
Si Si6 0.152892 0.437126 0.486439
Si Si7 0.258273 0.976066 0.150909
O O1 0.313439 0.786453 0.804013
O O2 0.306585 0.709206 0.694090
O O3 0.334444 0.844634 0.677848
O O4 0.839043 0.768132 0.542182
O O5 0.351532 0.717046 0.424675
O O6 0.927022 0.635903 0.522074
O O7 0.710786 0.707244 0.874437
O O8 0.723950 0.839400 0.888120
O O9 0.186682 0.777902 0.112369
O O10 0.908910 0.401424 0.300807
O O11 0.013398 0.076841 0.115016
O O12 0.016930 0.041412 0.242746
O O13 0.516361 0.460110 0.366956
O O14 0.000000 0.500000 0.500000
O O15 0.500000 0.000000 0.000000
#
# Coordination Sequence:
#
# PCOD9239447 Si02
#       7
#     4   4   4   4   4   4   4
#     4  10  20  38  56  82 119 153 196 239 302 339
#     4  11  21  35  55  86 116 149 190 243 291 344
#     4  11  21  35  57  87 115 153 198 238 287 351
#     4  11  20  36  59  82 115 155 192 241 288 351
#     4   9  19  33  54  79 115 150 185 246 284 341
#     4  10  18  29  52  85 113 140 182 247 288 326
#     4  10  17  33  54  84 110 145 196 240 285 334
#
# _framework density 18.159352999999999
#
# number of rings (size 3 to 8) (size 9 to 14) (size 15 to 20)
#    0.000    1.714    4.286    3.429    2.000    0.000 
#    0.000    0.000    0.000    8.571    0.000    0.000 
#    0.000    0.000    0.000    0.000    0.000    0.000 
#
# Total GULP energy -156010.309096 kJ/mol
# GULP energy per Si atom -5571.796753 kJ/mol
# Density = 1.811802 g / cm^3
# Si number density = 18.159353 Si / 1000 Ang^3
#
#
#
# Elastic Constant Matrix: (Units=GPa)
#
#
# Indices 1 2 3 4 5 6 
#
# 1 75.1774 12.3215 -3.5623 0.0000 -11.7910 0.0000
# 2 12.3215 96.7983 9.8263 0.0000 -13.8949 0.0000
# 3 -3.5623 9.8263 26.1659 0.0000 -10.3479 0.0000
# 4 0.0000 0.0000 0.0000 24.0256 0.0000 -5.0034
# 5 -11.7910 -13.8949 -10.3479 0.0000 23.4052 0.0000
# 6 0.0000 0.0000 0.0000 -5.0034 0.0000 32.3676
#
#
#
# Elastic Compliance Matrix: (Units=1/GPa)
#
#
# Indices 1 2 3 4 5 6 
#
# 1 0.015351 -0.001191 0.006442 0.000000 0.009875 0.000000
# 2 -0.001191 0.011466 -0.002440 0.000000 0.005129 0.000000
# 3 0.006442 -0.002440 0.049350 0.000000 0.023616 0.000000
# 4 0.000000 0.000000 0.000000 0.043007 0.000000 0.006648
# 5 0.009875 0.005129 0.023616 0.000000 0.061186 0.000000
# 6 0.000000 0.000000 0.000000 0.006648 0.000000 0.031923
#
#
# Mechanical properties :
#
#
# Convention : Reuss Voigt Hill
#
# Bulk Modulus (GPa) = 12.22618 26.14584 19.18601
# Shear Modulus (GPa) = 21.37454 27.93009 24.65232
#
# Velocity S-wave (km/s) = 3.43454 3.92606 3.68850
# Velocity P-wave (km/s) = 4.74083 5.91449 5.35988
#
# Compressibility (1/GPa) = 0.08179173
#
# Stress axis : x y z
#
# Youngs Moduli (GPa) = 65.14193 87.21305 20.26322
#
# Poissons Ratio (x) = 0.10383 -0.13054
# Poissons Ratio (y) = 0.07755 0.04944
# Poissons Ratio (z) = -0.41967 0.21279
#
# Static dielectric constant tensor:
#      x y z
#    x 1.642160 0.000000 -0.012330 
#    y 0.000000 1.668120 0.000000 
#    z -0.012330 0.000000 1.647480 
# 
# From -- ./inp_files/72509.got.cif
#   From: 2010.05.17/outbox.cif.g08.bks.cpg/sg14_37_cif.got.tgz:72509.got - 2010.06.03 17:49:19.
