data_PCOD9239006
_publ_section_title
;
Structure prediction by ZEFSAII (Michael W. Deem and Ramdas Pophale) SiO2 
 PCOD9239006
Probable space group: P 2/C
;
_chemical_formula_sum "Si O2"
_cell_formula_units_Z 32
_cell_length_a 15.000000
_cell_length_b 15.000000
_cell_length_c 21.000000
_cell_angle_alpha 90.000000
_cell_angle_beta 20.000000
_cell_angle_gamma 90.000000
_cell_volume 1616.045177
_symmetry_space_group_name_H-M "P 2/C"
_symmetry_group_IT_number 13
_symmetry_cell_setting 'monoclinic'
loop_
_space_group_symop_operation_xyz
x,y,z
-x,y,1/2-z
-x,-y,-z
x,-y,1/2+z
loop_
_atom_site_type_symbol
_atom_site_label
_atom_site_fract_x
_atom_site_fract_y
_atom_site_fract_z
Si Si1 0.590856 0.094238 0.118722
Si Si2 0.264661 0.547599 0.747765
Si Si3 0.333017 0.210828 0.731284
Si Si4 0.965896 0.222688 0.697309
Si Si5 0.164612 0.908357 0.575014
Si Si6 0.186224 0.577629 0.178070
Si Si7 0.954351 0.906265 0.569948
Si Si8 0.708328 0.605299 0.167858
O O1 0.500000 0.064648 0.250000
O O2 0.348911 0.114569 0.235833
O O3 0.775766 0.178635 0.004674
O O4 0.738053 0.010345 0.989949
O O5 0.530652 0.594807 0.544787
O O6 0.203327 0.483303 0.728839
O O7 0.322794 0.485574 0.770230
O O8 0.004839 0.603559 0.940233
O O9 0.257566 0.198644 0.706436
O O10 0.595719 0.160027 0.576478
O O11 0.336259 0.313317 0.752675
O O12 0.114700 0.164338 0.921294
O O13 0.943573 0.328843 0.715895
O O14 0.000000 0.194342 0.750000
O O15 0.000000 0.894650 0.750000
O O16 0.035845 0.901854 0.590085
O O17 0.000000 0.533955 0.250000
O O18 0.000000 0.000000 0.500000
O O19 0.500000 0.610368 0.250000
#
# Coordination Sequence:
#
# PCOD9239006 Si02
#       8
#     4   4   4   4   4   4   4   4
#     4  12  23  43  71  98 129 180 227 282 341 400
#     4  10  22  42  70  98 133 182 222 276 355 404
#     4  12  24  46  66  97 137 180 230 285 335 410
#     4  11  25  43  66 100 139 174 227 287 338 408
#     4  12  27  44  66  99 134 181 223 284 345 401
#     4  10  21  43  66  97 140 177 215 281 348 413
#     4  12  23  44  71  95 135 179 230 276 339 410
#     4  11  23  42  67 101 132 176 236 282 333 416
#
# _framework density 19.801427
#
# number of rings (size 3 to 8) (size 9 to 14) (size 15 to 20)
#    0.000    0.750    5.000    2.250    1.750    2.500 
#    2.250    1.250    0.000    0.000    0.000    0.000 
#    0.000    0.000    0.000    0.000    0.000    0.000 
#
# Total GULP energy -178504.193434 kJ/mol
# GULP energy per Si atom -5578.256045 kJ/mol
# Density = 1.975636 g / cm^3
# Si number density = 19.801427 Si / 1000 Ang^3
#
#
#
# Elastic Constant Matrix: (Units=GPa)
#
#
# Indices 1 2 3 4 5 6 
#
# 1 187.7290 13.4742 33.3631 0.0000 -17.9843 0.0000
# 2 13.4742 71.7298 27.1437 0.0000 -13.3079 0.0000
# 3 33.3631 27.1437 72.5925 0.0000 -19.0002 0.0000
# 4 0.0000 0.0000 0.0000 29.3322 0.0000 0.4193
# 5 -17.9843 -13.3079 -19.0002 0.0000 37.7553 0.0000
# 6 0.0000 0.0000 0.0000 0.4193 0.0000 25.6134
#
#
#
# Elastic Compliance Matrix: (Units=1/GPa)
#
#
# Indices 1 2 3 4 5 6 
#
# 1 0.005890 0.000073 -0.002296 0.000000 0.001676 0.000000
# 2 0.000073 0.016555 -0.005399 0.000000 0.003153 0.000000
# 3 -0.002296 -0.005399 0.018502 0.000000 0.006315 0.000000
# 4 0.000000 0.000000 0.000000 0.034100 0.000000 -0.000558
# 5 0.001676 0.003153 0.006315 0.000000 0.031574 0.000000
# 6 0.000000 0.000000 0.000000 -0.000558 0.000000 0.039051
#
#
# Mechanical properties :
#
#
# Convention : Reuss Voigt Hill
#
# Bulk Modulus (GPa) = 38.90239 53.33480 46.11860
# Shear Modulus (GPa) = 29.50132 35.74488 32.62310
#
# Velocity S-wave (km/s) = 3.86406 4.25333 4.06336
# Velocity P-wave (km/s) = 6.29260 7.14944 6.73466
#
# Compressibility (1/GPa) = 0.02570536
#
# Stress axis : x y z
#
# Youngs Moduli (GPa) = 169.77508 60.40308 54.04796
#
# Poissons Ratio (x) = -0.00443 0.12408
# Poissons Ratio (y) = -0.01244 0.29179
# Poissons Ratio (z) = 0.38976 0.32610
#
# Static dielectric constant tensor:
#      x y z
#    x 1.710340 0.000000 -0.015190 
#    y 0.000000 1.700430 0.000000 
#    z -0.015190 0.000000 1.724830 
# 
# From -- ./inp_files/80333.got.cif
#   From: 2010.05.17/outbox.ucp.g08.bks.cvg/sg13_41_cif.got.tgz:80333.got - 2010.06.11 12:23:55.
