data_PCOD9239582
_publ_section_title
;
Structure prediction by ZEFSAII (Michael W. Deem and Ramdas Pophale) SiO2 
 PCOD9239582
Probable space group: P 21/C
;
_chemical_formula_sum "Si O2"
_cell_formula_units_Z 28
_cell_length_a 17.676129
_cell_length_b 5.809448
_cell_length_c 12.288192
_cell_angle_alpha 90.000000
_cell_angle_beta 123.700084
_cell_angle_gamma 90.000000
_cell_volume 1049.805812
_symmetry_space_group_name_H-M "P 21/C"
_symmetry_group_IT_number 14
_symmetry_cell_setting 'monoclinic'
loop_
_space_group_symop_operation_xyz
x,y,z
-x,1/2+y,1/2-z
-x,-y,-z
x,1/2-y,1/2+z
loop_
_atom_site_type_symbol
_atom_site_label
_atom_site_fract_x
_atom_site_fract_y
_atom_site_fract_z
Si Si1 0.491681 0.459859 0.180964
Si Si2 0.306420 0.088389 0.586182
Si Si3 0.257635 0.033798 0.916546
Si Si4 0.920316 0.186168 0.303969
Si Si5 0.349669 0.765026 0.818237
Si Si6 0.818276 0.929330 0.798518
Si Si7 0.112594 0.054722 0.490046
O O1 0.508400 0.719169 0.243977
O O2 0.385429 0.468038 0.063535
O O3 0.564501 0.388699 0.147383
O O4 0.292204 0.360465 0.556358
O O5 0.204146 0.989744 0.498926
O O6 0.343266 0.975808 0.726119
O O7 0.233954 0.246478 0.818043
O O8 0.159979 0.911120 0.835564
O O9 0.337440 0.889654 0.924240
O O10 0.901825 0.455300 0.301374
O O11 0.018799 0.091972 0.353026
O O12 0.904494 0.101423 0.417062
O O13 0.256943 0.619732 0.735220
O O14 0.860892 0.797471 0.933612
#
# Coordination Sequence:
#
# PCOD9239582 Si02
#       7
#     4   4   4   4   4   4   4
#     4  10  23  41  69 100 131 174 229 272 335 405
#     4  11  21  42  63  90 126 174 214 269 334 393
#     4  10  22  39  61  91 129 164 219 265 324 399
#     4   9  19  36  57  90 118 158 212 261 318 388
#     4  10  21  42  64  90 132 167 211 278 328 393
#     4  10  17  37  61  86 119 165 207 264 326 382
#     4  10  18  35  63  81 119 164 206 258 325 383
#
# _framework density 26.671599000000001
#
# number of rings (size 3 to 8) (size 9 to 14) (size 15 to 20)
#    0.000    2.000    4.286    1.286    2.000    0.571 
#   18.000    0.714    0.000    0.000    0.000    0.000 
#    0.000    0.000    0.000    0.000    0.000    0.000 
#
# Total GULP energy -156359.890849 kJ/mol
# GULP energy per Si atom -5584.281816 kJ/mol
# Density = 2.661089 g / cm^3
# Si number density = 26.671599 Si / 1000 Ang^3
#
#
#
# Elastic Constant Matrix: (Units=GPa)
#
#
# Indices 1 2 3 4 5 6 
#
# 1 191.9095 37.5764 41.9347 0.0000 31.8355 0.0000
# 2 37.5764 130.2247 45.9305 0.0000 -7.5521 0.0000
# 3 41.9347 45.9305 59.3754 0.0000 10.5465 0.0000
# 4 0.0000 0.0000 0.0000 55.9164 0.0000 -9.5133
# 5 31.8355 -7.5521 10.5465 0.0000 28.2896 0.0000
# 6 0.0000 0.0000 0.0000 -9.5133 0.0000 35.7809
#
#
#
# Elastic Compliance Matrix: (Units=1/GPa)
#
#
# Indices 1 2 3 4 5 6 
#
# 1 0.007393 -0.001701 -0.002513 0.000000 -0.007837 0.000000
# 2 -0.001701 0.012108 -0.009723 0.000000 0.008771 0.000000
# 3 -0.002513 -0.009723 0.027947 0.000000 -0.010186 0.000000
# 4 0.000000 0.000000 0.000000 0.018731 0.000000 0.004980
# 5 -0.007837 0.008771 -0.010186 0.000000 0.050307 0.000000
# 6 0.000000 0.000000 0.000000 0.004980 0.000000 0.029272
#
#
# Mechanical properties :
#
#
# Convention : Reuss Voigt Hill
#
# Bulk Modulus (GPa) = 51.08873 70.26588 60.67731
# Shear Modulus (GPa) = 27.75345 41.06857 34.41101
#
# Velocity S-wave (km/s) = 3.22927 3.92827 3.59580
# Velocity P-wave (km/s) = 5.75331 6.85398 6.32763
#
# Compressibility (1/GPa) = 0.01957379
#
# Stress axis : x y z
#
# Youngs Moduli (GPa) = 135.25945 82.59139 35.78143
#
# Poissons Ratio (x) = 0.14051 0.08993
# Poissons Ratio (y) = 0.23012 0.34789
# Poissons Ratio (z) = 0.33997 0.80300
#
# Static dielectric constant tensor:
#      x y z
#    x 2.102630 0.000000 -0.010290 
#    y 0.000000 2.166740 0.000000 
#    z -0.010290 0.000000 2.072020 
# 
# From -- ./inp_files/48053.got.cif
#   From: 2010.05.17/outbox.cif.g08.bks.cpg/sg14_25_cif.got.tgz:48053.got - 2010.06.03 17:49:19.
