data_PCOD9239269
_publ_section_title
;
Structure prediction by ZEFSAII (Michael W. Deem and Ramdas Pophale) SiO2 
 PCOD9239269
Probable space group: P 21/C
;
_chemical_formula_sum "Si O2"
_cell_formula_units_Z 24
_cell_length_a 28.254403
_cell_length_b 6.784158
_cell_length_c 22.795227
_cell_angle_alpha 90.000000
_cell_angle_beta 12.323503
_cell_angle_gamma 90.000000
_cell_volume 932.575130
_symmetry_space_group_name_H-M "P 21/C"
_symmetry_group_IT_number 14
_symmetry_cell_setting 'monoclinic'
loop_
_space_group_symop_operation_xyz
x,y,z
-x,1/2+y,1/2-z
-x,-y,-z
x,1/2-y,1/2+z
loop_
_atom_site_type_symbol
_atom_site_label
_atom_site_fract_x
_atom_site_fract_y
_atom_site_fract_z
Si Si1 0.988401 0.452725 0.189733
Si Si2 0.439186 0.524414 0.677688
Si Si3 0.624772 0.045995 0.289331
Si Si4 0.918481 0.619822 0.736819
Si Si5 0.125655 0.588594 0.902941
Si Si6 0.488131 0.639203 0.196578
O O1 0.908624 0.682254 0.287544
O O2 0.762661 0.343267 0.477283
O O3 0.200394 0.427251 0.974971
O O4 0.081327 0.438461 0.010751
O O5 0.619769 0.400045 0.424956
O O6 0.543111 0.637685 0.607638
O O7 0.377384 0.714077 0.712048
O O8 0.518089 0.005162 0.354944
O O9 0.500000 0.000000 0.500000
O O10 0.884267 0.985052 0.977172
O O11 0.025200 0.704731 0.546418
O O12 0.671103 0.560523 0.019517
O O13 0.000000 0.500000 0.000000
#
# Coordination Sequence:
#
# PCOD9239269 Si02
#       6
#     4   4   4   4   4   4
#     4   9  20  35  56  82 111 150 184 230 279 333
#     4   9  18  36  57  80 112 142 189 229 274 336
#     4   9  20  38  56  82 115 148 185 235 280 330
#     4   9  20  37  59  78 116 143 193 228 275 338
#     4  10  16  35  60  84 104 147 193 231 274 328
#     4  10  19  40  55  81 120 145 182 232 283 330
#
# _framework density 25.735192999999999
#
# number of rings (size 3 to 8) (size 9 to 14) (size 15 to 20)
#    2.000    0.667    1.667    0.500    0.000    0.667 
#    9.000    1.667    0.000    0.000    0.000    0.000 
#    0.000    0.000    0.000    0.000    0.000    0.000 
#
# Total GULP energy -133905.694765 kJ/mol
# GULP energy per Si atom -5579.403949 kJ/mol
# Density = 2.567662 g / cm^3
# Si number density = 25.735193 Si / 1000 Ang^3
#
#
#
# Elastic Constant Matrix: (Units=GPa)
#
#
# Indices 1 2 3 4 5 6 
#
# 1 73.4333 18.6625 23.3846 0.0000 -7.1375 0.0000
# 2 18.6625 50.0083 13.2481 0.0000 8.8612 0.0000
# 3 23.3846 13.2481 166.1633 0.0000 -6.1508 0.0000
# 4 0.0000 0.0000 0.0000 36.0745 0.0000 12.0040
# 5 -7.1375 8.8612 -6.1508 0.0000 50.2559 0.0000
# 6 0.0000 0.0000 0.0000 12.0040 0.0000 37.2179
#
#
#
# Elastic Compliance Matrix: (Units=1/GPa)
#
#
# Indices 1 2 3 4 5 6 
#
# 1 0.015996 -0.006090 -0.001649 0.000000 0.003144 0.000000
# 2 -0.006090 0.023503 -0.001208 0.000000 -0.005157 0.000000
# 3 -0.001649 -0.001208 0.006375 0.000000 0.000759 0.000000
# 4 0.000000 0.000000 0.000000 0.031053 0.000000 -0.010016
# 5 0.003144 -0.005157 0.000759 0.000000 0.021347 0.000000
# 6 0.000000 0.000000 0.000000 -0.010016 0.000000 0.030099
#
#
# Mechanical properties :
#
#
# Convention : Reuss Voigt Hill
#
# Bulk Modulus (GPa) = 35.73935 44.46616 40.10275
# Shear Modulus (GPa) = 32.13507 40.33032 36.23269
#
# Velocity S-wave (km/s) = 3.53750 3.96299 3.75628
# Velocity P-wave (km/s) = 5.53197 6.18516 5.86766
#
# Compressibility (1/GPa) = 0.02798037
#
# Stress axis : x y z
#
# Youngs Moduli (GPa) = 62.51476 42.54779 156.87090
#
# Poissons Ratio (x) = 0.25910 0.25873
# Poissons Ratio (y) = 0.38070 0.18946
# Poissons Ratio (z) = 0.10310 0.05139
#
# Static dielectric constant tensor:
#      x y z
#    x 2.052910 0.000000 -0.019680 
#    y 0.000000 2.103460 0.000000 
#    z -0.019680 0.000000 2.056290 
# 
# From -- ./inp_files/75295.got.cif
#   From: 2010.05.17/outbox.cif.g08.bks.cpg/sg14_38_cif.got.tgz:75295.got - 2010.06.03 17:49:19.
