data_PCOD9239689
_publ_section_title
;
Structure prediction by ZEFSAII (Michael W. Deem and Ramdas Pophale) SiO2 
 PCOD9239689
Probable space group: P 21/C
;
_chemical_formula_sum "Si O2"
_cell_formula_units_Z 32
_cell_length_a 28.286461
_cell_length_b 7.421637
_cell_length_c 22.235691
_cell_angle_alpha 90.000000
_cell_angle_beta 157.966209
_cell_angle_gamma 90.000000
_cell_volume 1751.208194
_symmetry_space_group_name_H-M "P 21/C"
_symmetry_group_IT_number 14
_symmetry_cell_setting 'monoclinic'
loop_
_space_group_symop_operation_xyz
x,y,z
-x,1/2+y,1/2-z
-x,-y,-z
x,1/2-y,1/2+z
loop_
_atom_site_type_symbol
_atom_site_label
_atom_site_fract_x
_atom_site_fract_y
_atom_site_fract_z
Si Si1 0.315674 0.991165 0.475678
Si Si2 0.387441 0.593071 0.930976
Si Si3 0.145409 0.227123 0.451413
Si Si4 0.098927 0.904755 0.307552
Si Si5 0.512179 0.158064 0.776463
Si Si6 0.582586 0.598364 0.702158
Si Si7 0.399844 0.806514 0.320170
Si Si8 0.265130 0.563161 0.540644
O O1 0.305626 0.947560 0.393501
O O2 0.181848 0.983713 0.350842
O O3 0.408753 0.835888 0.612273
O O4 0.399954 0.163785 0.594519
O O5 0.327494 0.652198 0.797155
O O6 0.485088 0.755327 0.061588
O O7 0.468478 0.411556 0.018009
O O8 0.274192 0.167311 0.635254
O O9 0.188047 0.380570 0.454764
O O10 0.039169 0.322712 0.366497
O O11 0.093933 0.056212 0.353587
O O12 0.179682 0.734582 0.425701
O O13 0.449535 0.086635 0.764283
O O14 0.624351 0.045833 0.877516
O O15 0.576479 0.402727 0.665045
O O16 0.329905 0.894277 0.180994
#
# Coordination Sequence:
#
# PCOD9239689 Si02
#       8
#     4   4   4   4   4   4   4   4
#     4  10  19  33  50  78 109 137 169 220 270 323
#     4  10  22  34  52  82 111 138 178 222 261 320
#     4  12  21  35  53  79 107 143 178 215 267 322
#     4  11  23  34  54  80 108 142 176 219 267 321
#     4  10  18  30  52  81 107 131 165 214 284 325
#     4  11  20  34  55  79 110 144 174 215 272 324
#     4  11  20  34  54  80 107 145 178 213 267 322
#     4  11  20  34  54  82 110 138 175 217 269 328
#
# _framework density 18.273098999999998
#
# number of rings (size 3 to 8) (size 9 to 14) (size 15 to 20)
#    0.000    1.250    6.250    1.875    0.000    0.000 
#    0.000    0.000    0.000    1.500    0.000    0.000 
#    0.000    0.000    0.000    0.000    0.000    0.000 
#
# Total GULP energy -178420.498263 kJ/mol
# GULP energy per Si atom -5575.640571 kJ/mol
# Density = 1.823151 g / cm^3
# Si number density = 18.273099 Si / 1000 Ang^3
#
#
#
# Elastic Constant Matrix: (Units=GPa)
#
#
# Indices 1 2 3 4 5 6 
#
# 1 63.8959 3.4412 18.2562 0.0000 10.9173 0.0000
# 2 3.4412 80.3571 8.0963 0.0000 7.1427 0.0000
# 3 18.2562 8.0963 41.5832 0.0000 19.8925 0.0000
# 4 0.0000 0.0000 0.0000 24.1589 0.0000 2.0315
# 5 10.9173 7.1427 19.8925 0.0000 30.3356 0.0000
# 6 0.0000 0.0000 0.0000 2.0315 0.0000 19.0633
#
#
#
# Elastic Compliance Matrix: (Units=1/GPa)
#
#
# Indices 1 2 3 4 5 6 
#
# 1 0.017970 0.000105 -0.007000 0.000000 -0.001901 0.000000
# 2 0.000105 0.012777 -0.001569 0.000000 -0.002018 0.000000
# 3 -0.007000 -0.001569 0.037949 0.000000 -0.021997 0.000000
# 4 0.000000 0.000000 0.000000 0.041767 0.000000 -0.004451
# 5 -0.001901 -0.002018 -0.021997 0.000000 0.048548 0.000000
# 6 0.000000 0.000000 0.000000 -0.004451 0.000000 0.052931
#
#
# Mechanical properties :
#
#
# Convention : Reuss Voigt Hill
#
# Bulk Modulus (GPa) = 19.31661 27.26930 23.29296
# Shear Modulus (GPa) = 20.31474 25.11439 22.71456
#
# Velocity S-wave (km/s) = 3.33788 3.71130 3.52953
# Velocity P-wave (km/s) = 5.04472 5.77240 5.42079
#
# Compressibility (1/GPa) = 0.05176893
#
# Stress axis : x y z
#
# Youngs Moduli (GPa) = 55.64921 78.26354 26.35083
#
# Poissons Ratio (x) = -0.00820 0.18445
# Poissons Ratio (y) = -0.00583 0.04133
# Poissons Ratio (z) = 0.38954 0.12276
#
# Static dielectric constant tensor:
#      x y z
#    x 1.674530 0.000000 -0.000960 
#    y 0.000000 1.705960 0.000000 
#    z -0.000960 0.000000 1.629590 
# 
# From -- ./inp_files/75285.got.cif
#   From: 2010.05.17/outbox.cif.g08.bks.cpg/sg14_38_cif.got.tgz:75285.got - 2010.06.03 17:49:19.
