data_PCOD9239135
_publ_section_title
;
Structure prediction by ZEFSAII (Michael W. Deem and Ramdas Pophale) SiO2 
 PCOD9239135
Probable space group: P 21/C
;
_chemical_formula_sum "Si O2"
_cell_formula_units_Z 32
_cell_length_a 17.082772
_cell_length_b 13.459388
_cell_length_c 11.841649
_cell_angle_alpha 90.000000
_cell_angle_beta 147.045375
_cell_angle_gamma 90.000000
_cell_volume 1481.066404
_symmetry_space_group_name_H-M "P 21/C"
_symmetry_group_IT_number 14
_symmetry_cell_setting 'monoclinic'
loop_
_space_group_symop_operation_xyz
x,y,z
-x,1/2+y,1/2-z
-x,-y,-z
x,1/2-y,1/2+z
loop_
_atom_site_type_symbol
_atom_site_label
_atom_site_fract_x
_atom_site_fract_y
_atom_site_fract_z
Si Si1 0.761025 0.821755 0.434828
Si Si2 0.916759 0.879881 0.066862
Si Si3 0.533133 0.394244 0.099721
Si Si4 0.288664 0.486393 0.520791
Si Si5 0.671995 0.490086 0.691990
Si Si6 0.494463 0.801124 0.662074
Si Si7 0.748255 0.121326 0.500249
Si Si8 0.763591 0.919715 0.656842
O O1 0.835932 0.725390 0.475923
O O2 0.748655 0.910983 0.332765
O O3 0.598654 0.791703 0.273082
O O4 0.832715 0.857097 0.638783
O O5 0.084938 0.860434 0.276974
O O6 0.857366 0.945843 0.099057
O O7 0.865648 0.930978 0.888314
O O8 0.653237 0.422383 0.334522
O O9 0.500000 0.500000 0.000000
O O10 0.567402 0.323045 0.037656
O O11 0.380999 0.367197 0.971860
O O12 0.287834 0.517479 0.390037
O O13 0.401351 0.393391 0.673102
O O14 0.500000 0.500000 0.500000
O O15 0.721026 0.404378 0.837067
O O16 0.364754 0.798131 0.592574
O O17 0.717245 0.022343 0.539784
#
# Coordination Sequence:
#
# PCOD9239135 Si02
#       8
#     4   4   4   4   4   4   4   4
#     4  10  24  37  63  91 118 163 202 252 308 370
#     4  11  23  36  60  87 122 163 199 246 309 367
#     4  10  15  32  61  93 112 148 211 261 290 356
#     4  10  18  34  62  88 117 161 203 246 304 359
#     4  11  22  40  66  91 122 160 213 251 303 369
#     4  10  18  35  61  88 121 154 200 263 300 345
#     4  11  22  38  60  88 122 158 204 252 303 366
#     4  11  19  37  63  87 116 156 213 247 299 366
#
# _framework density 21.606055000000001
#
# number of rings (size 3 to 8) (size 9 to 14) (size 15 to 20)
#    0.000    1.500    7.500    1.125    3.500    0.500 
#    0.000    1.250   11.000    0.000    0.000    0.000 
#    0.000    0.000    0.000    0.000    0.000    0.000 
#
# Total GULP energy -178806.144536 kJ/mol
# GULP energy per Si atom -5587.692017 kJ/mol
# Density = 2.155688 g / cm^3
# Si number density = 21.606055 Si / 1000 Ang^3
#
#
#
# Elastic Constant Matrix: (Units=GPa)
#
#
# Indices 1 2 3 4 5 6 
#
# 1 109.3641 17.2397 44.0440 0.0000 -26.5450 0.0000
# 2 17.2397 29.5021 -2.1396 0.0000 -10.3643 0.0000
# 3 44.0440 -2.1396 61.1247 0.0000 -9.3016 0.0000
# 4 0.0000 0.0000 0.0000 9.6080 0.0000 -2.9727
# 5 -26.5450 -10.3643 -9.3016 0.0000 51.3839 0.0000
# 6 0.0000 0.0000 0.0000 -2.9727 0.0000 22.6207
#
#
#
# Elastic Compliance Matrix: (Units=1/GPa)
#
#
# Indices 1 2 3 4 5 6 
#
# 1 0.016139 -0.008644 -0.011238 0.000000 0.004560 0.000000
# 2 -0.008644 0.041475 0.008508 0.000000 0.005440 0.000000
# 3 -0.011238 0.008508 0.024817 0.000000 0.000403 0.000000
# 4 0.000000 0.000000 0.000000 0.108491 0.000000 0.014257
# 5 0.004560 0.005440 0.000403 0.000000 0.022987 0.000000
# 6 0.000000 0.000000 0.000000 0.014257 0.000000 0.046081
#
#
# Mechanical properties :
#
#
# Convention : Reuss Voigt Hill
#
# Bulk Modulus (GPa) = 16.75497 35.36434 26.05965
# Shear Modulus (GPa) = 16.52174 26.11231 21.31702
#
# Velocity S-wave (km/s) = 2.76829 3.48021 3.14446
# Velocity P-wave (km/s) = 4.24140 5.70548 5.02703
#
# Compressibility (1/GPa) = 0.05968378
#
# Stress axis : x y z
#
# Youngs Moduli (GPa) = 61.96245 24.11069 40.29564
#
# Poissons Ratio (x) = 0.20841 0.45283
# Poissons Ratio (y) = 0.53560 -0.34284
# Poissons Ratio (z) = 0.69632 -0.20514
#
# Static dielectric constant tensor:
#      x y z
#    x 1.801870 0.000000 -0.010500 
#    y 0.000000 1.999570 0.000000 
#    z -0.010500 0.000000 1.779350 
# 
# From -- ./inp_files/34354.got.cif
#   From: 2010.05.17/outbox.cif.g08.bks.cpg/sg14_18_cif.got.tgz:34354.got - 2010.06.03 17:49:19.
