data_PCOD9239953
_publ_section_title
;
Structure prediction by ZEFSAII (Michael W. Deem and Ramdas Pophale) SiO2 
 PCOD9239953
Probable space group: P 21/C
;
_chemical_formula_sum "Si O2"
_cell_formula_units_Z 32
_cell_length_a 23.140323
_cell_length_b 9.588825
_cell_length_c 8.449851
_cell_angle_alpha 90.000000
_cell_angle_beta 119.191126
_cell_angle_gamma 90.000000
_cell_volume 1636.804926
_symmetry_space_group_name_H-M "P 21/C"
_symmetry_group_IT_number 14
_symmetry_cell_setting 'monoclinic'
loop_
_space_group_symop_operation_xyz
x,y,z
-x,1/2+y,1/2-z
-x,-y,-z
x,1/2-y,1/2+z
loop_
_atom_site_type_symbol
_atom_site_label
_atom_site_fract_x
_atom_site_fract_y
_atom_site_fract_z
Si Si1 0.777037 0.907165 0.033008
Si Si2 0.899773 0.426529 0.061712
Si Si3 0.852007 0.720975 0.922223
Si Si4 0.134683 0.846266 0.840692
Si Si5 0.478038 0.608937 0.836717
Si Si6 0.626509 0.923039 0.923277
Si Si7 0.446120 0.176589 0.869525
Si Si8 0.962837 0.955639 0.108588
O O1 0.831193 0.841444 0.225685
O O2 0.800180 0.064878 0.030972
O O3 0.788236 0.806103 0.899414
O O4 0.704650 0.910435 0.008706
O O5 0.864066 0.317478 0.128833
O O6 0.978303 0.417305 0.193182
O O7 0.873925 0.583936 0.049183
O O8 0.883001 0.377107 0.863438
O O9 0.912752 0.828980 0.006974
O O10 0.078338 0.916603 0.874149
O O11 0.404327 0.566636 0.686385
O O12 0.521399 0.595002 0.733953
O O13 0.500000 0.500000 0.000000
O O14 0.495929 0.755515 0.943168
O O15 0.594466 0.800394 0.771872
O O16 0.601054 0.901238 0.068830
O O17 0.000000 0.000000 0.000000
#
# Coordination Sequence:
#
# PCOD9239953 Si02
#       8
#     4   4   4   4   4   4   4   4
#     4  10  21  38  55  80 111 147 189 226 276 340
#     4  11  21  37  56  78 107 146 184 231 290 338
#     4  10  22  37  56  81 111 142 185 240 280 338
#     4  10  23  37  53  78 112 142 181 234 276 333
#     4   9  18  32  53  84 114 143 180 229 279 325
#     4  10  18  33  57  79 109 150 183 222 277 340
#     4   9  18  32  54  85 114 139 182 235 279 322
#     4  11  21  36  59  85 107 137 180 233 297 346
#
# _framework density 19.550284000000001
#
# number of rings (size 3 to 8) (size 9 to 14) (size 15 to 20)
#    0.000    2.000    0.000    3.750    0.000    5.000 
#    0.000    2.500    0.000    6.000    0.000    0.000 
#    0.000    0.000    0.000    0.000    0.000    0.000 
#
# Total GULP energy -178526.010849 kJ/mol
# GULP energy per Si atom -5578.937839 kJ/mol
# Density = 1.950579 g / cm^3
# Si number density = 19.550284 Si / 1000 Ang^3
#
#
#
# Elastic Constant Matrix: (Units=GPa)
#
#
# Indices 1 2 3 4 5 6 
#
# 1 104.4258 41.9822 28.1682 0.0000 -6.2559 0.0000
# 2 41.9822 83.7753 13.6004 0.0000 2.3246 0.0000
# 3 28.1682 13.6004 49.3075 0.0000 -12.2690 0.0000
# 4 0.0000 0.0000 0.0000 27.0785 0.0000 -6.3514
# 5 -6.2559 2.3246 -12.2690 0.0000 28.6044 0.0000
# 6 0.0000 0.0000 0.0000 -6.3514 0.0000 16.1236
#
#
#
# Elastic Compliance Matrix: (Units=1/GPa)
#
#
# Indices 1 2 3 4 5 6 
#
# 1 0.013588 -0.005874 -0.005915 0.000000 0.000912 0.000000
# 2 -0.005874 0.015238 -0.001651 0.000000 -0.003231 0.000000
# 3 -0.005915 -0.001651 0.026674 0.000000 0.010282 0.000000
# 4 0.000000 0.000000 0.000000 0.040689 0.000000 0.016028
# 5 0.000912 -0.003231 0.010282 0.000000 0.039832 0.000000
# 6 0.000000 0.000000 0.000000 0.016028 0.000000 0.068335
#
#
# Mechanical properties :
#
#
# Convention : Reuss Voigt Hill
#
# Bulk Modulus (GPa) = 34.94266 45.00112 39.97189
# Shear Modulus (GPa) = 20.76610 24.61184 22.68897
#
# Velocity S-wave (km/s) = 3.26266 3.55195 3.41037
# Velocity P-wave (km/s) = 5.66615 6.31584 5.99980
#
# Compressibility (1/GPa) = 0.02861831
#
# Stress axis : x y z
#
# Youngs Moduli (GPa) = 73.59380 65.62433 37.48975
#
# Poissons Ratio (x) = 0.38550 0.22176
# Poissons Ratio (y) = 0.43232 0.06191
# Poissons Ratio (z) = 0.43533 0.10837
#
# Static dielectric constant tensor:
#      x y z
#    x 1.666530 0.000000 -0.018100 
#    y 0.000000 1.736360 0.000000 
#    z -0.018100 0.000000 1.718980 
# 
# From -- ./inp_files/19370.got.cif
#   From: 2010.05.17/outbox.cif.g08.bks.cpg/sg14_10_cif.got.tgz:19370.got - 2010.06.03 17:49:19.
