data_PCOD9239209
_publ_section_title
;
Structure prediction by ZEFSAII (Michael W. Deem and Ramdas Pophale) SiO2 
 PCOD9239209
Probable space group: P 21/C
;
_chemical_formula_sum "Si O2"
_cell_formula_units_Z 28
_cell_length_a 20.470714
_cell_length_b 7.515425
_cell_length_c 18.954486
_cell_angle_alpha 90.000000
_cell_angle_beta 155.492488
_cell_angle_gamma 90.000000
_cell_volume 1209.624092
_symmetry_space_group_name_H-M "P 21/C"
_symmetry_group_IT_number 14
_symmetry_cell_setting 'monoclinic'
loop_
_space_group_symop_operation_xyz
x,y,z
-x,1/2+y,1/2-z
-x,-y,-z
x,1/2-y,1/2+z
loop_
_atom_site_type_symbol
_atom_site_label
_atom_site_fract_x
_atom_site_fract_y
_atom_site_fract_z
Si Si1 0.011963 0.095511 0.118398
Si Si2 0.199872 0.997683 0.974876
Si Si3 0.565047 0.790402 0.074709
Si Si4 0.533009 0.956146 0.334661
Si Si5 0.624772 0.807364 0.286805
Si Si6 0.249535 0.915310 0.257427
Si Si7 0.730836 0.853419 0.104594
O O1 0.106834 0.278189 0.205403
O O2 0.958749 0.072315 0.146950
O O3 0.860185 0.099330 0.919166
O O4 0.128350 0.941747 0.203440
O O5 0.226448 0.016472 0.917650
O O6 0.229457 0.193256 0.039227
O O7 0.351479 0.891677 0.153639
O O8 0.633596 0.862530 0.215466
O O9 0.655846 0.600784 0.155684
O O10 0.620459 0.903624 0.061563
O O11 0.382222 0.734347 0.893352
O O12 0.586835 0.957215 0.306292
O O13 0.640502 0.816785 0.480730
O O14 0.513692 0.154197 0.346169
#
# Coordination Sequence:
#
# PCOD9239209 Si02
#       7
#     4   4   4   4   4   4   4
#     4  10  17  30  47  76 107 136 165 218 278 307
#     4   9  19  35  48  76 110 138 170 221 263 323
#     4  10  16  31  52  80 100 133 184 227 256 303
#     4   9  18  35  54  75 107 136 181 220 266 307
#     4   9  17  31  56  78 103 137 173 228 261 306
#     4   9  17  27  51  76 105 125 180 230 260 296
#     4  10  20  32  53  80 106 139 179 223 266 311
#
# _framework density 23.147686
#
# number of rings (size 3 to 8) (size 9 to 14) (size 15 to 20)
#    0.857    1.714    1.429    3.429    0.000    0.000 
#    5.143    0.714    0.000    0.000    0.000    3.000 
#    0.000    0.000    0.000    0.000    0.000    0.000 
#
# Total GULP energy -156152.619141 kJ/mol
# GULP energy per Si atom -5576.879255 kJ/mol
# Density = 2.309500 g / cm^3
# Si number density = 23.147686 Si / 1000 Ang^3
#
#
#
# Elastic Constant Matrix: (Units=GPa)
#
#
# Indices 1 2 3 4 5 6 
#
# 1 140.6155 -7.8933 18.7382 0.0000 -23.4898 0.0000
# 2 -7.8933 45.6339 7.7563 0.0000 -4.8463 0.0000
# 3 18.7382 7.7563 64.4678 0.0000 8.2170 0.0000
# 4 0.0000 0.0000 0.0000 10.9447 0.0000 -10.2702
# 5 -23.4898 -4.8463 8.2170 0.0000 22.3189 0.0000
# 6 0.0000 0.0000 0.0000 -10.2702 0.0000 12.3486
#
#
#
# Elastic Compliance Matrix: (Units=1/GPa)
#
#
# Indices 1 2 3 4 5 6 
#
# 1 0.010332 0.004134 -0.005247 0.000000 0.013704 0.000000
# 2 0.004134 0.024856 -0.005702 0.000000 0.011848 0.000000
# 3 -0.005247 -0.005702 0.019500 0.000000 -0.013940 0.000000
# 4 0.000000 0.000000 0.000000 0.416130 0.000000 0.346092
# 5 0.013704 0.011848 -0.013940 0.000000 0.066932 0.000000
# 6 0.000000 0.000000 0.000000 0.346092 0.000000 0.368822
#
#
# Mechanical properties :
#
#
# Convention : Reuss Voigt Hill
#
# Bulk Modulus (GPa) = 24.35614 31.99108 28.17361
# Shear Modulus (GPa) = 5.35396 24.59683 14.97540
#
# Velocity S-wave (km/s) = 1.52249 3.26330 2.54628
# Velocity P-wave (km/s) = 3.69263 5.29615 4.56535
#
# Compressibility (1/GPa) = 0.04105741
#
# Stress axis : x y z
#
# Youngs Moduli (GPa) = 96.78588 40.23158 51.28325
#
# Poissons Ratio (x) = -0.16633 0.26909
# Poissons Ratio (y) = -0.40014 0.29243
# Poissons Ratio (z) = 0.50785 0.22941
#
# Static dielectric constant tensor:
#      x y z
#    x 1.936350 0.000000 -0.004400 
#    y 0.000000 1.900990 0.000000 
#    z -0.004400 0.000000 1.866850 
# 
# From -- ./inp_files/60466.got.cif
#   From: 2010.05.17/outbox.cif.g08.bks.cpg/sg14_31_cif.got.tgz:60466.got - 2010.06.03 17:49:19.
