data_PCOD9239217
_publ_section_title
;
Structure prediction by ZEFSAII (Michael W. Deem and Ramdas Pophale) SiO2 
 PCOD9239217
Probable space group: P 21/C
;
_chemical_formula_sum "Si O2"
_cell_formula_units_Z 28
_cell_length_a 8.268067
_cell_length_b 15.974330
_cell_length_c 11.878471
_cell_angle_alpha 90.000000
_cell_angle_beta 122.627079
_cell_angle_gamma 90.000000
_cell_volume 1321.299336
_symmetry_space_group_name_H-M "P 21/C"
_symmetry_group_IT_number 14
_symmetry_cell_setting 'monoclinic'
loop_
_space_group_symop_operation_xyz
x,y,z
-x,1/2+y,1/2-z
-x,-y,-z
x,1/2-y,1/2+z
loop_
_atom_site_type_symbol
_atom_site_label
_atom_site_fract_x
_atom_site_fract_y
_atom_site_fract_z
Si Si1 0.356734 0.498922 0.685127
Si Si2 0.344563 0.135492 0.719517
Si Si3 0.052955 0.576905 0.938120
Si Si4 0.422323 0.772463 0.359521
Si Si5 0.062983 0.618592 0.686730
Si Si6 0.511066 0.088569 0.434850
Si Si7 0.639017 0.880835 0.008804
O O1 0.546917 0.552839 0.785463
O O2 0.177401 0.558573 0.644217
O O3 0.364200 0.422726 0.776827
O O4 0.369062 0.466794 0.563017
O O5 0.468340 0.209801 0.715789
O O6 0.366040 0.123519 0.859645
O O7 0.121454 0.140855 0.604263
O O8 0.039320 0.566717 0.795915
O O9 0.274489 0.601175 0.035178
O O10 0.000000 0.500000 0.000000
O O11 0.205165 0.804569 0.267659
O O12 0.516827 0.834661 0.489189
O O13 0.466335 0.678001 0.405346
O O14 0.858034 0.648338 0.565617
O O15 0.500000 0.000000 0.500000
#
# Coordination Sequence:
#
# PCOD9239217 Si02
#       7
#     4   4   4   4   4   4   4
#     4  11  20  38  64  88 118 162 202 251 311 364
#     4  10  21  38  58  87 122 152 202 261 291 357
#     4  10  16  31  58  89 113 146 200 255 286 333
#     4  10  22  41  60  83 125 161 198 253 312 361
#     4   9  21  40  62  84 123 160 204 251 305 368
#     4  11  18  36  63  87 114 161 204 245 295 354
#     4  11  24  39  60  89 123 160 200 252 319 367
#
# _framework density 21.191261000000001
#
# number of rings (size 3 to 8) (size 9 to 14) (size 15 to 20)
#    0.000    1.714    5.714    0.857    2.000    0.000 
#    2.571    4.286    3.143    0.000    0.000    0.000 
#    0.000    0.000    0.000    0.000    0.000    0.000 
#
# Total GULP energy -155983.002255 kJ/mol
# GULP energy per Si atom -5570.821509 kJ/mol
# Density = 2.114303 g / cm^3
# Si number density = 21.191261 Si / 1000 Ang^3
#
#
#
# Elastic Constant Matrix: (Units=GPa)
#
#
# Indices 1 2 3 4 5 6 
#
# 1 102.2656 17.3208 14.3492 0.0000 -2.3386 0.0000
# 2 17.3208 29.9072 -5.8889 0.0000 1.7998 0.0000
# 3 14.3492 -5.8889 38.2747 0.0000 -2.5082 0.0000
# 4 0.0000 0.0000 0.0000 19.9007 0.0000 0.3045
# 5 -2.3386 1.7998 -2.5082 0.0000 35.4585 0.0000
# 6 0.0000 0.0000 0.0000 0.3045 0.0000 14.2206
#
#
#
# Elastic Compliance Matrix: (Units=1/GPa)
#
#
# Indices 1 2 3 4 5 6 
#
# 1 0.011965 -0.008096 -0.005679 0.000000 0.000798 0.000000
# 2 -0.008096 0.040027 0.009067 0.000000 -0.001924 0.000000
# 3 -0.005679 0.009067 0.029734 0.000000 0.001268 0.000000
# 4 0.000000 0.000000 0.000000 0.050266 0.000000 -0.001076
# 5 0.000798 -0.001924 0.001268 0.000000 0.028442 0.000000
# 6 0.000000 0.000000 0.000000 -0.001076 0.000000 0.070344
#
#
# Mechanical properties :
#
#
# Convention : Reuss Voigt Hill
#
# Bulk Modulus (GPa) = 13.82906 24.66772 19.24839
# Shear Modulus (GPa) = 18.91825 23.56038 21.23932
#
# Velocity S-wave (km/s) = 2.99111 3.33798 3.16930
# Velocity P-wave (km/s) = 4.29756 5.14994 4.74294
#
# Compressibility (1/GPa) = 0.07231148
#
# Stress axis : x y z
#
# Youngs Moduli (GPa) = 83.57920 24.98334 33.63134
#
# Poissons Ratio (x) = 0.20226 0.19099
# Poissons Ratio (y) = 0.67663 -0.30495
# Poissons Ratio (z) = 0.47463 -0.22654
#
# Static dielectric constant tensor:
#      x y z
#    x 1.793490 0.000000 -0.018560 
#    y 0.000000 1.808010 0.000000 
#    z -0.018560 0.000000 1.807270 
# 
# From -- ./inp_files/25378.got.cif
#   From: 2010.05.17/outbox.cif.g08.bks.cpg/sg14_13_cif.got.tgz:25378.got - 2010.06.03 17:49:19.
