data_PCOD9239642
_publ_section_title
;
Structure prediction by ZEFSAII (Michael W. Deem and Ramdas Pophale) SiO2 
 PCOD9239642
Probable space group: P 21/C
;
_chemical_formula_sum "Si O2"
_cell_formula_units_Z 32
_cell_length_a 16.070887
_cell_length_b 11.862787
_cell_length_c 19.175720
_cell_angle_alpha 90.000000
_cell_angle_beta 158.299118
_cell_angle_gamma 90.000000
_cell_volume 1351.759508
_symmetry_space_group_name_H-M "P 21/C"
_symmetry_group_IT_number 14
_symmetry_cell_setting 'monoclinic'
loop_
_space_group_symop_operation_xyz
x,y,z
-x,1/2+y,1/2-z
-x,-y,-z
x,1/2-y,1/2+z
loop_
_atom_site_type_symbol
_atom_site_label
_atom_site_fract_x
_atom_site_fract_y
_atom_site_fract_z
Si Si1 0.964878 0.728927 0.780931
Si Si2 0.891748 0.431314 0.704405
Si Si3 0.732345 0.274117 0.218772
Si Si4 0.722790 0.469344 0.928846
Si Si5 0.315556 0.972473 0.206592
Si Si6 0.294937 0.131691 0.317059
Si Si7 0.041047 0.950708 0.182307
Si Si8 0.486810 0.412204 0.599108
O O1 0.894776 0.787318 0.799400
O O2 0.720094 0.679789 0.564871
O O3 0.064391 0.815972 0.802061
O O4 0.166272 0.646349 0.958644
O O5 0.640726 0.474177 0.526663
O O6 0.969037 0.521494 0.703975
O O7 0.060311 0.448270 0.900277
O O8 0.717244 0.360806 0.272637
O O9 0.933087 0.324594 0.327333
O O10 0.686945 0.149627 0.212564
O O11 0.521996 0.300952 0.004976
O O12 0.553532 0.520527 0.853940
O O13 0.587623 0.445097 0.752886
O O14 0.278210 0.079774 0.227969
O O15 0.135205 0.988645 0.005475
O O16 0.270787 0.021154 0.348330
#
# Coordination Sequence:
#
# PCOD9239642 Si02
#       8
#     4   4   4   4   4   4   4   4
#     4   9  21  35  54  74 109 136 171 212 255 308
#     4  10  20  38  51  77 108 139 168 217 256 307
#     4  10  19  31  50  76 109 136 166 207 258 316
#     4  11  21  32  52  75 109 139 172 211 252 309
#     4  11  19  29  49  79 108 139 165 204 260 311
#     4   9  17  31  48  74 102 137 165 202 266 315
#     4  10  18  29  49  76 107 135 167 204 260 321
#     4  10  21  33  49  81 103 137 180 200 258 311
#
# _framework density 23.672848999999999
#
# number of rings (size 3 to 8) (size 9 to 14) (size 15 to 20)
#    0.000    2.000    1.250    6.000    5.250    1.000 
#    0.000    0.000    0.000    0.000    0.000   24.500 
#    0.000    0.250    0.000    0.000    0.000    0.000 
#
# Total GULP energy -178457.173705 kJ/mol
# GULP energy per Si atom -5576.786678 kJ/mol
# Density = 2.361897 g / cm^3
# Si number density = 23.672849 Si / 1000 Ang^3
#
#
#
# Elastic Constant Matrix: (Units=GPa)
#
#
# Indices 1 2 3 4 5 6 
#
# 1 79.3780 21.8355 27.6675 0.0000 -11.1608 0.0000
# 2 21.8355 36.3678 23.2932 0.0000 4.3772 0.0000
# 3 27.6675 23.2932 117.4730 0.0000 -23.8923 0.0000
# 4 0.0000 0.0000 0.0000 24.0389 0.0000 2.6826
# 5 -11.1608 4.3772 -23.8923 0.0000 32.5610 0.0000
# 6 0.0000 0.0000 0.0000 2.6826 0.0000 43.1751
#
#
#
# Elastic Compliance Matrix: (Units=1/GPa)
#
#
# Indices 1 2 3 4 5 6 
#
# 1 0.016591 -0.010486 -0.000453 0.000000 0.006764 0.000000
# 2 -0.010486 0.041409 -0.008938 0.000000 -0.015720 0.000000
# 3 -0.000453 -0.008938 0.012465 0.000000 0.010193 0.000000
# 4 0.000000 0.000000 0.000000 0.041890 0.000000 -0.002603
# 5 0.006764 -0.015720 0.010193 0.000000 0.042622 0.000000
# 6 0.000000 0.000000 0.000000 -0.002603 0.000000 0.023323
#
#
# Mechanical properties :
#
#
# Convention : Reuss Voigt Hill
#
# Bulk Modulus (GPa) = 32.56087 42.09012 37.32550
# Shear Modulus (GPa) = 21.90183 30.64984 26.27583
#
# Velocity S-wave (km/s) = 3.04499 3.60213 3.33522
# Velocity P-wave (km/s) = 5.11341 5.92613 5.53471
#
# Compressibility (1/GPa) = 0.03071171
#
# Stress axis : x y z
#
# Youngs Moduli (GPa) = 60.27269 24.14909 80.22723
#
# Poissons Ratio (x) = 0.25322 0.03632
# Poissons Ratio (y) = 0.63200 0.71710
# Poissons Ratio (z) = 0.02728 0.21585
#
# Static dielectric constant tensor:
#      x y z
#    x 1.956420 0.000000 0.070390 
#    y 0.000000 2.018570 0.000000 
#    z 0.070390 0.000000 1.930940 
# 
# From -- ./inp_files/69439.got.cif
#   From: 2010.05.17/outbox.cif.g08.bks.cpg/sg14_35_cif.got.tgz:69439.got - 2010.06.03 17:49:19.
