data_PCOD9239062
_publ_section_title
;
Structure prediction by ZEFSAII (Michael W. Deem and Ramdas Pophale) SiO2 
 PCOD9239062
Probable space group: P 2/C
;
_chemical_formula_sum "Si O2"
_cell_formula_units_Z 32
_cell_length_a 18.000000
_cell_length_b 15.000000
_cell_length_c 12.000000
_cell_angle_alpha 90.000000
_cell_angle_beta 30.000000
_cell_angle_gamma 90.000000
_cell_volume 1620.000000
_symmetry_space_group_name_H-M "P 2/C"
_symmetry_group_IT_number 13
_symmetry_cell_setting 'monoclinic'
loop_
_space_group_symop_operation_xyz
x,y,z
-x,y,1/2-z
-x,-y,-z
x,-y,1/2+z
loop_
_atom_site_type_symbol
_atom_site_label
_atom_site_fract_x
_atom_site_fract_y
_atom_site_fract_z
Si Si1 0.269615 0.239225 0.836620
Si Si2 0.831392 0.878635 0.419856
Si Si3 0.156128 0.079630 0.113122
Si Si4 0.764496 0.595634 0.514609
Si Si5 0.445720 0.756565 0.697981
Si Si6 0.021827 0.820713 0.485973
Si Si7 0.054210 0.360344 0.499682
Si Si8 0.849244 0.593384 0.873890
O O1 0.417928 0.243629 0.567612
O O2 0.121892 0.227650 0.950701
O O3 0.266260 0.152104 0.919005
O O4 0.233435 0.321642 0.965526
O O5 0.701408 0.816350 0.637012
O O6 0.859119 0.859749 0.253567
O O7 0.000000 0.867956 0.250000
O O8 0.785290 0.981387 0.483780
O O9 0.000000 0.083371 0.250000
O O10 0.095747 0.108662 0.312853
O O11 0.621285 0.657525 0.699336
O O12 0.843111 0.608759 0.532460
O O13 0.743182 0.491395 0.524934
O O14 0.885485 0.624150 0.262730
O O15 0.500000 0.786884 0.750000
O O16 0.932501 0.744595 0.538202
O O17 0.098604 0.400742 0.322601
O O18 0.000000 0.578771 0.750000
#
# Coordination Sequence:
#
# PCOD9239062 Si02
#       8
#     4   4   4   4   4   4   4   4
#     4  11  22  40  62  91 130 173 212 254 323 389
#     4  11  22  39  67  97 123 163 215 270 321 376
#     4   9  20  37  63  97 124 159 213 271 315 380
#     4  11  25  38  63  98 128 164 219 267 320 369
#     4  12  25  43  65  90 134 177 212 262 323 395
#     4  11  18  36  65  91 129 163 209 262 321 374
#     4  11  20  38  65  95 128 161 213 275 315 362
#     4  12  22  39  68  99 129 171 219 268 315 382
#
# _framework density 19.753086
#
# number of rings (size 3 to 8) (size 9 to 14) (size 15 to 20)
#    0.000    1.000    6.250    1.875    0.000    1.000 
#    0.000    0.625    2.750    0.000    0.000    0.000 
#    0.000    0.000    0.000    0.000    0.000    0.000 
#
# Total GULP energy -178524.303752 kJ/mol
# GULP energy per Si atom -5578.884492 kJ/mol
# Density = 1.970813 g / cm^3
# Si number density = 19.753086 Si / 1000 Ang^3
#
#
#
# Elastic Constant Matrix: (Units=GPa)
#
#
# Indices 1 2 3 4 5 6 
#
# 1 54.0103 27.5977 30.5396 0.0000 15.4438 0.0000
# 2 27.5977 129.9459 42.8614 0.0000 4.8406 0.0000
# 3 30.5396 42.8614 124.3374 0.0000 18.9739 0.0000
# 4 0.0000 0.0000 0.0000 35.7638 0.0000 -5.9061
# 5 15.4438 4.8406 18.9739 0.0000 30.6565 0.0000
# 6 0.0000 0.0000 0.0000 -5.9061 0.0000 26.4321
#
#
#
# Elastic Compliance Matrix: (Units=1/GPa)
#
#
# Indices 1 2 3 4 5 6 
#
# 1 0.025260 -0.003892 -0.003329 0.000000 -0.010050 0.000000
# 2 -0.003892 0.009290 -0.002564 0.000000 0.002081 0.000000
# 3 -0.003329 -0.002564 0.010410 0.000000 -0.004361 0.000000
# 4 0.000000 0.000000 0.000000 0.029033 0.000000 0.006487
# 5 -0.010050 0.002081 -0.004361 0.000000 0.040053 0.000000
# 6 0.000000 0.000000 0.000000 0.006487 0.000000 0.039282
#
#
# Mechanical properties :
#
#
# Convention : Reuss Voigt Hill
#
# Bulk Modulus (GPa) = 39.38653 56.69899 48.04276
# Shear Modulus (GPa) = 27.56928 32.39016 29.97972
#
# Velocity S-wave (km/s) = 3.73995 4.05378 3.90002
# Velocity P-wave (km/s) = 6.21550 7.11878 6.68242
#
# Compressibility (1/GPa) = 0.02538939
#
# Stress axis : x y z
#
# Youngs Moduli (GPa) = 39.58843 107.63843 96.06495
#
# Poissons Ratio (x) = 0.41896 0.31979
# Poissons Ratio (y) = 0.15409 0.24632
# Poissons Ratio (z) = 0.13179 0.27599
#
# Static dielectric constant tensor:
#      x y z
#    x 1.754370 0.000000 0.041490 
#    y 0.000000 1.760730 0.000000 
#    z 0.041490 0.000000 1.663210 
# 
# From -- ./inp_files/39453.got.cif
#   From: 2010.05.17/outbox.ucp.g08.bks.cvg/sg13_20_cif.got.tgz:39453.got - 2010.06.11 12:23:55.
