data_PCOD9239540
_publ_section_title
;
Structure prediction by ZEFSAII (Michael W. Deem and Ramdas Pophale) SiO2 
 PCOD9239540
Probable space group: P 21/C
;
_chemical_formula_sum "Si O2"
_cell_formula_units_Z 24
_cell_length_a 10.613919
_cell_length_b 7.623693
_cell_length_c 19.909354
_cell_angle_alpha 90.000000
_cell_angle_beta 39.753968
_cell_angle_gamma 90.000000
_cell_volume 1030.228643
_symmetry_space_group_name_H-M "P 21/C"
_symmetry_group_IT_number 14
_symmetry_cell_setting 'monoclinic'
loop_
_space_group_symop_operation_xyz
x,y,z
-x,1/2+y,1/2-z
-x,-y,-z
x,1/2-y,1/2+z
loop_
_atom_site_type_symbol
_atom_site_label
_atom_site_fract_x
_atom_site_fract_y
_atom_site_fract_z
Si Si1 0.608658 0.318330 0.931251
Si Si2 0.911510 0.431551 0.967355
Si Si3 0.681854 0.642198 0.359490
Si Si4 0.267582 0.290339 0.305094
Si Si5 0.517336 0.902469 0.661093
Si Si6 0.039738 0.441694 0.194101
O O1 0.540548 0.297843 0.882063
O O2 0.832758 0.381121 0.845613
O O3 0.500000 0.500000 0.000000
O O4 0.518420 0.174374 0.018366
O O5 0.965438 0.563834 0.884582
O O6 0.033369 0.252394 0.904721
O O7 0.678041 0.448997 0.072942
O O8 0.000000 0.500000 0.000000
O O9 0.661231 0.679242 0.288938
O O10 0.818209 0.470295 0.310982
O O11 0.827957 0.792501 0.328237
O O12 0.379744 0.217160 0.324788
O O13 0.330702 0.489893 0.265619
#
# Coordination Sequence:
#
# PCOD9239540 Si02
#       6
#     4   4   4   4   4   4
#     4  10  17  35  63  79 107 156 191 223 289 340
#     4   9  18  33  57  83 108 148 189 223 281 345
#     4  10  19  36  59  85 111 150 193 237 279 342
#     4  10  21  35  59  87 115 148 193 232 284 340
#     4  11  19  39  61  84 114 153 189 235 283 343
#     4  10  18  34  60  83 113 146 190 235 279 336
#
# _framework density 23.295798000000001
#
# number of rings (size 3 to 8) (size 9 to 14) (size 15 to 20)
#    0.000    2.000    6.667    0.000    0.000    0.000 
#    9.000    1.667    7.333    0.000    0.000    0.000 
#    0.000    0.000    0.000    0.000    0.000    0.000 
#
# Total GULP energy -133913.215793 kJ/mol
# GULP energy per Si atom -5579.717325 kJ/mol
# Density = 2.324278 g / cm^3
# Si number density = 23.295798 Si / 1000 Ang^3
#
#
#
# Elastic Constant Matrix: (Units=GPa)
#
#
# Indices 1 2 3 4 5 6 
#
# 1 133.3668 -0.1741 47.4533 0.0000 28.7668 0.0000
# 2 -0.1741 32.2495 -4.4376 0.0000 5.9883 0.0000
# 3 47.4533 -4.4376 107.7332 0.0000 -0.6240 0.0000
# 4 0.0000 0.0000 0.0000 35.1022 0.0000 -9.9045
# 5 28.7668 5.9883 -0.6240 0.0000 48.1666 0.0000
# 6 0.0000 0.0000 0.0000 -9.9045 0.0000 21.0844
#
#
#
# Elastic Compliance Matrix: (Units=1/GPa)
#
#
# Indices 1 2 3 4 5 6 
#
# 1 0.010543 0.000611 -0.004656 0.000000 -0.006433 0.000000
# 2 0.000611 0.031955 0.001022 0.000000 -0.004324 0.000000
# 3 -0.004656 0.001022 0.011391 0.000000 0.002801 0.000000
# 4 0.000000 0.000000 0.000000 0.032841 0.000000 0.015427
# 5 -0.006433 -0.004324 0.002801 0.000000 0.025177 0.000000
# 6 0.000000 0.000000 0.000000 0.015427 0.000000 0.054676
#
#
# Mechanical properties :
#
#
# Convention : Reuss Voigt Hill
#
# Bulk Modulus (GPa) = 20.90149 39.89251 30.39700
# Shear Modulus (GPa) = 26.51425 36.23782 31.37603
#
# Velocity S-wave (km/s) = 3.37732 3.94833 3.67393
# Velocity P-wave (km/s) = 4.91935 6.16013 5.57437
#
# Compressibility (1/GPa) = 0.04784348
#
# Stress axis : x y z
#
# Youngs Moduli (GPa) = 94.84808 31.29386 87.78563
#
# Poissons Ratio (x) = -0.01911 0.40874
# Poissons Ratio (y) = -0.05793 -0.08973
# Poissons Ratio (z) = 0.44162 -0.03199
#
# Static dielectric constant tensor:
#      x y z
#    x 1.857730 0.000000 -0.005720 
#    y 0.000000 1.966150 0.000000 
#    z -0.005720 0.000000 1.993570 
# 
# From -- ./inp_files/66764.got.cif
#   From: 2010.05.17/outbox.cif.g08.bks.cpg/sg14_34_cif.got.tgz:66764.got - 2010.06.03 17:49:19.
