data_PCOD9239406
_publ_section_title
;
Structure prediction by ZEFSAII (Michael W. Deem and Ramdas Pophale) SiO2 
 PCOD9239406
Probable space group: P 21/C
;
_chemical_formula_sum "Si O2"
_cell_formula_units_Z 28
_cell_length_a 31.016723
_cell_length_b 9.451033
_cell_length_c 30.632016
_cell_angle_alpha 90.000000
_cell_angle_beta 170.483484
_cell_angle_gamma 90.000000
_cell_volume 1484.593105
_symmetry_space_group_name_H-M "P 21/C"
_symmetry_group_IT_number 14
_symmetry_cell_setting 'monoclinic'
loop_
_space_group_symop_operation_xyz
x,y,z
-x,1/2+y,1/2-z
-x,-y,-z
x,1/2-y,1/2+z
loop_
_atom_site_type_symbol
_atom_site_label
_atom_site_fract_x
_atom_site_fract_y
_atom_site_fract_z
Si Si1 0.172675 0.520071 0.228952
Si Si2 0.752058 0.227518 0.520149
Si Si3 0.323746 0.353789 0.307255
Si Si4 0.751278 0.530297 0.472213
Si Si5 0.781222 0.905364 0.901063
Si Si6 0.723234 0.217144 0.092420
Si Si7 0.250425 0.035024 0.222068
O O1 0.261360 0.371691 0.296491
O O2 0.375580 0.617799 0.403618
O O3 0.226344 0.570967 0.331416
O O4 0.874812 0.544700 0.917530
O O5 0.748187 0.368583 0.486448
O O6 0.502126 0.123187 0.267302
O O7 0.754997 0.290131 0.572324
O O8 0.002075 0.124109 0.765234
O O9 0.247971 0.202406 0.215632
O O10 0.764945 0.526556 0.432928
O O11 0.557555 0.784599 0.678189
O O12 0.743098 0.011224 0.822066
O O13 0.060772 0.829567 0.175881
O O14 0.500000 0.000000 0.500000
O O15 0.000000 0.000000 0.000000
#
# Coordination Sequence:
#
# PCOD9239406 Si02
#       7
#     4   4   4   4   4   4   4
#     4  10  17  32  53  72  98 126 174 229 260 307
#     4  10  21  36  61  88 115 152 189 241 289 355
#     4  10  20  31  49  73  99 134 170 222 274 292
#     4  10  21  39  61  88 118 151 195 236 299 347
#     4  10  20  35  54  78 106 148 189 223 267 337
#     4  10  17  33  57  79 103 136 192 227 268 334
#     4  12  22  34  51  74 109 145 185 220 261 328
#
# _framework density 18.860385999999998
#
# number of rings (size 3 to 8) (size 9 to 14) (size 15 to 20)
#    0.000    1.714    2.857    2.571    0.000    0.000 
#    0.000    2.857    0.000    0.000    0.000    0.000 
#    0.000    0.000    0.000    0.000    0.000    0.000 
#
# Total GULP energy -155946.421377 kJ/mol
# GULP energy per Si atom -5569.515049 kJ/mol
# Density = 1.881746 g / cm^3
# Si number density = 18.860386 Si / 1000 Ang^3
#
#
#
# Elastic Constant Matrix: (Units=GPa)
#
#
# Indices 1 2 3 4 5 6 
#
# 1 92.4162 38.6953 26.5082 0.0000 -11.1135 0.0000
# 2 38.6953 49.8149 26.4782 0.0000 -1.0218 0.0000
# 3 26.5082 26.4782 119.9145 0.0000 0.8261 0.0000
# 4 0.0000 0.0000 0.0000 18.7147 0.0000 -7.3850
# 5 -11.1135 -1.0218 0.8261 0.0000 22.8950 0.0000
# 6 0.0000 0.0000 0.0000 -7.3850 0.0000 36.5453
#
#
#
# Elastic Compliance Matrix: (Units=1/GPa)
#
#
# Indices 1 2 3 4 5 6 
#
# 1 0.017453 -0.012819 -0.001082 0.000000 0.007939 0.000000
# 2 -0.012819 0.032192 -0.004243 0.000000 -0.004633 0.000000
# 3 -0.001082 -0.004243 0.009523 0.000000 -0.001058 0.000000
# 4 0.000000 0.000000 0.000000 0.058064 0.000000 0.011733
# 5 0.007939 -0.004633 -0.001058 0.000000 0.047363 0.000000
# 6 0.000000 0.000000 0.000000 0.011733 0.000000 0.029734
#
#
# Mechanical properties :
#
#
# Convention : Reuss Voigt Hill
#
# Bulk Modulus (GPa) = 43.70682 49.50100 46.60391
# Shear Modulus (GPa) = 20.98689 26.99526 23.99107
#
# Velocity S-wave (km/s) = 3.33941 3.78738 3.57043
# Velocity P-wave (km/s) = 6.17196 6.74008 6.46227
#
# Compressibility (1/GPa) = 0.02287973
#
# Stress axis : x y z
#
# Youngs Moduli (GPa) = 57.29586 31.06352 105.01316
#
# Poissons Ratio (x) = 0.39821 0.11365
# Poissons Ratio (y) = 0.73449 0.44553
# Poissons Ratio (z) = 0.06201 0.13179
#
# Static dielectric constant tensor:
#      x y z
#    x 1.761530 0.000000 -0.037370 
#    y 0.000000 1.665640 0.000000 
#    z -0.037370 0.000000 1.686410 
# 
# From -- ./inp_files/80913.got.cif
#   From: 2010.05.17/outbox.cif.g08.bks.cpg/sg14_41_cif.got.tgz:80913.got - 2010.06.03 17:49:19.
