data_PCOD9239723
_publ_section_title
;
Structure prediction by ZEFSAII (Michael W. Deem and Ramdas Pophale) SiO2 
 PCOD9239723
Probable space group: P 21/C
;
_chemical_formula_sum "Si O2"
_cell_formula_units_Z 32
_cell_length_a 20.010575
_cell_length_b 6.132120
_cell_length_c 19.528858
_cell_angle_alpha 90.000000
_cell_angle_beta 50.725782
_cell_angle_gamma 90.000000
_cell_volume 1855.061160
_symmetry_space_group_name_H-M "P 21/C"
_symmetry_group_IT_number 14
_symmetry_cell_setting 'monoclinic'
loop_
_space_group_symop_operation_xyz
x,y,z
-x,1/2+y,1/2-z
-x,-y,-z
x,1/2-y,1/2+z
loop_
_atom_site_type_symbol
_atom_site_label
_atom_site_fract_x
_atom_site_fract_y
_atom_site_fract_z
Si Si1 0.588792 0.853555 0.243210
Si Si2 0.613047 0.548769 0.358565
Si Si3 0.872563 0.580558 0.543529
Si Si4 0.036712 0.805460 0.428966
Si Si5 0.797199 0.974426 0.681161
Si Si6 0.722046 0.299739 0.615326
Si Si7 0.528193 0.806458 0.532265
Si Si8 0.398565 0.493110 0.877104
O O1 0.589026 0.718317 0.313459
O O2 0.624043 0.701078 0.159912
O O3 0.649593 0.064353 0.203783
O O4 0.490365 0.914214 0.291423
O O5 0.715600 0.529161 0.283975
O O6 0.585651 0.644925 0.449315
O O7 0.555311 0.330499 0.387842
O O8 0.919952 0.388312 0.555037
O O9 0.826749 0.745782 0.627447
O O10 0.798244 0.466873 0.547641
O O11 0.949371 0.705489 0.453923
O O12 0.118515 0.915400 0.339242
O O13 0.000000 0.000000 0.500000
O O14 0.763904 0.122218 0.639128
O O15 0.673445 0.177913 0.585445
O O16 0.581247 0.903916 0.561020
O O17 0.500000 0.000000 0.500000
#
# Coordination Sequence:
#
# PCOD9239723 Si02
#       8
#     4   4   4   4   4   4   4   4
#     4  12  21  34  54  75 102 140 195 231 271 322
#     4  11  22  37  53  74 101 153 192 232 277 335
#     4   9  16  30  46  75 110 143 163 214 279 337
#     4   8  16  27  47  73 109 145 160 209 280 345
#     4  10  18  31  50  77 102 146 179 219 279 329
#     4  11  20  29  51  76 105 141 178 231 273 331
#     4  11  25  38  51  70 110 155 187 230 284 323
#     4  12  22  33  50  75 100 145 192 233 271 327
#
# _framework density 17.250105999999999
#
# number of rings (size 3 to 8) (size 9 to 14) (size 15 to 20)
#    0.000    1.500    5.000    1.500    0.000    0.000 
#    0.000    0.000    0.000    0.000    0.000    0.000 
#    0.000    0.000  684.250    0.000    0.000    0.000 
#
# Total GULP energy -178266.329428 kJ/mol
# GULP energy per Si atom -5570.822795 kJ/mol
# Density = 1.721084 g / cm^3
# Si number density = 17.250106 Si / 1000 Ang^3
#
#
#
# Elastic Constant Matrix: (Units=GPa)
#
#
# Indices 1 2 3 4 5 6 
#
# 1 90.8438 49.2764 47.3596 0.0000 -22.9046 0.0000
# 2 49.2764 96.9575 36.6079 0.0000 -9.9246 0.0000
# 3 47.3596 36.6079 73.4648 0.0000 -18.9707 0.0000
# 4 0.0000 0.0000 0.0000 31.2317 0.0000 -13.1321
# 5 -22.9046 -9.9246 -18.9707 0.0000 38.1246 0.0000
# 6 0.0000 0.0000 0.0000 -13.1321 0.0000 47.4219
#
#
#
# Elastic Compliance Matrix: (Units=1/GPa)
#
#
# Indices 1 2 3 4 5 6 
#
# 1 0.020574 -0.006672 -0.008256 0.000000 0.006515 0.000000
# 2 -0.006672 0.014869 -0.003607 0.000000 -0.001933 0.000000
# 3 -0.008256 -0.003607 0.022040 0.000000 0.005068 0.000000
# 4 0.000000 0.000000 0.000000 0.036238 0.000000 0.010035
# 5 0.006515 -0.001933 0.005068 0.000000 0.032163 0.000000
# 6 0.000000 0.000000 0.000000 0.010035 0.000000 0.023866
#
#
# Mechanical properties :
#
#
# Convention : Reuss Voigt Hill
#
# Bulk Modulus (GPa) = 48.98855 58.63934 53.81395
# Shear Modulus (GPa) = 25.82313 31.89044 28.85679
#
# Velocity S-wave (km/s) = 3.87329 4.30433 4.09448
# Velocity P-wave (km/s) = 6.96159 7.66618 7.32237
#
# Compressibility (1/GPa) = 0.02041293
#
# Stress axis : x y z
#
# Youngs Moduli (GPa) = 48.60547 67.25478 45.37139
#
# Poissons Ratio (x) = 0.44873 0.37458
# Poissons Ratio (y) = 0.32430 0.16366
# Poissons Ratio (z) = 0.40128 0.24259
#
# Static dielectric constant tensor:
#      x y z
#    x 1.603830 0.000000 -0.042770 
#    y 0.000000 1.661640 0.000000 
#    z -0.042770 0.000000 1.573110 
# 
# From -- ./inp_files/60943.got.cif
#   From: 2010.05.17/outbox.cif.g08.bks.cpg/sg14_31_cif.got.tgz:60943.got - 2010.06.03 17:49:19.
