data_PCOD9239617
_publ_section_title
;
Structure prediction by ZEFSAII (Michael W. Deem and Ramdas Pophale) SiO2 
 PCOD9239617
Probable space group: P 21/C
;
_chemical_formula_sum "Si O2"
_cell_formula_units_Z 32
_cell_length_a 11.739391
_cell_length_b 15.357645
_cell_length_c 9.653818
_cell_angle_alpha 90.000000
_cell_angle_beta 42.087379
_cell_angle_gamma 90.000000
_cell_volume 1166.580332
_symmetry_space_group_name_H-M "P 21/C"
_symmetry_group_IT_number 14
_symmetry_cell_setting 'monoclinic'
loop_
_space_group_symop_operation_xyz
x,y,z
-x,1/2+y,1/2-z
-x,-y,-z
x,1/2-y,1/2+z
loop_
_atom_site_type_symbol
_atom_site_label
_atom_site_fract_x
_atom_site_fract_y
_atom_site_fract_z
Si Si1 0.340982 0.834895 0.214840
Si Si2 0.151620 0.817056 0.802600
Si Si3 0.537998 0.687740 0.202754
Si Si4 0.311227 0.130996 0.168463
Si Si5 0.010504 0.595803 0.891385
Si Si6 0.617815 0.032850 0.271189
Si Si7 0.877361 0.721344 0.790866
Si Si8 0.940207 0.960489 0.903096
O O1 0.280846 0.761670 0.156394
O O2 0.416070 0.766062 0.261741
O O3 0.166069 0.889131 0.357709
O O4 0.503935 0.896764 0.050286
O O5 0.272303 0.890233 0.759718
O O6 0.050740 0.873881 0.781834
O O7 0.012047 0.792628 0.046704
O O8 0.629844 0.701358 0.266621
O O9 0.460009 0.590547 0.282403
O O10 0.697089 0.670097 0.953653
O O11 0.205600 0.183999 0.150114
O O12 0.165386 0.074608 0.371486
O O13 0.036993 0.528935 0.741635
O O14 0.971109 0.686714 0.843590
O O15 0.500000 0.000000 0.500000
O O16 0.738096 0.956708 0.107209
O O17 0.000000 0.000000 0.000000
#
# Coordination Sequence:
#
# PCOD9239617 Si02
#       8
#     4   4   4   4   4   4   4   4
#     4  10  21  35  52  78 111 148 185 223 278 327
#     4  10  19  33  48  73 115 143 179 218 272 340
#     4   9  20  33  50  78 113 136 186 229 271 328
#     4  10  21  32  54  76 108 143 186 227 268 320
#     4  11  20  34  57  78 112 145 181 228 275 335
#     4  10  18  27  47  76 109 148 171 214 279 340
#     4  10  18  34  50  77 108 143 180 222 272 328
#     4  10  19  31  49  78 111 145 172 218 289 332
#
# _framework density 27.430600999999999
#
# number of rings (size 3 to 8) (size 9 to 14) (size 15 to 20)
#    0.000    2.000    3.750    1.500    7.000    0.000 
#    0.000    0.000    0.000    0.000    0.000    4.375 
#    0.000    0.125    0.000    0.000    0.000    0.000 
#
# Total GULP energy -178320.643476 kJ/mol
# GULP energy per Si atom -5572.520109 kJ/mol
# Density = 2.736817 g / cm^3
# Si number density = 27.430601 Si / 1000 Ang^3
#
#
#
# Elastic Constant Matrix: (Units=GPa)
#
#
# Indices 1 2 3 4 5 6 
#
# 1 165.6693 41.1756 38.2260 0.0000 -18.4680 0.0000
# 2 41.1756 89.0930 50.9274 0.0000 -2.3771 0.0000
# 3 38.2260 50.9274 95.1712 0.0000 -28.9568 0.0000
# 4 0.0000 0.0000 0.0000 29.7514 0.0000 6.4150
# 5 -18.4680 -2.3771 -28.9568 0.0000 35.0557 0.0000
# 6 0.0000 0.0000 0.0000 6.4150 0.0000 27.5842
#
#
#
# Elastic Compliance Matrix: (Units=1/GPa)
#
#
# Indices 1 2 3 4 5 6 
#
# 1 0.007247 -0.003164 -0.000162 0.000000 0.003469 0.000000
# 2 -0.003164 0.019470 -0.012359 0.000000 -0.010556 0.000000
# 3 -0.000162 -0.012359 0.022580 0.000000 0.017728 0.000000
# 4 0.000000 0.000000 0.000000 0.035386 0.000000 -0.008229
# 5 0.003469 -0.010556 0.017728 0.000000 0.044282 0.000000
# 6 0.000000 0.000000 0.000000 -0.008229 0.000000 0.038166
#
#
# Mechanical properties :
#
#
# Convention : Reuss Voigt Hill
#
# Bulk Modulus (GPa) = 55.78556 67.84351 61.81453
# Shear Modulus (GPa) = 24.45259 33.11857 28.78558
#
# Velocity S-wave (km/s) = 2.98893 3.47848 3.24295
# Velocity P-wave (km/s) = 5.68267 6.39684 6.05030
#
# Compressibility (1/GPa) = 0.01792579
#
# Stress axis : x y z
#
# Youngs Moduli (GPa) = 137.99557 51.36167 44.28663
#
# Poissons Ratio (x) = 0.16251 0.00717
# Poissons Ratio (y) = 0.43661 0.54736
# Poissons Ratio (z) = 0.02235 0.63480
#
# Static dielectric constant tensor:
#      x y z
#    x 0.656100 0.000000 -0.023130 
#    y 0.000000 2.230240 0.000000 
#    z -0.023130 0.000000 2.235060 
# 
# From -- ./inp_files/30623.got.cif
#   From: 2010.05.17/outbox.cif.g08.bks.cpg/sg14_16_cif.got.tgz:30623.got - 2010.06.03 17:49:19.
