data_PCOD9239898
_publ_section_title
;
Structure prediction by ZEFSAII (Michael W. Deem and Ramdas Pophale) SiO2 
 PCOD9239898
Probable space group: P 21/C
;
_chemical_formula_sum "Si O2"
_cell_formula_units_Z 30
_cell_length_a 15.687059
_cell_length_b 16.764001
_cell_length_c 12.152389
_cell_angle_alpha 90.000000
_cell_angle_beta 152.984088
_cell_angle_gamma 90.000000
_cell_volume 1451.657849
_symmetry_space_group_name_H-M "P 21/C"
_symmetry_group_IT_number 14
_symmetry_cell_setting 'monoclinic'
loop_
_space_group_symop_operation_xyz
x,y,z
-x,1/2+y,1/2-z
-x,-y,-z
x,1/2-y,1/2+z
loop_
_atom_site_type_symbol
_atom_site_label
_atom_site_fract_x
_atom_site_fract_y
_atom_site_fract_z
Si Si1 0.769721 0.789697 0.118783
Si Si2 0.450167 0.007205 0.571279
Si Si3 0.975764 0.621665 0.677569
Si Si4 0.089291 0.116507 0.155982
Si Si5 0.151993 0.941408 0.928166
Si Si6 0.902673 0.577357 0.943837
Si Si7 0.594868 0.376761 0.805423
Si Si8 0.500000 0.000000 0.000000
O O1 0.830129 0.701359 0.216002
O O2 0.867939 0.852223 0.316426
O O3 0.838723 0.815821 0.077594
O O4 0.547106 0.803595 0.868975
O O5 0.252995 0.051176 0.359905
O O6 0.500000 0.000000 0.500000
O O7 0.438960 0.922099 0.617963
O O8 0.624079 0.055401 0.825353
O O9 0.961641 0.619677 0.530327
O O10 0.916272 0.533696 0.650580
O O11 0.187169 0.642026 0.954760
O O12 0.915330 0.093955 0.033417
O O13 0.042219 0.898761 0.703060
O O14 0.702669 0.546849 0.757236
O O15 0.000000 0.500000 0.000000
O O16 0.538117 0.440117 0.647271
#
# Coordination Sequence:
#
# PCOD9239898 Si02
#       8
#     4   4   4   4   4   4   4   2
#     4  11  26  43  62  97 141 167 209 284 341 379
#     4  12  22  40  69  98 124 172 224 268 320 396
#     4  12  22  44  70  94 129 178 219 268 327 401
#     4  12  27  42  65  99 137 169 220 284 337 386
#     4  12  22  40  72  97 124 175 230 266 318 402
#     4  11  20  39  64  94 125 169 215 258 317 397
#     4  11  21  40  69  95 128 170 218 265 325 397
#     4  10  18  32  62  94 118 158 210 256 304 374
#
# _framework density 20.666025999999999
#
# number of rings (size 3 to 8) (size 9 to 14) (size 15 to 20)
#    0.000    0.533    6.667    2.000    1.867    1.067 
#    0.000    0.000    0.000    0.000    0.000    0.000 
#    0.000    0.000    0.000    0.000    0.000    0.000 
#
# Total GULP energy -167323.547842 kJ/mol
# GULP energy per Si atom -5577.451595 kJ/mol
# Density = 2.061899 g / cm^3
# Si number density = 20.666026 Si / 1000 Ang^3
#
#
#
# Elastic Constant Matrix: (Units=GPa)
#
#
# Indices 1 2 3 4 5 6 
#
# 1 39.6956 -11.7264 0.6709 0.0000 -2.5460 0.0000
# 2 -11.7264 57.9475 -14.1593 0.0000 2.0885 0.0000
# 3 0.6709 -14.1593 88.3067 0.0000 -0.6587 0.0000
# 4 0.0000 0.0000 0.0000 17.2768 0.0000 0.2895
# 5 -2.5460 2.0885 -0.6587 0.0000 32.1190 0.0000
# 6 0.0000 0.0000 0.0000 0.2895 0.0000 16.5907
#
#
#
# Elastic Compliance Matrix: (Units=1/GPa)
#
#
# Indices 1 2 3 4 5 6 
#
# 1 0.026936 0.005557 0.000700 0.000000 0.001788 0.000000
# 2 0.005557 0.019147 0.003022 0.000000 -0.000742 0.000000
# 3 0.000700 0.003022 0.011804 0.000000 0.000101 0.000000
# 4 0.000000 0.000000 0.000000 0.057898 0.000000 -0.001010
# 5 0.001788 -0.000742 0.000101 0.000000 0.031326 0.000000
# 6 0.000000 0.000000 0.000000 -0.001010 0.000000 0.060292
#
#
# Mechanical properties :
#
#
# Convention : Reuss Voigt Hill
#
# Bulk Modulus (GPa) = 13.08108 15.05781 14.06944
# Shear Modulus (GPa) = 23.32880 27.27493 25.30187
#
# Velocity S-wave (km/s) = 3.36348 3.63684 3.50283
# Velocity P-wave (km/s) = 4.62898 4.99375 4.81482
#
# Compressibility (1/GPa) = 0.07644631
#
# Stress axis : x y z
#
# Youngs Moduli (GPa) = 37.12469 52.22791 84.71557
#
# Poissons Ratio (x) = -0.29025 -0.05928
# Poissons Ratio (y) = -0.20632 -0.25603
# Poissons Ratio (z) = -0.02598 -0.15785
#
# Static dielectric constant tensor:
#      x y z
#    x 1.743340 0.000000 -0.012430 
#    y 0.000000 1.697580 0.000000 
#    z -0.012430 0.000000 1.748050 
# 
# From -- ./inp_files/33008.got.cif
#   From: 2010.05.17/outbox.cif.g08.bks.cpg/sg14_17_cif.got.tgz:33008.got - 2010.06.03 17:49:19.
