data_PCOD9239748
_publ_section_title
;
Structure prediction by ZEFSAII (Michael W. Deem and Ramdas Pophale) SiO2 
 PCOD9239748
Probable space group: P 21/C
;
_chemical_formula_sum "Si O2"
_cell_formula_units_Z 28
_cell_length_a 15.184921
_cell_length_b 9.286538
_cell_length_c 17.537880
_cell_angle_alpha 90.000000
_cell_angle_beta 145.502111
_cell_angle_gamma 90.000000
_cell_volume 1400.709956
_symmetry_space_group_name_H-M "P 21/C"
_symmetry_group_IT_number 14
_symmetry_cell_setting 'monoclinic'
loop_
_space_group_symop_operation_xyz
x,y,z
-x,1/2+y,1/2-z
-x,-y,-z
x,1/2-y,1/2+z
loop_
_atom_site_type_symbol
_atom_site_label
_atom_site_fract_x
_atom_site_fract_y
_atom_site_fract_z
Si Si1 0.950790 0.884197 0.527229
Si Si2 0.106498 0.861600 0.060498
Si Si3 0.607299 0.774763 0.257126
Si Si4 0.153583 0.640301 0.967627
Si Si5 0.528734 0.408895 0.711230
Si Si6 0.624973 0.391415 0.006842
Si Si7 0.426423 0.845842 0.355066
O O1 0.785920 0.819194 0.382842
O O2 0.069300 0.753531 0.601454
O O3 0.937759 0.987550 0.591732
O O4 0.000000 0.000000 0.500000
O O5 0.289172 0.895916 0.199877
O O6 0.078650 0.775784 0.960057
O O7 0.000000 0.000000 0.000000
O O8 0.587383 0.676413 0.317259
O O9 0.530103 0.691689 0.132102
O O10 0.507110 0.921706 0.191224
O O11 0.305869 0.610181 0.128371
O O12 0.227208 0.660804 0.936692
O O13 0.538813 0.319874 0.640327
O O14 0.580337 0.556781 0.955239
O O15 0.634355 0.371586 0.103278
#
# Coordination Sequence:
#
# PCOD9239748 Si02
#       7
#     4   4   4   4   4   4   4
#     4   9  17  30  49  70  96 128 160 199 247 304
#     4  10  19  32  53  77 100 129 172 211 243 301
#     4  10  18  31  54  78  99 128 167 211 261 306
#     4   8  17  33  50  71  98 131 166 204 254 302
#     4   9  17  30  51  77 100 125 169 218 253 300
#     4  10  20  34  52  72 102 135 167 215 265 305
#     4  10  20  34  50  74 104 134 169 214 263 301
#
# _framework density 19.989864000000001
#
# number of rings (size 3 to 8) (size 9 to 14) (size 15 to 20)
#    0.000    2.571    0.000    4.286    0.000    2.857 
#    0.000    1.429    0.000    3.429    0.000    0.000 
#    0.000    0.000    0.000    0.000    0.000    0.000 
#
# Total GULP energy -155902.673542 kJ/mol
# GULP energy per Si atom -5567.952627 kJ/mol
# Density = 1.994437 g / cm^3
# Si number density = 19.989864 Si / 1000 Ang^3
#
#
#
# Elastic Constant Matrix: (Units=GPa)
#
#
# Indices 1 2 3 4 5 6 
#
# 1 77.2570 27.0061 5.5791 0.0000 4.6795 0.0000
# 2 27.0061 90.7912 7.4947 0.0000 -5.0569 0.0000
# 3 5.5791 7.4947 12.1957 0.0000 -0.1089 0.0000
# 4 0.0000 0.0000 0.0000 23.4750 0.0000 13.0711
# 5 4.6795 -5.0569 -0.1089 0.0000 23.7356 0.0000
# 6 0.0000 0.0000 0.0000 13.0711 0.0000 34.3157
#
#
#
# Elastic Compliance Matrix: (Units=1/GPa)
#
#
# Indices 1 2 3 4 5 6 
#
# 1 0.014999 -0.004329 -0.004236 0.000000 -0.003899 0.000000
# 2 -0.004329 0.012995 -0.005974 0.000000 0.003595 0.000000
# 3 -0.004236 -0.005974 0.087604 0.000000 -0.000036 0.000000
# 4 0.000000 0.000000 0.000000 0.054065 0.000000 -0.020594
# 5 -0.003899 0.003595 -0.000036 0.000000 0.043665 0.000000
# 6 0.000000 0.000000 0.000000 -0.020594 0.000000 0.036986
#
#
# Mechanical properties :
#
#
# Convention : Reuss Voigt Hill
#
# Bulk Modulus (GPa) = 11.55782 28.93374 20.24578
# Shear Modulus (GPa) = 16.22152 25.64953 20.93552
#
# Velocity S-wave (km/s) = 2.85175 3.58596 3.23972
# Velocity P-wave (km/s) = 4.07893 5.62593 4.91370
#
# Compressibility (1/GPa) = 0.08652151
#
# Stress axis : x y z
#
# Youngs Moduli (GPa) = 66.67057 76.95091 11.41496
#
# Poissons Ratio (x) = 0.33312 0.04835
# Poissons Ratio (y) = 0.28862 0.06819
# Poissons Ratio (z) = 0.28242 0.45967
#
# Static dielectric constant tensor:
#      x y z
#    x 1.816070 0.000000 0.039820 
#    y 0.000000 1.931060 0.000000 
#    z 0.039820 0.000000 1.680340 
# 
# From -- ./inp_files/59076.got.cif
#   From: 2010.05.17/outbox.cif.g08.bks.cpg/sg14_30_cif.got.tgz:59076.got - 2010.06.03 17:49:19.
