data_PCOD9239069
_publ_section_title
;
Structure prediction by ZEFSAII (Michael W. Deem and Ramdas Pophale) SiO2 
 PCOD9239069
Probable space group: P 2/C
;
_chemical_formula_sum "Si O2"
_cell_formula_units_Z 28
_cell_length_a 12.000000
_cell_length_b 9.000000
_cell_length_c 15.000000
_cell_angle_alpha 90.000000
_cell_angle_beta 60.000000
_cell_angle_gamma 90.000000
_cell_volume 1402.961154
_symmetry_space_group_name_H-M "P 2/C"
_symmetry_group_IT_number 13
_symmetry_cell_setting 'monoclinic'
loop_
_space_group_symop_operation_xyz
x,y,z
-x,y,1/2-z
-x,-y,-z
x,-y,1/2+z
loop_
_atom_site_type_symbol
_atom_site_label
_atom_site_fract_x
_atom_site_fract_y
_atom_site_fract_z
Si Si1 0.047467 0.873467 0.548788
Si Si2 0.727089 0.051208 0.935452
Si Si3 0.757443 0.372971 0.604984
Si Si4 0.635439 0.437582 0.322137
Si Si5 0.769278 0.118132 0.234064
Si Si6 0.624519 0.936482 0.142493
Si Si7 0.664380 0.399255 0.001470
O O1 0.111911 0.729831 0.470319
O O2 0.920595 0.841541 0.659530
O O3 0.154102 0.959017 0.566544
O O4 0.000000 0.000000 0.500000
O O5 0.737082 0.997379 0.828503
O O6 0.714327 0.230207 0.959061
O O7 0.613241 0.987920 0.044573
O O8 0.704274 0.454671 0.718444
O O9 0.656949 0.238330 0.629816
O O10 0.752290 0.504919 0.534257
O O11 0.695667 0.273206 0.283005
O O12 0.478474 0.409924 0.393147
O O13 0.662628 0.512954 0.407736
O O14 0.725300 0.037231 0.159372
O O15 0.500000 0.961041 0.250000
#
# Coordination Sequence:
#
# PCOD9239069 Si02
#       7
#     4   4   4   4   4   4   4
#     4  11  24  47  68  94 129 177 226 282 328 403
#     4  11  24  42  68  96 133 180 227 280 333 400
#     4  11  23  42  67  93 134 172 218 276 344 396
#     4  11  24  41  67  98 137 174 216 278 340 406
#     4  12  24  44  68  97 134 178 233 277 332 403
#     4  11  22  39  66  96 130 174 224 275 336 400
#     4  11  24  42  63 102 137 170 220 275 342 405
#
# _framework density 19.957787
#
# number of rings (size 3 to 8) (size 9 to 14) (size 15 to 20)
#    0.000    0.857    2.857    6.000    0.000    5.143 
#    0.000    0.000    0.000    0.000    0.000    0.000 
#    0.000    0.000    0.000    0.000    0.000    0.000 
#
# Total GULP energy -155963.668834 kJ/mol
# GULP energy per Si atom -5570.131030 kJ/mol
# Density = 1.991236 g / cm^3
# Si number density = 19.957787 Si / 1000 Ang^3
#
#
#
# Elastic Constant Matrix: (Units=GPa)
#
#
# Indices 1 2 3 4 5 6 
#
# 1 35.7539 16.2978 28.0281 0.0000 -13.3271 0.0000
# 2 16.2978 163.3069 52.9756 0.0000 -1.6053 0.0000
# 3 28.0281 52.9756 162.4992 0.0000 -7.5642 0.0000
# 4 0.0000 0.0000 0.0000 59.0372 0.0000 -1.2435
# 5 -13.3271 -1.6053 -7.5642 0.0000 46.5748 0.0000
# 6 0.0000 0.0000 0.0000 -1.2435 0.0000 31.7620
#
#
#
# Elastic Compliance Matrix: (Units=1/GPa)
#
#
# Indices 1 2 3 4 5 6 
#
# 1 0.036471 -0.001844 -0.005246 0.000000 0.009520 0.000000
# 2 -0.001844 0.006942 -0.001973 0.000000 -0.000609 0.000000
# 3 -0.005246 -0.001973 0.007687 0.000000 -0.000321 0.000000
# 4 0.000000 0.000000 0.000000 0.016952 0.000000 0.000664
# 5 0.009520 -0.000609 -0.000321 0.000000 0.024122 0.000000
# 6 0.000000 0.000000 0.000000 0.000664 0.000000 0.031510
#
#
# Mechanical properties :
#
#
# Convention : Reuss Voigt Hill
#
# Bulk Modulus (GPa) = 30.32862 61.79587 46.06225
# Shear Modulus (GPa) = 32.72204 45.09203 38.90703
#
# Velocity S-wave (km/s) = 4.05354 4.75844 4.42007
# Velocity P-wave (km/s) = 6.09407 7.82437 7.01279
#
# Compressibility (1/GPa) = 0.03297215
#
# Stress axis : x y z
#
# Youngs Moduli (GPa) = 27.41918 144.05858 130.08823
#
# Poissons Ratio (x) = 0.26569 0.68246
# Poissons Ratio (y) = 0.05057 0.25669
# Poissons Ratio (z) = 0.14384 0.28426
#
# Static dielectric constant tensor:
#      x y z
#    x 1.802450 0.000000 -0.036300 
#    y 0.000000 1.683270 0.000000 
#    z -0.036300 0.000000 1.751820 
# 
# From -- ./inp_files/50236.got.cif
#   From: 2010.05.17/outbox.ucp.g08.bks.cvg/sg13_26_cif.got.tgz:50236.got - 2010.06.11 12:23:55.
