data_PCOD9239048
_publ_section_title
;
Structure prediction by ZEFSAII (Michael W. Deem and Ramdas Pophale) SiO2 
 PCOD9239048
Probable space group: P 2/C
;
_chemical_formula_sum "Si O2"
_cell_formula_units_Z 28
_cell_length_a 15.000000
_cell_length_b 9.000000
_cell_length_c 21.000000
_cell_angle_alpha 90.000000
_cell_angle_beta 30.000000
_cell_angle_gamma 90.000000
_cell_volume 1417.500000
_symmetry_space_group_name_H-M "P 2/C"
_symmetry_group_IT_number 13
_symmetry_cell_setting 'monoclinic'
loop_
_space_group_symop_operation_xyz
x,y,z
-x,y,1/2-z
-x,-y,-z
x,-y,1/2+z
loop_
_atom_site_type_symbol
_atom_site_label
_atom_site_fract_x
_atom_site_fract_y
_atom_site_fract_z
Si Si1 0.204659 0.650893 0.208128
Si Si2 0.858556 0.766198 0.487025
Si Si3 0.991904 0.834431 0.537112
Si Si4 0.261449 0.694442 0.703801
Si Si5 0.642044 0.395952 0.022347
Si Si6 0.675032 0.087418 0.598888
Si Si7 0.412669 0.263309 0.973846
O O1 0.189660 0.475226 0.237064
O O2 0.235353 0.654470 0.113254
O O3 0.381273 0.719787 0.131976
O O4 0.036091 0.741123 0.336229
O O5 0.917379 0.739602 0.523720
O O6 0.714509 0.657089 0.544914
O O7 0.776011 0.930122 0.530190
O O8 0.861539 0.800061 0.677077
O O9 0.188021 0.809490 0.445281
O O10 0.000000 0.000000 0.500000
O O11 0.448311 0.669414 0.624919
O O12 0.303470 0.759430 0.607368
O O13 0.636328 0.573166 0.021413
O O14 0.500000 0.067704 0.750000
O O15 0.625989 0.150514 0.559563
#
# Coordination Sequence:
#
# PCOD9239048 Si02
#       7
#     4   4   4   4   4   4   4
#     4   9  19  41  66  97 128 157 209 267 315 380
#     4  11  23  39  64  89 130 168 206 262 317 367
#     4  10  24  41  59  89 131 169 212 258 308 379
#     4   9  20  41  69  94 127 167 208 260 323 375
#     4   9  20  39  68  98 125 159 207 265 320 373
#     4  11  25  44  62  89 128 170 216 261 313 377
#     4   9  20  44  69  95 125 164 211 262 317 382
#
# _framework density 19.753086
#
# number of rings (size 3 to 8) (size 9 to 14) (size 15 to 20)
#    0.000    2.286    0.000    3.000    6.000    1.143 
#   15.429    1.429    0.000    0.000    0.000    0.000 
#    0.000    0.000    0.000    0.000    0.000    0.000 
#
# Total GULP energy -156243.298967 kJ/mol
# GULP energy per Si atom -5580.117820 kJ/mol
# Density = 1.970813 g / cm^3
# Si number density = 19.753086 Si / 1000 Ang^3
#
#
#
# Elastic Constant Matrix: (Units=GPa)
#
#
# Indices 1 2 3 4 5 6 
#
# 1 104.4360 34.7710 41.5723 0.0000 -1.9133 0.0000
# 2 34.7710 43.1480 61.1753 0.0000 3.0124 0.0000
# 3 41.5723 61.1753 140.2863 0.0000 6.0017 0.0000
# 4 0.0000 0.0000 0.0000 27.6935 0.0000 37.4493
# 5 -1.9133 3.0124 6.0017 0.0000 16.6393 0.0000
# 6 0.0000 0.0000 0.0000 37.4493 0.0000 -97.6590
#
#
#
# Elastic Compliance Matrix: (Units=1/GPa)
#
#
# Indices 1 2 3 4 5 6 
#
# 1 0.013463 -0.013684 0.001834 0.000000 0.003364 0.000000
# 2 -0.013684 0.074656 -0.028292 0.000000 -0.004885 0.000000
# 3 0.001834 -0.028292 0.018987 0.000000 -0.001516 0.000000
# 4 0.000000 0.000000 0.000000 0.023779 0.000000 0.009118
# 5 0.003364 -0.004885 -0.001516 0.000000 0.061916 0.000000
# 6 0.000000 0.000000 0.000000 0.009118 0.000000 -0.006743
#
#
# Mechanical properties :
#
#
# Convention : Reuss Voigt Hill
#
# Bulk Modulus (GPa) = 37.28200 62.54528 49.91364
# Shear Modulus (GPa) = 18.16317 -0.64179 8.76069
#
# Velocity S-wave (km/s) = 3.03563 -0.57062 2.10825
# Velocity P-wave (km/s) = 5.58585 5.59447 5.59016
#
# Compressibility (1/GPa) = 0.02682260
#
# Stress axis : x y z
#
# Youngs Moduli (GPa) = 74.27877 13.39476 52.66752
#
# Poissons Ratio (x) = 0.18329 -0.09657
# Poissons Ratio (y) = 1.01640 1.49005
# Poissons Ratio (z) = -0.13620 0.37896
#
# Static dielectric constant tensor:
#      x y z
#    x 1.700540 0.000000 -0.019820 
#    y 0.000000 1.703330 0.000000 
#    z -0.019820 0.000000 1.697620 
# 
# From -- ./inp_files/79959.got.cif
#   From: 2010.05.17/outbox.ucp.g08.bks.cvg/sg13_40_cif.got.tgz:79959.got - 2010.06.11 12:23:55.
