data_PCOD9239275
_publ_section_title
;
Structure prediction by ZEFSAII (Michael W. Deem and Ramdas Pophale) SiO2 
 PCOD9239275
Probable space group: P 21/C
;
_chemical_formula_sum "Si O2"
_cell_formula_units_Z 30
_cell_length_a 14.955254
_cell_length_b 17.641063
_cell_length_c 5.226535
_cell_angle_alpha 90.000000
_cell_angle_beta 66.533219
_cell_angle_gamma 90.000000
_cell_volume 1264.851647
_symmetry_space_group_name_H-M "P 21/C"
_symmetry_group_IT_number 14
_symmetry_cell_setting 'monoclinic'
loop_
_space_group_symop_operation_xyz
x,y,z
-x,1/2+y,1/2-z
-x,-y,-z
x,1/2-y,1/2+z
loop_
_atom_site_type_symbol
_atom_site_label
_atom_site_fract_x
_atom_site_fract_y
_atom_site_fract_z
Si Si1 0.885190 0.281191 0.077561
Si Si2 0.470346 0.197610 0.011049
Si Si3 0.102080 0.282542 0.326510
Si Si4 0.147657 0.951822 0.337166
Si Si5 0.500000 0.500000 0.000000
Si Si6 0.856134 0.951808 0.172023
Si Si7 0.366230 0.078967 0.433182
Si Si8 0.621110 0.067195 0.888748
O O1 0.835062 0.235225 0.363581
O O2 0.897068 0.368780 0.130059
O O3 0.993076 0.248234 0.911537
O O4 0.464925 0.254413 0.259823
O O5 0.385454 0.136386 0.183321
O O6 0.568946 0.146673 0.904518
O O7 0.151598 0.236390 0.499968
O O8 0.093776 0.370494 0.399914
O O9 0.262564 0.935145 0.249635
O O10 0.110008 0.998471 0.624800
O O11 0.136037 0.000757 0.095358
O O12 0.556192 0.586462 0.932057
O O13 0.414363 0.534162 0.302800
O O14 0.743503 0.929813 0.358993
O O15 0.409268 0.993458 0.303700
#
# Coordination Sequence:
#
# PCOD9239275 Si02
#       8
#     4   4   4   4   2   4   4   4
#     4  10  22  43  66  93 132 174 203 255 342 398
#     4  11  26  37  56  90 126 163 212 261 313 373
#     4  10  22  43  66  93 132 174 203 255 342 398
#     4  11  23  41  66 100 125 165 226 274 310 381
#     4  10  16  36  60  82 116 162 204 252 314 364
#     4  11  23  41  66 100 125 165 226 274 310 381
#     4  10  23  38  64  86 125 173 215 263 321 371
#     4  10  23  38  64  86 125 173 215 263 321 371
#
# _framework density 23.718198000000001
#
# number of rings (size 3 to 8) (size 9 to 14) (size 15 to 20)
#    0.000    1.600    1.333    3.200    7.467    2.133 
#    0.000   16.000    0.000    0.000    0.000    0.000 
#    0.000    0.000    0.000    0.000    0.000    0.000 
#
# Total GULP energy -167390.922409 kJ/mol
# GULP energy per Si atom -5579.697414 kJ/mol
# Density = 2.366421 g / cm^3
# Si number density = 23.718198 Si / 1000 Ang^3
#
#
#
# Elastic Constant Matrix: (Units=GPa)
#
#
# Indices 1 2 3 4 5 6 
#
# 1 45.5593 31.3038 35.1555 0.0000 -14.9524 0.0000
# 2 31.3038 120.1567 5.7230 0.0000 3.7429 0.0000
# 3 35.1555 5.7230 54.9790 0.0000 48.7178 0.0000
# 4 0.0000 0.0000 0.0000 49.2661 0.0000 9.6229
# 5 -14.9524 3.7429 48.7178 0.0000 35.7637 0.0000
# 6 0.0000 0.0000 0.0000 9.6229 0.0000 22.7894
#
#
#
# Elastic Compliance Matrix: (Units=1/GPa)
#
#
# Indices 1 2 3 4 5 6 
#
# 1 0.003341 -0.001002 0.016238 0.000000 -0.020618 0.000000
# 2 -0.001002 0.008648 -0.004410 0.000000 0.004684 0.000000
# 3 0.016238 -0.004410 -0.008885 0.000000 0.019354 0.000000
# 4 0.000000 0.000000 0.000000 0.022123 0.000000 -0.009341
# 5 -0.020618 0.004684 0.019354 0.000000 -0.007513 0.000000
# 6 0.000000 0.000000 0.000000 -0.009341 0.000000 0.047825
#
#
# Mechanical properties :
#
#
# Convention : Reuss Voigt Hill
#
# Bulk Modulus (GPa) = 40.39393 40.56216 40.47805
# Shear Modulus (GPa) = 95.90165 31.46467 63.68316
#
# Velocity S-wave (km/s) = 6.36565 3.64621 5.18731
# Velocity P-wave (km/s) = 8.43187 5.90468 7.27880
#
# Compressibility (1/GPa) = 0.02475620
#
# Stress axis : x y z
#
# Youngs Moduli (GPa) = 299.32601 115.63993 -112.54922
#
# Poissons Ratio (x) = 0.11581 1.82758
# Poissons Ratio (y) = 0.29978 -0.49635
# Poissons Ratio (z) = -4.86046 0.50998
#
# Static dielectric constant tensor:
#      x y z
#    x 2.219830 0.000000 0.453520 
#    y 0.000000 1.934050 0.000000 
#    z 0.453520 0.000000 2.263890 
# 
# From -- ./inp_files/4178.got.cif
#   From: 2010.05.17/outbox.cif.g08.bks.cpg/sg14_3_cif.got.tgz:4178.got - 2010.06.03 17:49:19.
