data_PCOD9239391
_publ_section_title
;
Structure prediction by ZEFSAII (Michael W. Deem and Ramdas Pophale) SiO2 
 PCOD9239391
Probable space group: P 21/C
;
_chemical_formula_sum "Si O2"
_cell_formula_units_Z 32
_cell_length_a 12.215440
_cell_length_b 19.906735
_cell_length_c 8.810723
_cell_angle_alpha 90.000000
_cell_angle_beta 55.340937
_cell_angle_gamma 90.000000
_cell_volume 1762.314063
_symmetry_space_group_name_H-M "P 21/C"
_symmetry_group_IT_number 14
_symmetry_cell_setting 'monoclinic'
loop_
_space_group_symop_operation_xyz
x,y,z
-x,1/2+y,1/2-z
-x,-y,-z
x,1/2-y,1/2+z
loop_
_atom_site_type_symbol
_atom_site_label
_atom_site_fract_x
_atom_site_fract_y
_atom_site_fract_z
Si Si1 0.500673 0.157386 0.259502
Si Si2 0.487360 0.039468 0.671361
Si Si3 0.323861 0.657891 0.951462
Si Si4 0.711788 0.948740 0.591367
Si Si5 0.258641 0.950369 0.933087
Si Si6 0.880486 0.049476 0.269836
Si Si7 0.407483 0.727138 0.597020
Si Si8 0.111106 0.019018 0.288023
O O1 0.368177 0.116046 0.398571
O O2 0.631241 0.108674 0.170894
O O3 0.515018 0.221284 0.355821
O O4 0.502855 0.183034 0.085007
O O5 0.540799 0.115180 0.617186
O O6 0.500000 0.000000 0.500000
O O7 0.594831 0.004413 0.697540
O O8 0.342559 0.019599 0.844193
O O9 0.327313 0.679836 0.774554
O O10 0.203891 0.609035 0.086862
O O11 0.321310 0.724642 0.055839
O O12 0.783985 0.939779 0.694764
O O13 0.812967 0.980966 0.389262
O O14 0.151414 0.945346 0.882599
O O15 0.187201 0.956388 0.150972
O O16 0.030079 0.052121 0.213298
O O17 0.000000 0.000000 0.500000
#
# Coordination Sequence:
#
# PCOD9239391 Si02
#       8
#     4   4   4   4   4   4   4   4
#     4  10  21  34  55  84 111 141 181 226 282 335
#     4  10  17  31  57  84 112 137 167 227 288 336
#     4  10  19  34  53  81 112 142 181 226 273 329
#     4   9  19  34  54  83 112 135 172 224 284 329
#     4  11  20  33  59  84 111 143 180 225 295 333
#     4  10  19  37  56  78 114 146 181 224 279 333
#     4  10  21  33  51  82 111 148 179 223 273 325
#     4  10  23  35  51  85 109 143 177 224 279 327
#
# _framework density 18.157945000000002
#
# number of rings (size 3 to 8) (size 9 to 14) (size 15 to 20)
#    0.000    2.000    3.750    1.125    7.000    1.000 
#    0.000    0.000    0.000    1.500    0.000    0.000 
#    0.000    0.000    0.000    0.000    0.000    0.000 
#
# Total GULP energy -178257.305876 kJ/mol
# GULP energy per Si atom -5570.540809 kJ/mol
# Density = 1.811662 g / cm^3
# Si number density = 18.157945 Si / 1000 Ang^3
#
#
#
# Elastic Constant Matrix: (Units=GPa)
#
#
# Indices 1 2 3 4 5 6 
#
# 1 92.2925 5.9111 9.7969 0.0000 7.2720 0.0000
# 2 5.9111 51.2939 18.1588 0.0000 3.9110 0.0000
# 3 9.7969 18.1588 70.8376 0.0000 13.6791 0.0000
# 4 0.0000 0.0000 0.0000 30.3523 0.0000 8.7374
# 5 7.2720 3.9110 13.6791 0.0000 18.7449 0.0000
# 6 0.0000 0.0000 0.0000 8.7374 0.0000 12.6689
#
#
#
# Elastic Compliance Matrix: (Units=1/GPa)
#
#
# Indices 1 2 3 4 5 6 
#
# 1 0.011247 -0.000787 -0.000632 0.000000 -0.003738 0.000000
# 2 -0.000787 0.021501 -0.005349 0.000000 -0.000277 0.000000
# 3 -0.000632 -0.005349 0.017824 0.000000 -0.011646 0.000000
# 4 0.000000 0.000000 0.000000 0.041108 0.000000 -0.028351
# 5 -0.003738 -0.000277 -0.011646 0.000000 0.063355 0.000000
# 6 0.000000 0.000000 0.000000 -0.028351 0.000000 0.098486
#
#
# Mechanical properties :
#
#
# Convention : Reuss Voigt Hill
#
# Bulk Modulus (GPa) = 27.00115 31.35085 29.17600
# Shear Modulus (GPa) = 17.89528 24.39035 21.14282
#
# Velocity S-wave (km/s) = 3.14273 3.66899 3.41601
# Velocity P-wave (km/s) = 5.29825 5.93732 5.62686
#
# Compressibility (1/GPa) = 0.03703547
#
# Stress axis : x y z
#
# Youngs Moduli (GPa) = 88.91155 46.50926 56.10301
#
# Poissons Ratio (x) = 0.03662 0.03545
# Poissons Ratio (y) = 0.07001 0.30011
# Poissons Ratio (z) = 0.05618 0.24879
#
# Static dielectric constant tensor:
#      x y z
#    x 1.658870 0.000000 0.022430 
#    y 0.000000 1.638720 0.000000 
#    z 0.022430 0.000000 1.669840 
# 
# From -- ./inp_files/14175.got.cif
#   From: 2010.05.17/outbox.cif.g08.bks.cpg/sg14_8_cif.got.tgz:14175.got - 2010.06.03 17:49:19.
