data_PCOD9239091
_publ_section_title
;
Structure prediction by ZEFSAII (Michael W. Deem and Ramdas Pophale) SiO2 
 PCOD9239091
Probable space group: P 21/C
;
_chemical_formula_sum "Si O2"
_cell_formula_units_Z 32
_cell_length_a 20.002877
_cell_length_b 12.328005
_cell_length_c 5.176058
_cell_angle_alpha 90.000000
_cell_angle_beta 90.933519
_cell_angle_gamma 90.000000
_cell_volume 1276.223548
_symmetry_space_group_name_H-M "P 21/C"
_symmetry_group_IT_number 14
_symmetry_cell_setting 'monoclinic'
loop_
_space_group_symop_operation_xyz
x,y,z
-x,1/2+y,1/2-z
-x,-y,-z
x,1/2-y,1/2+z
loop_
_atom_site_type_symbol
_atom_site_label
_atom_site_fract_x
_atom_site_fract_y
_atom_site_fract_z
Si Si1 0.788364 0.681393 0.208505
Si Si2 0.977709 0.135432 0.720521
Si Si3 0.938928 0.893495 0.753785
Si Si4 0.489207 0.324700 0.789910
Si Si5 0.166749 0.854009 0.196606
Si Si6 0.775079 0.384185 0.797244
Si Si7 0.367977 0.673417 0.296759
Si Si8 0.650232 0.675282 0.336443
O O1 0.783707 0.783375 0.409178
O O2 0.720719 0.617751 0.283898
O O3 0.862659 0.639870 0.260766
O O4 0.019667 0.167308 0.470242
O O5 0.907469 0.193681 0.772429
O O6 0.024993 0.117632 0.969249
O O7 0.945450 0.017246 0.668538
O O8 0.489135 0.226029 0.577625
O O9 0.559919 0.382031 0.741235
O O10 0.419501 0.385037 0.727112
O O11 0.195656 0.923465 0.432777
O O12 0.213051 0.746698 0.178403
O O13 0.177073 0.918274 0.932944
O O14 0.697281 0.400785 0.741976
O O15 0.365035 0.733961 0.572380
O O16 0.649180 0.726549 0.622609
#
# Coordination Sequence:
#
# PCOD9239091 Si02
#       8
#     4   4   4   4   4   4   4   4
#     4  10  19  33  50  72  97 118 142 192 240 278
#     4  10  21  37  53  64  91 121 158 195 219 273
#     4  10  21  38  52  69  88 121 156 189 232 274
#     4   8  14  20  34  55  79 117 149 164 203 266
#     4  10  18  30  43  62  85 120 144 185 226 258
#     4  10  17  28  41  63  94 115 144 181 224 263
#     4  10  14  23  36  54  86 123 142 173 211 260
#     4   8  14  25  39  59  88 115 137 177 219 266
#
# _framework density 25.073979000000001
#
# number of rings (size 3 to 8) (size 9 to 14) (size 15 to 20)
#    0.000    2.500    2.500    1.500    0.000    0.000 
#   13.500    0.000    0.000    0.000    0.000    0.000 
#    0.000    2.000    0.000    0.000    0.000    5.500 
#
# Total GULP energy -178662.955377 kJ/mol
# GULP energy per Si atom -5583.217356 kJ/mol
# Density = 2.501691 g / cm^3
# Si number density = 25.073979 Si / 1000 Ang^3
#
#
#
# Elastic Constant Matrix: (Units=GPa)
#
#
# Indices 1 2 3 4 5 6 
#
# 1 236.3757 7.7654 3.9864 0.0000 1.0063 0.0000
# 2 7.7654 23.0626 -11.1421 0.0000 -3.8139 0.0000
# 3 3.9864 -11.1421 112.7103 0.0000 -6.7388 0.0000
# 4 0.0000 0.0000 0.0000 30.4829 0.0000 1.3036
# 5 1.0063 -3.8139 -6.7388 0.0000 37.4342 0.0000
# 6 0.0000 0.0000 0.0000 1.3036 0.0000 10.4493
#
#
#
# Elastic Compliance Matrix: (Units=1/GPa)
#
#
# Indices 1 2 3 4 5 6 
#
# 1 0.004292 -0.001665 -0.000337 0.000000 -0.000346 0.000000
# 2 -0.001665 0.047333 0.005084 0.000000 0.005782 0.000000
# 3 -0.000337 0.005084 0.009521 0.000000 0.002241 0.000000
# 4 0.000000 0.000000 0.000000 0.032981 0.000000 -0.004115
# 5 -0.000346 0.005782 0.002241 0.000000 0.027715 0.000000
# 6 0.000000 0.000000 0.000000 -0.004115 0.000000 0.096214
#
#
# Mechanical properties :
#
#
# Convention : Reuss Voigt Hill
#
# Bulk Modulus (GPa) = 14.85682 41.48535 28.17108
# Shear Modulus (GPa) = 21.33738 40.44253 30.88995
#
# Velocity S-wave (km/s) = 2.92032 4.02048 3.51373
# Velocity P-wave (km/s) = 4.16041 6.17523 5.26510
#
# Compressibility (1/GPa) = 0.06730916
#
# Stress axis : x y z
#
# Youngs Moduli (GPa) = 232.96879 21.12678 105.03344
#
# Poissons Ratio (x) = 0.03518 0.03541
# Poissons Ratio (y) = 0.38797 -0.53397
# Poissons Ratio (z) = 0.07854 -0.10740
#
# Static dielectric constant tensor:
#      x y z
#    x 2.077810 0.000000 -0.024400 
#    y 0.000000 2.055680 0.000000 
#    z -0.024400 0.000000 2.086670 
# 
# From -- ./inp_files/4233.got.cif
#   From: 2010.05.17/outbox.cif.g08.bks.cpg/sg14_3_cif.got.tgz:4233.got - 2010.06.03 17:49:19.
