data_PCOD9239961
_publ_section_title
;
Structure prediction by ZEFSAII (Michael W. Deem and Ramdas Pophale) SiO2 
 PCOD9239961
Probable space group: P 21/C
;
_chemical_formula_sum "Si O2"
_cell_formula_units_Z 28
_cell_length_a 20.886642
_cell_length_b 12.618723
_cell_length_c 11.413704
_cell_angle_alpha 90.000000
_cell_angle_beta 20.079956
_cell_angle_gamma 90.000000
_cell_volume 1032.818098
_symmetry_space_group_name_H-M "P 21/C"
_symmetry_group_IT_number 14
_symmetry_cell_setting 'monoclinic'
loop_
_space_group_symop_operation_xyz
x,y,z
-x,1/2+y,1/2-z
-x,-y,-z
x,1/2-y,1/2+z
loop_
_atom_site_type_symbol
_atom_site_label
_atom_site_fract_x
_atom_site_fract_y
_atom_site_fract_z
Si Si1 0.497337 0.744509 0.883255
Si Si2 0.043686 0.526259 0.131288
Si Si3 0.280425 0.342781 0.813182
Si Si4 0.621700 0.076888 0.584300
Si Si5 0.853031 0.297251 0.859006
Si Si6 0.220578 0.929245 0.075575
Si Si7 0.596475 0.630728 0.009840
O O1 0.341329 0.767568 0.244793
O O2 0.684603 0.791314 0.619337
O O3 0.474674 0.631523 0.862702
O O4 0.453320 0.817987 0.849414
O O5 0.109243 0.421059 0.088634
O O6 0.166164 0.532453 0.800179
O O7 0.059267 0.624854 0.193616
O O8 0.841426 0.510527 0.419956
O O9 0.457091 0.415007 0.465084
O O10 0.287501 0.234749 0.724676
O O11 0.796084 0.137658 0.341097
O O12 0.685944 0.963404 0.429187
O O13 0.906329 0.177628 0.728773
O O14 0.441605 0.909511 0.685923
#
# Coordination Sequence:
#
# PCOD9239961 Si02
#       7
#     4   4   4   4   4   4   4
#     4  10  18  33  58  84 111 148 192 250 287 336
#     4  11  23  40  62  84 121 160 191 239 295 346
#     4  10  20  36  58  89 113 151 197 241 286 350
#     4  10  19  32  59  83 117 145 194 247 292 338
#     4  11  19  40  60  85 112 154 204 236 292 354
#     4  11  22  39  59  86 117 158 197 237 291 353
#     4  11  19  36  57  90 115 147 199 241 293 347
#
# _framework density 27.110291
#
# number of rings (size 3 to 8) (size 9 to 14) (size 15 to 20)
#    0.000    1.429    7.143    0.857    0.000    2.857 
#    2.571    2.857    0.000    2.571    0.000    0.000 
#    0.000    0.000    0.000    0.000    0.000    0.000 
#
# Total GULP energy -156324.805392 kJ/mol
# GULP energy per Si atom -5583.028764 kJ/mol
# Density = 2.704859 g / cm^3
# Si number density = 27.110291 Si / 1000 Ang^3
#
#
#
# Elastic Constant Matrix: (Units=GPa)
#
#
# Indices 1 2 3 4 5 6 
#
# 1 129.3636 83.6403 13.2689 0.0000 9.1060 0.0000
# 2 83.6403 146.4752 4.9076 0.0000 -6.7710 0.0000
# 3 13.2689 4.9076 49.1147 0.0000 -7.9061 0.0000
# 4 0.0000 0.0000 0.0000 30.1538 0.0000 1.4708
# 5 9.1060 -6.7710 -7.9061 0.0000 25.1908 0.0000
# 6 0.0000 0.0000 0.0000 1.4708 0.0000 75.1289
#
#
#
# Elastic Compliance Matrix: (Units=1/GPa)
#
#
# Indices 1 2 3 4 5 6 
#
# 1 0.014216 -0.008375 -0.004416 0.000000 -0.008776 0.000000
# 2 -0.008375 0.011855 0.002189 0.000000 0.006901 0.000000
# 3 -0.004416 0.002189 0.022841 0.000000 0.009353 0.000000
# 4 0.000000 0.000000 0.000000 0.033195 0.000000 -0.000650
# 5 -0.008776 0.006901 0.009353 0.000000 0.047660 0.000000
# 6 0.000000 0.000000 0.000000 -0.000650 0.000000 0.013323
#
#
# Mechanical properties :
#
#
# Convention : Reuss Voigt Hill
#
# Bulk Modulus (GPa) = 36.09301 58.73190 47.41246
# Shear Modulus (GPa) = 28.81331 40.97048 34.89190
#
# Velocity S-wave (km/s) = 3.26363 3.89170 3.59142
# Velocity P-wave (km/s) = 5.24824 6.47340 5.89274
#
# Compressibility (1/GPa) = 0.02770619
#
# Stress axis : x y z
#
# Youngs Moduli (GPa) = 70.34320 84.35073 43.78180
#
# Poissons Ratio (x) = 0.70647 0.19336
# Poissons Ratio (y) = 0.58915 -0.09584
# Poissons Ratio (z) = 0.31067 -0.18464
#
# Static dielectric constant tensor:
#      x y z
#    x 2.156370 0.000000 -0.039430 
#    y 0.000000 2.193080 0.000000 
#    z -0.039430 0.000000 2.174990 
# 
# From -- ./inp_files/35144.got.cif
#   From: 2010.05.17/outbox.cif.g08.bks.cpg/sg14_18_cif.got.tgz:35144.got - 2010.06.03 17:49:19.
