data_PCOD9239117
_publ_section_title
;
Structure prediction by ZEFSAII (Michael W. Deem and Ramdas Pophale) SiO2 
 PCOD9239117
Probable space group: P 21/C
;
_chemical_formula_sum "Si O2"
_cell_formula_units_Z 24
_cell_length_a 6.267359
_cell_length_b 8.489031
_cell_length_c 17.913694
_cell_angle_alpha 90.000000
_cell_angle_beta 91.582726
_cell_angle_gamma 90.000000
_cell_volume 952.713069
_symmetry_space_group_name_H-M "P 21/C"
_symmetry_group_IT_number 14
_symmetry_cell_setting 'monoclinic'
loop_
_space_group_symop_operation_xyz
x,y,z
-x,1/2+y,1/2-z
-x,-y,-z
x,1/2-y,1/2+z
loop_
_atom_site_type_symbol
_atom_site_label
_atom_site_fract_x
_atom_site_fract_y
_atom_site_fract_z
Si Si1 0.296995 0.983724 0.214378
Si Si2 0.351437 0.614894 0.950318
Si Si3 0.210766 0.347689 0.854557
Si Si4 0.317025 0.812818 0.816078
Si Si5 0.113455 0.035600 0.924062
Si Si6 0.579421 0.342723 0.424701
O O1 0.179862 0.105036 0.268564
O O2 0.541996 0.047943 0.217554
O O3 0.262213 0.817569 0.254842
O O4 0.279836 0.957381 0.125520
O O5 0.183015 0.499665 0.907981
O O6 0.446778 0.711209 0.880653
O O7 0.500000 0.500000 0.000000
O O8 0.297869 0.746814 0.010743
O O9 0.456379 0.287326 0.870274
O O10 0.075476 0.202218 0.881804
O O11 0.132764 0.895888 0.863132
O O12 0.365193 0.068140 0.949271
O O13 0.000000 0.000000 0.000000
#
# Coordination Sequence:
#
# PCOD9239117 Si02
#       6
#     4   4   4   4   4   4
#     4  10  15  28  45  77 100 117 154 204 258 294
#     4   9  17  31  45  74 102 123 153 205 254 291
#     4   8  16  29  47  69 106 122 159 198 250 290
#     4  10  18  28  51  72 101 121 157 202 250 299
#     4   9  18  31  45  70 101 133 162 196 234 293
#     4   8  16  27  49  70 101 121 160 199 253 288
#
# _framework density 25.191215
#
# number of rings (size 3 to 8) (size 9 to 14) (size 15 to 20)
#    1.000    2.000    1.667    0.000    0.000    2.667 
#    0.000    3.333    0.000    0.000    0.000   32.667 
#    0.000    0.000    0.000    0.000    0.000    0.000 
#
# Total GULP energy -133699.261143 kJ/mol
# GULP energy per Si atom -5570.802548 kJ/mol
# Density = 2.513388 g / cm^3
# Si number density = 25.191215 Si / 1000 Ang^3
#
#
#
# Elastic Constant Matrix: (Units=GPa)
#
#
# Indices 1 2 3 4 5 6 
#
# 1 45.9579 34.4094 55.2025 0.0000 -13.4538 0.0000
# 2 34.4094 155.2518 83.9789 0.0000 -25.1184 0.0000
# 3 55.2025 83.9789 227.3682 0.0000 -17.8321 0.0000
# 4 0.0000 0.0000 0.0000 67.8770 0.0000 -8.1207
# 5 -13.4538 -25.1184 -17.8321 0.0000 47.3121 0.0000
# 6 0.0000 0.0000 0.0000 -8.1207 0.0000 19.7794
#
#
#
# Elastic Compliance Matrix: (Units=1/GPa)
#
#
# Indices 1 2 3 4 5 6 
#
# 1 0.033527 -0.002968 -0.006615 0.000000 0.005465 0.000000
# 2 -0.002968 0.008828 -0.002307 0.000000 0.002973 0.000000
# 3 -0.006615 -0.002307 0.006814 0.000000 -0.000537 0.000000
# 4 0.000000 0.000000 0.000000 0.015494 0.000000 0.006361
# 5 0.005465 0.002973 -0.000537 0.000000 0.024066 0.000000
# 6 0.000000 0.000000 0.000000 0.006361 0.000000 0.053169
#
#
# Mechanical properties :
#
#
# Convention : Reuss Voigt Hill
#
# Bulk Modulus (GPa) = 39.38793 86.19550 62.79171
# Shear Modulus (GPa) = 28.71239 43.99284 36.35261
#
# Velocity S-wave (km/s) = 3.37972 4.18348 3.80289
# Velocity P-wave (km/s) = 5.55874 7.59118 6.65303
#
# Compressibility (1/GPa) = 0.02538849
#
# Stress axis : x y z
#
# Youngs Moduli (GPa) = 29.82682 113.27782 146.75631
#
# Poissons Ratio (x) = 0.33626 0.97079
# Poissons Ratio (y) = 0.08854 0.33852
# Poissons Ratio (z) = 0.19730 0.26130
#
# Static dielectric constant tensor:
#      x y z
#    x 2.142920 0.000000 0.059020 
#    y 0.000000 2.041270 0.000000 
#    z 0.059020 0.000000 2.000090 
# 
# From -- ./inp_files/54504.got.cif
#   From: 2010.05.17/outbox.cif.g08.bks.cpg/sg14_28_cif.got.tgz:54504.got - 2010.06.03 17:49:19.
