data_PCOD9239671
_publ_section_title
;
Structure prediction by ZEFSAII (Michael W. Deem and Ramdas Pophale) SiO2 
 PCOD9239671
Probable space group: P 21/C
;
_chemical_formula_sum "Si O2"
_cell_formula_units_Z 26
_cell_length_a 10.192936
_cell_length_b 21.881550
_cell_length_c 7.100129
_cell_angle_alpha 90.000000
_cell_angle_beta 134.152561
_cell_angle_gamma 90.000000
_cell_volume 1136.208447
_symmetry_space_group_name_H-M "P 21/C"
_symmetry_group_IT_number 14
_symmetry_cell_setting 'monoclinic'
loop_
_space_group_symop_operation_xyz
x,y,z
-x,1/2+y,1/2-z
-x,-y,-z
x,1/2-y,1/2+z
loop_
_atom_site_type_symbol
_atom_site_label
_atom_site_fract_x
_atom_site_fract_y
_atom_site_fract_z
Si Si1 0.289286 0.895607 0.832229
Si Si2 0.000000 0.500000 0.000000
Si Si3 0.289284 0.104394 0.746339
Si Si4 0.292017 0.431401 0.804963
Si Si5 0.707986 0.068598 0.720934
Si Si6 0.000001 0.698398 0.125066
Si Si7 0.000002 0.161487 0.938920
O O1 0.179666 0.831478 0.709575
O O2 0.160892 0.948361 0.621522
O O3 0.500001 0.893515 0.980641
O O4 0.292623 0.913323 0.059338
O O5 0.839112 0.551641 0.799744
O O6 0.292624 0.086677 0.525909
O O7 0.179666 0.168523 0.649756
O O8 0.213468 0.499999 0.713465
O O9 0.175842 0.380658 0.581124
O O10 0.500002 0.433656 0.945388
O O11 0.824164 0.119340 0.729447
O O12 0.000000 0.673439 0.336871
O O13 0.000001 0.770986 0.141768
#
# Coordination Sequence:
#
# PCOD9239671 Si02
#       7
#     4   2   4   4   4   4   4
#     4   9  18  34  53  73 107 140 166 211 262 310
#     4  10  18  30  50  76 100 132 174 198 250 312
#     4   9  18  34  53  73 107 140 166 211 262 310
#     4   9  18  34  56  79 100 132 176 218 264 307
#     4   9  18  34  56  79 100 132 176 218 264 307
#     4   9  20  35  51  75 102 141 182 206 262 313
#     4  10  19  35  53  76 106 141 173 220 256 312
#
# _framework density 22.883126000000001
#
# number of rings (size 3 to 8) (size 9 to 14) (size 15 to 20)
#    0.000    2.769    0.000    1.846    0.000    1.231 
#   11.077    0.000    0.000    0.000    0.000    0.000 
#    0.000    0.000    0.000    0.000    0.000    0.000 
#
# Total GULP energy -144791.496073 kJ/mol
# GULP energy per Si atom -5568.903695 kJ/mol
# Density = 2.283104 g / cm^3
# Si number density = 22.883126 Si / 1000 Ang^3
#
#
#
# Elastic Constant Matrix: (Units=GPa)
#
#
# Indices 1 2 3 4 5 6 
#
# 1 30.2794 56.3915 109.6305 0.0000 26.0001 0.0000
# 2 56.3915 222.8946 71.9827 0.0000 50.8543 0.0000
# 3 109.6305 71.9827 55.6974 0.0000 56.9452 0.0000
# 4 0.0000 0.0000 0.0000 7.6509 0.0000 -9.5942
# 5 26.0001 50.8543 56.9452 0.0000 65.3736 0.0000
# 6 0.0000 0.0000 0.0000 -9.5942 0.0000 10.5866
#
#
#
# Elastic Compliance Matrix: (Units=1/GPa)
#
#
# Indices 1 2 3 4 5 6 
#
# 1 -0.000289 -0.001802 0.012312 0.000000 -0.009208 0.000000
# 2 -0.001802 0.006133 -0.002137 0.000000 -0.002193 0.000000
# 3 0.012312 -0.002137 -0.001934 0.000000 -0.001550 0.000000
# 4 0.000000 0.000000 0.000000 -0.957940 0.000000 -0.868142
# 5 -0.009208 -0.002193 -0.001550 0.000000 0.022015 0.000000
# 6 0.000000 0.000000 0.000000 -0.868142 0.000000 -0.692303
#
#
# Mechanical properties :
#
#
# Convention : Reuss Voigt Hill
#
# Bulk Modulus (GPa) = 48.41163 87.20900 67.81031
# Shear Modulus (GPa) = -3.05964 21.44667 9.19352
#
# Velocity S-wave (km/s) = -1.15757 3.06474 2.00657
# Velocity P-wave (km/s) = 4.40628 7.12158 5.92166
#
# Compressibility (1/GPa) = 0.02065619
#
# Stress axis : x y z
#
# Youngs Moduli (GPa) = -3460.50461 163.06087 -517.10353
#
# Poissons Ratio (x) = 0.29387 6.36665
# Poissons Ratio (y) = -6.23657 -1.10492
# Poissons Ratio (z) = 42.60621 0.34842
#
# Static dielectric constant tensor:
#      x y z
#    x 1.912030 0.000000 -0.078710 
#    y 0.000000 1.842570 0.000000 
#    z -0.078710 0.000000 1.887950 
# 
# From -- ./inp_files/14105.got.cif
#   From: 2010.05.17/outbox.cif.g08.bks.cpg/sg14_8_cif.got.tgz:14105.got - 2010.06.03 17:49:19.
