data_PCOD9239645
_publ_section_title
;
Structure prediction by ZEFSAII (Michael W. Deem and Ramdas Pophale) SiO2 
 PCOD9239645
Probable space group: P 21/C
;
_chemical_formula_sum "Si O2"
_cell_formula_units_Z 32
_cell_length_a 10.389895
_cell_length_b 5.093191
_cell_length_c 23.454698
_cell_angle_alpha 90.000000
_cell_angle_beta 89.124636
_cell_angle_gamma 90.000000
_cell_volume 1241.024282
_symmetry_space_group_name_H-M "P 21/C"
_symmetry_group_IT_number 14
_symmetry_cell_setting 'monoclinic'
loop_
_space_group_symop_operation_xyz
x,y,z
-x,1/2+y,1/2-z
-x,-y,-z
x,1/2-y,1/2+z
loop_
_atom_site_type_symbol
_atom_site_label
_atom_site_fract_x
_atom_site_fract_y
_atom_site_fract_z
Si Si1 0.633631 0.572574 0.864039
Si Si2 0.288821 0.926533 0.988635
Si Si3 0.949465 0.013328 0.266536
Si Si4 0.161578 0.070829 0.534023
Si Si5 0.583297 0.431469 0.743964
Si Si6 0.490661 0.578086 0.592714
Si Si7 0.068430 0.580701 0.883917
Si Si8 0.790227 0.593976 0.659203
O O1 0.743129 0.554506 0.911247
O O2 0.669085 0.482188 0.800331
O O3 0.521089 0.371508 0.883814
O O4 0.578690 0.865504 0.866750
O O5 0.186619 0.147957 0.005872
O O6 0.218311 0.649578 0.991699
O O7 0.396145 0.923393 0.037858
O O8 0.369722 0.997362 0.931932
O O9 0.857471 0.873815 0.221207
O O10 0.929969 0.322948 0.254895
O O11 0.964212 0.960087 0.333025
O O12 0.019155 0.039682 0.560008
O O13 0.465744 0.634096 0.754839
O O14 0.652121 0.508532 0.684496
O O15 0.130666 0.865924 0.873916
O O16 0.178708 0.364406 0.872670
#
# Coordination Sequence:
#
# PCOD9239645 Si02
#       8
#     4   4   4   4   4   4   4   4
#     4  10  20  34  52  74 103 141 176 211 254 301
#     4   9  17  28  46  76 111 142 165 198 240 298
#     4   8  15  26  43  65  90 123 160 193 228 287
#     4  10  18  29  49  79 113 140 167 197 240 308
#     4  12  25  40  55  73  99 131 180 232 263 286
#     4   9  17  31  50  72 105 143 172 198 248 308
#     4  10  18  30  48  72 101 133 164 192 241 312
#     4  10  20  34  49  67  96 131 166 208 256 295
#
# _framework density 25.785150999999999
#
# number of rings (size 3 to 8) (size 9 to 14) (size 15 to 20)
#    0.000    2.250    0.000    3.750    0.000    3.000 
#    0.000   10.000    0.000    0.000    0.000    0.000 
#    0.000   70.000    0.000    0.000    0.000    0.000 
#
# Total GULP energy -178891.314153 kJ/mol
# GULP energy per Si atom -5590.353567 kJ/mol
# Density = 2.572646 g / cm^3
# Si number density = 25.785151 Si / 1000 Ang^3
#
#
#
# Elastic Constant Matrix: (Units=GPa)
#
#
# Indices 1 2 3 4 5 6 
#
# 1 80.7215 13.1193 20.0136 0.0000 -11.7172 0.0000
# 2 13.1193 132.1312 11.5046 0.0000 -10.7140 0.0000
# 3 20.0136 11.5046 141.2606 0.0000 -14.2728 0.0000
# 4 0.0000 0.0000 0.0000 27.8133 0.0000 9.3009
# 5 -11.7172 -10.7140 -14.2728 0.0000 50.4867 0.0000
# 6 0.0000 0.0000 0.0000 9.3009 0.0000 22.5873
#
#
#
# Elastic Compliance Matrix: (Units=1/GPa)
#
#
# Indices 1 2 3 4 5 6 
#
# 1 0.013288 -0.000986 -0.001556 0.000000 0.002435 0.000000
# 2 -0.000986 0.007805 -0.000362 0.000000 0.001325 0.000000
# 3 -0.001556 -0.000362 0.007499 0.000000 0.001682 0.000000
# 4 0.000000 0.000000 0.000000 0.041695 0.000000 -0.017169
# 5 0.002435 0.001325 0.001682 0.000000 0.021129 0.000000
# 6 0.000000 0.000000 0.000000 -0.017169 0.000000 0.051343
#
#
# Mechanical properties :
#
#
# Convention : Reuss Voigt Hill
#
# Bulk Modulus (GPa) = 43.89323 49.26535 46.57929
# Shear Modulus (GPa) = 32.01793 40.80919 36.41356
#
# Velocity S-wave (km/s) = 3.52763 3.98259 3.76199
# Velocity P-wave (km/s) = 5.80102 6.34788 6.08060
#
# Compressibility (1/GPa) = 0.02278256
#
# Stress axis : x y z
#
# Youngs Moduli (GPa) = 75.25674 128.12062 133.35054
#
# Poissons Ratio (x) = 0.12638 0.20753
# Poissons Ratio (y) = 0.07424 0.04828
# Poissons Ratio (z) = 0.11712 0.04638
#
# Static dielectric constant tensor:
#      x y z
#    x 2.288060 0.000000 0.107960 
#    y 0.000000 1.991410 0.000000 
#    z 0.107960 0.000000 2.061890 
# 
# From -- ./inp_files/76842.got.cif
#   From: 2010.05.17/outbox.cif.g08.bks.cpg/sg14_39_cif.got.tgz:76842.got - 2010.06.03 17:49:19.
