data_PCOD9239138
_publ_section_title
;
Structure prediction by ZEFSAII (Michael W. Deem and Ramdas Pophale) SiO2 
 PCOD9239138
Probable space group: P 21/C
;
_chemical_formula_sum "Si O2"
_cell_formula_units_Z 32
_cell_length_a 8.315291
_cell_length_b 11.884669
_cell_length_c 23.355247
_cell_angle_alpha 90.000000
_cell_angle_beta 46.746678
_cell_angle_gamma 90.000000
_cell_volume 1681.039611
_symmetry_space_group_name_H-M "P 21/C"
_symmetry_group_IT_number 14
_symmetry_cell_setting 'monoclinic'
loop_
_space_group_symop_operation_xyz
x,y,z
-x,1/2+y,1/2-z
-x,-y,-z
x,1/2-y,1/2+z
loop_
_atom_site_type_symbol
_atom_site_label
_atom_site_fract_x
_atom_site_fract_y
_atom_site_fract_z
Si Si1 0.419497 0.261649 0.338394
Si Si2 0.882507 0.359446 0.693095
Si Si3 0.092258 0.936978 0.693025
Si Si4 0.409432 0.513732 0.312506
Si Si5 0.389366 0.088091 0.441966
Si Si6 0.380064 0.907918 0.350881
Si Si7 0.711165 0.786243 0.756567
Si Si8 0.044511 0.137931 0.619924
O O1 0.667391 0.215553 0.264654
O O2 0.405558 0.395972 0.345996
O O3 0.340104 0.194617 0.412917
O O4 0.290001 0.232758 0.311653
O O5 0.924143 0.446476 0.734263
O O6 0.817346 0.426810 0.651695
O O7 0.065116 0.263730 0.639529
O O8 0.347669 0.920187 0.614758
O O9 0.953831 0.823512 0.714755
O O10 0.004518 0.043614 0.678496
O O11 0.521660 0.487419 0.223136
O O12 0.559424 0.605488 0.306407
O O13 0.255600 0.099815 0.532468
O O14 0.324132 0.979122 0.420348
O O15 0.575678 0.818814 0.314711
O O16 0.162145 0.858031 0.374123
#
# Coordination Sequence:
#
# PCOD9239138 Si02
#       8
#     4   4   4   4   4   4   4   4
#     4   9  17  34  58  79 112 149 191 242 274 341
#     4  10  20  34  57  84 116 149 206 233 287 346
#     4  11  22  35  54  85 119 156 187 236 300 347
#     4  10  15  35  59  83 107 143 200 243 266 327
#     4  11  23  37  53  92 126 150 187 233 320 351
#     4  11  19  36  59  86 114 150 197 246 281 341
#     4  10  18  32  59  83 109 145 203 238 276 331
#     4  12  22  37  59  85 123 154 185 254 291 355
#
# _framework density 19.035838999999999
#
# number of rings (size 3 to 8) (size 9 to 14) (size 15 to 20)
#    0.000    1.500    8.750    0.750    1.750    0.000 
#    0.000    0.625    0.000    0.000    0.000    6.125 
#    0.000    0.000    0.000    0.000    0.000    0.000 
#
# Total GULP energy -178420.267706 kJ/mol
# GULP energy per Si atom -5575.633366 kJ/mol
# Density = 1.899251 g / cm^3
# Si number density = 19.035839 Si / 1000 Ang^3
#
#
#
# Elastic Constant Matrix: (Units=GPa)
#
#
# Indices 1 2 3 4 5 6 
#
# 1 47.4278 3.9289 11.3383 0.0000 1.0689 0.0000
# 2 3.9289 112.6850 24.9728 0.0000 8.6018 0.0000
# 3 11.3383 24.9728 39.2178 0.0000 11.3039 0.0000
# 4 0.0000 0.0000 0.0000 20.5433 0.0000 0.6795
# 5 1.0689 8.6018 11.3039 0.0000 11.6729 0.0000
# 6 0.0000 0.0000 0.0000 0.6795 0.0000 25.6033
#
#
#
# Elastic Compliance Matrix: (Units=1/GPa)
#
#
# Indices 1 2 3 4 5 6 
#
# 1 0.022996 0.000696 -0.008791 0.000000 0.005894 0.000000
# 2 0.000696 0.010379 -0.006364 0.000000 -0.001549 0.000000
# 3 -0.008791 -0.006364 0.042321 0.000000 -0.035489 0.000000
# 4 0.000000 0.000000 0.000000 0.048720 0.000000 -0.001293
# 5 0.005894 -0.001549 -0.035489 0.000000 0.120638 0.000000
# 6 0.000000 0.000000 0.000000 -0.001293 0.000000 0.039092
#
#
# Mechanical properties :
#
#
# Convention : Reuss Voigt Hill
#
# Bulk Modulus (GPa) = 21.37650 31.09007 26.23329
# Shear Modulus (GPa) = 15.21353 22.16993 18.69173
#
# Velocity S-wave (km/s) = 2.83009 3.41639 3.13696
# Velocity P-wave (km/s) = 4.68329 5.65067 5.18957
#
# Compressibility (1/GPa) = 0.04678033
#
# Stress axis : x y z
#
# Youngs Moduli (GPa) = 43.48644 96.35261 23.62869
#
# Poissons Ratio (x) = -0.06710 0.20771
# Poissons Ratio (y) = -0.03029 0.15036
# Poissons Ratio (z) = 0.38227 0.61314
#
# Static dielectric constant tensor:
#      x y z
#    x 1.728340 0.000000 -0.003360 
#    y 0.000000 1.706080 0.000000 
#    z -0.003360 0.000000 1.648710 
# 
# From -- ./inp_files/65574.got.cif
#   From: 2010.05.17/outbox.cif.g08.bks.cpg/sg14_33_cif.got.tgz:65574.got - 2010.06.03 17:49:19.
