data_PCOD9239127
_publ_section_title
;
Structure prediction by ZEFSAII (Michael W. Deem and Ramdas Pophale) SiO2 
 PCOD9239127
Probable space group: P 21/C
;
_chemical_formula_sum "Si O2"
_cell_formula_units_Z 28
_cell_length_a 10.683570
_cell_length_b 9.134621
_cell_length_c 13.689323
_cell_angle_alpha 90.000000
_cell_angle_beta 72.803809
_cell_angle_gamma 90.000000
_cell_volume 1276.226566
_symmetry_space_group_name_H-M "P 21/C"
_symmetry_group_IT_number 14
_symmetry_cell_setting 'monoclinic'
loop_
_space_group_symop_operation_xyz
x,y,z
-x,1/2+y,1/2-z
-x,-y,-z
x,1/2-y,1/2+z
loop_
_atom_site_type_symbol
_atom_site_label
_atom_site_fract_x
_atom_site_fract_y
_atom_site_fract_z
Si Si1 0.526231 0.454667 0.642523
Si Si2 0.791784 0.668577 0.139115
Si Si3 0.219809 0.336023 0.086339
Si Si4 0.278171 0.499457 0.569461
Si Si5 0.944555 0.408448 0.106277
Si Si6 0.577250 0.850293 0.306538
Si Si7 0.951065 0.151816 0.965459
O O1 0.399597 0.518596 0.614785
O O2 0.653336 0.505671 0.553390
O O3 0.522425 0.277615 0.638613
O O4 0.526124 0.519885 0.751055
O O5 0.831344 0.510684 0.174158
O O6 0.678719 0.754365 0.218732
O O7 0.923021 0.767689 0.109296
O O8 0.755363 0.642399 0.034344
O O9 0.335678 0.403774 0.122878
O O10 0.073159 0.390366 0.142723
O O11 0.220956 0.161408 0.102336
O O12 0.163727 0.617896 0.584785
O O13 0.904744 0.255679 0.066060
O O14 0.000000 0.500000 0.000000
O O15 0.000000 0.000000 0.000000
#
# Coordination Sequence:
#
# PCOD9239127 Si02
#       7
#     4   4   4   4   4   4   4
#     4  10  23  39  58  81 119 156 204 242 285 340
#     4  10  20  38  57  85 125 149 179 250 304 351
#     4   9  17  36  60  79 117 151 185 230 302 342
#     4  10  18  37  64  82 110 161 199 238 284 353
#     4   8  17  32  53  86 116 143 175 231 305 346
#     4  11  22  41  58  85 117 157 201 249 285 346
#     4  10  15  30  62  88 107 146 197 230 289 358
#
# _framework density 21.939679000000002
#
# number of rings (size 3 to 8) (size 9 to 14) (size 15 to 20)
#    0.000    2.571    4.286    0.000    0.000    1.143 
#   12.857    0.714    0.000    0.000    0.000    0.000 
#    0.000    0.000    0.000    0.000    0.000    0.000 
#
# Total GULP energy -156274.891428 kJ/mol
# GULP energy per Si atom -5581.246122 kJ/mol
# Density = 2.188974 g / cm^3
# Si number density = 21.939679 Si / 1000 Ang^3
#
#
#
# Elastic Constant Matrix: (Units=GPa)
#
#
# Indices 1 2 3 4 5 6 
#
# 1 64.7485 19.5059 19.6081 0.0000 26.3502 0.0000
# 2 19.5059 70.5067 -3.2737 0.0000 13.2590 0.0000
# 3 19.6081 -3.2737 52.4215 0.0000 21.8445 0.0000
# 4 0.0000 0.0000 0.0000 26.9585 0.0000 4.6103
# 5 26.3502 13.2590 21.8445 0.0000 43.2633 0.0000
# 6 0.0000 0.0000 0.0000 4.6103 0.0000 31.2272
#
#
#
# Elastic Compliance Matrix: (Units=1/GPa)
#
#
# Indices 1 2 3 4 5 6 
#
# 1 0.022162 -0.004481 -0.004454 0.000000 -0.009876 0.000000
# 2 -0.004481 0.016521 0.004661 0.000000 -0.004687 0.000000
# 3 -0.004454 0.004661 0.025960 0.000000 -0.011824 0.000000
# 4 0.000000 0.000000 0.000000 0.038055 0.000000 -0.005618
# 5 -0.009876 -0.004687 -0.011824 0.000000 0.036536 0.000000
# 6 0.000000 0.000000 0.000000 -0.005618 0.000000 0.032853
#
#
# Mechanical properties :
#
#
# Convention : Reuss Voigt Hill
#
# Bulk Modulus (GPa) = 17.82681 28.81748 23.32214
# Shear Modulus (GPa) = 25.08365 30.41223 27.74794
#
# Velocity S-wave (km/s) = 3.38494 3.72718 3.56017
# Velocity P-wave (km/s) = 4.83943 5.62902 5.24909
#
# Compressibility (1/GPa) = 0.05609529
#
# Stress axis : x y z
#
# Youngs Moduli (GPa) = 45.12168 60.53052 38.52044
#
# Poissons Ratio (x) = 0.27123 0.17157
# Poissons Ratio (y) = 0.20218 -0.17955
# Poissons Ratio (z) = 0.20098 -0.28214
#
# Static dielectric constant tensor:
#      x y z
#    x 1.834000 0.000000 -0.000570 
#    y 0.000000 1.826260 0.000000 
#    z -0.000570 0.000000 1.905040 
# 
# From -- ./inp_files/43140.got.cif
#   From: 2010.05.17/outbox.cif.g08.bks.cpg/sg14_22_cif.got.tgz:43140.got - 2010.06.03 17:49:19.
