data_PCOD9239168
_publ_section_title
;
Structure prediction by ZEFSAII (Michael W. Deem and Ramdas Pophale) SiO2 
 PCOD9239168
Probable space group: P 21/C
;
_chemical_formula_sum "Si O2"
_cell_formula_units_Z 22
_cell_length_a 18.391834
_cell_length_b 5.056998
_cell_length_c 12.727868
_cell_angle_alpha 90.000000
_cell_angle_beta 135.407518
_cell_angle_gamma 90.000000
_cell_volume 831.088891
_symmetry_space_group_name_H-M "P 21/C"
_symmetry_group_IT_number 14
_symmetry_cell_setting 'monoclinic'
loop_
_space_group_symop_operation_xyz
x,y,z
-x,1/2+y,1/2-z
-x,-y,-z
x,1/2-y,1/2+z
loop_
_atom_site_type_symbol
_atom_site_label
_atom_site_fract_x
_atom_site_fract_y
_atom_site_fract_z
Si Si1 0.035007 0.758707 0.724431
Si Si2 0.500000 0.000000 0.000000
Si Si3 0.458986 0.127369 0.648225
Si Si4 0.243624 0.519316 0.003007
Si Si5 0.726848 0.209201 0.242452
Si Si6 0.151629 0.276693 0.594742
O O1 0.988862 0.557774 0.766095
O O2 0.969937 0.697653 0.552408
O O3 0.154736 0.681486 0.854074
O O4 0.488213 0.249427 0.067797
O O5 0.617799 0.114621 0.084673
O O6 0.484469 0.352615 0.762593
O O7 0.337813 0.070684 0.530539
O O8 0.290312 0.687660 0.147804
O O9 0.194581 0.280402 0.020203
O O10 0.783405 0.486896 0.290961
O O11 0.814151 0.986398 0.309851
#
# Coordination Sequence:
#
# PCOD9239168 Si02
#       6
#     4   2   4   4   4   4
#     4  10  16  28  56  88 117 157 208 253 317 381
#     4  12  26  44  66  96 128 180 216 268 330 376
#     4  12  26  44  66  93 132 172 221 270 319 386
#     4   9  20  34  58  88 122 161 207 262 310 382
#     4  10  20  34  57  83 120 161 204 257 306 377
#     4   9  17  33  55  87 118 157 207 252 315 374
#
# _framework density 26.471297
#
# number of rings (size 3 to 8) (size 9 to 14) (size 15 to 20)
#    1.091    0.727    3.636    1.091    0.000    2.909 
#    0.000    0.000    0.000    2.182    0.000    0.000 
#    0.000    0.000    0.000    0.000    0.000    0.000 
#
# Total GULP energy -122556.115889 kJ/mol
# GULP energy per Si atom -5570.732540 kJ/mol
# Density = 2.641105 g / cm^3
# Si number density = 26.471297 Si / 1000 Ang^3
#
#
#
# Elastic Constant Matrix: (Units=GPa)
#
#
# Indices 1 2 3 4 5 6 
#
# 1 47.9386 -5.0214 26.5838 0.0000 3.4891 0.0000
# 2 -5.0214 124.6257 65.6481 0.0000 7.2048 0.0000
# 3 26.5838 65.6481 155.1232 0.0000 27.4774 0.0000
# 4 0.0000 0.0000 0.0000 41.9792 0.0000 0.0182
# 5 3.4891 7.2048 27.4774 0.0000 38.8609 0.0000
# 6 0.0000 0.0000 0.0000 0.0182 0.0000 25.1601
#
#
#
# Elastic Compliance Matrix: (Units=1/GPa)
#
#
# Indices 1 2 3 4 5 6 
#
# 1 0.024670 0.004211 -0.006264 0.000000 0.001433 0.000000
# 2 0.004211 0.011106 -0.005705 0.000000 0.001596 0.000000
# 3 -0.006264 -0.005705 0.011028 0.000000 -0.006178 0.000000
# 4 0.000000 0.000000 0.000000 0.023821 0.000000 -0.000017
# 5 0.001433 0.001596 -0.006178 0.000000 0.029676 0.000000
# 6 0.000000 0.000000 0.000000 -0.000017 0.000000 0.039746
#
#
# Mechanical properties :
#
#
# Convention : Reuss Voigt Hill
#
# Bulk Modulus (GPa) = 31.95936 55.78985 43.87461
# Shear Modulus (GPa) = 30.12177 37.23183 33.67680
#
# Velocity S-wave (km/s) = 3.37694 3.75440 3.57066
# Velocity P-wave (km/s) = 5.22536 6.31786 5.79740
#
# Compressibility (1/GPa) = 0.03128974
#
# Stress axis : x y z
#
# Youngs Moduli (GPa) = 40.53486 90.03891 90.67561
#
# Poissons Ratio (x) = -0.37911 0.56795
# Poissons Ratio (y) = -0.17067 0.51726
# Poissons Ratio (z) = 0.25389 0.51363
#
# Static dielectric constant tensor:
#      x y z
#    x 2.072020 0.000000 -0.037160 
#    y 0.000000 2.050350 0.000000 
#    z -0.037160 0.000000 2.139270 
# 
# From -- ./inp_files/49530.got.cif
#   From: 2010.05.17/outbox.cif.g08.bks.cpg/sg14_25_cif.got.tgz:49530.got - 2010.06.03 17:49:19.
