data_PCOD9239836
_publ_section_title
;
Structure prediction by ZEFSAII (Michael W. Deem and Ramdas Pophale) SiO2 
 PCOD9239836
Probable space group: P 21/C
;
_chemical_formula_sum "Si O2"
_cell_formula_units_Z 30
_cell_length_a 6.871499
_cell_length_b 13.947937
_cell_length_c 14.398166
_cell_angle_alpha 90.000000
_cell_angle_beta 57.398682
_cell_angle_gamma 90.000000
_cell_volume 1162.539244
_symmetry_space_group_name_H-M "P 21/C"
_symmetry_group_IT_number 14
_symmetry_cell_setting 'monoclinic'
loop_
_space_group_symop_operation_xyz
x,y,z
-x,1/2+y,1/2-z
-x,-y,-z
x,1/2-y,1/2+z
loop_
_atom_site_type_symbol
_atom_site_label
_atom_site_fract_x
_atom_site_fract_y
_atom_site_fract_z
Si Si1 0.000000 0.500000 0.500000
Si Si2 0.897589 0.812803 0.152223
Si Si3 0.638248 0.529357 0.116775
Si Si4 0.901368 0.359465 0.996102
Si Si5 0.568006 0.996687 0.834355
Si Si6 0.087366 0.826632 0.289712
Si Si7 0.510640 0.772527 0.618088
Si Si8 0.755573 0.610384 0.447536
O O1 0.039021 0.415664 0.406339
O O2 0.009025 0.592690 0.418876
O O3 0.089886 0.734606 0.068812
O O4 0.884904 0.821511 0.266576
O O5 0.669981 0.766808 0.163378
O O6 0.499615 0.521608 0.247458
O O7 0.546742 0.617779 0.082651
O O8 0.890118 0.569220 0.086889
O O9 0.679727 0.427898 0.058725
O O10 0.955281 0.331694 0.090044
O O11 0.695816 0.915300 0.859007
O O12 0.747639 0.084070 0.781398
O O13 0.342967 0.024589 0.954582
O O14 0.253711 0.740088 0.219652
O O15 0.609790 0.702017 0.513926
#
# Coordination Sequence:
#
# PCOD9239836 Si02
#       8
#     2   4   4   4   4   4   4   4
#     4  10  18  32  54  82 120 142 188 252 298 340
#     4  10  20  38  55  86 118 147 195 253 291 352
#     4   9  18  38  58  80 119 160 193 251 293 370
#     4   9  20  38  60  84 117 161 207 238 310 372
#     4   9  17  32  59  79 109 151 196 231 305 347
#     4  10  19  38  59  82 116 156 189 250 296 362
#     4   9  20  36  54  86 117 143 202 235 298 358
#     4   9  17  31  53  88 108 143 191 245 285 356
#
# _framework density 25.805582000000001
#
# number of rings (size 3 to 8) (size 9 to 14) (size 15 to 20)
#    0.000    2.667    1.333    0.000    0.000    1.067 
#   14.400    0.667    0.000    0.000    0.000    0.000 
#    0.000    0.000    0.000    0.000    0.000    0.000 
#
# Total GULP energy -167139.026675 kJ/mol
# GULP energy per Si atom -5571.300889 kJ/mol
# Density = 2.574685 g / cm^3
# Si number density = 25.805582 Si / 1000 Ang^3
#
#
#
# Elastic Constant Matrix: (Units=GPa)
#
#
# Indices 1 2 3 4 5 6 
#
# 1 46.8864 4.1254 32.4225 0.0000 7.1156 0.0000
# 2 4.1254 101.1881 39.7512 0.0000 10.3407 0.0000
# 3 32.4225 39.7512 105.0468 0.0000 10.5376 0.0000
# 4 0.0000 0.0000 0.0000 32.1862 0.0000 -0.4680
# 5 7.1156 10.3407 10.5376 0.0000 28.4673 0.0000
# 6 0.0000 0.0000 0.0000 -0.4680 0.0000 20.4926
#
#
#
# Elastic Compliance Matrix: (Units=1/GPa)
#
#
# Indices 1 2 3 4 5 6 
#
# 1 0.028273 0.003018 -0.009399 0.000000 -0.004684 0.000000
# 2 0.003018 0.012132 -0.005198 0.000000 -0.003237 0.000000
# 3 -0.009399 -0.005198 0.014501 0.000000 -0.001130 0.000000
# 4 0.000000 0.000000 0.000000 0.031080 0.000000 0.000710
# 5 -0.004684 -0.003237 -0.001130 0.000000 0.037893 0.000000
# 6 0.000000 0.000000 0.000000 0.000710 0.000000 0.048814
#
#
# Mechanical properties :
#
#
# Convention : Reuss Voigt Hill
#
# Bulk Modulus (GPa) = 31.49671 45.07997 38.28834
# Shear Modulus (GPa) = 24.22101 28.01737 26.11919
#
# Velocity S-wave (km/s) = 3.06697 3.29859 3.18489
# Velocity P-wave (km/s) = 4.97731 5.65814 5.32861
#
# Compressibility (1/GPa) = 0.03174934
#
# Stress axis : x y z
#
# Youngs Moduli (GPa) = 35.36984 82.42450 68.96206
#
# Poissons Ratio (x) = -0.24877 0.64814
# Poissons Ratio (y) = -0.10675 0.35845
# Poissons Ratio (z) = 0.33242 0.42843
#
# Static dielectric constant tensor:
#      x y z
#    x 0.963770 0.000000 0.053040 
#    y 0.000000 2.080940 0.000000 
#    z 0.053040 0.000000 2.022800 
# 
# From -- ./inp_files/25445.got.cif
#   From: 2010.05.17/outbox.cif.g08.bks.cpg/sg14_13_cif.got.tgz:25445.got - 2010.06.03 17:49:19.
