data_PCOD9239211
_publ_section_title
;
Structure prediction by ZEFSAII (Michael W. Deem and Ramdas Pophale) SiO2 
 PCOD9239211
Probable space group: P 21/C
;
_chemical_formula_sum "Si O2"
_cell_formula_units_Z 28
_cell_length_a 19.306133
_cell_length_b 15.099808
_cell_length_c 8.322827
_cell_angle_alpha 90.000000
_cell_angle_beta 148.732412
_cell_angle_gamma 90.000000
_cell_volume 1259.316191
_symmetry_space_group_name_H-M "P 21/C"
_symmetry_group_IT_number 14
_symmetry_cell_setting 'monoclinic'
loop_
_space_group_symop_operation_xyz
x,y,z
-x,1/2+y,1/2-z
-x,-y,-z
x,1/2-y,1/2+z
loop_
_atom_site_type_symbol
_atom_site_label
_atom_site_fract_x
_atom_site_fract_y
_atom_site_fract_z
Si Si1 0.203249 0.207803 0.418037
Si Si2 0.912973 0.147869 0.859560
Si Si3 0.917192 0.886242 0.342755
Si Si4 0.381042 0.629573 0.632575
Si Si5 0.122104 0.546321 0.018807
Si Si6 0.745769 0.288581 0.316426
Si Si7 0.680665 0.860499 0.659944
O O1 0.134861 0.293146 0.194479
O O2 0.298403 0.259438 0.730617
O O3 0.284288 0.146869 0.457352
O O4 0.068401 0.160911 0.206366
O O5 0.900534 0.066015 0.711915
O O6 0.848983 0.227814 0.623595
O O7 0.825878 0.151938 0.847819
O O8 0.043609 0.880705 0.473699
O O9 0.933696 0.957522 0.513318
O O10 0.795984 0.913567 0.982234
O O11 0.278129 0.556211 0.365196
O O12 0.345733 0.718069 0.460015
O O13 0.342297 0.653816 0.737334
O O14 0.534400 0.607168 0.910652
#
# Coordination Sequence:
#
# PCOD9239211 Si02
#       7
#     4   4   4   4   4   4   4
#     4  10  18  32  53  79 103 136 174 221 261 313
#     4  10  16  31  54  78 102 135 176 223 260 306
#     4   9  20  34  55  79 107 143 176 219 272 320
#     4  10  19  32  51  80 105 139 173 221 258 319
#     4  10  19  35  56  77 109 143 179 216 272 321
#     4   9  18  28  51  79 104 128 180 223 257 297
#     4  10  20  32  54  76 106 136 173 216 262 311
#
# _framework density 22.234289
#
# number of rings (size 3 to 8) (size 9 to 14) (size 15 to 20)
#    0.857    1.429    1.429    4.286    0.000    0.571 
#    0.000    0.000    3.143    4.286    0.000    0.000 
#    0.000    0.000    0.000    0.000    0.000    0.000 
#
# Total GULP energy -156239.203268 kJ/mol
# GULP energy per Si atom -5579.971545 kJ/mol
# Density = 2.218368 g / cm^3
# Si number density = 22.234289 Si / 1000 Ang^3
#
#
#
# Elastic Constant Matrix: (Units=GPa)
#
#
# Indices 1 2 3 4 5 6 
#
# 1 111.1672 7.7689 26.8725 0.0000 9.8142 0.0000
# 2 7.7689 24.5697 -7.6240 0.0000 -7.3116 0.0000
# 3 26.8725 -7.6240 79.6864 0.0000 22.6809 0.0000
# 4 0.0000 0.0000 0.0000 21.8509 0.0000 -8.0192
# 5 9.8142 -7.3116 22.6809 0.0000 38.5245 0.0000
# 6 0.0000 0.0000 0.0000 -8.0192 0.0000 24.4188
#
#
#
# Elastic Compliance Matrix: (Units=1/GPa)
#
#
# Indices 1 2 3 4 5 6 
#
# 1 0.010310 -0.004787 -0.003518 0.000000 -0.001464 0.000000
# 2 -0.004787 0.045671 0.003808 0.000000 0.007646 0.000000
# 3 -0.003518 0.003808 0.016385 0.000000 -0.008027 0.000000
# 4 0.000000 0.000000 0.000000 0.052036 0.000000 0.017089
# 5 -0.001464 0.007646 -0.008027 0.000000 0.032508 0.000000
# 6 0.000000 0.000000 0.000000 0.017089 0.000000 0.046564
#
#
# Mechanical properties :
#
#
# Convention : Reuss Voigt Hill
#
# Bulk Modulus (GPa) = 15.78022 29.93977 22.85999
# Shear Modulus (GPa) = 21.40487 29.51923 25.46205
#
# Velocity S-wave (km/s) = 3.10610 3.64764 3.38771
# Velocity P-wave (km/s) = 4.46950 5.58884 5.06022
#
# Compressibility (1/GPa) = 0.06337047
#
# Stress axis : x y z
#
# Youngs Moduli (GPa) = 96.99642 21.89572 61.03242
#
# Poissons Ratio (x) = 0.10482 0.21472
# Poissons Ratio (y) = 0.46433 -0.23240
# Poissons Ratio (z) = 0.34124 -0.08337
#
# Static dielectric constant tensor:
#      x y z
#    x 1.810110 0.000000 -0.046090 
#    y 0.000000 1.892660 0.000000 
#    z -0.046090 0.000000 1.812870 
# 
# From -- ./inp_files/16750.got.cif
#   From: 2010.05.17/outbox.cif.g08.bks.cpg/sg14_9_cif.got.tgz:16750.got - 2010.06.03 17:49:19.
