data_PCOD9239871
_publ_section_title
;
Structure prediction by ZEFSAII (Michael W. Deem and Ramdas Pophale) SiO2 
 PCOD9239871
Probable space group: P 21/C
;
_chemical_formula_sum "Si O2"
_cell_formula_units_Z 26
_cell_length_a 13.807505
_cell_length_b 13.107155
_cell_length_c 11.592211
_cell_angle_alpha 90.000000
_cell_angle_beta 30.551827
_cell_angle_gamma 90.000000
_cell_volume 1066.411993
_symmetry_space_group_name_H-M "P 21/C"
_symmetry_group_IT_number 14
_symmetry_cell_setting 'monoclinic'
loop_
_space_group_symop_operation_xyz
x,y,z
-x,1/2+y,1/2-z
-x,-y,-z
x,1/2-y,1/2+z
loop_
_atom_site_type_symbol
_atom_site_label
_atom_site_fract_x
_atom_site_fract_y
_atom_site_fract_z
Si Si1 0.102891 0.375591 0.336278
Si Si2 0.050980 0.155074 0.279809
Si Si3 0.643221 0.682559 0.703494
Si Si4 0.754769 0.917740 0.539977
Si Si5 0.500000 0.000000 0.000000
Si Si6 0.794854 0.349956 0.819888
Si Si7 0.880867 0.390123 0.190616
O O1 0.235134 0.343580 0.307825
O O2 0.053015 0.274278 0.312824
O O3 0.903850 0.406770 0.602169
O O4 0.229075 0.436905 0.113439
O O5 0.898687 0.134123 0.336113
O O6 0.007590 0.102135 0.444390
O O7 0.254497 0.133675 0.012841
O O8 0.667136 0.804631 0.658341
O O9 0.430788 0.644886 0.939070
O O10 0.975472 0.918149 0.354475
O O11 0.631247 0.990462 0.746865
O O12 0.318026 0.945805 0.120595
O O13 0.834804 0.229917 0.752337
#
# Coordination Sequence:
#
# PCOD9239871 Si02
#       7
#     4   4   4   4   2   4   4
#     4   9  18  33  54  81 113 139 170 234 283 311
#     4   9  18  33  54  81 113 139 170 234 283 311
#     4  10  18  32  57  87 109 135 176 227 282 322
#     4  11  21  37  53  79 117 144 181 220 266 329
#     4  12  26  36  52  76 112 162 184 204 258 332
#     4  10  18  32  57  87 109 135 176 227 282 322
#     4  11  21  37  53  79 117 144 181 220 266 329
#
# _framework density 24.380821999999998
#
# number of rings (size 3 to 8) (size 9 to 14) (size 15 to 20)
#    0.000    1.846    7.692    0.462    0.000    7.385 
#    0.000    0.000    0.000    3.692    0.000   10.769 
#    0.000    0.000    0.000    0.000    0.000    0.000 
#
# Total GULP energy -144918.581163 kJ/mol
# GULP energy per Si atom -5573.791583 kJ/mol
# Density = 2.432533 g / cm^3
# Si number density = 24.380822 Si / 1000 Ang^3
#
#
#
# Elastic Constant Matrix: (Units=GPa)
#
#
# Indices 1 2 3 4 5 6 
#
# 1 86.9877 27.7067 81.7315 0.0000 19.0227 0.0000
# 2 27.7067 58.6086 32.2531 0.0000 2.8404 0.0000
# 3 81.7315 32.2531 233.6296 0.0000 13.5072 0.0000
# 4 0.0000 0.0000 0.0000 45.5039 0.0000 5.6030
# 5 19.0227 2.8404 13.5072 0.0000 57.4496 0.0000
# 6 0.0000 0.0000 0.0000 5.6030 0.0000 39.5799
#
#
#
# Elastic Compliance Matrix: (Units=1/GPa)
#
#
# Indices 1 2 3 4 5 6 
#
# 1 0.020018 -0.005982 -0.005891 0.000000 -0.004948 0.000000
# 2 -0.005982 0.020258 -0.000771 0.000000 0.001160 0.000000
# 3 -0.005891 -0.000771 0.006420 0.000000 0.000479 0.000000
# 4 0.000000 0.000000 0.000000 0.022366 0.000000 -0.003166
# 5 -0.004948 0.001160 0.000479 0.000000 0.018875 0.000000
# 6 0.000000 0.000000 0.000000 -0.003166 0.000000 0.025714
#
#
# Mechanical properties :
#
#
# Convention : Reuss Voigt Hill
#
# Bulk Modulus (GPa) = 46.71075 73.62316 60.16695
# Shear Modulus (GPa) = 34.22891 44.34233 39.28562
#
# Velocity S-wave (km/s) = 3.75097 4.26929 4.01850
# Velocity P-wave (km/s) = 6.16117 7.38683 6.80166
#
# Compressibility (1/GPa) = 0.02140835
#
# Stress axis : x y z
#
# Youngs Moduli (GPa) = 49.95413 49.36246 155.76352
#
# Poissons Ratio (x) = 0.29527 0.91764
# Poissons Ratio (y) = 0.29881 0.12012
# Poissons Ratio (z) = 0.29429 0.03807
#
# Static dielectric constant tensor:
#      x y z
#    x 1.853290 0.000000 0.022130 
#    y 0.000000 2.142990 0.000000 
#    z 0.022130 0.000000 1.899710 
# 
# From -- ./inp_files/32896.got.cif
#   From: 2010.05.17/outbox.cif.g08.bks.cpg/sg14_17_cif.got.tgz:32896.got - 2010.06.03 17:49:19.
