data_PCOD9239512
_publ_section_title
;
Structure prediction by ZEFSAII (Michael W. Deem and Ramdas Pophale) SiO2 
 PCOD9239512
Probable space group: P 21/C
;
_chemical_formula_sum "Si O2"
_cell_formula_units_Z 24
_cell_length_a 8.513662
_cell_length_b 12.291536
_cell_length_c 9.116865
_cell_angle_alpha 90.000000
_cell_angle_beta 98.993521
_cell_angle_gamma 90.000000
_cell_volume 942.314314
_symmetry_space_group_name_H-M "P 21/C"
_symmetry_group_IT_number 14
_symmetry_cell_setting 'monoclinic'
loop_
_space_group_symop_operation_xyz
x,y,z
-x,1/2+y,1/2-z
-x,-y,-z
x,1/2-y,1/2+z
loop_
_atom_site_type_symbol
_atom_site_label
_atom_site_fract_x
_atom_site_fract_y
_atom_site_fract_z
Si Si1 0.213547 0.559754 0.798008
Si Si2 0.238615 0.946925 0.975447
Si Si3 0.457207 0.157374 0.021516
Si Si4 0.116567 0.095812 0.717542
Si Si5 0.561101 0.851964 0.345003
Si Si6 0.291656 0.188741 0.314536
O O1 0.176742 0.595305 0.622740
O O2 0.388498 0.600423 0.867259
O O3 0.221793 0.429159 0.803003
O O4 0.061632 0.599524 0.868427
O O5 0.356064 0.861462 0.916629
O O6 0.342655 0.053158 0.032826
O O7 0.122598 0.998733 0.837509
O O8 0.401655 0.291150 0.974328
O O9 0.466198 0.134144 0.840503
O O10 0.160913 0.215288 0.792848
O O11 0.266370 0.083312 0.629729
O O12 0.597831 0.713105 0.313195
#
# Coordination Sequence:
#
# PCOD9239512 Si02
#       6
#     4   4   4   4   4   4
#     4  12  20  38  62  84 117 154 189 235 292 337
#     4  10  17  34  63  86 108 149 201 243 272 328
#     4  10  18  36  59  86 115 151 193 233 289 335
#     4   9  22  35  53  91 112 144 194 237 284 331
#     4  10  21  37  58  80 120 149 182 242 287 338
#     4   9  21  37  55  87 117 146 189 243 277 340
#
# _framework density 25.469207999999998
#
# number of rings (size 3 to 8) (size 9 to 14) (size 15 to 20)
#    1.000    1.000    3.333    1.500    0.000    2.000 
#    0.000    0.833    0.000    0.000    0.000    0.000 
#    0.000    0.000    0.000    0.000    0.000    0.000 
#
# Total GULP energy -133631.843713 kJ/mol
# GULP energy per Si atom -5567.993488 kJ/mol
# Density = 2.541124 g / cm^3
# Si number density = 25.469208 Si / 1000 Ang^3
#
#
#
# Elastic Constant Matrix: (Units=GPa)
#
#
# Indices 1 2 3 4 5 6 
#
# 1 219.5680 59.8145 29.7811 0.0000 0.5755 0.0000
# 2 59.8145 101.4156 12.9020 0.0000 13.1100 0.0000
# 3 29.7811 12.9020 120.3254 0.0000 -5.2777 0.0000
# 4 0.0000 0.0000 0.0000 39.6231 0.0000 0.7980
# 5 0.5755 13.1100 -5.2777 0.0000 17.7580 0.0000
# 6 0.0000 0.0000 0.0000 0.7980 0.0000 31.2763
#
#
#
# Elastic Compliance Matrix: (Units=1/GPa)
#
#
# Indices 1 2 3 4 5 6 
#
# 1 0.005619 -0.003468 -0.000927 0.000000 0.002103 0.000000
# 2 -0.003468 0.013331 -0.001011 0.000000 -0.010030 0.000000
# 3 -0.000927 -0.001011 0.008797 0.000000 0.003391 0.000000
# 4 0.000000 0.000000 0.000000 0.025251 0.000000 -0.000644
# 5 0.002103 -0.010030 0.003391 0.000000 0.064657 0.000000
# 6 0.000000 0.000000 0.000000 -0.000644 0.000000 0.031990
#
#
# Mechanical properties :
#
#
# Convention : Reuss Voigt Hill
#
# Bulk Modulus (GPa) = 59.04579 71.81159 65.42869
# Shear Modulus (GPa) = 30.10189 40.31888 35.21038
#
# Velocity S-wave (km/s) = 3.44160 3.98306 3.72219
# Velocity P-wave (km/s) = 6.24711 7.02921 6.64966
#
# Compressibility (1/GPa) = 0.01693601
#
# Stress axis : x y z
#
# Youngs Moduli (GPa) = 177.95506 75.01219 113.67132
#
# Poissons Ratio (x) = 0.26016 0.10534
# Poissons Ratio (y) = 0.61719 0.11492
# Poissons Ratio (z) = 0.16491 0.07584
#
# Static dielectric constant tensor:
#      x y z
#    x 2.002360 0.000000 -0.019450 
#    y 0.000000 2.131610 0.000000 
#    z -0.019450 0.000000 2.075420 
# 
# From -- ./inp_files/55034.got.cif
#   From: 2010.05.17/outbox.cif.g08.bks.cpg/sg14_28_cif.got.tgz:55034.got - 2010.06.03 17:49:19.
