data_PCOD9239371
_publ_section_title
;
Structure prediction by ZEFSAII (Michael W. Deem and Ramdas Pophale) SiO2 
 PCOD9239371
Probable space group: P 21/C
;
_chemical_formula_sum "Si O2"
_cell_formula_units_Z 32
_cell_length_a 5.181530
_cell_length_b 20.621357
_cell_length_c 15.004077
_cell_angle_alpha 90.000000
_cell_angle_beta 90.678933
_cell_angle_gamma 90.000000
_cell_volume 1603.075774
_symmetry_space_group_name_H-M "P 21/C"
_symmetry_group_IT_number 14
_symmetry_cell_setting 'monoclinic'
loop_
_space_group_symop_operation_xyz
x,y,z
-x,1/2+y,1/2-z
-x,-y,-z
x,1/2-y,1/2+z
loop_
_atom_site_type_symbol
_atom_site_label
_atom_site_fract_x
_atom_site_fract_y
_atom_site_fract_z
Si Si1 0.338607 0.797587 0.040026
Si Si2 0.470222 0.716277 0.354018
Si Si3 0.032881 0.304495 0.151976
Si Si4 0.773472 0.574668 0.936427
Si Si5 0.137467 0.200794 0.844946
Si Si6 0.997299 0.951693 0.618798
Si Si7 0.630096 0.352817 0.977621
Si Si8 0.735152 0.658233 0.189312
O O1 0.586110 0.803246 0.105616
O O2 0.283277 0.721595 0.016250
O O3 0.086822 0.821500 0.090103
O O4 0.397832 0.824294 0.941802
O O5 0.236925 0.766892 0.335583
O O6 0.534115 0.674617 0.266606
O O7 0.737834 0.755031 0.375687
O O8 0.036645 0.364406 0.082996
O O9 0.122538 0.332236 0.248413
O O10 0.850228 0.518335 0.868156
O O11 0.496733 0.609393 0.939282
O O12 0.802717 0.539458 0.033461
O O13 0.091658 0.276877 0.817328
O O14 0.190084 0.899151 0.578379
O O15 0.866645 0.912114 0.698433
O O16 0.387731 0.343916 0.908865
#
# Coordination Sequence:
#
# PCOD9239371 Si02
#       8
#     4   4   4   4   4   4   4   4
#     4  11  19  33  52  76 101 141 171 216 268 318
#     4  11  22  33  55  78 106 135 183 221 270 317
#     4  11  21  36  50  80 107 141 177 222 265 314
#     4  10  21  31  50  77 105 146 182 212 251 325
#     4  10  20  33  51  72 105 138 173 215 272 310
#     4  10  19  34  50  73 110 144 181 207 262 316
#     4  10  17  31  48  71 106 140 171 206 262 309
#     4   9  20  31  48  74 100 139 170 219 260 312
#
# _framework density 19.961625999999999
#
# number of rings (size 3 to 8) (size 9 to 14) (size 15 to 20)
#    0.000    1.750    2.500    4.125    3.500    0.000 
#    0.000    0.000    0.000    0.000    0.000    1.750 
#    0.000    0.000    0.000    0.000    0.000    0.000 
#
# Total GULP energy -178232.903981 kJ/mol
# GULP energy per Si atom -5569.778249 kJ/mol
# Density = 1.991619 g / cm^3
# Si number density = 19.961626 Si / 1000 Ang^3
#
#
#
# Elastic Constant Matrix: (Units=GPa)
#
#
# Indices 1 2 3 4 5 6 
#
# 1 80.5462 5.8338 6.1131 0.0000 -17.6550 0.0000
# 2 5.8338 31.7208 5.8446 0.0000 2.2066 0.0000
# 3 6.1131 5.8446 79.6247 0.0000 -17.9917 0.0000
# 4 0.0000 0.0000 0.0000 23.1947 0.0000 -6.9844
# 5 -17.6550 2.2066 -17.9917 0.0000 29.3208 0.0000
# 6 0.0000 0.0000 0.0000 -6.9844 0.0000 17.2512
#
#
#
# Elastic Compliance Matrix: (Units=1/GPa)
#
#
# Indices 1 2 3 4 5 6 
#
# 1 0.014774 -0.003673 0.001402 0.000000 0.010033 0.000000
# 2 -0.003673 0.033382 -0.003757 0.000000 -0.007029 0.000000
# 3 0.001402 -0.003757 0.015071 0.000000 0.010375 0.000000
# 4 0.000000 0.000000 0.000000 0.049099 0.000000 0.019878
# 5 0.010033 -0.007029 0.010375 0.000000 0.047042 0.000000
# 6 0.000000 0.000000 0.000000 0.019878 0.000000 0.066015
#
#
# Mechanical properties :
#
#
# Convention : Reuss Voigt Hill
#
# Bulk Modulus (GPa) = 19.54199 25.27498 22.40848
# Shear Modulus (GPa) = 19.64674 25.56003 22.60338
#
# Velocity S-wave (km/s) = 3.14064 3.58223 3.36868
# Velocity P-wave (km/s) = 4.79192 5.45886 5.13623
#
# Compressibility (1/GPa) = 0.05117185
#
# Stress axis : x y z
#
# Youngs Moduli (GPa) = 67.68665 29.95651 66.35132
#
# Poissons Ratio (x) = 0.11004 -0.09305
# Poissons Ratio (y) = 0.24864 0.24925
# Poissons Ratio (z) = -0.09492 0.11253
#
# Static dielectric constant tensor:
#      x y z
#    x 1.878960 0.000000 0.057990 
#    y 0.000000 1.730760 0.000000 
#    z 0.057990 0.000000 1.823640 
# 
# From -- ./inp_files/38161.got.cif
#   From: 2010.05.17/outbox.cif.g08.bks.cpg/sg14_20_cif.got.tgz:38161.got - 2010.06.03 17:49:19.
