data_PCOD9239421
_publ_section_title
;
Structure prediction by ZEFSAII (Michael W. Deem and Ramdas Pophale) SiO2 
 PCOD9239421
Probable space group: P 21/C
;
_chemical_formula_sum "Si O2"
_cell_formula_units_Z 32
_cell_length_a 8.547143
_cell_length_b 14.993823
_cell_length_c 23.396807
_cell_angle_alpha 90.000000
_cell_angle_beta 35.094085
_cell_angle_gamma 90.000000
_cell_volume 1723.843967
_symmetry_space_group_name_H-M "P 21/C"
_symmetry_group_IT_number 14
_symmetry_cell_setting 'monoclinic'
loop_
_space_group_symop_operation_xyz
x,y,z
-x,1/2+y,1/2-z
-x,-y,-z
x,1/2-y,1/2+z
loop_
_atom_site_type_symbol
_atom_site_label
_atom_site_fract_x
_atom_site_fract_y
_atom_site_fract_z
Si Si1 0.884021 0.982337 0.444692
Si Si2 0.432531 0.428601 0.148741
Si Si3 0.578977 0.273149 0.269064
Si Si4 0.887923 0.185415 0.564245
Si Si5 0.393789 0.973118 0.888363
Si Si6 0.072019 0.140885 0.947435
Si Si7 0.904696 0.414004 0.239522
Si Si8 0.453570 0.428604 0.788094
O O1 0.938390 0.942927 0.365645
O O2 0.939985 0.902702 0.472968
O O3 0.596519 0.023511 0.547726
O O4 0.130207 0.052944 0.379077
O O5 0.624540 0.345986 0.107805
O O6 0.132260 0.402372 0.219206
O O7 0.435363 0.496441 0.201672
O O8 0.784719 0.280193 0.155613
O O9 0.309810 0.331352 0.332402
O O10 0.512783 0.169351 0.294490
O O11 0.725068 0.326576 0.277127
O O12 0.037924 0.266471 0.490125
O O13 0.424632 0.941139 0.812641
O O14 0.211649 0.062709 0.942496
O O15 0.691607 0.006647 0.817671
O O16 0.227549 0.899480 0.974146
#
# Coordination Sequence:
#
# PCOD9239421 Si02
#       8
#     4   4   4   4   4   4   4   4
#     4   9  18  32  53  76 103 137 180 215 264 307
#     4  11  19  32  52  78 109 140 171 216 271 319
#     4  10  19  34  54  77 104 136 176 226 260 305
#     4  10  19  32  55  82 102 130 184 227 247 308
#     4   9  19  34  55  76 101 143 178 218 263 316
#     4  10  17  32  57  78 101 134 183 220 263 299
#     4   9  20  34  48  75 113 140 168 214 271 325
#     4  10  18  34  55  79 102 137 185 225 258 305
#
# _framework density 18.563165000000001
#
# number of rings (size 3 to 8) (size 9 to 14) (size 15 to 20)
#    0.000    2.250    1.250    5.625    0.000    0.000 
#    2.250    0.000    0.000   24.000    0.000    0.000 
#    0.000    0.000    0.000    0.000    0.000    0.000 
#
# Total GULP energy -178176.147530 kJ/mol
# GULP energy per Si atom -5568.004610 kJ/mol
# Density = 1.852091 g / cm^3
# Si number density = 18.563165 Si / 1000 Ang^3
#
#
#
# Elastic Constant Matrix: (Units=GPa)
#
#
# Indices 1 2 3 4 5 6 
#
# 1 50.3385 13.7869 13.8047 0.0000 -22.5579 0.0000
# 2 13.7869 90.8530 28.4348 0.0000 -14.8270 0.0000
# 3 13.8047 28.4348 50.8353 0.0000 -20.1024 0.0000
# 4 0.0000 0.0000 0.0000 32.4838 0.0000 3.8921
# 5 -22.5579 -14.8270 -20.1024 0.0000 18.9364 0.0000
# 6 0.0000 0.0000 0.0000 3.8921 0.0000 5.3857
#
#
#
# Elastic Compliance Matrix: (Units=1/GPa)
#
#
# Indices 1 2 3 4 5 6 
#
# 1 0.050061 -0.000332 0.017357 0.000000 0.077801 0.000000
# 2 -0.000332 0.013556 -0.005949 0.000000 0.003904 0.000000
# 3 0.017357 -0.005949 0.042433 0.000000 0.061064 0.000000
# 4 0.000000 0.000000 0.000000 0.033703 0.000000 -0.024356
# 5 0.077801 0.003904 0.061064 0.000000 0.213369 0.000000
# 6 0.000000 0.000000 0.000000 -0.024356 0.000000 0.203277
#
#
# Mechanical properties :
#
#
# Convention : Reuss Voigt Hill
#
# Bulk Modulus (GPa) = 7.80018 33.78661 20.79339
# Shear Modulus (GPa) = 8.66580 20.42787 14.54683
#
# Velocity S-wave (km/s) = 2.16296 3.32090 2.80239
# Velocity P-wave (km/s) = 3.23249 5.73977 4.65800
#
# Compressibility (1/GPa) = 0.12820220
#
# Stress axis : x y z
#
# Youngs Moduli (GPa) = 19.97563 73.76770 23.56665
#
# Poissons Ratio (x) = 0.02450 -0.40905
# Poissons Ratio (y) = 0.00663 0.14019
# Poissons Ratio (z) = -0.34672 0.43883
#
# Static dielectric constant tensor:
#      x y z
#    x 1.631790 0.000000 0.010450 
#    y 0.000000 1.656970 0.000000 
#    z 0.010450 0.000000 1.703510 
# 
# From -- ./inp_files/40915.got.cif
#   From: 2010.05.17/outbox.cif.g08.bks.cpg/sg14_21_cif.got.tgz:40915.got - 2010.06.03 17:49:19.
