data_PCOD9239633
_publ_section_title
;
Structure prediction by ZEFSAII (Michael W. Deem and Ramdas Pophale) SiO2 
 PCOD9239633
Probable space group: P 21/C
;
_chemical_formula_sum "Si O2"
_cell_formula_units_Z 32
_cell_length_a 11.381089
_cell_length_b 20.847541
_cell_length_c 12.859914
_cell_angle_alpha 90.000000
_cell_angle_beta 145.338495
_cell_angle_gamma 90.000000
_cell_volume 1735.324053
_symmetry_space_group_name_H-M "P 21/C"
_symmetry_group_IT_number 14
_symmetry_cell_setting 'monoclinic'
loop_
_space_group_symop_operation_xyz
x,y,z
-x,1/2+y,1/2-z
-x,-y,-z
x,1/2-y,1/2+z
loop_
_atom_site_type_symbol
_atom_site_label
_atom_site_fract_x
_atom_site_fract_y
_atom_site_fract_z
Si Si1 0.074585 0.300966 0.353640
Si Si2 0.787940 0.188025 0.147927
Si Si3 0.526404 0.832655 0.250842
Si Si4 0.429732 0.264958 0.007023
Si Si5 0.149456 0.266302 0.619401
Si Si6 0.895883 0.349548 0.025088
Si Si7 0.653746 0.416553 0.691258
Si Si8 0.708786 0.565993 0.738085
O O1 0.994603 0.227593 0.294514
O O2 0.919304 0.339201 0.165796
O O3 0.296787 0.293672 0.461100
O O4 0.083886 0.315862 0.482287
O O5 0.624999 0.232521 0.093071
O O6 0.803886 0.121895 0.221526
O O7 0.691860 0.177246 0.965146
O O8 0.515208 0.815103 0.363150
O O9 0.682567 0.780913 0.312767
O O10 0.610292 0.900182 0.268195
O O11 0.276022 0.293709 0.808461
O O12 0.968354 0.218705 0.527986
O O13 0.072761 0.400656 0.123533
O O14 0.686288 0.376192 0.821517
O O15 0.716221 0.489851 0.754466
O O16 0.440672 0.418784 0.470074
#
# Coordination Sequence:
#
# PCOD9239633 Si02
#       8
#     4   4   4   4   4   4   4   4
#     4  10  18  29  46  69 103 128 163 198 248 304
#     4  10  19  29  46  75 101 125 161 203 244 305
#     4   8  16  29  45  66  95 126 159 193 244 298
#     4   9  18  30  46  66 103 132 155 203 254 293
#     4   8  15  29  42  66  97 124 159 198 245 291
#     4  10  18  30  47  71 101 132 159 202 247 297
#     4  10  18  31  50  71 105 127 160 205 253 290
#     4   9  19  33  48  73 103 128 162 206 244 296
#
# _framework density 18.440359999999998
#
# number of rings (size 3 to 8) (size 9 to 14) (size 15 to 20)
#    0.000    2.750    1.250    2.625    1.750    0.000 
#    2.250    0.000    0.000    0.000    0.000    1.750 
#    0.000    0.125    0.000    0.000    0.000    0.000 
#
# Total GULP energy -178276.325375 kJ/mol
# GULP energy per Si atom -5571.135168 kJ/mol
# Density = 1.839839 g / cm^3
# Si number density = 18.440360 Si / 1000 Ang^3
#
#
#
# Elastic Constant Matrix: (Units=GPa)
#
#
# Indices 1 2 3 4 5 6 
#
# 1 49.0897 14.8975 29.2721 0.0000 -21.7261 0.0000
# 2 14.8975 40.8479 27.7485 0.0000 -14.3961 0.0000
# 3 29.2721 27.7485 116.2907 0.0000 -40.9392 0.0000
# 4 0.0000 0.0000 0.0000 27.6117 0.0000 -3.7011
# 5 -21.7261 -14.3961 -40.9392 0.0000 43.3717 0.0000
# 6 0.0000 0.0000 0.0000 -3.7011 0.0000 14.4442
#
#
#
# Elastic Compliance Matrix: (Units=1/GPa)
#
#
# Indices 1 2 3 4 5 6 
#
# 1 0.027693 -0.005034 -0.002208 0.000000 0.010117 0.000000
# 2 -0.005034 0.030777 -0.005044 0.000000 0.002933 0.000000
# 3 -0.002208 -0.005044 0.014048 0.000000 0.010480 0.000000
# 4 0.000000 0.000000 0.000000 0.037505 0.000000 0.009610
# 5 0.010117 0.002933 0.010480 0.000000 0.038990 0.000000
# 6 0.000000 0.000000 0.000000 0.009610 0.000000 0.071694
#
#
# Mechanical properties :
#
#
# Convention : Reuss Voigt Hill
#
# Bulk Modulus (GPa) = 20.85720 38.89604 29.87662
# Shear Modulus (GPa) = 19.13794 26.03954 22.58874
#
# Velocity S-wave (km/s) = 3.22503 3.76186 3.50374
# Velocity P-wave (km/s) = 5.02025 6.32515 5.71010
#
# Compressibility (1/GPa) = 0.04794507
#
# Stress axis : x y z
#
# Youngs Moduli (GPa) = 36.11049 32.49150 71.18564
#
# Poissons Ratio (x) = 0.16357 0.15716
# Poissons Ratio (y) = 0.18179 0.35908
# Poissons Ratio (z) = 0.07972 0.16390
#
# Static dielectric constant tensor:
#      x y z
#    x 1.667860 0.000000 -0.037480 
#    y 0.000000 1.614070 0.000000 
#    z -0.037480 0.000000 1.738900 
# 
# From -- ./inp_files/47547.got.cif
#   From: 2010.05.17/outbox.cif.g08.bks.cpg/sg14_24_cif.got.tgz:47547.got - 2010.06.03 17:49:19.
