data_PCOD9239539
_publ_section_title
;
Structure prediction by ZEFSAII (Michael W. Deem and Ramdas Pophale) SiO2 
 PCOD9239539
Probable space group: P 21/C
;
_chemical_formula_sum "Si O2"
_cell_formula_units_Z 20
_cell_length_a 7.792585
_cell_length_b 8.093924
_cell_length_c 19.677104
_cell_angle_alpha 90.000000
_cell_angle_beta 40.273817
_cell_angle_gamma 90.000000
_cell_volume 802.289062
_symmetry_space_group_name_H-M "P 21/C"
_symmetry_group_IT_number 14
_symmetry_cell_setting 'monoclinic'
loop_
_space_group_symop_operation_xyz
x,y,z
-x,1/2+y,1/2-z
-x,-y,-z
x,1/2-y,1/2+z
loop_
_atom_site_type_symbol
_atom_site_label
_atom_site_fract_x
_atom_site_fract_y
_atom_site_fract_z
Si Si1 0.169045 0.623473 0.285893
Si Si2 0.578039 0.440254 0.653194
Si Si3 0.254459 0.218888 0.440137
Si Si4 0.884365 0.766794 0.255484
Si Si5 0.969092 0.963286 0.617398
O O1 0.216819 0.623169 0.352388
O O2 0.456358 0.650946 0.166417
O O3 0.977224 0.749461 0.304294
O O4 0.075197 0.442578 0.290698
O O5 0.698346 0.584218 0.570826
O O6 0.419521 0.295452 0.662704
O O7 0.332979 0.519706 0.771566
O O8 0.147044 0.105829 0.532895
O O9 0.072172 0.173184 0.429904
O O10 0.052742 0.635505 0.159343
#
# Coordination Sequence:
#
# PCOD9239539 Si02
#       5
#     4   4   4   4   4
#     4  11  19  33  57  80 111 148 180 224 275 321
#     4   9  18  37  58  80 110 143 182 232 272 316
#     4  10  17  35  63  79 107 148 183 226 275 321
#     4  10  21  34  55  86 109 145 189 218 273 334
#     4   8  19  33  57  87 105 141 192 216 273 337
#
# _framework density 24.928671000000001
#
# number of rings (size 3 to 8) (size 9 to 14) (size 15 to 20)
#    1.200    1.200    2.000    1.200    0.000    0.800 
#    0.000    0.000    4.400   10.800    0.000    0.000 
#    0.000    0.000    0.000    0.000    0.000    0.000 
#
# Total GULP energy -111764.152034 kJ/mol
# GULP energy per Si atom -5588.207602 kJ/mol
# Density = 2.487193 g / cm^3
# Si number density = 24.928671 Si / 1000 Ang^3
#
#
#
# Elastic Constant Matrix: (Units=GPa)
#
#
# Indices 1 2 3 4 5 6 
#
# 1 138.3689 -1.8568 -4.2067 0.0000 10.5470 0.0000
# 2 -1.8568 48.6328 -19.2862 0.0000 -2.7060 0.0000
# 3 -4.2067 -19.2862 60.2752 0.0000 -0.3986 0.0000
# 4 0.0000 0.0000 0.0000 28.9667 0.0000 1.8786
# 5 10.5470 -2.7060 -0.3986 0.0000 22.1355 0.0000
# 6 0.0000 0.0000 0.0000 1.8786 0.0000 35.6263
#
#
#
# Elastic Compliance Matrix: (Units=1/GPa)
#
#
# Indices 1 2 3 4 5 6 
#
# 1 0.007519 0.000332 0.000607 0.000000 -0.003531 0.000000
# 2 0.000332 0.023768 0.007647 0.000000 0.002885 0.000000
# 3 0.000607 0.007647 0.019086 0.000000 0.000989 0.000000
# 4 0.000000 0.000000 0.000000 0.034641 0.000000 -0.001827
# 5 -0.003531 0.002885 0.000989 0.000000 0.047229 0.000000
# 6 0.000000 0.000000 0.000000 -0.001827 0.000000 0.028165
#
#
# Mechanical properties :
#
#
# Convention : Reuss Voigt Hill
#
# Bulk Modulus (GPa) = 14.80470 21.84196 18.32333
# Shear Modulus (GPa) = 30.16549 35.52080 32.84314
#
# Velocity S-wave (km/s) = 3.48238 3.77888 3.63365
# Velocity P-wave (km/s) = 4.70330 5.27453 4.99708
#
# Compressibility (1/GPa) = 0.06754614
#
# Stress axis : x y z
#
# Youngs Moduli (GPa) = 132.99402 42.07318 52.39339
#
# Poissons Ratio (x) = -0.01395 -0.03183
# Poissons Ratio (y) = -0.04409 -0.40067
# Poissons Ratio (z) = -0.08079 -0.32174
#
# Static dielectric constant tensor:
#      x y z
#    x 1.943890 0.000000 -0.028860 
#    y 0.000000 2.031590 0.000000 
#    z -0.028860 0.000000 1.985790 
# 
# From -- ./inp_files/54121.got.cif
#   From: 2010.05.17/outbox.cif.g08.bks.cpg/sg14_28_cif.got.tgz:54121.got - 2010.06.03 17:49:19.
