data_PCOD9239870
_publ_section_title
;
Structure prediction by ZEFSAII (Michael W. Deem and Ramdas Pophale) SiO2 
 PCOD9239870
Probable space group: P 21/C
;
_chemical_formula_sum "Si O2"
_cell_formula_units_Z 32
_cell_length_a 10.486698
_cell_length_b 17.118503
_cell_length_c 13.185212
_cell_angle_alpha 90.000000
_cell_angle_beta 144.905281
_cell_angle_gamma 90.000000
_cell_volume 1360.838262
_symmetry_space_group_name_H-M "P 21/C"
_symmetry_group_IT_number 14
_symmetry_cell_setting 'monoclinic'
loop_
_space_group_symop_operation_xyz
x,y,z
-x,1/2+y,1/2-z
-x,-y,-z
x,1/2-y,1/2+z
loop_
_atom_site_type_symbol
_atom_site_label
_atom_site_fract_x
_atom_site_fract_y
_atom_site_fract_z
Si Si1 0.550493 0.162470 0.886927
Si Si2 0.470072 0.962572 0.641830
Si Si3 0.852859 0.897517 0.770738
Si Si4 0.663349 0.858076 0.449128
Si Si5 0.293329 0.737151 0.828033
Si Si6 0.043794 0.753519 0.973220
Si Si7 0.744224 0.994793 0.004752
Si Si8 0.973341 0.125582 0.695638
O O1 0.579518 0.208440 0.009880
O O2 0.750158 0.202733 0.951139
O O3 0.601554 0.071093 0.942592
O O4 0.343691 0.168741 0.673272
O O5 0.618159 0.935680 0.643735
O O6 0.234959 0.921418 0.484601
O O7 0.432309 0.054661 0.618345
O O8 0.607403 0.946532 0.833046
O O9 0.863711 0.865817 0.661073
O O10 0.876815 0.826254 0.864555
O O11 0.038755 0.963713 0.903701
O O12 0.486946 0.806511 0.394270
O O13 0.139329 0.775672 0.641763
O O14 0.131823 0.675920 0.780590
O O15 0.954681 0.686724 0.842175
O O16 0.839995 0.935333 0.149411
#
# Coordination Sequence:
#
# PCOD9239870 Si02
#       8
#     4   4   4   4   4   4   4   4
#     4   8  19  35  54  78 111 155 181 229 286 332
#     4  11  20  33  58  90 115 148 185 233 299 335
#     4  11  18  34  55  88 118 146 178 240 292 335
#     4  10  18  32  57  86 112 146 188 233 282 347
#     4  10  18  37  55  76 115 150 186 230 280 337
#     4   9  21  35  54  80 116 151 187 236 279 333
#     4  10  20  34  55  83 115 146 188 233 281 341
#     4  11  20  37  57  85 113 151 188 234 287 334
#
# _framework density 23.514917000000001
#
# number of rings (size 3 to 8) (size 9 to 14) (size 15 to 20)
#    0.000    2.000    2.500    3.000    0.000    0.000 
#    6.750    3.125    0.000    3.000    0.000    0.000 
#    0.000    0.000    0.000    0.000    0.000    0.000 
#
# Total GULP energy -178793.298666 kJ/mol
# GULP energy per Si atom -5587.290583 kJ/mol
# Density = 2.346140 g / cm^3
# Si number density = 23.514917 Si / 1000 Ang^3
#
#
#
# Elastic Constant Matrix: (Units=GPa)
#
#
# Indices 1 2 3 4 5 6 
#
# 1 47.5259 24.0793 17.9144 0.0000 -13.1485 0.0000
# 2 24.0793 78.2956 35.9047 0.0000 -27.4191 0.0000
# 3 17.9144 35.9047 167.6185 0.0000 -24.8369 0.0000
# 4 0.0000 0.0000 0.0000 -16.9502 0.0000 10.5553
# 5 -13.1485 -27.4191 -24.8369 0.0000 28.6075 0.0000
# 6 0.0000 0.0000 0.0000 10.5553 0.0000 8.3455
#
#
#
# Elastic Compliance Matrix: (Units=1/GPa)
#
#
# Indices 1 2 3 4 5 6 
#
# 1 0.025741 -0.005520 -0.000688 0.000000 0.005943 0.000000
# 2 -0.005520 0.020786 -0.001476 0.000000 0.016104 0.000000
# 3 -0.000688 -0.001476 0.007000 0.000000 0.004346 0.000000
# 4 0.000000 0.000000 0.000000 -0.033003 0.000000 0.041741
# 5 0.005943 0.016104 0.004346 0.000000 0.056896 0.000000
# 6 0.000000 0.000000 0.000000 0.041741 0.000000 0.067031
#
#
# Mechanical properties :
#
#
# Convention : Reuss Voigt Hill
#
# Bulk Modulus (GPa) = 26.20610 49.91521 38.06065
# Shear Modulus (GPa) = 28.97897 18.37001 23.67449
#
# Velocity S-wave (km/s) = 3.51431 2.79804 3.17643
# Velocity P-wave (km/s) = 5.25698 5.63133 5.44737
#
# Compressibility (1/GPa) = 0.03815906
#
# Stress axis : x y z
#
# Youngs Moduli (GPa) = 38.84792 48.10850 142.86417
#
# Poissons Ratio (x) = 0.26554 0.09831
# Poissons Ratio (y) = 0.21443 0.21092
# Poissons Ratio (z) = 0.02673 0.07103
#
# Static dielectric constant tensor:
#      x y z
#    x 1.908270 0.000000 -0.004390 
#    y 0.000000 1.875750 0.000000 
#    z -0.004390 0.000000 1.936520 
# 
# From -- ./inp_files/47526.got.cif
#   From: 2010.05.17/outbox.cif.g08.bks.cpg/sg14_24_cif.got.tgz:47526.got - 2010.06.03 17:49:19.
