data_PCOD9239166
_publ_section_title
;
Structure prediction by ZEFSAII (Michael W. Deem and Ramdas Pophale) SiO2 
 PCOD9239166
Probable space group: P 21/C
;
_chemical_formula_sum "Si O2"
_cell_formula_units_Z 30
_cell_length_a 9.131511
_cell_length_b 21.628473
_cell_length_c 7.803572
_cell_angle_alpha 90.000000
_cell_angle_beta 47.040916
_cell_angle_gamma 90.000000
_cell_volume 1127.920298
_symmetry_space_group_name_H-M "P 21/C"
_symmetry_group_IT_number 14
_symmetry_cell_setting 'monoclinic'
loop_
_space_group_symop_operation_xyz
x,y,z
-x,1/2+y,1/2-z
-x,-y,-z
x,1/2-y,1/2+z
loop_
_atom_site_type_symbol
_atom_site_label
_atom_site_fract_x
_atom_site_fract_y
_atom_site_fract_z
Si Si1 0.572335 0.691250 0.673134
Si Si2 0.000000 0.500000 0.500000
Si Si3 0.906812 0.173882 0.463128
Si Si4 0.696994 0.937807 0.007719
Si Si5 0.921672 0.405724 0.270161
Si Si6 0.916674 0.308940 0.563233
Si Si7 0.567619 0.826785 0.561579
Si Si8 0.535179 0.550883 0.287983
O O1 0.333206 0.684050 0.847215
O O2 0.647382 0.633193 0.505972
O O3 0.631386 0.761628 0.592315
O O4 0.635574 0.673821 0.812942
O O5 0.878333 0.552851 0.491548
O O6 0.019708 0.462019 0.297132
O O7 0.978465 0.238105 0.487614
O O8 0.968648 0.171716 0.215519
O O9 0.953922 0.116269 0.549361
O O10 0.527366 0.982882 0.234792
O O11 0.685405 0.963412 0.823100
O O12 0.972118 0.346987 0.349765
O O13 0.682807 0.421313 0.480943
O O14 0.674288 0.318601 0.753407
O O15 0.613209 0.892586 0.611030
#
# Coordination Sequence:
#
# PCOD9239166 Si02
#       8
#     4   2   4   4   4   4   4   4
#     4  10  18  29  54  84 116 139 180 226 284 329
#     4  10  24  38  58  72 108 156 186 226 276 320
#     4  10  16  28  53  87 108 138 175 232 279 332
#     4  10  19  35  57  79 105 150 188 226 269 336
#     4  10  18  35  55  79 111 145 182 227 274 331
#     4   9  17  27  52  86 114 135 177 227 283 331
#     4   9  18  29  51  89 116 138 171 236 283 329
#     4   9  18  33  57  82 108 141 186 222 278 331
#
# _framework density 26.597624
#
# number of rings (size 3 to 8) (size 9 to 14) (size 15 to 20)
#    0.000    2.400    2.667    0.800    3.733    0.533 
#    0.000    0.667    8.800    0.000    0.000    0.000 
#    0.000    0.000    0.000    0.000    0.000    0.000 
#
# Total GULP energy -167052.860148 kJ/mol
# GULP energy per Si atom -5568.428672 kJ/mol
# Density = 2.653709 g / cm^3
# Si number density = 26.597624 Si / 1000 Ang^3
#
#
#
# Elastic Constant Matrix: (Units=GPa)
#
#
# Indices 1 2 3 4 5 6 
#
# 1 122.8965 38.4389 37.9553 0.0000 25.8975 0.0000
# 2 38.4389 140.4514 43.7834 0.0000 14.9653 0.0000
# 3 37.9553 43.7834 85.5554 0.0000 28.9164 0.0000
# 4 0.0000 0.0000 0.0000 47.3039 0.0000 15.3819
# 5 25.8975 14.9653 28.9164 0.0000 48.2368 0.0000
# 6 0.0000 0.0000 0.0000 15.3819 0.0000 45.8055
#
#
#
# Elastic Compliance Matrix: (Units=1/GPa)
#
#
# Indices 1 2 3 4 5 6 
#
# 1 0.010145 -0.001629 -0.002504 0.000000 -0.003440 0.000000
# 2 -0.001629 0.008733 -0.003921 0.000000 0.000516 0.000000
# 3 -0.002504 -0.003921 0.017482 0.000000 -0.007919 0.000000
# 4 0.000000 0.000000 0.000000 0.023731 0.000000 -0.007969
# 5 -0.003440 0.000516 -0.007919 0.000000 0.027165 0.000000
# 6 0.000000 0.000000 0.000000 -0.007969 0.000000 0.024508
#
#
# Mechanical properties :
#
#
# Convention : Reuss Voigt Hill
#
# Bulk Modulus (GPa) = 49.37800 65.47317 57.42558
# Shear Modulus (GPa) = 37.14076 43.51761 40.32919
#
# Velocity S-wave (km/s) = 3.74089 4.04932 3.89816
# Velocity P-wave (km/s) = 6.10443 6.82146 6.47288
#
# Compressibility (1/GPa) = 0.02025194
#
# Stress axis : x y z
#
# Youngs Moduli (GPa) = 98.57283 114.50729 57.20088
#
# Poissons Ratio (x) = 0.18656 0.14324
# Poissons Ratio (y) = 0.16060 0.22427
# Poissons Ratio (z) = 0.24684 0.44894
#
# Static dielectric constant tensor:
#      x y z
#    x 2.111700 0.000000 -0.122080 
#    y 0.000000 2.204050 0.000000 
#    z -0.122080 0.000000 2.095580 
# 
# From -- ./inp_files/10208.got.cif
#   From: 2010.05.17/outbox.cif.g08.bks.cpg/sg14_6_cif.got.tgz:10208.got - 2010.06.03 17:49:19.
