data_PCOD9239914
_publ_section_title
;
Structure prediction by ZEFSAII (Michael W. Deem and Ramdas Pophale) SiO2 
 PCOD9239914
Probable space group: P 21/C
;
_chemical_formula_sum "Si O2"
_cell_formula_units_Z 32
_cell_length_a 27.376165
_cell_length_b 7.953761
_cell_length_c 21.978859
_cell_angle_alpha 90.000000
_cell_angle_beta 158.677343
_cell_angle_gamma 90.000000
_cell_volume 1740.193769
_symmetry_space_group_name_H-M "P 21/C"
_symmetry_group_IT_number 14
_symmetry_cell_setting 'monoclinic'
loop_
_space_group_symop_operation_xyz
x,y,z
-x,1/2+y,1/2-z
-x,-y,-z
x,1/2-y,1/2+z
loop_
_atom_site_type_symbol
_atom_site_label
_atom_site_fract_x
_atom_site_fract_y
_atom_site_fract_z
Si Si1 0.900227 0.577465 0.103296
Si Si2 0.475099 0.625938 0.779782
Si Si3 0.153234 0.233621 0.839360
Si Si4 0.815659 0.151044 0.261919
Si Si5 0.389729 0.021860 0.061496
Si Si6 0.936361 0.020679 0.521931
Si Si7 0.264146 0.932585 0.406275
Si Si8 0.191491 0.772522 0.943501
O O1 0.848419 0.710663 0.092587
O O2 0.864445 0.589586 0.990573
O O3 0.850941 0.397086 0.070477
O O4 0.061256 0.609349 0.290586
O O5 0.527478 0.811126 0.857335
O O6 0.474975 0.594990 0.705997
O O7 0.320415 0.632791 0.620360
O O8 0.580647 0.485344 0.923795
O O9 0.193477 0.397557 0.846784
O O10 0.014716 0.164340 0.651061
O O11 0.266346 0.095861 0.957836
O O12 0.841153 0.100107 0.360703
O O13 0.798308 0.346371 0.225453
O O14 0.946334 0.082116 0.376821
O O15 0.681660 0.065663 0.078196
O O16 0.237295 0.798816 0.430033
#
# Coordination Sequence:
#
# PCOD9239914 Si02
#       8
#     4   4   4   4   4   4   4   4
#     4  11  20  34  54  81 113 139 174 228 270 341
#     4  11  19  32  56  81 108 139 183 231 281 306
#     4   9  20  32  52  81 110 136 180 223 276 323
#     4  10  19  33  54  78 112 140 183 222 273 331
#     4  10  18  33  52  84 108 138 180 232 270 317
#     4  10  19  34  53  78 110 150 171 220 283 328
#     4  10  19  33  53  82 107 139 182 236 268 318
#     4  11  20  33  53  83 112 138 179 226 281 320
#
# _framework density 18.388755
#
# number of rings (size 3 to 8) (size 9 to 14) (size 15 to 20)
#    0.000    1.750    5.000    0.750    0.000    0.500 
#    0.000    0.000    0.000    1.500    0.000    0.000 
#    0.000    0.000    0.000    0.000    0.000    0.000 
#
# Total GULP energy -178253.528637 kJ/mol
# GULP energy per Si atom -5570.422770 kJ/mol
# Density = 1.834690 g / cm^3
# Si number density = 18.388755 Si / 1000 Ang^3
#
#
#
# Elastic Constant Matrix: (Units=GPa)
#
#
# Indices 1 2 3 4 5 6 
#
# 1 62.4857 9.5617 12.4013 0.0000 -9.5470 0.0000
# 2 9.5617 62.3350 14.1818 0.0000 -2.4190 0.0000
# 3 12.4013 14.1818 47.6258 0.0000 -2.0174 0.0000
# 4 0.0000 0.0000 0.0000 31.1272 0.0000 2.9783
# 5 -9.5470 -2.4190 -2.0174 0.0000 29.4834 0.0000
# 6 0.0000 0.0000 0.0000 2.9783 0.0000 21.0758
#
#
#
# Elastic Compliance Matrix: (Units=1/GPa)
#
#
# Indices 1 2 3 4 5 6 
#
# 1 0.017857 -0.001635 -0.003935 0.000000 0.005379 0.000000
# 2 -0.001635 0.017391 -0.004729 0.000000 0.000574 0.000000
# 3 -0.003935 -0.004729 0.023427 0.000000 -0.000059 0.000000
# 4 0.000000 0.000000 0.000000 0.032567 0.000000 -0.004602
# 5 0.005379 0.000574 -0.000059 0.000000 0.035702 0.000000
# 6 0.000000 0.000000 0.000000 -0.004602 0.000000 0.048098
#
#
# Mechanical properties :
#
#
# Convention : Reuss Voigt Hill
#
# Bulk Modulus (GPa) = 26.26207 27.19290 26.72748
# Shear Modulus (GPa) = 24.00016 25.42405 24.71210
#
# Velocity S-wave (km/s) = 3.61661 3.72235 3.66986
# Velocity P-wave (km/s) = 5.63493 5.77013 5.70293
#
# Compressibility (1/GPa) = 0.03807774
#
# Stress axis : x y z
#
# Youngs Moduli (GPa) = 56.00167 57.50019 42.68535
#
# Poissons Ratio (x) = 0.09402 0.16797
# Poissons Ratio (y) = 0.09157 0.20184
# Poissons Ratio (z) = 0.22037 0.27190
#
# Static dielectric constant tensor:
#      x y z
#    x 1.665890 0.000000 0.023020 
#    y 0.000000 1.691880 0.000000 
#    z 0.023020 0.000000 1.660580 
# 
# From -- ./inp_files/70542.got.cif
#   From: 2010.05.17/outbox.cif.g08.bks.cpg/sg14_36_cif.got.tgz:70542.got - 2010.06.03 17:49:19.
