data_PCOD9239655
_publ_section_title
;
Structure prediction by ZEFSAII (Michael W. Deem and Ramdas Pophale) SiO2 
 PCOD9239655
Probable space group: P 21/C
;
_chemical_formula_sum "Si O2"
_cell_formula_units_Z 32
_cell_length_a 8.878810
_cell_length_b 29.101924
_cell_length_c 5.342870
_cell_angle_alpha 90.000000
_cell_angle_beta 84.610538
_cell_angle_gamma 90.000000
_cell_volume 1374.443562
_symmetry_space_group_name_H-M "P 21/C"
_symmetry_group_IT_number 14
_symmetry_cell_setting 'monoclinic'
loop_
_space_group_symop_operation_xyz
x,y,z
-x,1/2+y,1/2-z
-x,-y,-z
x,1/2-y,1/2+z
loop_
_atom_site_type_symbol
_atom_site_label
_atom_site_fract_x
_atom_site_fract_y
_atom_site_fract_z
Si Si1 0.807523 0.072772 0.726687
Si Si2 0.525519 0.547792 0.857003
Si Si3 0.876019 0.773155 0.032318
Si Si4 0.946601 0.637748 0.816452
Si Si5 0.234654 0.423899 0.496698
Si Si6 0.348860 0.135469 0.352584
Si Si7 0.050492 0.540167 0.296242
Si Si8 0.470514 0.235104 0.408633
O O1 0.630185 0.066746 0.726093
O O2 0.873929 0.038781 0.491702
O O3 0.886322 0.121433 0.639462
O O4 0.843158 0.066810 0.019464
O O5 0.650434 0.538744 0.621792
O O6 0.500000 0.500000 0.000000
O O7 0.591769 0.589814 0.014933
O O8 0.931532 0.741285 0.252016
O O9 0.929159 0.823112 0.110714
O O10 0.692101 0.763745 0.055869
O O11 0.875467 0.591878 0.705215
O O12 0.821605 0.649986 0.041434
O O13 0.334994 0.381032 0.569681
O O14 0.115753 0.437855 0.725882
O O15 0.442219 0.180997 0.388943
O O16 0.000000 0.500000 0.500000
O O17 0.551370 0.246801 0.651492
#
# Coordination Sequence:
#
# PCOD9239655 Si02
#       8
#     4   4   4   4   4   4   4   4
#     4  11  25  42  62  91 128 170 209 264 334 386
#     4  11  27  43  61  90 135 185 230 274 332 399
#     4  10  18  29  56  92 125 151 198 258 325 377
#     4  10  20  37  60  94 125 159 210 273 320 389
#     4  10  22  38  63  91 123 168 221 277 323 384
#     4  11  21  37  64  92 126 167 219 272 325 395
#     4  11  23  40  66  89 121 158 218 275 323 370
#     4  10  19  32  58  94 126 151 203 269 329 379
#
# _framework density 23.282149
#
# number of rings (size 3 to 8) (size 9 to 14) (size 15 to 20)
#    0.000    1.500    3.750    2.625    5.250    0.500 
#    0.000    0.000    0.000    1.500    0.000    0.000 
#    0.000    0.000    0.000    0.000    0.000    0.000 
#
# Total GULP energy -178312.778667 kJ/mol
# GULP energy per Si atom -5572.274333 kJ/mol
# Density = 2.322916 g / cm^3
# Si number density = 23.282149 Si / 1000 Ang^3
#
#
#
# Elastic Constant Matrix: (Units=GPa)
#
#
# Indices 1 2 3 4 5 6 
#
# 1 89.5890 19.7286 11.1076 0.0000 4.7728 0.0000
# 2 19.7286 88.6875 17.8093 0.0000 13.4466 0.0000
# 3 11.1076 17.8093 107.1045 0.0000 5.1103 0.0000
# 4 0.0000 0.0000 0.0000 36.3078 0.0000 6.1537
# 5 4.7728 13.4466 5.1103 0.0000 13.6599 0.0000
# 6 0.0000 0.0000 0.0000 6.1537 0.0000 19.4318
#
#
#
# Elastic Compliance Matrix: (Units=1/GPa)
#
#
# Indices 1 2 3 4 5 6 
#
# 1 0.011837 -0.002226 -0.000779 0.000000 -0.001653 0.000000
# 2 -0.002226 0.013951 -0.001497 0.000000 -0.012395 0.000000
# 3 -0.000779 -0.001497 0.009757 0.000000 -0.001904 0.000000
# 4 0.000000 0.000000 0.000000 0.029104 0.000000 -0.009217
# 5 -0.001653 -0.012395 -0.001904 0.000000 0.086699 0.000000
# 6 0.000000 0.000000 0.000000 -0.009217 0.000000 0.054381
#
#
# Mechanical properties :
#
#
# Convention : Reuss Voigt Hill
#
# Bulk Modulus (GPa) = 37.67806 42.51910 40.09858
# Shear Modulus (GPa) = 22.36337 29.66226 26.01282
#
# Velocity S-wave (km/s) = 3.10262 3.57323 3.34621
# Velocity P-wave (km/s) = 5.39011 5.94358 5.67360
#
# Compressibility (1/GPa) = 0.02654065
#
# Stress axis : x y z
#
# Youngs Moduli (GPa) = 84.48152 71.68072 102.48768
#
# Poissons Ratio (x) = 0.15957 0.07979
# Poissons Ratio (y) = 0.18807 0.15347
# Poissons Ratio (z) = 0.06577 0.10734
#
# Static dielectric constant tensor:
#      x y z
#    x 1.893390 0.000000 0.009170 
#    y 0.000000 1.996750 0.000000 
#    z 0.009170 0.000000 1.986300 
# 
# From -- ./inp_files/2124.got.cif
#   From: 2010.05.17/outbox.cif.g08.bks.cpg/sg14_2_cif.got.tgz:2124.got - 2010.06.03 17:49:19.
