data_PCOD9239052
_publ_section_title
;
Structure prediction by ZEFSAII (Michael W. Deem and Ramdas Pophale) SiO2 
 PCOD9239052
Probable space group: P 2/C
;
_chemical_formula_sum "Si O2"
_cell_formula_units_Z 14
_cell_length_a 6.000000
_cell_length_b 12.000000
_cell_length_c 9.000000
_cell_angle_alpha 90.000000
_cell_angle_beta 80.000000
_cell_angle_gamma 90.000000
_cell_volume 638.155424
_symmetry_space_group_name_H-M "P 2/C"
_symmetry_group_IT_number 13
_symmetry_cell_setting 'monoclinic'
loop_
_space_group_symop_operation_xyz
x,y,z
-x,y,1/2-z
-x,-y,-z
x,-y,1/2+z
loop_
_atom_site_type_symbol
_atom_site_label
_atom_site_fract_x
_atom_site_fract_y
_atom_site_fract_z
Si Si1 0.000000 0.987427 0.250000
Si Si2 0.835148 0.540058 0.392733
Si Si3 0.452133 0.318401 0.091424
Si Si4 0.694072 0.090378 0.528494
O O1 0.200085 0.923385 0.317876
O O2 0.892114 0.063149 0.389185
O O3 0.707806 0.426222 0.358608
O O4 0.661831 0.627208 0.480754
O O5 0.000000 0.588905 0.250000
O O6 0.000000 0.500000 0.500000
O O7 0.500000 0.270549 0.250000
O O8 0.371275 0.217443 0.997933
O O9 0.500000 0.000000 0.500000
#
# Coordination Sequence:
#
# PCOD9239052 Si02
#       4
#     2   4   4   4
#     4  10  24  44  72 104 140 188 232 284 358 416
#     4  11  24  46  69 100 137 182 237 289 353 421
#     4  11  24  43  73 102 137 187 233 291 353 422
#     4  11  24  47  71 105 144 181 237 290 347 426
#
# _framework density 21.938229
#
# number of rings (size 3 to 8) (size 9 to 14) (size 15 to 20)
#    0.000    1.143    2.857    2.571    2.000    4.571 
#   15.429    0.000    0.000    0.000    0.000    0.000 
#    0.000    0.000    0.000    0.000    0.000    0.000 
#
# Total GULP energy -78175.339983 kJ/mol
# GULP energy per Si atom -5583.952856 kJ/mol
# Density = 2.188830 g / cm^3
# Si number density = 21.938229 Si / 1000 Ang^3
#
#
#
# Elastic Constant Matrix: (Units=GPa)
#
#
# Indices 1 2 3 4 5 6 
#
# 1 96.1544 47.7091 37.3187 0.0000 8.6165 0.0000
# 2 47.7091 116.1832 30.8140 0.0000 4.0590 0.0000
# 3 37.3187 30.8140 115.4340 0.0000 9.6500 0.0000
# 4 0.0000 0.0000 0.0000 26.7839 0.0000 15.1007
# 5 8.6165 4.0590 9.6500 0.0000 54.2942 0.0000
# 6 0.0000 0.0000 0.0000 15.1007 0.0000 22.4368
#
#
#
# Elastic Compliance Matrix: (Units=1/GPa)
#
#
# Indices 1 2 3 4 5 6 
#
# 1 0.014199 -0.004946 -0.003159 0.000000 -0.001322 0.000000
# 2 -0.004946 0.010990 -0.001351 0.000000 0.000204 0.000000
# 3 -0.003159 -0.001351 0.010146 0.000000 -0.001201 0.000000
# 4 0.000000 0.000000 0.000000 0.060166 0.000000 -0.040494
# 5 -0.001322 0.000204 -0.001201 0.000000 0.018826 0.000000
# 6 0.000000 0.000000 0.000000 -0.040494 0.000000 0.071823
#
#
# Mechanical properties :
#
#
# Convention : Reuss Voigt Hill
#
# Bulk Modulus (GPa) = 60.90381 62.16167 61.53274
# Shear Modulus (GPa) = 23.74878 34.83165 29.29022
#
# Velocity S-wave (km/s) = 3.29375 3.98894 3.65790
# Velocity P-wave (km/s) = 6.50283 7.04357 6.77859
#
# Compressibility (1/GPa) = 0.01641933
#
# Stress axis : x y z
#
# Youngs Moduli (GPa) = 70.42780 90.99500 98.56567
#
# Poissons Ratio (x) = 0.45010 0.31141
# Poissons Ratio (y) = 0.34837 0.13321
# Poissons Ratio (z) = 0.22251 0.12298
#
# Static dielectric constant tensor:
#      x y z
#    x 1.875590 0.000000 0.008910 
#    y 0.000000 1.897110 0.000000 
#    z 0.008910 0.000000 1.752700 
# 
# From -- ./inp_files/8486.got.cif
#   From: 2010.05.17/outbox.ucp.g08.bks.cvg/sg13_5_cif.got.tgz:8486.got - 2010.06.11 12:23:55.
