data_PCOD9239029
_publ_section_title
;
Structure prediction by ZEFSAII (Michael W. Deem and Ramdas Pophale) SiO2 
 PCOD9239029
Probable space group: P 2/C
;
_chemical_formula_sum "Si O2"
_cell_formula_units_Z 26
_cell_length_a 24.000000
_cell_length_b 6.000000
_cell_length_c 18.000000
_cell_angle_alpha 90.000000
_cell_angle_beta 30.000000
_cell_angle_gamma 90.000000
_cell_volume 1296.000000
_symmetry_space_group_name_H-M "P 2/C"
_symmetry_group_IT_number 13
_symmetry_cell_setting 'monoclinic'
loop_
_space_group_symop_operation_xyz
x,y,z
-x,y,1/2-z
-x,-y,-z
x,-y,1/2+z
loop_
_atom_site_type_symbol
_atom_site_label
_atom_site_fract_x
_atom_site_fract_y
_atom_site_fract_z
Si Si1 0.132965 0.167120 0.922114
Si Si2 0.439680 0.264969 0.442041
Si Si3 0.667327 0.895175 0.730383
Si Si4 0.127404 0.887798 0.777755
Si Si5 0.500000 0.382199 0.750000
Si Si6 0.315561 0.993612 0.456018
Si Si7 0.255828 0.446163 0.234546
O O1 0.155760 0.427543 0.890522
O O2 0.236550 0.069753 0.851401
O O3 0.140018 0.066064 0.830306
O O4 0.003173 0.132191 0.091008
O O5 0.530497 0.111471 0.380080
O O6 0.491602 0.466923 0.333643
O O7 0.378106 0.125228 0.449434
O O8 0.348165 0.377843 0.600488
O O9 0.691529 0.879853 0.614115
O O10 0.687744 0.707320 0.768702
O O11 0.197003 0.681889 0.734049
O O12 0.193809 0.948487 0.627558
O O13 0.608208 0.227275 0.637963
#
# Coordination Sequence:
#
# PCOD9239029 Si02
#       7
#     4   4   4   4   2   4   4
#     4  10  23  42  65  92 132 164 215 277 314 383
#     4  12  23  41  65  99 128 176 217 262 334 404
#     4  11  25  39  61 103 133 163 211 272 331 384
#     4  10  22  43  68  91 118 177 226 255 322 390
#     4  12  22  40  66  92 126 170 216 264 318 396
#     4  12  23  42  68  91 130 174 216 267 326 392
#     4  11  23  41  67  98 129 171 218 270 328 391
#
# _framework density 20.061727999999999
#
# number of rings (size 3 to 8) (size 9 to 14) (size 15 to 20)
#    0.000    0.923    6.154    0.923    2.154    1.231 
#    0.000    0.000    3.385    0.000    0.000    0.000 
#    0.000    0.000    0.000    0.000    0.000    0.000 
#
# Total GULP energy -144788.719930 kJ/mol
# GULP energy per Si atom -5568.796920 kJ/mol
# Density = 2.001607 g / cm^3
# Si number density = 20.061728 Si / 1000 Ang^3
#
#
#
# Elastic Constant Matrix: (Units=GPa)
#
#
# Indices 1 2 3 4 5 6 
#
# 1 105.4441 23.7779 21.5169 0.0000 -6.7919 0.0000
# 2 23.7779 27.0751 34.2851 0.0000 0.5358 0.0000
# 3 21.5169 34.2851 117.7666 0.0000 -1.7066 0.0000
# 4 0.0000 0.0000 0.0000 23.6124 0.0000 0.7424
# 5 -6.7919 0.5358 -1.7066 0.0000 22.9450 0.0000
# 6 0.0000 0.0000 0.0000 0.7424 0.0000 12.5244
#
#
#
# Elastic Compliance Matrix: (Units=1/GPa)
#
#
# Indices 1 2 3 4 5 6 
#
# 1 0.012333 -0.012882 0.001556 0.000000 0.004067 0.000000
# 2 -0.012882 0.072115 -0.018741 0.000000 -0.006891 0.000000
# 3 0.001556 -0.018741 0.013691 0.000000 0.001916 0.000000
# 4 0.000000 0.000000 0.000000 0.042430 0.000000 -0.002515
# 5 0.004067 -0.006891 0.001916 0.000000 0.045090 0.000000
# 6 0.000000 0.000000 0.000000 -0.002515 0.000000 0.079993
#
#
# Mechanical properties :
#
#
# Convention : Reuss Voigt Hill
#
# Bulk Modulus (GPa) = 26.31200 45.49393 35.90297
# Shear Modulus (GPa) = 14.77304 23.19676 18.98490
#
# Velocity S-wave (km/s) = 2.71657 3.40409 3.07958
# Velocity P-wave (km/s) = 4.79413 6.17872 5.52993
#
# Compressibility (1/GPa) = 0.03800547
#
# Stress axis : x y z
#
# Youngs Moduli (GPa) = 81.08293 13.86665 73.04110
#
# Poissons Ratio (x) = 0.17863 -0.11364
# Poissons Ratio (y) = 1.04449 1.36887
# Poissons Ratio (z) = -0.12615 0.25988
#
# Static dielectric constant tensor:
#      x y z
#    x 1.663500 0.000000 -0.002480 
#    y 0.000000 1.788780 0.000000 
#    z -0.002480 0.000000 1.742200 
# 
# From -- ./inp_files/70905.got.cif
#   From: 2010.05.17/outbox.ucp.g08.bks.cvg/sg13_36_cif.got.tgz:70905.got - 2010.06.11 12:23:55.
