data_PCOD9239365
_publ_section_title
;
Structure prediction by ZEFSAII (Michael W. Deem and Ramdas Pophale) SiO2 
 PCOD9239365
Probable space group: P 21/C
;
_chemical_formula_sum "Si O2"
_cell_formula_units_Z 28
_cell_length_a 12.786506
_cell_length_b 7.695240
_cell_length_c 24.133647
_cell_angle_alpha 90.000000
_cell_angle_beta 152.209805
_cell_angle_gamma 90.000000
_cell_volume 1107.138932
_symmetry_space_group_name_H-M "P 21/C"
_symmetry_group_IT_number 14
_symmetry_cell_setting 'monoclinic'
loop_
_space_group_symop_operation_xyz
x,y,z
-x,1/2+y,1/2-z
-x,-y,-z
x,1/2-y,1/2+z
loop_
_atom_site_type_symbol
_atom_site_label
_atom_site_fract_x
_atom_site_fract_y
_atom_site_fract_z
Si Si1 0.006417 0.326901 0.892627
Si Si2 0.870663 0.481102 0.498668
Si Si3 0.238014 0.484670 0.141776
Si Si4 0.367810 0.550762 0.017775
Si Si5 0.524139 0.806273 0.695772
Si Si6 0.107399 0.875605 0.865133
Si Si7 0.812233 0.748454 0.630708
O O1 0.780252 0.374011 0.817487
O O2 0.151474 0.184484 0.993740
O O3 0.982959 0.273320 0.817888
O O4 0.000000 0.500000 0.000000
O O5 0.661080 0.350436 0.392670
O O6 0.952454 0.415172 0.598621
O O7 0.000000 0.500000 0.500000
O O8 0.268904 0.294437 0.180823
O O9 0.435203 0.544683 0.194369
O O10 0.154368 0.500399 0.956959
O O11 0.285455 0.719186 0.947097
O O12 0.373382 0.378821 0.982416
O O13 0.548835 0.608927 0.147231
O O14 0.899817 0.815815 0.729928
O O15 0.222739 0.044723 0.891432
#
# Coordination Sequence:
#
# PCOD9239365 Si02
#       7
#     4   4   4   4   4   4   4
#     4   9  19  36  62  85 133 175 217 287 342 402
#     4  10  20  36  62  95 138 182 233 282 350 422
#     4  12  24  43  63  92 137 181 233 291 344 422
#     4   9  19  36  56  91 128 171 225 284 345 414
#     4  11  25  38  63  94 133 185 232 285 355 413
#     4  10  17  30  58  96 132 177 237 283 347 423
#     4   9  16  31  57  92 125 175 232 284 350 411
#
# _framework density 25.290410999999999
#
# number of rings (size 3 to 8) (size 9 to 14) (size 15 to 20)
#    0.857    1.143    4.286    0.000    2.000    0.000 
#    0.000    0.000    0.000    3.429    0.000    2.000 
#    0.000    0.286    0.000    0.000    0.000    0.000 
#
# Total GULP energy -156192.227275 kJ/mol
# GULP energy per Si atom -5578.293831 kJ/mol
# Density = 2.523285 g / cm^3
# Si number density = 25.290411 Si / 1000 Ang^3
#
#
#
# Elastic Constant Matrix: (Units=GPa)
#
#
# Indices 1 2 3 4 5 6 
#
# 1 96.5091 32.9939 43.1007 0.0000 -29.9802 0.0000
# 2 32.9939 185.8090 56.4871 0.0000 -13.3547 0.0000
# 3 43.1007 56.4871 134.6958 0.0000 -28.2208 0.0000
# 4 0.0000 0.0000 0.0000 922.4885 0.0000 -204.0191
# 5 -29.9802 -13.3547 -28.2208 0.0000 30.3527 0.0000
# 6 0.0000 0.0000 0.0000 -204.0191 0.0000 68.0996
#
#
#
# Elastic Compliance Matrix: (Units=1/GPa)
#
#
# Indices 1 2 3 4 5 6 
#
# 1 0.015720 -0.001321 -0.001670 0.000000 0.013393 0.000000
# 2 -0.001321 0.006283 -0.002368 0.000000 -0.000742 0.000000
# 3 -0.001670 -0.002368 0.010417 0.000000 0.006994 0.000000
# 4 0.000000 0.000000 0.000000 0.003213 0.000000 0.009625
# 5 0.013393 -0.000742 0.006994 0.000000 0.052351 0.000000
# 6 0.000000 0.000000 0.000000 0.009625 0.000000 0.043519
#
#
# Mechanical properties :
#
#
# Convention : Reuss Voigt Hill
#
# Bulk Modulus (GPa) = 46.07883 75.79746 60.93815
# Shear Modulus (GPa) = 33.45534 223.15029 128.30281
#
# Velocity S-wave (km/s) = 3.64104 9.40355 7.13035
# Velocity P-wave (km/s) = 5.99464 12.16298 9.58837
#
# Compressibility (1/GPa) = 0.02170194
#
# Stress axis : x y z
#
# Youngs Moduli (GPa) = 63.61491 159.16278 95.99958
#
# Poissons Ratio (x) = 0.21026 0.16033
# Poissons Ratio (y) = 0.08404 0.22728
# Poissons Ratio (z) = 0.10624 0.37682
#
# Static dielectric constant tensor:
#      x y z
#    x 2.080210 0.000000 0.000990 
#    y 0.000000 2.010550 0.000000 
#    z 0.000990 0.000000 2.063770 
# 
# From -- ./inp_files/68024.got.cif
#   From: 2010.05.17/outbox.cif.g08.bks.cpg/sg14_35_cif.got.tgz:68024.got - 2010.06.03 17:49:19.
