data_PCOD9239612
_publ_section_title
;
Structure prediction by ZEFSAII (Michael W. Deem and Ramdas Pophale) SiO2 
 PCOD9239612
Probable space group: P 21/C
;
_chemical_formula_sum "Si O2"
_cell_formula_units_Z 24
_cell_length_a 11.055511
_cell_length_b 10.755104
_cell_length_c 14.974551
_cell_angle_alpha 90.000000
_cell_angle_beta 142.792034
_cell_angle_gamma 90.000000
_cell_volume 1076.698950
_symmetry_space_group_name_H-M "P 21/C"
_symmetry_group_IT_number 14
_symmetry_cell_setting 'monoclinic'
loop_
_space_group_symop_operation_xyz
x,y,z
-x,1/2+y,1/2-z
-x,-y,-z
x,1/2-y,1/2+z
loop_
_atom_site_type_symbol
_atom_site_label
_atom_site_fract_x
_atom_site_fract_y
_atom_site_fract_z
Si Si1 0.536499 0.710089 0.638204
Si Si2 0.654225 0.037677 0.170434
Si Si3 0.364526 0.297191 0.616914
Si Si4 0.490467 0.873433 0.437715
Si Si5 0.043049 0.602757 0.694611
Si Si6 0.900718 0.341933 0.669654
O O1 0.689590 0.595500 0.734474
O O2 0.586279 0.794942 0.750511
O O3 0.545638 0.773266 0.546789
O O4 0.304535 0.666204 0.508251
O O5 0.534462 0.123160 0.167400
O O6 0.835140 0.105068 0.228439
O O7 0.500000 0.000000 0.000000
O O8 0.381367 0.164012 0.573929
O O9 0.151094 0.359634 0.474972
O O10 0.255715 0.868157 0.275283
O O11 0.500000 0.000000 0.500000
O O12 0.031057 0.699876 0.772307
O O13 0.033265 0.455185 0.710566
#
# Coordination Sequence:
#
# PCOD9239612 Si02
#       6
#     4   4   4   4   4   4
#     4  10  22  39  66  91 121 177 211 261 332 385
#     4  10  17  41  66  80 121 175 211 257 325 385
#     4  12  22  40  67  91 126 167 216 265 321 390
#     4  11  24  42  61  96 135 162 208 275 328 375
#     4  11  21  39  68  98 124 174 221 264 327 393
#     4  10  20  41  66  91 129 173 217 268 328 387
#
# _framework density 22.290354000000001
#
# number of rings (size 3 to 8) (size 9 to 14) (size 15 to 20)
#    0.000    1.333    8.333    1.000    2.333    0.000 
#    0.000   10.833    0.000    0.000    0.000    0.000 
#    0.000    0.000    0.000    0.000    0.000    0.000 
#
# Total GULP energy -133832.788204 kJ/mol
# GULP energy per Si atom -5576.366175 kJ/mol
# Density = 2.223962 g / cm^3
# Si number density = 22.290354 Si / 1000 Ang^3
#
#
#
# Elastic Constant Matrix: (Units=GPa)
#
#
# Indices 1 2 3 4 5 6 
#
# 1 34.2595 -29.8017 21.4287 0.0000 2.9168 0.0000
# 2 -29.8017 65.0937 -12.6086 0.0000 7.7140 0.0000
# 3 21.4287 -12.6086 56.6071 0.0000 3.6273 0.0000
# 4 0.0000 0.0000 0.0000 14.5946 0.0000 5.7889
# 5 2.9168 7.7140 3.6273 0.0000 26.9788 0.0000
# 6 0.0000 0.0000 0.0000 5.7889 0.0000 33.8008
#
#
#
# Elastic Compliance Matrix: (Units=1/GPa)
#
#
# Indices 1 2 3 4 5 6 
#
# 1 0.066115 0.028325 -0.017896 0.000000 -0.012841 0.000000
# 2 0.028325 0.028922 -0.003585 0.000000 -0.010850 0.000000
# 3 -0.017896 -0.003585 0.023656 0.000000 -0.000221 0.000000
# 4 0.000000 0.000000 0.000000 0.073512 0.000000 -0.012590
# 5 -0.012841 -0.010850 -0.000221 0.000000 0.041586 0.000000
# 6 0.000000 0.000000 0.000000 -0.012590 0.000000 0.031741
#
#
# Mechanical properties :
#
#
# Convention : Reuss Voigt Hill
#
# Bulk Modulus (GPa) = 7.55406 12.66633 10.11020
# Shear Modulus (GPa) = 16.89351 26.87098 21.88224
#
# Velocity S-wave (km/s) = 2.75596 3.47580 3.13659
# Velocity P-wave (km/s) = 3.67741 4.66936 4.20276
#
# Compressibility (1/GPa) = 0.13237913
#
# Stress axis : x y z
#
# Youngs Moduli (GPa) = 15.12518 34.57624 42.27293
#
# Poissons Ratio (x) = -0.97936 0.75652
# Poissons Ratio (y) = -0.42841 0.15155
# Poissons Ratio (z) = 0.27068 0.12396
#
# Static dielectric constant tensor:
#      x y z
#    x 1.821890 0.000000 0.041260 
#    y 0.000000 2.001000 0.000000 
#    z 0.041260 0.000000 1.822360 
# 
# From -- ./inp_files/44475.got.cif
#   From: 2010.05.17/outbox.cif.g08.bks.cpg/sg14_23_cif.got.tgz:44475.got - 2010.06.03 17:49:19.
