data_PCOD9239578
_publ_section_title
;
Structure prediction by ZEFSAII (Michael W. Deem and Ramdas Pophale) SiO2 
 PCOD9239578
Probable space group: P 21/C
;
_chemical_formula_sum "Si O2"
_cell_formula_units_Z 20
_cell_length_a 8.526542
_cell_length_b 8.466857
_cell_length_c 12.278047
_cell_angle_alpha 90.000000
_cell_angle_beta 53.243005
_cell_angle_gamma 90.000000
_cell_volume 710.157966
_symmetry_space_group_name_H-M "P 21/C"
_symmetry_group_IT_number 14
_symmetry_cell_setting 'monoclinic'
loop_
_space_group_symop_operation_xyz
x,y,z
-x,1/2+y,1/2-z
-x,-y,-z
x,1/2-y,1/2+z
loop_
_atom_site_type_symbol
_atom_site_label
_atom_site_fract_x
_atom_site_fract_y
_atom_site_fract_z
Si Si1 0.740639 0.177087 0.001575
Si Si2 0.857618 0.583224 0.727881
Si Si3 0.765027 0.493009 0.112810
Si Si4 0.220815 0.085156 0.154469
Si Si5 0.545975 0.131142 0.390050
O O1 0.695033 0.992583 0.990778
O O2 0.662013 0.243385 0.915916
O O3 0.977512 0.162675 0.915697
O O4 0.689096 0.320147 0.103934
O O5 0.700332 0.462314 0.746599
O O6 0.994347 0.471262 0.745166
O O7 0.769824 0.728103 0.832868
O O8 0.707639 0.519444 0.260747
O O9 0.652147 0.634041 0.096889
O O10 0.000000 0.500000 0.000000
O O11 0.500000 0.000000 0.500000
#
# Coordination Sequence:
#
# PCOD9239578 Si02
#       5
#     4   4   4   4   4
#     4   9  19  37  58  84 114 150 193 239 289 340
#     4  10  17  37  57  83 115 151 190 239 288 341
#     4  11  19  36  58  85 114 153 195 233 287 349
#     4  10  19  34  61  79 118 148 192 235 294 331
#     4  10  20  35  60  84 112 154 192 231 293 348
#
# _framework density 28.162749999999999
#
# number of rings (size 3 to 8) (size 9 to 14) (size 15 to 20)
#    1.200    0.800    4.000    1.200    0.000    1.600 
#    0.000    5.000    0.000    0.000    0.000    0.000 
#    0.000    0.000    0.000    0.000    0.000    0.000 
#
# Total GULP energy -111430.141995 kJ/mol
# GULP energy per Si atom -5571.507100 kJ/mol
# Density = 2.809865 g / cm^3
# Si number density = 28.162750 Si / 1000 Ang^3
#
#
#
# Elastic Constant Matrix: (Units=GPa)
#
#
# Indices 1 2 3 4 5 6 
#
# 1 140.1742 27.7172 25.7859 0.0000 -18.6404 0.0000
# 2 27.7172 151.2815 10.3003 0.0000 -4.6843 0.0000
# 3 25.7859 10.3003 59.1141 0.0000 -16.2463 0.0000
# 4 0.0000 0.0000 0.0000 17.0436 0.0000 24.1179
# 5 -18.6404 -4.6843 -16.2463 0.0000 34.4776 0.0000
# 6 0.0000 0.0000 0.0000 24.1179 0.0000 30.0472
#
#
#
# Elastic Compliance Matrix: (Units=1/GPa)
#
#
# Indices 1 2 3 4 5 6 
#
# 1 0.008259 -0.001245 -0.002533 0.000000 0.003102 0.000000
# 2 -0.001245 0.006882 -0.000671 0.000000 -0.000054 0.000000
# 3 -0.002533 -0.000671 0.020376 0.000000 0.008141 0.000000
# 4 0.000000 0.000000 0.000000 -0.431962 0.000000 0.346721
# 5 0.003102 -0.000054 0.008141 0.000000 0.034510 0.000000
# 6 0.000000 0.000000 0.000000 0.346721 0.000000 -0.245020
#
#
# Mechanical properties :
#
#
# Convention : Reuss Voigt Hill
#
# Bulk Modulus (GPa) = 37.56716 53.13073 45.34894
# Shear Modulus (GPa) = -8.48630 35.43142 13.47256
#
# Velocity S-wave (km/s) = -1.73777 3.55081 2.18957
# Velocity P-wave (km/s) = 3.05644 5.97642 4.74655
#
# Compressibility (1/GPa) = 0.02661900
#
# Stress axis : x y z
#
# Youngs Moduli (GPa) = 121.08614 145.30148 49.07838
#
# Poissons Ratio (x) = 0.18084 0.12431
# Poissons Ratio (y) = 0.15070 0.03294
# Poissons Ratio (z) = 0.30671 0.09752
#
# Static dielectric constant tensor:
#      x y z
#    x 2.177550 0.000000 -0.119080 
#    y 0.000000 2.250130 0.000000 
#    z -0.119080 0.000000 2.404490 
# 
# From -- ./inp_files/54203.got.cif
#   From: 2010.05.17/outbox.cif.g08.bks.cpg/sg14_28_cif.got.tgz:54203.got - 2010.06.03 17:49:19.
