data_PCOD9239804
_publ_section_title
;
Structure prediction by ZEFSAII (Michael W. Deem and Ramdas Pophale) SiO2 
 PCOD9239804
Probable space group: P 21/C
;
_chemical_formula_sum "Si O2"
_cell_formula_units_Z 32
_cell_length_a 12.638726
_cell_length_b 11.393157
_cell_length_c 25.958232
_cell_angle_alpha 90.000000
_cell_angle_beta 27.950700
_cell_angle_gamma 90.000000
_cell_volume 1751.976381
_symmetry_space_group_name_H-M "P 21/C"
_symmetry_group_IT_number 14
_symmetry_cell_setting 'monoclinic'
loop_
_space_group_symop_operation_xyz
x,y,z
-x,1/2+y,1/2-z
-x,-y,-z
x,1/2-y,1/2+z
loop_
_atom_site_type_symbol
_atom_site_label
_atom_site_fract_x
_atom_site_fract_y
_atom_site_fract_z
Si Si1 0.723315 0.664307 0.993083
Si Si2 0.627805 0.341824 0.499047
Si Si3 0.066801 0.959043 0.264987
Si Si4 0.033678 0.183697 0.345015
Si Si5 0.162821 0.970579 0.476744
Si Si6 0.356298 0.991414 0.614365
Si Si7 0.569028 0.887539 0.019810
Si Si8 0.538946 0.818254 0.343165
O O1 0.905529 0.616772 0.872621
O O2 0.778581 0.593700 0.020970
O O3 0.464959 0.625479 0.091033
O O4 0.710855 0.803261 0.995559
O O5 0.441995 0.330527 0.533123
O O6 0.668082 0.481201 0.479189
O O7 0.563444 0.296002 0.583829
O O8 0.841904 0.257497 0.397372
O O9 0.304120 0.900673 0.148940
O O10 0.903963 0.993773 0.287599
O O11 0.118622 0.081671 0.270877
O O12 0.224307 0.274533 0.279759
O O13 0.945025 0.112106 0.432436
O O14 0.385129 0.891727 0.369919
O O15 0.000000 0.000000 0.500000
O O16 0.424082 0.093762 0.624545
O O17 0.500000 0.000000 0.500000
#
# Coordination Sequence:
#
# PCOD9239804 Si02
#       8
#     4   4   4   4   4   4   4   4
#     4   9  19  35  51  74 107 140 175 225 267 320
#     4  10  20  31  49  79 114 144 173 218 245 313
#     4  10  18  32  52  74 108 151 180 205 262 321
#     4  10  19  35  57  76 105 142 181 226 276 316
#     4   9  20  39  62  78  97 132 185 236 284 328
#     4   9  16  28  49  76 106 144 181 210 247 311
#     4  11  20  32  47  81 117 146 178 206 256 312
#     4  10  18  34  56  78 106 142 184 221 268 322
#
# _framework density 18.265087000000001
#
# number of rings (size 3 to 8) (size 9 to 14) (size 15 to 20)
#    0.000    2.250    1.250    5.250    0.000    0.000 
#    9.000    2.500    0.000    1.500    0.000    0.000 
#    0.000    0.000    0.000    0.000    0.000    0.000 
#
# Total GULP energy -178146.400113 kJ/mol
# GULP energy per Si atom -5567.075004 kJ/mol
# Density = 1.822351 g / cm^3
# Si number density = 18.265087 Si / 1000 Ang^3
#
#
#
# Elastic Constant Matrix: (Units=GPa)
#
#
# Indices 1 2 3 4 5 6 
#
# 1 83.1356 38.6061 4.1228 0.0000 -17.2390 0.0000
# 2 38.6061 102.2869 14.8984 0.0000 -9.3680 0.0000
# 3 4.1228 14.8984 44.7165 0.0000 -8.2673 0.0000
# 4 0.0000 0.0000 0.0000 28.2723 0.0000 -9.4922
# 5 -17.2390 -9.3680 -8.2673 0.0000 12.9352 0.0000
# 6 0.0000 0.0000 0.0000 -9.4922 0.0000 21.0210
#
#
#
# Elastic Compliance Matrix: (Units=1/GPa)
#
#
# Indices 1 2 3 4 5 6 
#
# 1 0.019701 -0.005833 0.004763 0.000000 0.025075 0.000000
# 2 -0.005833 0.012423 -0.003827 0.000000 -0.001222 0.000000
# 3 0.004763 -0.003827 0.027057 0.000000 0.020869 0.000000
# 4 0.000000 0.000000 0.000000 0.041691 0.000000 0.018826
# 5 0.025075 -0.001222 0.020869 0.000000 0.123180 0.000000
# 6 0.000000 0.000000 0.000000 0.018826 0.000000 0.056072
#
#
# Mechanical properties :
#
#
# Convention : Reuss Voigt Hill
#
# Bulk Modulus (GPa) = 20.24820 38.37708 29.31264
# Shear Modulus (GPa) = 16.31951 23.94648 20.13300
#
# Velocity S-wave (km/s) = 2.99236 3.62477 3.32364
# Velocity P-wave (km/s) = 4.80091 6.21091 5.55086
#
# Compressibility (1/GPa) = 0.04938711
#
# Stress axis : x y z
#
# Youngs Moduli (GPa) = 50.75996 80.49323 36.95834
#
# Poissons Ratio (x) = 0.46950 -0.17603
# Poissons Ratio (y) = 0.29607 0.14145
# Poissons Ratio (z) = -0.24177 0.30808
#
# Static dielectric constant tensor:
#      x y z
#    x 1.617850 0.000000 -0.007640 
#    y 0.000000 1.645970 0.000000 
#    z -0.007640 0.000000 1.718720 
# 
# From -- ./inp_files/77217.got.cif
#   From: 2010.05.17/outbox.cif.g08.bks.cpg/sg14_39_cif.got.tgz:77217.got - 2010.06.03 17:49:19.
