data_PCOD9239264
_publ_section_title
;
Structure prediction by ZEFSAII (Michael W. Deem and Ramdas Pophale) SiO2 
 PCOD9239264
Probable space group: P 21/C
;
_chemical_formula_sum "Si O2"
_cell_formula_units_Z 28
_cell_length_a 14.484338
_cell_length_b 11.223587
_cell_length_c 7.128867
_cell_angle_alpha 90.000000
_cell_angle_beta 120.653748
_cell_angle_gamma 90.000000
_cell_volume 996.971294
_symmetry_space_group_name_H-M "P 21/C"
_symmetry_group_IT_number 14
_symmetry_cell_setting 'monoclinic'
loop_
_space_group_symop_operation_xyz
x,y,z
-x,1/2+y,1/2-z
-x,-y,-z
x,1/2-y,1/2+z
loop_
_atom_site_type_symbol
_atom_site_label
_atom_site_fract_x
_atom_site_fract_y
_atom_site_fract_z
Si Si1 0.648040 0.153653 0.711768
Si Si2 0.834663 0.998435 0.263868
Si Si3 0.503025 0.831577 0.141214
Si Si4 0.025392 0.110175 0.865328
Si Si5 0.341186 0.341468 0.498909
Si Si6 0.790831 0.330481 0.039141
Si Si7 0.153720 0.163316 0.351391
O O1 0.590422 0.277210 0.583925
O O2 0.553168 0.101393 0.743674
O O3 0.745396 0.200564 0.941431
O O4 0.701065 0.104158 0.576915
O O5 0.941940 0.991392 0.251397
O O6 0.740539 0.945927 0.032114
O O7 0.831687 0.907135 0.440092
O O8 0.814055 0.115864 0.358722
O O9 0.592469 0.893735 0.108615
O O10 0.567884 0.712665 0.274392
O O11 0.080507 0.224657 0.826322
O O12 0.903524 0.150671 0.758089
O O13 0.089342 0.092352 0.125105
O O14 0.264662 0.223574 0.392015
#
# Coordination Sequence:
#
# PCOD9239264 Si02
#       7
#     4   4   4   4   4   4   4
#     4   9  21  39  59  78 115 165 207 237 301 375
#     4  11  23  38  61 100 124 151 213 259 307 368
#     4   9  17  34  63  85 106 163 200 235 307 376
#     4  11  21  38  61  91 126 167 198 246 315 370
#     4  10  16  34  62  86 121 147 188 260 310 354
#     4  11  23  43  59  84 127 164 208 258 298 366
#     4  11  20  36  63  96 122 159 207 243 315 386
#
# _framework density 28.085063000000002
#
# number of rings (size 3 to 8) (size 9 to 14) (size 15 to 20)
#    0.000    1.714    4.286    2.143    0.000    0.571 
#    5.143    7.143    0.000    0.000    0.000    0.000 
#    0.000    0.000    0.000    0.000    0.000    0.000 
#
# Total GULP energy -156583.212053 kJ/mol
# GULP energy per Si atom -5592.257573 kJ/mol
# Density = 2.802114 g / cm^3
# Si number density = 28.085063 Si / 1000 Ang^3
#
#
#
# Elastic Constant Matrix: (Units=GPa)
#
#
# Indices 1 2 3 4 5 6 
#
# 1 229.8694 24.0421 33.6301 0.0000 2.1312 0.0000
# 2 24.0421 61.3466 14.9136 0.0000 1.8446 0.0000
# 3 33.6301 14.9136 122.2134 0.0000 1.1366 0.0000
# 4 0.0000 0.0000 0.0000 35.1504 0.0000 -8.8136
# 5 2.1312 1.8446 1.1366 0.0000 49.0019 0.0000
# 6 0.0000 0.0000 0.0000 -8.8136 0.0000 40.6184
#
#
#
# Elastic Compliance Matrix: (Units=1/GPa)
#
#
# Indices 1 2 3 4 5 6 
#
# 1 0.004675 -0.001562 -0.001095 0.000000 -0.000119 0.000000
# 2 -0.001562 0.017338 -0.001681 0.000000 -0.000546 0.000000
# 3 -0.001095 -0.001681 0.008690 0.000000 -0.000091 0.000000
# 4 0.000000 0.000000 0.000000 0.030086 0.000000 0.006528
# 5 -0.000119 -0.000546 -0.000091 0.000000 0.020435 0.000000
# 6 0.000000 0.000000 0.000000 0.006528 0.000000 0.026036
#
#
# Mechanical properties :
#
#
# Convention : Reuss Voigt Hill
#
# Bulk Modulus (GPa) = 45.39882 62.06678 53.73280
# Shear Modulus (GPa) = 40.55876 47.67704 44.11790
#
# Velocity S-wave (km/s) = 3.80431 4.12466 3.96772
# Velocity P-wave (km/s) = 5.95792 6.69562 6.33751
#
# Compressibility (1/GPa) = 0.02202700
#
# Stress axis : x y z
#
# Youngs Moduli (GPa) = 213.90524 57.67626 115.08048
#
# Poissons Ratio (x) = 0.09012 0.12597
# Poissons Ratio (y) = 0.33422 0.19342
# Poissons Ratio (z) = 0.23415 0.09694
#
# Static dielectric constant tensor:
#      x y z
#    x 2.159140 0.000000 -0.014950 
#    y 0.000000 2.272710 0.000000 
#    z -0.014950 0.000000 2.195300 
# 
# From -- ./inp_files/12853.got.cif
#   From: 2010.05.17/outbox.cif.g08.bks.cpg/sg14_7_cif.got.tgz:12853.got - 2010.06.03 17:49:19.
