data_PCOD9239088
_publ_section_title
;
Structure prediction by ZEFSAII (Michael W. Deem and Ramdas Pophale) SiO2 
 PCOD9239088
Probable space group: P 21/C
;
_chemical_formula_sum "Si O2"
_cell_formula_units_Z 32
_cell_length_a 19.130929
_cell_length_b 13.635403
_cell_length_c 12.252632
_cell_angle_alpha 90.000000
_cell_angle_beta 156.405989
_cell_angle_gamma 90.000000
_cell_volume 1279.287893
_symmetry_space_group_name_H-M "P 21/C"
_symmetry_group_IT_number 14
_symmetry_cell_setting 'monoclinic'
loop_
_space_group_symop_operation_xyz
x,y,z
-x,1/2+y,1/2-z
-x,-y,-z
x,1/2-y,1/2+z
loop_
_atom_site_type_symbol
_atom_site_label
_atom_site_fract_x
_atom_site_fract_y
_atom_site_fract_z
Si Si1 0.823323 0.831169 0.563630
Si Si2 0.990041 0.870707 0.226840
Si Si3 0.559726 0.401631 0.151820
Si Si4 0.228007 0.465603 0.415515
Si Si5 0.647953 0.554245 0.641217
Si Si6 0.492953 0.788883 0.626401
Si Si7 0.672565 0.131285 0.427411
Si Si8 0.778964 0.930417 0.711644
O O1 0.916204 0.738893 0.641845
O O2 0.621161 0.801270 0.297139
O O3 0.883068 0.870722 0.766840
O O4 0.799734 0.913847 0.439802
O O5 0.184405 0.862865 0.460966
O O6 0.944418 0.922131 0.276116
O O7 0.888773 0.927022 0.981721
O O8 0.726557 0.435617 0.455810
O O9 0.500000 0.500000 0.000000
O O10 0.588758 0.318691 0.105419
O O11 0.400603 0.380477 0.005447
O O12 0.259921 0.486790 0.334962
O O13 0.372588 0.380103 0.653381
O O14 0.500000 0.500000 0.500000
O O15 0.517868 0.634058 0.401161
O O16 0.344802 0.785543 0.505604
O O17 0.718091 0.031983 0.564836
#
# Coordination Sequence:
#
# PCOD9239088 Si02
#       8
#     4   4   4   4   4   4   4   4
#     4  11  24  38  63  93 122 172 206 253 325 379
#     4  11  24  38  62  93 129 163 206 266 324 360
#     4  10  13  30  58  91 114 151 211 258 286 362
#     4   9  17  33  61  87 117 161 204 250 309 360
#     4  11  21  41  67  90 124 166 212 256 299 395
#     4   9  18  33  59  87 119 155 208 261 300 353
#     4  11  22  40  64  93 124 163 215 261 316 366
#     4  12  20  38  67  91 125 160 217 258 311 381
#
# _framework density 25.013916999999999
#
# number of rings (size 3 to 8) (size 9 to 14) (size 15 to 20)
#    0.000    1.500    8.750    0.375    5.250    0.000 
#    2.250    0.625    5.500    0.000    0.000    0.000 
#    0.000    0.000    0.000    0.000    0.000    0.000 
#
# Total GULP energy -178604.098458 kJ/mol
# GULP energy per Si atom -5581.378077 kJ/mol
# Density = 2.495698 g / cm^3
# Si number density = 25.013917 Si / 1000 Ang^3
#
#
#
# Elastic Constant Matrix: (Units=GPa)
#
#
# Indices 1 2 3 4 5 6 
#
# 1 201.0340 26.9117 32.4734 0.0000 5.5743 0.0000
# 2 26.9117 44.6897 9.8148 0.0000 -4.3082 0.0000
# 3 32.4734 9.8148 47.3117 0.0000 6.7544 0.0000
# 4 0.0000 0.0000 0.0000 18.1004 0.0000 5.7056
# 5 5.5743 -4.3082 6.7544 0.0000 40.7332 0.0000
# 6 0.0000 0.0000 0.0000 5.7056 0.0000 31.8709
#
#
#
# Elastic Compliance Matrix: (Units=1/GPa)
#
#
# Indices 1 2 3 4 5 6 
#
# 1 0.005922 -0.002875 -0.003389 0.000000 -0.000552 0.000000
# 2 -0.002875 0.025300 -0.003803 0.000000 0.003700 0.000000
# 3 -0.003389 -0.003803 0.024831 0.000000 -0.004056 0.000000
# 4 0.000000 0.000000 0.000000 0.058551 0.000000 -0.010482
# 5 -0.000552 0.003700 -0.004056 0.000000 0.025689 0.000000
# 6 0.000000 0.000000 0.000000 -0.010482 0.000000 0.033253
#
#
# Mechanical properties :
#
#
# Convention : Reuss Voigt Hill
#
# Bulk Modulus (GPa) = 27.84184 47.93724 37.88954
# Shear Modulus (GPa) = 24.31264 33.06328 28.68796
#
# Velocity S-wave (km/s) = 3.12102 3.63959 3.39024
# Velocity P-wave (km/s) = 4.91349 6.07191 5.52315
#
# Compressibility (1/GPa) = 0.03591717
#
# Stress axis : x y z
#
# Youngs Moduli (GPa) = 168.86286 39.52598 40.27253
#
# Poissons Ratio (x) = 0.11364 0.13650
# Poissons Ratio (y) = 0.48549 0.15317
# Poissons Ratio (z) = 0.57234 0.15033
#
# Static dielectric constant tensor:
#      x y z
#    x 2.011250 0.000000 -0.044560 
#    y 0.000000 2.064610 0.000000 
#    z -0.044560 0.000000 2.056480 
# 
# From -- ./inp_files/34355.got.cif
#   From: 2010.05.17/outbox.cif.g08.bks.cpg/sg14_18_cif.got.tgz:34355.got - 2010.06.03 17:49:19.
