data_PCOD9239968
_publ_section_title
;
Structure prediction by ZEFSAII (Michael W. Deem and Ramdas Pophale) SiO2 
 PCOD9239968
Probable space group: P 21/C
;
_chemical_formula_sum "Si O2"
_cell_formula_units_Z 28
_cell_length_a 11.655308
_cell_length_b 9.512297
_cell_length_c 12.353327
_cell_angle_alpha 90.000000
_cell_angle_beta 51.007833
_cell_angle_gamma 90.000000
_cell_volume 1064.495331
_symmetry_space_group_name_H-M "P 21/C"
_symmetry_group_IT_number 14
_symmetry_cell_setting 'monoclinic'
loop_
_space_group_symop_operation_xyz
x,y,z
-x,1/2+y,1/2-z
-x,-y,-z
x,1/2-y,1/2+z
loop_
_atom_site_type_symbol
_atom_site_label
_atom_site_fract_x
_atom_site_fract_y
_atom_site_fract_z
Si Si1 0.684595 0.861331 0.099982
Si Si2 0.830725 0.464678 0.220615
Si Si3 0.592896 0.818805 0.485513
Si Si4 0.625572 0.057985 0.648117
Si Si5 0.824765 0.980568 0.195023
Si Si6 0.047758 0.220008 0.443862
Si Si7 0.744442 0.282170 0.894665
O O1 0.659117 0.827478 0.990081
O O2 0.519994 0.850865 0.244994
O O3 0.747240 0.998957 0.123824
O O4 0.805367 0.748910 0.069888
O O5 0.688303 0.482616 0.227728
O O6 0.912652 0.612438 0.175447
O O7 0.791847 0.376875 0.349143
O O8 0.936939 0.361362 0.087237
O O9 0.704235 0.887663 0.333859
O O10 0.426771 0.799257 0.542451
O O11 0.590588 0.928833 0.587955
O O12 0.744050 0.153112 0.513650
O O13 0.964804 0.878081 0.095132
O O14 0.839110 0.118206 0.257895
#
# Coordination Sequence:
#
# PCOD9239968 Si02
#       7
#     4   4   4   4   4   4   4
#     4  10  18  33  59  78 107 144 184 215 272 322
#     4  11  22  37  58  77 115 147 184 218 274 324
#     4  11  17  33  60  81 108 145 176 227 279 319
#     4  11  19  36  56  86 108 143 183 226 273 326
#     4   9  19  37  54  79 110 138 184 219 271 321
#     4   9  21  42  53  75 115 152 173 223 273 327
#     4  11  20  33  59  85 107 139 182 234 267 315
#
# _framework density 26.303545
#
# number of rings (size 3 to 8) (size 9 to 14) (size 15 to 20)
#    0.857    0.857    5.714    0.857    0.000    0.571 
#    2.571    5.714    0.000    0.000    0.000    0.000 
#    0.000    0.000    0.000    0.000    0.000    0.000 
#
# Total GULP energy -156376.642142 kJ/mol
# GULP energy per Si atom -5584.880076 kJ/mol
# Density = 2.624368 g / cm^3
# Si number density = 26.303545 Si / 1000 Ang^3
#
#
#
# Elastic Constant Matrix: (Units=GPa)
#
#
# Indices 1 2 3 4 5 6 
#
# 1 88.0463 0.3871 13.1820 0.0000 3.3538 0.0000
# 2 0.3871 84.6256 27.5217 0.0000 -3.8097 0.0000
# 3 13.1820 27.5217 51.1221 0.0000 -7.0123 0.0000
# 4 0.0000 0.0000 0.0000 42.7195 0.0000 1.0207
# 5 3.3538 -3.8097 -7.0123 0.0000 35.2625 0.0000
# 6 0.0000 0.0000 0.0000 1.0207 0.0000 17.5371
#
#
#
# Elastic Compliance Matrix: (Units=1/GPa)
#
#
# Indices 1 2 3 4 5 6 
#
# 1 0.012015 0.001154 -0.003967 0.000000 -0.001807 0.000000
# 2 0.001154 0.014436 -0.008091 0.000000 -0.000159 0.000000
# 3 -0.003967 -0.008091 0.025569 0.000000 0.004588 0.000000
# 4 0.000000 0.000000 0.000000 0.023441 0.000000 -0.001364
# 5 -0.001807 -0.000159 0.004588 0.000000 0.029426 0.000000
# 6 0.000000 0.000000 0.000000 -0.001364 0.000000 0.057101
#
#
# Mechanical properties :
#
#
# Convention : Reuss Voigt Hill
#
# Bulk Modulus (GPa) = 33.09979 33.99726 33.54853
# Shear Modulus (GPa) = 25.79085 31.28402 28.53744
#
# Velocity S-wave (km/s) = 3.13470 3.45243 3.29740
# Velocity P-wave (km/s) = 5.07079 5.37079 5.22295
#
# Compressibility (1/GPa) = 0.03021167
#
# Stress axis : x y z
#
# Youngs Moduli (GPa) = 83.22666 69.27326 39.10985
#
# Poissons Ratio (x) = -0.07994 0.15516
# Poissons Ratio (y) = -0.09604 0.31643
# Poissons Ratio (z) = 0.33018 0.56048
#
# Static dielectric constant tensor:
#      x y z
#    x 2.037520 0.000000 0.012830 
#    y 0.000000 2.120600 0.000000 
#    z 0.012830 0.000000 2.086540 
# 
# From -- ./inp_files/46914.got.cif
#   From: 2010.05.17/outbox.cif.g08.bks.cpg/sg14_24_cif.got.tgz:46914.got - 2010.06.03 17:49:19.
