data_PCOD9239096
_publ_section_title
;
Structure prediction by ZEFSAII (Michael W. Deem and Ramdas Pophale) SiO2 
 PCOD9239096
Probable space group: P 21/C
;
_chemical_formula_sum "Si O2"
_cell_formula_units_Z 20
_cell_length_a 7.043326
_cell_length_b 18.779973
_cell_length_c 5.568354
_cell_angle_alpha 90.000000
_cell_angle_beta 106.045331
_cell_angle_gamma 90.000000
_cell_volume 707.852148
_symmetry_space_group_name_H-M "P 21/C"
_symmetry_group_IT_number 14
_symmetry_cell_setting 'monoclinic'
loop_
_space_group_symop_operation_xyz
x,y,z
-x,1/2+y,1/2-z
-x,-y,-z
x,1/2-y,1/2+z
loop_
_atom_site_type_symbol
_atom_site_label
_atom_site_fract_x
_atom_site_fract_y
_atom_site_fract_z
Si Si1 0.849383 0.062724 0.996093
Si Si2 0.761226 0.290676 0.486685
Si Si3 0.373270 0.936346 0.576426
Si Si4 0.250965 0.157236 0.252844
Si Si5 0.299517 0.172940 0.771242
O O1 0.910717 0.143558 0.088842
O O2 0.770200 0.076443 0.698024
O O3 0.715461 0.045058 0.189505
O O4 0.000000 0.000000 0.000000
O O5 0.791385 0.244962 0.738215
O O6 0.536793 0.320315 0.383836
O O7 0.510906 0.866812 0.648875
O O8 0.500000 0.000000 0.500000
O O9 0.208307 0.134874 0.509306
O O10 0.239943 0.243498 0.240353
O O11 0.223835 0.131198 0.973410
#
# Coordination Sequence:
#
# PCOD9239096 Si02
#       5
#     4   4   4   4   4
#     4  12  25  42  62  98 133 168 211 267 326 386
#     4  12  18  32  59  92 116 156 212 279 308 354
#     4  12  23  40  62  92 128 171 209 251 316 396
#     4  10  16  27  47  81 110 136 184 253 302 330
#     4  10  14  25  48  75 116 127 184 260 309 307
#
# _framework density 28.254484999999999
#
# number of rings (size 3 to 8) (size 9 to 14) (size 15 to 20)
#    0.000    0.800    8.000    2.400    0.000    0.000 
#    0.000    0.000    0.000    0.000   31.200    0.000 
#    0.000    0.000    0.000    0.000    0.000    0.000 
#
# Total GULP energy -111618.561660 kJ/mol
# GULP energy per Si atom -5580.928083 kJ/mol
# Density = 2.819018 g / cm^3
# Si number density = 28.254485 Si / 1000 Ang^3
#
#
#
# Elastic Constant Matrix: (Units=GPa)
#
#
# Indices 1 2 3 4 5 6 
#
# 1 -56.5492 -30.6628 27.7749 0.0000 -95.4518 0.0000
# 2 -30.6628 99.3050 27.8896 0.0000 -41.0619 0.0000
# 3 27.7749 27.8896 343.1731 0.0000 -48.8553 0.0000
# 4 0.0000 0.0000 0.0000 47.7357 0.0000 -2.4691
# 5 -95.4518 -41.0619 -48.8553 0.0000 22.3219 0.0000
# 6 0.0000 0.0000 0.0000 -2.4691 0.0000 66.9056
#
#
#
# Elastic Compliance Matrix: (Units=1/GPa)
#
#
# Indices 1 2 3 4 5 6 
#
# 1 -0.000109 -0.003681 -0.001049 0.000000 -0.009535 0.000000
# 2 -0.003681 0.008756 -0.000525 0.000000 -0.000785 0.000000
# 3 -0.001049 -0.000525 0.003290 0.000000 0.001748 0.000000
# 4 0.000000 0.000000 0.000000 0.020989 0.000000 0.000775
# 5 -0.009535 -0.000785 0.001748 0.000000 0.006409 0.000000
# 6 0.000000 0.000000 0.000000 0.000775 0.000000 0.014975
#
#
# Mechanical properties :
#
#
# Convention : Reuss Voigt Hill
#
# Bulk Modulus (GPa) = 701.53710 48.43693 374.98702
# Shear Modulus (GPa) = 76.57131 51.45443 64.01287
#
# Velocity S-wave (km/s) = 5.21147 4.27207 4.76498
# Velocity P-wave (km/s) = 16.88324 6.44317 12.77807
#
# Compressibility (1/GPa) = 0.00142544
#
# Stress axis : x y z
#
# Youngs Moduli (GPa) = -9180.51176 114.20311 303.90939
#
# Poissons Ratio (x) = 0.42043 0.31892
# Poissons Ratio (y) = -33.79750 0.15967
# Poissons Ratio (z) = -9.63391 0.06000
#
# Static dielectric constant tensor:
#      x y z
#    x -57.515580 0.000000 -40.245890 
#    y 0.000000 2.130340 0.000000 
#    z -40.245890 0.000000 -24.849580 
# 
# From -- ./inp_files/1435.got.cif
#   From: 2010.05.17/outbox.cif.g08.bks.cpg/sg14_1_cif.got.tgz:1435.got - 2010.06.03 17:49:19.
