data_PCOD9239558
_publ_section_title
;
Structure prediction by ZEFSAII (Michael W. Deem and Ramdas Pophale) SiO2 
 PCOD9239558
Probable space group: P 21/C
;
_chemical_formula_sum "Si O2"
_cell_formula_units_Z 24
_cell_length_a 10.087083
_cell_length_b 7.738397
_cell_length_c 18.050925
_cell_angle_alpha 90.000000
_cell_angle_beta 41.506201
_cell_angle_gamma 90.000000
_cell_volume 933.756752
_symmetry_space_group_name_H-M "P 21/C"
_symmetry_group_IT_number 14
_symmetry_cell_setting 'monoclinic'
loop_
_space_group_symop_operation_xyz
x,y,z
-x,1/2+y,1/2-z
-x,-y,-z
x,1/2-y,1/2+z
loop_
_atom_site_type_symbol
_atom_site_label
_atom_site_fract_x
_atom_site_fract_y
_atom_site_fract_z
Si Si1 0.522291 0.855114 0.107184
Si Si2 0.913116 0.784258 0.021052
Si Si3 0.995362 0.384895 0.249588
Si Si4 0.576455 0.202883 0.007991
Si Si5 0.157488 0.608493 0.288931
Si Si6 0.114911 0.926586 0.557915
O O1 0.555184 0.771345 0.010773
O O2 0.345061 0.736244 0.212263
O O3 0.694298 0.857063 0.096455
O O4 0.490790 0.055204 0.097138
O O5 0.066130 0.899314 0.908469
O O6 0.892462 0.597627 0.988078
O O7 0.004841 0.726798 0.060249
O O8 0.169037 0.434348 0.235605
O O9 0.788366 0.368721 0.382834
O O10 0.000168 0.213798 0.196651
O O11 0.004494 0.525759 0.179894
O O12 0.659896 0.366952 0.016837
#
# Coordination Sequence:
#
# PCOD9239558 Si02
#       6
#     4   4   4   4   4   4
#     4  10  20  37  59  89 120 152 199 250 285 348
#     4  10  22  39  63  82 128 156 187 250 298 351
#     4  10  17  36  60  82 112 154 195 238 281 353
#     4  10  20  36  62  90 116 152 200 249 288 349
#     4  10  20  37  59  85 119 152 199 238 297 343
#     4  10  21  39  60  87 120 161 194 236 309 346
#
# _framework density 25.702625999999999
#
# number of rings (size 3 to 8) (size 9 to 14) (size 15 to 20)
#    0.000    2.000    5.000    0.000    0.000    1.333 
#    0.000    8.333    0.000    0.000    0.000    0.000 
#    0.000    0.000    0.000    0.000    0.000    0.000 
#
# Total GULP energy -133966.655841 kJ/mol
# GULP energy per Si atom -5581.943993 kJ/mol
# Density = 2.564413 g / cm^3
# Si number density = 25.702626 Si / 1000 Ang^3
#
#
#
# Elastic Constant Matrix: (Units=GPa)
#
#
# Indices 1 2 3 4 5 6 
#
# 1 94.9461 17.0563 6.8147 0.0000 -2.2595 0.0000
# 2 17.0563 59.4241 -12.0087 0.0000 9.0126 0.0000
# 3 6.8147 -12.0087 62.8456 0.0000 -5.6313 0.0000
# 4 0.0000 0.0000 0.0000 37.1627 0.0000 5.3468
# 5 -2.2595 9.0126 -5.6313 0.0000 45.6497 0.0000
# 6 0.0000 0.0000 0.0000 5.3468 0.0000 44.5679
#
#
#
# Elastic Compliance Matrix: (Units=1/GPa)
#
#
# Indices 1 2 3 4 5 6 
#
# 1 0.011376 -0.003806 -0.001864 0.000000 0.001085 0.000000
# 2 -0.003806 0.019216 0.003769 0.000000 -0.003517 0.000000
# 3 -0.001864 0.003769 0.016947 0.000000 0.001254 0.000000
# 4 0.000000 0.000000 0.000000 0.027381 0.000000 -0.003285
# 5 0.001085 -0.003517 0.001254 0.000000 0.022809 0.000000
# 6 0.000000 0.000000 0.000000 -0.003285 0.000000 0.022832
#
#
# Mechanical properties :
#
#
# Convention : Reuss Voigt Hill
#
# Bulk Modulus (GPa) = 22.86379 26.77114 24.81747
# Shear Modulus (GPa) = 35.98677 39.16631 37.57654
#
# Velocity S-wave (km/s) = 3.74588 3.90786 3.82772
# Velocity P-wave (km/s) = 5.25582 5.54978 5.40480
#
# Compressibility (1/GPa) = 0.04373728
#
# Stress axis : x y z
#
# Youngs Moduli (GPa) = 87.90731 52.04043 59.00842
#
# Poissons Ratio (x) = 0.19808 0.10997
# Poissons Ratio (y) = 0.33459 -0.22243
# Poissons Ratio (z) = 0.16383 -0.19616
#
# Static dielectric constant tensor:
#      x y z
#    x 2.040540 0.000000 -0.028010 
#    y 0.000000 2.164050 0.000000 
#    z -0.028010 0.000000 2.034940 
# 
# From -- ./inp_files/46347.got.cif
#   From: 2010.05.17/outbox.cif.g08.bks.cpg/sg14_24_cif.got.tgz:46347.got - 2010.06.03 17:49:19.
