data_PCOD9239729
_publ_section_title
;
Structure prediction by ZEFSAII (Michael W. Deem and Ramdas Pophale) SiO2 
 PCOD9239729
Probable space group: P 21/C
;
_chemical_formula_sum "Si O2"
_cell_formula_units_Z 32
_cell_length_a 21.584229
_cell_length_b 10.999066
_cell_length_c 16.204300
_cell_angle_alpha 90.000000
_cell_angle_beta 154.797010
_cell_angle_gamma 90.000000
_cell_volume 1638.156230
_symmetry_space_group_name_H-M "P 21/C"
_symmetry_group_IT_number 14
_symmetry_cell_setting 'monoclinic'
loop_
_space_group_symop_operation_xyz
x,y,z
-x,1/2+y,1/2-z
-x,-y,-z
x,1/2-y,1/2+z
loop_
_atom_site_type_symbol
_atom_site_label
_atom_site_fract_x
_atom_site_fract_y
_atom_site_fract_z
Si Si1 0.121978 0.121097 0.449478
Si Si2 0.883370 0.725199 0.246152
Si Si3 0.279159 0.589019 0.058228
Si Si4 0.361125 0.852604 0.202900
Si Si5 0.657831 0.526230 0.031465
Si Si6 0.947250 0.872626 0.094901
Si Si7 0.166352 0.480447 0.374294
Si Si8 0.159401 0.897425 0.118256
O O1 0.093509 0.172682 0.320800
O O2 0.125636 0.242274 0.509192
O O3 0.245133 0.019115 0.582821
O O4 0.983883 0.050594 0.318602
O O5 0.768056 0.636857 0.148571
O O6 0.825803 0.862770 0.173832
O O7 0.038770 0.707485 0.477269
O O8 0.359828 0.708483 0.186693
O O9 0.366631 0.531347 0.087867
O O10 0.116534 0.629603 0.828508
O O11 0.514893 0.917943 0.400060
O O12 0.258549 0.871556 0.158243
O O13 0.290827 0.920370 0.038191
O O14 0.735898 0.423471 0.179734
O O15 0.855320 0.921153 0.061594
O O16 0.927773 0.976112 0.003317
#
# Coordination Sequence:
#
# PCOD9239729 Si02
#       8
#     4   4   4   4   4   4   4   4
#     4   9  14  29  52  83  98 133 187 229 267 299
#     4  10  18  31  51  78 106 137 176 231 268 309
#     4  10  19  34  54  82 110 140 186 233 273 317
#     4  11  21  36  55  79 111 144 182 223 267 337
#     4  11  24  33  53  82 112 144 171 224 283 325
#     4   9  15  28  54  79 102 133 182 232 264 309
#     4   9  16  28  51  77 103 132 180 223 265 307
#     4  11  19  37  56  78 109 141 184 221 271 333
#
# _framework density 19.534157
#
# number of rings (size 3 to 8) (size 9 to 14) (size 15 to 20)
#    0.000    2.000    6.250    2.250    1.750    0.000 
#    0.000    0.000    0.000    5.250    0.000    0.000 
#    0.000    0.000    0.000    0.000    0.000    0.000 
#
# Total GULP energy -178243.745666 kJ/mol
# GULP energy per Si atom -5570.117052 kJ/mol
# Density = 1.948970 g / cm^3
# Si number density = 19.534157 Si / 1000 Ang^3
#
#
#
# Elastic Constant Matrix: (Units=GPa)
#
#
# Indices 1 2 3 4 5 6 
#
# 1 16.8875 11.7635 0.9398 0.0000 4.7220 0.0000
# 2 11.7635 91.1177 -6.0687 0.0000 2.9516 0.0000
# 3 0.9398 -6.0687 16.0931 0.0000 6.7605 0.0000
# 4 0.0000 0.0000 0.0000 4.3619 0.0000 -2.6247
# 5 4.7220 2.9516 6.7605 0.0000 12.6735 0.0000
# 6 0.0000 0.0000 0.0000 -2.6247 0.0000 11.3875
#
#
#
# Elastic Compliance Matrix: (Units=1/GPa)
#
#
# Indices 1 2 3 4 5 6 
#
# 1 0.072297 -0.008176 0.004139 0.000000 -0.027241 0.000000
# 2 -0.008176 0.012586 0.006670 0.000000 -0.003443 0.000000
# 3 0.004139 0.006670 0.084691 0.000000 -0.048273 0.000000
# 4 0.000000 0.000000 0.000000 0.266171 0.000000 0.061350
# 5 -0.027241 -0.003443 -0.048273 0.000000 0.115607 0.000000
# 6 0.000000 0.000000 0.000000 0.061350 0.000000 0.101956
#
#
# Mechanical properties :
#
#
# Convention : Reuss Voigt Hill
#
# Bulk Modulus (GPa) = 5.71953 15.26306 10.49129
# Shear Modulus (GPa) = 7.07893 13.51551 10.29722
#
# Velocity S-wave (km/s) = 1.90571 2.63324 2.29844
# Velocity P-wave (km/s) = 2.78866 4.13228 3.52508
#
# Compressibility (1/GPa) = 0.17483961
#
# Stress axis : x y z
#
# Youngs Moduli (GPa) = 13.83188 79.45284 11.80768
#
# Poissons Ratio (x) = 0.64957 -0.04887
# Poissons Ratio (y) = 0.11308 -0.07876
# Poissons Ratio (z) = -0.05724 -0.52995
#
# Static dielectric constant tensor:
#      x y z
#    x 1.706650 0.000000 -0.023680 
#    y 0.000000 1.743230 0.000000 
#    z -0.023680 0.000000 1.704920 
# 
# From -- ./inp_files/60549.got.cif
#   From: 2010.05.17/outbox.cif.g08.bks.cpg/sg14_31_cif.got.tgz:60549.got - 2010.06.03 17:49:19.
