data_PCOD9239881
_publ_section_title
;
Structure prediction by ZEFSAII (Michael W. Deem and Ramdas Pophale) SiO2 
 PCOD9239881
Probable space group: P 21/C
;
_chemical_formula_sum "Si O2"
_cell_formula_units_Z 28
_cell_length_a 10.542487
_cell_length_b 8.775162
_cell_length_c 20.058829
_cell_angle_alpha 90.000000
_cell_angle_beta 134.077763
_cell_angle_gamma 90.000000
_cell_volume 1333.115875
_symmetry_space_group_name_H-M "P 21/C"
_symmetry_group_IT_number 14
_symmetry_cell_setting 'monoclinic'
loop_
_space_group_symop_operation_xyz
x,y,z
-x,1/2+y,1/2-z
-x,-y,-z
x,1/2-y,1/2+z
loop_
_atom_site_type_symbol
_atom_site_label
_atom_site_fract_x
_atom_site_fract_y
_atom_site_fract_z
Si Si1 0.969782 0.943182 0.563354
Si Si2 0.386866 0.350193 0.443437
Si Si3 0.433137 0.678244 0.817908
Si Si4 0.281699 0.508103 0.279106
Si Si5 0.602573 0.398645 0.944329
Si Si6 0.216818 0.337126 0.525251
Si Si7 0.349412 0.626237 0.638126
O O1 0.957392 0.761983 0.544870
O O2 0.121808 0.989107 0.669636
O O3 0.785344 0.012029 0.524739
O O4 0.000000 0.000000 0.500000
O O5 0.500000 0.500000 0.500000
O O6 0.262666 0.399668 0.336217
O O7 0.512179 0.210640 0.466361
O O8 0.286283 0.329253 0.475104
O O9 0.328592 0.816484 0.814640
O O10 0.461520 0.525762 0.870264
O O11 0.633044 0.742879 0.878845
O O12 0.342736 0.643844 0.714546
O O13 0.458021 0.446681 0.307636
O O14 0.648673 0.286405 0.899515
O O15 0.216343 0.505418 0.555370
#
# Coordination Sequence:
#
# PCOD9239881 Si02
#       7
#     4   4   4   4   4   4   4
#     4  11  23  41  59  92 133 159 198 259 318 367
#     4  11  20  44  64  84 121 161 217 250 298 366
#     4  10  18  32  58  90 113 152 212 247 294 361
#     4  10  21  38  59  85 124 162 195 262 306 358
#     4  10  21  35  65  90 116 163 205 252 304 360
#     4  10  21  39  60  86 123 166 195 258 314 357
#     4  10  18  36  62  87 115 162 211 251 301 364
#
# _framework density 21.003426000000001
#
# number of rings (size 3 to 8) (size 9 to 14) (size 15 to 20)
#    0.000    1.714    4.286    4.286    0.000    3.429 
#    2.571    5.714    0.000    0.000    0.000    0.000 
#    0.000    0.000    0.000    0.000    0.000    0.000 
#
# Total GULP energy -156280.279356 kJ/mol
# GULP energy per Si atom -5581.438548 kJ/mol
# Density = 2.095562 g / cm^3
# Si number density = 21.003426 Si / 1000 Ang^3
#
#
#
# Elastic Constant Matrix: (Units=GPa)
#
#
# Indices 1 2 3 4 5 6 
#
# 1 44.9748 20.0440 20.7080 0.0000 -12.0408 0.0000
# 2 20.0440 121.9930 35.3804 0.0000 -1.2478 0.0000
# 3 20.7080 35.3804 131.9811 0.0000 0.8401 0.0000
# 4 0.0000 0.0000 0.0000 31.4020 0.0000 -3.0142
# 5 -12.0408 -1.2478 0.8401 0.0000 24.2802 0.0000
# 6 0.0000 0.0000 0.0000 -3.0142 0.0000 31.9988
#
#
#
# Elastic Compliance Matrix: (Units=1/GPa)
#
#
# Indices 1 2 3 4 5 6 
#
# 1 0.029465 -0.003605 -0.003749 0.000000 0.014556 0.000000
# 2 -0.003605 0.009336 -0.001929 0.000000 -0.001241 0.000000
# 3 -0.003749 -0.001929 0.008697 0.000000 -0.002259 0.000000
# 4 0.000000 0.000000 0.000000 0.032136 0.000000 0.003027
# 5 0.014556 -0.001241 -0.002259 0.000000 0.048419 0.000000
# 6 0.000000 0.000000 0.000000 0.003027 0.000000 0.031536
#
#
# Mechanical properties :
#
#
# Convention : Reuss Voigt Hill
#
# Bulk Modulus (GPa) = 34.56541 50.13485 42.35013
# Shear Modulus (GPa) = 26.62418 32.39063 29.50740
#
# Velocity S-wave (km/s) = 3.56422 3.93129 3.75225
# Velocity P-wave (km/s) = 5.78195 6.67296 6.24337
#
# Compressibility (1/GPa) = 0.02893066
#
# Stress axis : x y z
#
# Youngs Moduli (GPa) = 33.93891 107.10852 114.98626
#
# Poissons Ratio (x) = 0.38612 0.43112
# Poissons Ratio (y) = 0.12235 0.22184
# Poissons Ratio (z) = 0.12725 0.20664
#
# Static dielectric constant tensor:
#      x y z
#    x 1.470500 0.000000 0.018450 
#    y 0.000000 2.042590 0.000000 
#    z 0.018450 0.000000 1.761000 
# 
# From -- ./inp_files/67085.got.cif
#   From: 2010.05.17/outbox.cif.g08.bks.cpg/sg14_34_cif.got.tgz:67085.got - 2010.06.03 17:49:19.
