data_PCOD9239745
_publ_section_title
;
Structure prediction by ZEFSAII (Michael W. Deem and Ramdas Pophale) SiO2 
 PCOD9239745
Probable space group: P 21/C
;
_chemical_formula_sum "Si O2"
_cell_formula_units_Z 28
_cell_length_a 9.098886
_cell_length_b 13.727375
_cell_length_c 9.183061
_cell_angle_alpha 90.000000
_cell_angle_beta 83.569473
_cell_angle_gamma 90.000000
_cell_volume 1139.782925
_symmetry_space_group_name_H-M "P 21/C"
_symmetry_group_IT_number 14
_symmetry_cell_setting 'monoclinic'
loop_
_space_group_symop_operation_xyz
x,y,z
-x,1/2+y,1/2-z
-x,-y,-z
x,1/2-y,1/2+z
loop_
_atom_site_type_symbol
_atom_site_label
_atom_site_fract_x
_atom_site_fract_y
_atom_site_fract_z
Si Si1 0.818747 0.079863 0.277913
Si Si2 0.750564 0.658001 0.022987
Si Si3 0.032049 0.115011 0.024720
Si Si4 0.990769 0.389869 0.203720
Si Si5 0.468755 0.513935 0.333018
Si Si6 0.318728 0.185190 0.158591
Si Si7 0.310990 0.568679 0.910529
O O1 0.700311 0.021468 0.193475
O O2 0.910451 0.148420 0.158230
O O3 0.724700 0.117579 0.427731
O O4 0.942583 0.001006 0.313781
O O5 0.756487 0.705379 0.179503
O O6 0.707693 0.545736 0.043761
O O7 0.639713 0.719543 0.935571
O O8 0.906522 0.665235 0.923270
O O9 0.195722 0.129812 0.073545
O O10 0.007925 0.151537 0.863708
O O11 0.000000 0.000000 0.000000
O O12 0.822776 0.397596 0.175772
O O13 0.500000 0.500000 0.500000
O O14 0.543898 0.619897 0.309042
O O15 0.548175 0.438610 0.213140
#
# Coordination Sequence:
#
# PCOD9239745 Si02
#       7
#     4   4   4   4   4   4   4
#     4  10  18  31  53  80 109 141 181 228 276 328
#     4  10  20  35  55  81 113 147 184 229 282 342
#     4  10  18  32  55  83 109 141 184 233 280 333
#     4  10  18  34  60  87 112 142 183 236 285 336
#     4  11  21  34  53  81 113 147 191 241 284 337
#     4  11  22  36  56  82 112 149 189 232 285 343
#     4  10  20  36  59  88 114 145 188 241 291 341
#
# _framework density 24.566082999999999
#
# number of rings (size 3 to 8) (size 9 to 14) (size 15 to 20)
#    0.000    1.714    0.000    9.857    0.000    1.143 
#    0.000    0.000    0.000   20.571    0.000    0.000 
#    0.000    0.000    0.000    0.000    0.000    0.000 
#
# Total GULP energy -156355.960905 kJ/mol
# GULP energy per Si atom -5584.141461 kJ/mol
# Density = 2.451017 g / cm^3
# Si number density = 24.566083 Si / 1000 Ang^3
#
#
#
# Elastic Constant Matrix: (Units=GPa)
#
#
# Indices 1 2 3 4 5 6 
#
# 1 74.0389 -7.0231 12.4075 0.0000 4.5018 0.0000
# 2 -7.0231 37.3505 9.0185 0.0000 3.1581 0.0000
# 3 12.4075 9.0185 183.5229 0.0000 -1.2602 0.0000
# 4 0.0000 0.0000 0.0000 29.6681 0.0000 7.1651
# 5 4.5018 3.1581 -1.2602 0.0000 39.8442 0.0000
# 6 0.0000 0.0000 0.0000 7.1651 0.0000 27.3745
#
#
#
# Elastic Compliance Matrix: (Units=1/GPa)
#
#
# Indices 1 2 3 4 5 6 
#
# 1 0.014100 0.003079 -0.001117 0.000000 -0.001872 0.000000
# 2 0.003079 0.027960 -0.001600 0.000000 -0.002615 0.000000
# 3 -0.001117 -0.001600 0.005606 0.000000 0.000430 0.000000
# 4 0.000000 0.000000 0.000000 0.035981 0.000000 -0.009418
# 5 -0.001872 -0.002615 0.000430 0.000000 0.025530 0.000000
# 6 0.000000 0.000000 0.000000 -0.009418 0.000000 0.038995
#
#
# Mechanical properties :
#
#
# Convention : Reuss Voigt Hill
#
# Bulk Modulus (GPa) = 20.66584 35.96869 28.31727
# Shear Modulus (GPa) = 30.56650 38.07799 34.32224
#
# Velocity S-wave (km/s) = 3.53123 3.94130 3.74189
# Velocity P-wave (km/s) = 5.00567 5.94855 5.49736
#
# Compressibility (1/GPa) = 0.04838903
#
# Stress axis : x y z
#
# Youngs Moduli (GPa) = 70.92393 35.76557 178.37890
#
# Poissons Ratio (x) = -0.11013 0.19932
# Poissons Ratio (y) = -0.21840 0.28543
# Poissons Ratio (z) = 0.07925 0.05723
#
# Static dielectric constant tensor:
#      x y z
#    x 1.953310 0.000000 -0.089760 
#    y 0.000000 2.075390 0.000000 
#    z -0.089760 0.000000 2.058670 
# 
# From -- ./inp_files/9404.got.cif
#   From: 2010.05.17/outbox.cif.g08.bks.cpg/sg14_5_cif.got.tgz:9404.got - 2010.06.03 17:49:19.
