data_PCOD9239519
_publ_section_title
;
Structure prediction by ZEFSAII (Michael W. Deem and Ramdas Pophale) SiO2 
 PCOD9239519
Probable space group: P 21/C
;
_chemical_formula_sum "Si O2"
_cell_formula_units_Z 28
_cell_length_a 19.905597
_cell_length_b 9.040082
_cell_length_c 18.346842
_cell_angle_alpha 90.000000
_cell_angle_beta 159.055985
_cell_angle_gamma 90.000000
_cell_volume 1180.132987
_symmetry_space_group_name_H-M "P 21/C"
_symmetry_group_IT_number 14
_symmetry_cell_setting 'monoclinic'
loop_
_space_group_symop_operation_xyz
x,y,z
-x,1/2+y,1/2-z
-x,-y,-z
x,1/2-y,1/2+z
loop_
_atom_site_type_symbol
_atom_site_label
_atom_site_fract_x
_atom_site_fract_y
_atom_site_fract_z
Si Si1 0.883313 0.015495 0.734509
Si Si2 0.621660 0.181176 0.182995
Si Si3 0.724182 0.794590 0.078534
Si Si4 0.317391 0.018848 0.202686
Si Si5 0.397458 0.764807 0.994209
Si Si6 0.881331 0.389255 0.074975
Si Si7 0.404030 0.845942 0.159464
O O1 0.816581 0.859736 0.698231
O O2 0.760883 0.146773 0.643179
O O3 0.857474 0.005272 0.620319
O O4 0.098254 0.044379 0.971100
O O5 0.652029 0.360097 0.226637
O O6 0.655975 0.153770 0.133573
O O7 0.760218 0.095276 0.378697
O O8 0.409194 0.149826 0.992410
O O9 0.900632 0.883711 0.226084
O O10 0.572459 0.752949 0.862461
O O11 0.405742 0.989507 0.211912
O O12 0.422114 0.161093 0.339813
O O13 0.425762 0.861176 0.095717
O O14 0.792067 0.236621 0.017915
#
# Coordination Sequence:
#
# PCOD9239519 Si02
#       7
#     4   4   4   4   4   4   4
#     4  11  19  31  58  78  99 136 171 214 257 296
#     4  10  21  34  50  78 114 132 163 211 265 312
#     4  10  17  35  54  74 106 131 170 222 242 296
#     4  10  19  33  51  83 100 132 176 211 254 303
#     4  11  21  34  53  79 107 139 163 208 270 306
#     4   9  19  34  49  76 102 136 171 207 254 302
#     4   9  19  33  51  76 103 133 176 212 242 306
#
# _framework density 23.726140999999998
#
# number of rings (size 3 to 8) (size 9 to 14) (size 15 to 20)
#    0.000    2.286    5.714    1.286    0.000    1.714 
#    0.000    0.000    0.000    1.714    0.000    0.000 
#    0.000    0.000    0.000    0.000    0.000    0.000 
#
# Total GULP energy -156547.010950 kJ/mol
# GULP energy per Si atom -5590.964677 kJ/mol
# Density = 2.367214 g / cm^3
# Si number density = 23.726141 Si / 1000 Ang^3
#
#
#
# Elastic Constant Matrix: (Units=GPa)
#
#
# Indices 1 2 3 4 5 6 
#
# 1 128.8440 3.3536 57.5307 0.0000 -19.4526 0.0000
# 2 3.3536 36.4920 7.0120 0.0000 -10.3124 0.0000
# 3 57.5307 7.0120 107.6345 0.0000 2.8512 0.0000
# 4 0.0000 0.0000 0.0000 12.3203 0.0000 -7.4697
# 5 -19.4526 -10.3124 2.8512 0.0000 36.6845 0.0000
# 6 0.0000 0.0000 0.0000 -7.4697 0.0000 22.1162
#
#
#
# Elastic Compliance Matrix: (Units=1/GPa)
#
#
# Indices 1 2 3 4 5 6 
#
# 1 0.011788 0.002288 -0.006646 0.000000 0.007411 0.000000
# 2 0.002288 0.030724 -0.003493 0.000000 0.010122 0.000000
# 3 -0.006646 -0.003493 0.013217 0.000000 -0.005533 0.000000
# 4 0.000000 0.000000 0.000000 0.102068 0.000000 0.034473
# 5 0.007411 0.010122 -0.005533 0.000000 0.034464 0.000000
# 6 0.000000 0.000000 0.000000 0.034473 0.000000 0.056859
#
#
# Mechanical properties :
#
#
# Convention : Reuss Voigt Hill
#
# Bulk Modulus (GPa) = 24.98241 45.41811 35.20026
# Shear Modulus (GPa) = 17.97492 27.89580 22.93536
#
# Velocity S-wave (km/s) = 2.75544 3.43263 3.11251
# Velocity P-wave (km/s) = 4.54704 5.90718 5.27117
#
# Compressibility (1/GPa) = 0.04002817
#
# Stress axis : x y z
#
# Youngs Moduli (GPa) = 84.83046 32.54739 75.65913
#
# Poissons Ratio (x) = -0.07447 0.50284
# Poissons Ratio (y) = -0.19409 0.26425
# Poissons Ratio (z) = 0.56380 0.11368
#
# Static dielectric constant tensor:
#      x y z
#    x 1.895190 0.000000 -0.022340 
#    y 0.000000 1.932200 0.000000 
#    z -0.022340 0.000000 1.907320 
# 
# From -- ./inp_files/61317.got.cif
#   From: 2010.05.17/outbox.cif.g08.bks.cpg/sg14_31_cif.got.tgz:61317.got - 2010.06.03 17:49:19.
