data_PCOD9239242
_publ_section_title
;
Structure prediction by ZEFSAII (Michael W. Deem and Ramdas Pophale) SiO2 
 PCOD9239242
Probable space group: P 21/C
;
_chemical_formula_sum "Si O2"
_cell_formula_units_Z 20
_cell_length_a 15.996994
_cell_length_b 5.078125
_cell_length_c 25.388626
_cell_angle_alpha 90.000000
_cell_angle_beta 155.025030
_cell_angle_gamma 90.000000
_cell_volume 870.807437
_symmetry_space_group_name_H-M "P 21/C"
_symmetry_group_IT_number 14
_symmetry_cell_setting 'monoclinic'
loop_
_space_group_symop_operation_xyz
x,y,z
-x,1/2+y,1/2-z
-x,-y,-z
x,1/2-y,1/2+z
loop_
_atom_site_type_symbol
_atom_site_label
_atom_site_fract_x
_atom_site_fract_y
_atom_site_fract_z
Si Si1 0.373120 0.193619 0.163435
Si Si2 0.437053 0.118101 0.586994
Si Si3 0.950713 0.460319 0.190436
Si Si4 0.814553 0.647303 0.341352
Si Si5 0.837283 0.352128 0.793413
O O1 0.460417 0.467261 0.236389
O O2 0.337585 0.250165 0.081686
O O3 0.199744 0.105838 0.104314
O O4 0.598822 0.314369 0.654236
O O5 0.275522 0.010580 0.455147
O O6 0.581333 0.890083 0.691814
O O7 0.077688 0.551182 0.212705
O O8 0.992686 0.161011 0.230446
O O9 0.906718 0.428327 0.355624
O O10 0.887247 0.931067 0.365954
#
# Coordination Sequence:
#
# PCOD9239242 Si02
#       5
#     4   4   4   4   4
#     4  10  16  32  62  93 117 153 189 232 292 364
#     4   9  23  38  66  86 122 159 193 237 305 344
#     4  12  28  43  59  87 119 156 210 255 289 342
#     4   9  18  37  62  91 119 153 187 239 294 362
#     4  10  21  40  62  85 123 150 201 244 293 352
#
# _framework density 22.967193000000002
#
# number of rings (size 3 to 8) (size 9 to 14) (size 15 to 20)
#    1.200    0.800    2.000    1.200    2.800    1.600 
#    0.000    2.000    0.000    0.000    0.000    0.000 
#    0.000    0.000    0.000    0.000    0.000    0.000 
#
# Total GULP energy -111632.969243 kJ/mol
# GULP energy per Si atom -5581.648462 kJ/mol
# Density = 2.291492 g / cm^3
# Si number density = 22.967193 Si / 1000 Ang^3
#
#
#
# Elastic Constant Matrix: (Units=GPa)
#
#
# Indices 1 2 3 4 5 6 
#
# 1 -225.7924 37.2304 231.4901 0.0000 -99.7784 0.0000
# 2 37.2304 49.6370 -63.7701 0.0000 25.2847 0.0000
# 3 231.4901 -63.7701 -112.8868 0.0000 81.5148 0.0000
# 4 0.0000 0.0000 0.0000 10.6919 0.0000 -11.9893
# 5 -99.7784 25.2847 81.5148 0.0000 -16.6542 0.0000
# 6 0.0000 0.0000 0.0000 -11.9893 0.0000 34.0183
#
#
#
# Elastic Compliance Matrix: (Units=1/GPa)
#
#
# Indices 1 2 3 4 5 6 
#
# 1 0.010752 0.008607 0.007850 0.000000 -0.012931 0.000000
# 2 0.008607 0.020144 0.003504 0.000000 -0.003830 0.000000
# 3 0.007850 0.003504 0.009809 0.000000 0.006301 0.000000
# 4 0.000000 0.000000 0.000000 0.154645 0.000000 0.054503
# 5 -0.012931 -0.003830 0.006301 0.000000 0.042451 0.000000
# 6 0.000000 0.000000 0.000000 0.054503 0.000000 0.048605
#
#
# Mechanical properties :
#
#
# Convention : Reuss Voigt Hill
#
# Bulk Modulus (GPa) = 12.40290 13.42874 12.91582
# Shear Modulus (GPa) = 18.29093 -27.32165 -4.51536
#
# Velocity S-wave (km/s) = 2.82511 -3.45279 -1.40366
# Velocity P-wave (km/s) = 4.00670 3.16798 1.73458
#
# Compressibility (1/GPa) = 0.08062633
#
# Stress axis : x y z
#
# Youngs Moduli (GPa) = 93.00444 49.64287 101.94928
#
# Poissons Ratio (x) = -0.42727 -0.80027
# Poissons Ratio (y) = -0.80047 -0.35726
# Poissons Ratio (z) = -0.73005 -0.17396
#
# Static dielectric constant tensor:
#      x y z
#    x 1.862930 0.000000 0.041170 
#    y 0.000000 1.831970 0.000000 
#    z 0.041170 0.000000 1.882130 
# 
# From -- ./inp_files/42503.got.cif
#   From: 2010.05.17/outbox.cif.g08.bks.cpg/sg14_22_cif.got.tgz:42503.got - 2010.06.03 17:49:19.
