data_PCOD9239850
_publ_section_title
;
Structure prediction by ZEFSAII (Michael W. Deem and Ramdas Pophale) SiO2 
 PCOD9239850
Probable space group: P 21/C
;
_chemical_formula_sum "Si O2"
_cell_formula_units_Z 28
_cell_length_a 20.338863
_cell_length_b 11.620639
_cell_length_c 11.199952
_cell_angle_alpha 90.000000
_cell_angle_beta 154.722576
_cell_angle_gamma 90.000000
_cell_volume 1130.322423
_symmetry_space_group_name_H-M "P 21/C"
_symmetry_group_IT_number 14
_symmetry_cell_setting 'monoclinic'
loop_
_space_group_symop_operation_xyz
x,y,z
-x,1/2+y,1/2-z
-x,-y,-z
x,1/2-y,1/2+z
loop_
_atom_site_type_symbol
_atom_site_label
_atom_site_fract_x
_atom_site_fract_y
_atom_site_fract_z
Si Si1 0.926798 0.096191 0.744304
Si Si2 0.484732 0.008217 0.147862
Si Si3 0.821529 0.620841 0.953832
Si Si4 0.615249 0.321704 0.690198
Si Si5 0.627306 0.421561 0.302206
Si Si6 0.956651 0.324667 0.900851
Si Si7 0.812263 0.874901 0.007050
O O1 0.794733 0.163846 0.450375
O O2 0.944531 0.185101 0.882379
O O3 0.090331 0.091245 0.948891
O O4 0.865003 0.966387 0.632122
O O5 0.317033 0.064719 0.849053
O O6 0.488416 0.895982 0.069144
O O7 0.490285 0.962225 0.289794
O O8 0.598872 0.106918 0.288205
O O9 0.765891 0.743258 0.910426
O O10 0.962761 0.641769 0.093663
O O11 0.579271 0.189295 0.647470
O O12 0.785517 0.375426 0.624971
O O13 0.682894 0.532692 0.322267
O O14 0.066365 0.371547 0.184005
#
# Coordination Sequence:
#
# PCOD9239850 Si02
#       7
#     4   4   4   4   4   4   4
#     4   9  19  34  55  82 117 151 189 241 292 344
#     4  10  20  41  63  80 117 161 187 237 297 343
#     4  10  19  34  54  83 119 153 191 236 296 339
#     4   9  21  39  60  85 113 154 195 240 286 351
#     4  11  20  37  65  88 110 149 203 238 294 352
#     4  10  18  32  55  86 114 147 191 239 294 341
#     4  11  20  32  59  88 114 150 196 246 289 353
#
# _framework density 24.771692999999999
#
# number of rings (size 3 to 8) (size 9 to 14) (size 15 to 20)
#    0.000    2.000    2.857    2.143    0.000    0.571 
#    7.714    0.714    6.286    0.000    0.000    0.000 
#    0.000    0.000    0.000    0.000    0.000    0.000 
#
# Total GULP energy -156563.093462 kJ/mol
# GULP energy per Si atom -5591.539052 kJ/mol
# Density = 2.471531 g / cm^3
# Si number density = 24.771693 Si / 1000 Ang^3
#
#
#
# Elastic Constant Matrix: (Units=GPa)
#
#
# Indices 1 2 3 4 5 6 
#
# 1 67.1358 34.7095 10.1143 0.0000 14.3619 0.0000
# 2 34.7095 187.0615 31.0601 0.0000 -10.4968 0.0000
# 3 10.1143 31.0601 56.2570 0.0000 -2.7590 0.0000
# 4 0.0000 0.0000 0.0000 33.6457 0.0000 5.0257
# 5 14.3619 -10.4968 -2.7590 0.0000 25.9495 0.0000
# 6 0.0000 0.0000 0.0000 5.0257 0.0000 36.7028
#
#
#
# Elastic Compliance Matrix: (Units=1/GPa)
#
#
# Indices 1 2 3 4 5 6 
#
# 1 0.020114 -0.004135 -0.001972 0.000000 -0.013015 0.000000
# 2 -0.004135 0.006846 -0.002803 0.000000 0.004760 0.000000
# 3 -0.001972 -0.002803 0.019778 0.000000 0.002060 0.000000
# 4 0.000000 0.000000 0.000000 0.030342 0.000000 -0.004155
# 5 -0.013015 0.004760 0.002060 0.000000 0.047884 0.000000
# 6 0.000000 0.000000 0.000000 -0.004155 0.000000 0.027815
#
#
# Mechanical properties :
#
#
# Convention : Reuss Voigt Hill
#
# Bulk Modulus (GPa) = 34.57861 51.35802 42.96831
# Shear Modulus (GPa) = 27.74118 34.89764 31.31941
#
# Velocity S-wave (km/s) = 3.35008 3.75743 3.55959
# Velocity P-wave (km/s) = 5.38083 6.29301 5.85471
#
# Compressibility (1/GPa) = 0.02891962
#
# Stress axis : x y z
#
# Youngs Moduli (GPa) = 49.71598 146.08000 50.56020
#
# Poissons Ratio (x) = 0.60407 0.09968
# Poissons Ratio (y) = 0.20558 0.14170
# Poissons Ratio (z) = 0.09802 0.40941
#
# Static dielectric constant tensor:
#      x y z
#    x 1.970250 0.000000 0.003690 
#    y 0.000000 1.959750 0.000000 
#    z 0.003690 0.000000 2.000860 
# 
# From -- ./inp_files/35131.got.cif
#   From: 2010.05.17/outbox.cif.g08.bks.cpg/sg14_18_cif.got.tgz:35131.got - 2010.06.03 17:49:19.
