data_PCOD9239869
_publ_section_title
;
Structure prediction by ZEFSAII (Michael W. Deem and Ramdas Pophale) SiO2 
 PCOD9239869
Probable space group: P 21/C
;
_chemical_formula_sum "Si O2"
_cell_formula_units_Z 32
_cell_length_a 7.867073
_cell_length_b 10.331951
_cell_length_c 18.361791
_cell_angle_alpha 90.000000
_cell_angle_beta 107.013218
_cell_angle_gamma 90.000000
_cell_volume 1427.171713
_symmetry_space_group_name_H-M "P 21/C"
_symmetry_group_IT_number 14
_symmetry_cell_setting 'monoclinic'
loop_
_space_group_symop_operation_xyz
x,y,z
-x,1/2+y,1/2-z
-x,-y,-z
x,1/2-y,1/2+z
loop_
_atom_site_type_symbol
_atom_site_label
_atom_site_fract_x
_atom_site_fract_y
_atom_site_fract_z
Si Si1 0.708978 0.740824 0.624868
Si Si2 0.316575 0.764129 0.373638
Si Si3 0.164411 0.001847 0.277705
Si Si4 0.034024 0.243418 0.979364
Si Si5 0.660521 0.337774 0.963255
Si Si6 0.662010 0.889755 0.406448
Si Si7 0.011649 0.130663 0.130514
Si Si8 0.185941 0.393349 0.219768
O O1 0.742104 0.879009 0.669816
O O2 0.853331 0.714087 0.579260
O O3 0.510239 0.746899 0.568463
O O4 0.731073 0.640066 0.692768
O O5 0.276455 0.832887 0.445662
O O6 0.529826 0.767222 0.395556
O O7 0.192825 0.638781 0.366454
O O8 0.254328 0.863823 0.303897
O O9 0.125258 0.024213 0.187447
O O10 0.970957 0.994379 0.290707
O O11 0.833909 0.292684 0.940068
O O12 0.151347 0.355316 0.032997
O O13 0.023043 0.138238 0.044446
O O14 0.599195 0.482423 0.938777
O O15 0.676883 0.930867 0.324725
O O16 0.096124 0.262912 0.174870
#
# Coordination Sequence:
#
# PCOD9239869 Si02
#       8
#     4   4   4   4   4   4   4   4
#     4  11  20  37  57  84 113 146 187 229 278 328
#     4  10  18  32  57  85 111 141 179 233 279 329
#     4  10  18  37  55  76 113 147 181 228 276 325
#     4  10  20  34  56  79 112 146 182 227 281 327
#     4  11  20  33  57  89 112 141 181 231 289 334
#     4  11  18  34  53  82 115 141 177 234 287 327
#     4   8  19  35  54  78 109 149 183 223 281 330
#     4   9  21  35  52  79 114 145 187 230 268 333
#
# _framework density 22.421970000000002
#
# number of rings (size 3 to 8) (size 9 to 14) (size 15 to 20)
#    0.000    2.000    2.500    3.000    0.000    0.000 
#    9.000    0.625    0.000    3.000    0.000    0.000 
#    0.000    0.000    0.000    0.000    0.000    0.000 
#
# Total GULP energy -178439.247953 kJ/mol
# GULP energy per Si atom -5576.226499 kJ/mol
# Density = 2.237094 g / cm^3
# Si number density = 22.421970 Si / 1000 Ang^3
#
#
#
# Elastic Constant Matrix: (Units=GPa)
#
#
# Indices 1 2 3 4 5 6 
#
# 1 108.5384 2.7173 25.8866 0.0000 9.1232 0.0000
# 2 2.7173 26.4053 24.0528 0.0000 6.9009 0.0000
# 3 25.8866 24.0528 93.3075 0.0000 -1.2798 0.0000
# 4 0.0000 0.0000 0.0000 26.0799 0.0000 4.6754
# 5 9.1232 6.9009 -1.2798 0.0000 32.6487 0.0000
# 6 0.0000 0.0000 0.0000 4.6754 0.0000 9.0767
#
#
#
# Elastic Compliance Matrix: (Units=1/GPa)
#
#
# Indices 1 2 3 4 5 6 
#
# 1 0.010349 0.003369 -0.003791 0.000000 -0.003752 0.000000
# 2 0.003369 0.054853 -0.015255 0.000000 -0.013134 0.000000
# 3 -0.003791 -0.015255 0.015769 0.000000 0.004902 0.000000
# 4 0.000000 0.000000 0.000000 0.042245 0.000000 -0.021760
# 5 -0.003752 -0.013134 0.004902 0.000000 0.034646 0.000000
# 6 0.000000 0.000000 0.000000 -0.021760 0.000000 0.121381
#
#
# Mechanical properties :
#
#
# Convention : Reuss Voigt Hill
#
# Bulk Modulus (GPa) = 20.15463 37.06273 28.60868
# Shear Modulus (GPa) = 15.28430 25.26736 20.27583
#
# Velocity S-wave (km/s) = 2.61371 3.36058 3.01039
# Velocity P-wave (km/s) = 4.25640 5.62348 4.98700
#
# Compressibility (1/GPa) = 0.04961638
#
# Stress axis : x y z
#
# Youngs Moduli (GPa) = 96.63187 18.23066 63.41723
#
# Poissons Ratio (x) = -0.06142 0.24041
# Poissons Ratio (y) = -0.32555 0.96741
# Poissons Ratio (z) = 0.36633 0.27810
#
# Static dielectric constant tensor:
#      x y z
#    x 1.906610 0.000000 -0.009230 
#    y 0.000000 1.848440 0.000000 
#    z -0.009230 0.000000 1.833820 
# 
# From -- ./inp_files/55464.got.cif
#   From: 2010.05.17/outbox.cif.g08.bks.cpg/sg14_28_cif.got.tgz:55464.got - 2010.06.03 17:49:19.
