data_PCOD9239591
_publ_section_title
;
Structure prediction by ZEFSAII (Michael W. Deem and Ramdas Pophale) SiO2 
 PCOD9239591
Probable space group: P 21/C
;
_chemical_formula_sum "Si O2"
_cell_formula_units_Z 28
_cell_length_a 9.423211
_cell_length_b 9.173943
_cell_length_c 19.455527
_cell_angle_alpha 90.000000
_cell_angle_beta 136.607211
_cell_angle_gamma 90.000000
_cell_volume 1155.452775
_symmetry_space_group_name_H-M "P 21/C"
_symmetry_group_IT_number 14
_symmetry_cell_setting 'monoclinic'
loop_
_space_group_symop_operation_xyz
x,y,z
-x,1/2+y,1/2-z
-x,-y,-z
x,1/2-y,1/2+z
loop_
_atom_site_type_symbol
_atom_site_label
_atom_site_fract_x
_atom_site_fract_y
_atom_site_fract_z
Si Si1 0.092814 0.649592 0.004601
Si Si2 0.804080 0.610514 0.430581
Si Si3 0.724103 0.766482 0.691912
Si Si4 0.701159 0.393802 0.199919
Si Si5 0.203702 0.742961 0.401817
Si Si6 0.809896 0.599156 0.588190
Si Si7 0.420675 0.656934 0.699181
O O1 0.213446 0.660470 0.974544
O O2 0.893814 0.752100 0.923457
O O3 0.238351 0.731733 0.111152
O O4 0.000000 0.500000 0.000000
O O5 0.759988 0.648327 0.493696
O O6 0.637163 0.513086 0.333700
O O7 0.000000 0.500000 0.500000
O O8 0.699015 0.688687 0.609406
O O9 0.596960 0.688530 0.706643
O O10 0.965419 0.752794 0.793777
O O11 0.667489 0.936343 0.672723
O O12 0.676998 0.306385 0.121176
O O13 0.560266 0.333793 0.212172
O O14 0.941197 0.385175 0.311473
O O15 0.245298 0.572478 0.429337
#
# Coordination Sequence:
#
# PCOD9239591 Si02
#       7
#     4   4   4   4   4   4   4
#     4  11  23  38  66  93 121 166 220 252 302 382
#     4  10  17  37  65  86 117 160 210 246 303 369
#     4  10  24  37  63  95 123 154 207 261 311 362
#     4  10  21  38  63  86 128 161 203 253 309 371
#     4  10  21  40  61  91 122 166 206 251 309 378
#     4  10  18  38  63  88 113 165 203 245 301 384
#     4  11  22  42  64  91 126 165 208 263 311 370
#
# _framework density 24.232924000000001
#
# number of rings (size 3 to 8) (size 9 to 14) (size 15 to 20)
#    0.000    1.714    5.714    0.857    2.000    5.143 
#    0.000    2.143    0.000    0.000    0.000    0.000 
#    0.000    0.000    0.000    0.000    0.000    0.000 
#
# Total GULP energy -156776.249583 kJ/mol
# GULP energy per Si atom -5599.151771 kJ/mol
# Density = 2.417777 g / cm^3
# Si number density = 24.232924 Si / 1000 Ang^3
#
#
#
# Elastic Constant Matrix: (Units=GPa)
#
#
# Indices 1 2 3 4 5 6 
#
# 1 189.7447 37.5470 47.2519 0.0000 -48.3628 0.0000
# 2 37.5470 46.5005 20.7368 0.0000 -11.1044 0.0000
# 3 47.2519 20.7368 83.0872 0.0000 -27.7384 0.0000
# 4 0.0000 0.0000 0.0000 20.7260 0.0000 -11.6588
# 5 -48.3628 -11.1044 -27.7384 0.0000 56.7760 0.0000
# 6 0.0000 0.0000 0.0000 -11.6588 0.0000 43.5538
#
#
#
# Elastic Compliance Matrix: (Units=1/GPa)
#
#
# Indices 1 2 3 4 5 6 
#
# 1 0.007829 -0.004375 -0.001696 0.000000 0.004984 0.000000
# 2 -0.004375 0.026860 -0.004428 0.000000 -0.000636 0.000000
# 3 -0.001696 -0.004428 0.015933 0.000000 0.005473 0.000000
# 4 0.000000 0.000000 0.000000 0.056802 0.000000 0.015205
# 5 0.004984 -0.000636 0.005473 0.000000 0.024408 0.000000
# 6 0.000000 0.000000 0.000000 0.015205 0.000000 0.027030
#
#
# Mechanical properties :
#
#
# Convention : Reuss Voigt Hill
#
# Bulk Modulus (GPa) = 33.75779 58.93375 46.34577
# Shear Modulus (GPa) = 26.35252 38.46426 32.40839
#
# Velocity S-wave (km/s) = 3.30125 3.98838 3.66097
# Velocity P-wave (km/s) = 5.33777 6.75145 6.08580
#
# Compressibility (1/GPa) = 0.02962279
#
# Stress axis : x y z
#
# Youngs Moduli (GPa) = 127.73416 37.22975 62.76418
#
# Poissons Ratio (x) = 0.16286 0.10648
# Poissons Ratio (y) = 0.55878 0.27795
# Poissons Ratio (z) = 0.21669 0.16487
#
# Static dielectric constant tensor:
#      x y z
#    x 2.282520 0.000000 -0.013490 
#    y 0.000000 1.889930 0.000000 
#    z -0.013490 0.000000 2.015940 
# 
# From -- ./inp_files/65013.got.cif
#   From: 2010.05.17/outbox.cif.g08.bks.cpg/sg14_33_cif.got.tgz:65013.got - 2010.06.03 17:49:19.
