data_PCOD9239409
_publ_section_title
;
Structure prediction by ZEFSAII (Michael W. Deem and Ramdas Pophale) SiO2 
 PCOD9239409
Probable space group: P 21/C
;
_chemical_formula_sum "Si O2"
_cell_formula_units_Z 30
_cell_length_a 8.880674
_cell_length_b 9.018881
_cell_length_c 15.646501
_cell_angle_alpha 90.000000
_cell_angle_beta 74.133136
_cell_angle_gamma 90.000000
_cell_volume 1205.439881
_symmetry_space_group_name_H-M "P 21/C"
_symmetry_group_IT_number 14
_symmetry_cell_setting 'monoclinic'
loop_
_space_group_symop_operation_xyz
x,y,z
-x,1/2+y,1/2-z
-x,-y,-z
x,1/2-y,1/2+z
loop_
_atom_site_type_symbol
_atom_site_label
_atom_site_fract_x
_atom_site_fract_y
_atom_site_fract_z
Si Si1 0.500000 0.000000 0.000000
Si Si2 0.827972 0.399989 0.229038
Si Si3 0.637996 0.920388 0.621592
Si Si4 0.853338 0.500922 0.415827
Si Si5 0.827831 0.657986 0.640663
Si Si6 0.501768 0.692489 0.923985
Si Si7 0.638982 0.369045 0.715743
Si Si8 0.145840 0.313551 0.165785
O O1 0.308292 0.993727 0.008122
O O2 0.496090 0.183981 0.003391
O O3 0.707905 0.490869 0.191663
O O4 0.803594 0.433825 0.331344
O O5 0.788382 0.229734 0.215591
O O6 0.006858 0.430025 0.175175
O O7 0.608827 0.048523 0.556445
O O8 0.757490 0.786048 0.592329
O O9 0.473483 0.865601 0.684852
O O10 0.887410 0.670415 0.386426
O O11 0.010520 0.414047 0.417812
O O12 0.698567 0.531151 0.680281
O O13 0.861623 0.721921 0.731171
O O14 0.453732 0.791112 0.847879
O O15 0.678607 0.639393 0.881070
#
# Coordination Sequence:
#
# PCOD9239409 Si02
#       8
#     2   4   4   4   4   4   4   4
#     4  10  22  42  58  78 118 170 220 230 290 374
#     4  10  20  32  56  87 119 143 191 244 314 349
#     4  11  19  33  53  90 117 148 186 255 312 357
#     4  10  20  35  58  85 116 163 194 251 284 368
#     4  11  19  32  56  91 122 143 192 252 319 356
#     4  10  21  36  60  80 114 160 199 244 295 369
#     4  11  19  34  57  90 121 146 184 247 320 363
#     4  10  17  32  53  84 116 146 188 243 307 354
#
# _framework density 24.887180000000001
#
# number of rings (size 3 to 8) (size 9 to 14) (size 15 to 20)
#    0.000    1.600    5.333    1.600    0.000    0.000 
#    0.000    1.333    0.000    3.200    0.000    0.000 
#    0.000    0.000    0.000    0.000    0.000    0.000 
#
# Total GULP energy -167254.368869 kJ/mol
# GULP energy per Si atom -5575.145629 kJ/mol
# Density = 2.483054 g / cm^3
# Si number density = 24.887180 Si / 1000 Ang^3
#
#
#
# Elastic Constant Matrix: (Units=GPa)
#
#
# Indices 1 2 3 4 5 6 
#
# 1 91.6100 32.3569 28.1979 0.0000 -17.2997 0.0000
# 2 32.3569 96.6146 32.5689 0.0000 6.3235 0.0000
# 3 28.1979 32.5689 67.3961 0.0000 -4.8193 0.0000
# 4 0.0000 0.0000 0.0000 17.7197 0.0000 3.0028
# 5 -17.2997 6.3235 -4.8193 0.0000 25.7409 0.0000
# 6 0.0000 0.0000 0.0000 3.0028 0.0000 51.1754
#
#
#
# Elastic Compliance Matrix: (Units=1/GPa)
#
#
# Indices 1 2 3 4 5 6 
#
# 1 0.015807 -0.004856 -0.003469 0.000000 0.011167 0.000000
# 2 -0.004856 0.014324 -0.005448 0.000000 -0.007802 0.000000
# 3 -0.003469 -0.005448 0.019107 0.000000 0.002584 0.000000
# 4 0.000000 0.000000 0.000000 0.057001 0.000000 -0.003345
# 5 0.011167 -0.007802 0.002584 0.000000 0.048754 0.000000
# 6 0.000000 0.000000 0.000000 -0.003345 0.000000 0.019737
#
#
# Mechanical properties :
#
#
# Convention : Reuss Voigt Hill
#
# Bulk Modulus (GPa) = 46.09863 49.09646 47.59755
# Shear Modulus (GPa) = 23.86564 29.76032 26.81298
#
# Velocity S-wave (km/s) = 3.10006 3.46180 3.28591
# Velocity P-wave (km/s) = 5.60152 5.97906 5.79337
#
# Compressibility (1/GPa) = 0.02169262
#
# Stress axis : x y z
#
# Youngs Moduli (GPa) = 63.26196 69.81354 52.33785
#
# Poissons Ratio (x) = 0.33898 0.18154
# Poissons Ratio (y) = 0.30717 0.28515
# Poissons Ratio (z) = 0.21943 0.38037
#
# Static dielectric constant tensor:
#      x y z
#    x 1.975860 0.000000 0.052880 
#    y 0.000000 1.991440 0.000000 
#    z 0.052880 0.000000 1.972820 
# 
# From -- ./inp_files/64626.got.cif
#   From: 2010.05.17/outbox.cif.g08.bks.cpg/sg14_33_cif.got.tgz:64626.got - 2010.06.03 17:49:19.
