data_PCOD9239769
_publ_section_title
;
Structure prediction by ZEFSAII (Michael W. Deem and Ramdas Pophale) SiO2 
 PCOD9239769
Probable space group: P 21/C
;
_chemical_formula_sum "Si O2"
_cell_formula_units_Z 28
_cell_length_a 13.882613
_cell_length_b 7.729367
_cell_length_c 20.892316
_cell_angle_alpha 90.000000
_cell_angle_beta 31.195670
_cell_angle_gamma 90.000000
_cell_volume 1161.181044
_symmetry_space_group_name_H-M "P 21/C"
_symmetry_group_IT_number 14
_symmetry_cell_setting 'monoclinic'
loop_
_space_group_symop_operation_xyz
x,y,z
-x,1/2+y,1/2-z
-x,-y,-z
x,1/2-y,1/2+z
loop_
_atom_site_type_symbol
_atom_site_label
_atom_site_fract_x
_atom_site_fract_y
_atom_site_fract_z
Si Si1 0.795453 0.582827 0.111820
Si Si2 0.871631 0.871772 0.148865
Si Si3 0.586536 0.827821 0.417932
Si Si4 0.791716 0.363645 0.996468
Si Si5 0.095770 0.087586 0.678305
Si Si6 0.092056 0.112917 0.101026
Si Si7 0.462164 0.558570 0.393101
O O1 0.811144 0.787525 0.116623
O O2 0.734467 0.516950 0.076910
O O3 0.654330 0.518988 0.247611
O O4 0.000000 0.500000 0.000000
O O5 0.687939 0.891152 0.295614
O O6 0.987980 0.043099 0.097297
O O7 0.009874 0.722500 0.098501
O O8 0.754182 0.790812 0.371759
O O9 0.490963 0.651131 0.446497
O O10 0.500000 0.000000 0.500000
O O11 0.643565 0.210819 0.085662
O O12 0.807599 0.431726 0.915048
O O13 0.012469 0.203857 0.669253
O O14 0.968079 0.016912 0.807030
O O15 0.314229 0.096410 0.972404
#
# Coordination Sequence:
#
# PCOD9239769 Si02
#       7
#     4   4   4   4   4   4   4
#     4   9  19  37  62  83 118 158 199 248 305 356
#     4   8  18  35  57  81 112 156 191 241 301 353
#     4  10  18  31  56  80 118 149 191 241 303 360
#     4  10  19  36  58  84 116 155 204 243 294 361
#     4  11  21  35  55  85 116 158 191 246 308 360
#     4  10  21  35  58  83 119 151 201 245 299 371
#     4  10  20  36  58  87 116 159 204 249 301 359
#
# _framework density 24.113379999999999
#
# number of rings (size 3 to 8) (size 9 to 14) (size 15 to 20)
#    0.000    2.286    1.429    2.571    2.000    1.714 
#    0.000    0.714    0.000    8.571    0.000    0.000 
#    0.000    0.000    0.000    0.000    0.000    0.000 
#
# Total GULP energy -156018.009470 kJ/mol
# GULP energy per Si atom -5572.071767 kJ/mol
# Density = 2.405850 g / cm^3
# Si number density = 24.113380 Si / 1000 Ang^3
#
#
#
# Elastic Constant Matrix: (Units=GPa)
#
#
# Indices 1 2 3 4 5 6 
#
# 1 18.0517 -4.4392 6.8074 0.0000 5.6962 0.0000
# 2 -4.4392 39.6178 33.6224 0.0000 19.4743 0.0000
# 3 6.8074 33.6224 122.9392 0.0000 8.7765 0.0000
# 4 0.0000 0.0000 0.0000 38.2484 0.0000 21.8967
# 5 5.6962 19.4743 8.7765 0.0000 34.3115 0.0000
# 6 0.0000 0.0000 0.0000 21.8967 0.0000 15.9800
#
#
#
# Elastic Compliance Matrix: (Units=1/GPa)
#
#
# Indices 1 2 3 4 5 6 
#
# 1 0.075782 0.031129 -0.010747 0.000000 -0.027500 0.000000
# 2 0.031129 0.058726 -0.015316 0.000000 -0.034582 0.000000
# 3 -0.010747 -0.015316 0.012396 0.000000 0.007306 0.000000
# 4 0.000000 0.000000 0.000000 0.121294 0.000000 -0.166203
# 5 -0.027500 -0.034582 0.007306 0.000000 0.051469 0.000000
# 6 0.000000 0.000000 0.000000 -0.166203 0.000000 0.290318
#
#
# Mechanical properties :
#
#
# Convention : Reuss Voigt Hill
#
# Bulk Modulus (GPa) = 6.36788 28.06556 17.21672
# Shear Modulus (GPa) = 7.66639 27.34918 17.50779
#
# Velocity S-wave (km/s) = 1.78500 3.37143 2.69748
# Velocity P-wave (km/s) = 2.62580 5.17877 4.10576
#
# Compressibility (1/GPa) = 0.15703814
#
# Stress axis : x y z
#
# Youngs Moduli (GPa) = 13.19576 17.02827 80.66945
#
# Poissons Ratio (x) = -0.53008 0.86692
# Poissons Ratio (y) = -0.41078 1.23552
# Poissons Ratio (z) = 0.14181 0.26080
#
# Static dielectric constant tensor:
#      x y z
#    x 2.002620 0.000000 -0.044150 
#    y 0.000000 2.023010 0.000000 
#    z -0.044150 0.000000 1.945120 
# 
# From -- ./inp_files/43380.got.cif
#   From: 2010.05.17/outbox.cif.g08.bks.cpg/sg14_22_cif.got.tgz:43380.got - 2010.06.03 17:49:19.
