data_PCOD9239720
_publ_section_title
;
Structure prediction by ZEFSAII (Michael W. Deem and Ramdas Pophale) SiO2 
 PCOD9239720
Probable space group: P 21/C
;
_chemical_formula_sum "Si O2"
_cell_formula_units_Z 28
_cell_length_a 13.313046
_cell_length_b 13.724254
_cell_length_c 9.894027
_cell_angle_alpha 90.000000
_cell_angle_beta 34.675489
_cell_angle_gamma 90.000000
_cell_volume 1028.481291
_symmetry_space_group_name_H-M "P 21/C"
_symmetry_group_IT_number 14
_symmetry_cell_setting 'monoclinic'
loop_
_space_group_symop_operation_xyz
x,y,z
-x,1/2+y,1/2-z
-x,-y,-z
x,1/2-y,1/2+z
loop_
_atom_site_type_symbol
_atom_site_label
_atom_site_fract_x
_atom_site_fract_y
_atom_site_fract_z
Si Si1 0.020390 0.718992 0.398991
Si Si2 0.294736 0.655637 0.704232
Si Si3 0.678304 0.644515 0.913764
Si Si4 0.339333 0.630019 0.140471
Si Si5 0.608162 0.633591 0.518179
Si Si6 0.793595 0.473052 0.450745
Si Si7 0.155682 0.402261 0.007564
O O1 0.100273 0.795271 0.425186
O O2 0.185917 0.645738 0.194847
O O3 0.856493 0.659192 0.633199
O O4 0.948889 0.797170 0.369555
O O5 0.400246 0.755896 0.564871
O O6 0.406933 0.608136 0.699135
O O7 0.293560 0.593159 0.570589
O O8 0.625196 0.751880 0.026246
O O9 0.528255 0.595664 0.990542
O O10 0.724122 0.583746 0.995495
O O11 0.220816 0.584074 0.392673
O O12 0.687542 0.572620 0.552655
O O13 0.728559 0.605795 0.255179
O O14 0.998643 0.480675 0.180717
#
# Coordination Sequence:
#
# PCOD9239720 Si02
#       7
#     4   4   4   4   4   4   4
#     4   8  17  31  48  70  96 128 176 206 236 306
#     4   8  17  31  46  71 102 132 165 204 254 313
#     4  10  18  33  50  74 102 138 178 203 253 315
#     4   9  18  31  50  70 100 139 170 206 251 312
#     4  10  20  30  50  82 106 130 170 222 260 299
#     4  11  18  31  51  79 109 130 168 223 263 291
#     4  10  18  31  50  74 105 139 170 209 255 310
#
# _framework density 27.224609000000001
#
# number of rings (size 3 to 8) (size 9 to 14) (size 15 to 20)
#    0.857    1.714    1.429    1.714    0.000    0.000 
#    0.000    0.000    0.000    0.857    0.000   21.000 
#    0.000    0.000    0.000    0.000    0.000    0.000 
#
# Total GULP energy -156028.600052 kJ/mol
# GULP energy per Si atom -5572.450002 kJ/mol
# Density = 2.716264 g / cm^3
# Si number density = 27.224609 Si / 1000 Ang^3
#
#
#
# Elastic Constant Matrix: (Units=GPa)
#
#
# Indices 1 2 3 4 5 6 
#
# 1 1908.1920 -216.5454 65.5842 0.0000 -3.7569 0.0000
# 2 -216.5454 160.4171 3.2957 0.0000 -5.3173 0.0000
# 3 65.5842 3.2957 96.3099 0.0000 -18.4514 0.0000
# 4 0.0000 0.0000 0.0000 6.9245 0.0000 0.3492
# 5 -3.7569 -5.3173 -18.4514 0.0000 48.9635 0.0000
# 6 0.0000 0.0000 0.0000 0.3492 0.0000 27.0346
#
#
#
# Elastic Compliance Matrix: (Units=1/GPa)
#
#
# Indices 1 2 3 4 5 6 
#
# 1 0.000639 0.000871 -0.000472 0.000000 -0.000034 0.000000
# 2 0.000871 0.007445 -0.000733 0.000000 0.000599 0.000000
# 3 -0.000472 -0.000733 0.011540 0.000000 0.004233 0.000000
# 4 0.000000 0.000000 0.000000 0.144509 0.000000 -0.001867
# 5 -0.000034 0.000599 0.004233 0.000000 0.022081 0.000000
# 6 0.000000 0.000000 0.000000 -0.001867 0.000000 0.037014
#
#
# Mechanical properties :
#
#
# Convention : Reuss Voigt Hill
#
# Bulk Modulus (GPa) = 52.75105 207.73201 130.24153
# Shear Modulus (GPa) = 21.71893 170.75681 96.23787
#
# Velocity S-wave (km/s) = 2.82754 7.92828 5.95200
# Velocity P-wave (km/s) = 5.48437 12.66013 9.75595
#
# Compressibility (1/GPa) = 0.01895697
#
# Stress axis : x y z
#
# Youngs Moduli (GPa) = 1564.78975 134.32326 86.65274
#
# Poissons Ratio (x) = -0.11703 0.04086
# Poissons Ratio (y) = -1.36328 0.06354
# Poissons Ratio (z) = 0.73783 0.09850
#
# Static dielectric constant tensor:
#      x y z
#    x 2.102400 0.000000 -0.066270 
#    y 0.000000 2.163140 0.000000 
#    z -0.066270 0.000000 2.165880 
# 
# From -- ./inp_files/49089.got.cif
#   From: 2010.05.17/outbox.cif.g08.bks.cpg/sg14_25_cif.got.tgz:49089.got - 2010.06.03 17:49:19.
