data_PCOD9239496
_publ_section_title
;
Structure prediction by ZEFSAII (Michael W. Deem and Ramdas Pophale) SiO2 
 PCOD9239496
Probable space group: P 21/C
;
_chemical_formula_sum "Si O2"
_cell_formula_units_Z 32
_cell_length_a 8.982996
_cell_length_b 14.125519
_cell_length_c 9.787774
_cell_angle_alpha 90.000000
_cell_angle_beta 94.816967
_cell_angle_gamma 90.000000
_cell_volume 1237.578982
_symmetry_space_group_name_H-M "P 21/C"
_symmetry_group_IT_number 14
_symmetry_cell_setting 'monoclinic'
loop_
_space_group_symop_operation_xyz
x,y,z
-x,1/2+y,1/2-z
-x,-y,-z
x,1/2-y,1/2+z
loop_
_atom_site_type_symbol
_atom_site_label
_atom_site_fract_x
_atom_site_fract_y
_atom_site_fract_z
Si Si1 0.820015 0.195379 0.097513
Si Si2 0.666732 0.595687 0.470449
Si Si3 0.635036 0.046470 0.220496
Si Si4 0.924695 0.843565 0.315274
Si Si5 0.662721 0.768174 0.641685
Si Si6 0.839165 0.439018 0.343698
Si Si7 0.315573 0.432113 0.026653
Si Si8 0.578104 0.320878 0.189190
O O1 0.773243 0.116641 0.204286
O O2 0.671608 0.258599 0.091566
O O3 0.951330 0.267800 0.133836
O O4 0.848893 0.137675 0.964511
O O5 0.517138 0.581384 0.367599
O O6 0.657510 0.545991 0.621637
O O7 0.679229 0.706102 0.503461
O O8 0.801175 0.540403 0.406161
O O9 0.643513 0.027595 0.384822
O O10 0.798844 0.778711 0.234990
O O11 0.844864 0.901477 0.428424
O O12 0.012700 0.921686 0.231651
O O13 0.683085 0.881073 0.621282
O O14 0.504812 0.739679 0.699088
O O15 0.692153 0.400930 0.252897
O O16 0.447999 0.372711 0.103268
#
# Coordination Sequence:
#
# PCOD9239496 Si02
#       8
#     4   4   4   4   4   4   4   4
#     4  10  21  35  58  78 113 148 185 228 285 331
#     4  10  17  34  59  87 112 133 185 249 290 309
#     4  10  18  34  58  85 109 142 183 239 285 321
#     4  10  22  37  50  82 117 149 188 220 277 348
#     4  11  21  35  58  81 114 151 185 231 276 336
#     4  10  19  34  58  86 111 140 180 241 285 327
#     4  11  20  36  55  83 116 148 185 227 287 330
#     4  10  18  34  56  84 110 143 186 229 280 340
#
# _framework density 25.856936000000001
#
# number of rings (size 3 to 8) (size 9 to 14) (size 15 to 20)
#    0.000    1.750    3.750    3.750    0.000    0.500 
#    2.250    1.250    0.000    0.000    0.000    0.000 
#    0.000    0.000    0.000    0.000    0.000    0.000 
#
# Total GULP energy -178727.806555 kJ/mol
# GULP energy per Si atom -5585.243955 kJ/mol
# Density = 2.579808 g / cm^3
# Si number density = 25.856936 Si / 1000 Ang^3
#
#
#
# Elastic Constant Matrix: (Units=GPa)
#
#
# Indices 1 2 3 4 5 6 
#
# 1 132.2219 21.0980 26.4991 0.0000 -17.6923 0.0000
# 2 21.0980 60.9640 17.8360 0.0000 -11.2598 0.0000
# 3 26.4991 17.8360 53.6508 0.0000 -17.3015 0.0000
# 4 0.0000 0.0000 0.0000 39.4314 0.0000 3.5807
# 5 -17.6923 -11.2598 -17.3015 0.0000 33.0809 0.0000
# 6 0.0000 0.0000 0.0000 3.5807 0.0000 43.9389
#
#
#
# Elastic Compliance Matrix: (Units=1/GPa)
#
#
# Indices 1 2 3 4 5 6 
#
# 1 0.008767 -0.001700 -0.002935 0.000000 0.002575 0.000000
# 2 -0.001700 0.018872 -0.004398 0.000000 0.003214 0.000000
# 3 -0.002935 -0.004398 0.024733 0.000000 0.009869 0.000000
# 4 0.000000 0.000000 0.000000 0.025550 0.000000 -0.002082
# 5 0.002575 0.003214 0.009869 0.000000 0.037862 0.000000
# 6 0.000000 0.000000 0.000000 -0.002082 0.000000 0.022929
#
#
# Mechanical properties :
#
#
# Convention : Reuss Voigt Hill
#
# Bulk Modulus (GPa) = 29.14798 41.96700 35.55749
# Shear Modulus (GPa) = 29.72438 35.38380 32.55409
#
# Velocity S-wave (km/s) = 3.39421 3.70326 3.55210
# Velocity P-wave (km/s) = 5.16315 5.87803 5.53215
#
# Compressibility (1/GPa) = 0.03430769
#
# Stress axis : x y z
#
# Youngs Moduli (GPa) = 114.06395 52.98947 40.43154
#
# Poissons Ratio (x) = 0.09007 0.11865
# Poissons Ratio (y) = 0.19389 0.17781
# Poissons Ratio (z) = 0.33473 0.23303
#
# Static dielectric constant tensor:
#      x y z
#    x 1.989630 0.000000 0.008100 
#    y 0.000000 2.104050 0.000000 
#    z 0.008100 0.000000 2.161220 
# 
# From -- ./inp_files/25539.got.cif
#   From: 2010.05.17/outbox.cif.g08.bks.cpg/sg14_13_cif.got.tgz:25539.got - 2010.06.03 17:49:19.
