data_PCOD9239947
_publ_section_title
;
Structure prediction by ZEFSAII (Michael W. Deem and Ramdas Pophale) SiO2 
 PCOD9239947
Probable space group: P 21/C
;
_chemical_formula_sum "Si O2"
_cell_formula_units_Z 26
_cell_length_a 14.540915
_cell_length_b 9.449303
_cell_length_c 18.276021
_cell_angle_alpha 90.000000
_cell_angle_beta 21.780810
_cell_angle_gamma 90.000000
_cell_volume 931.780460
_symmetry_space_group_name_H-M "P 21/C"
_symmetry_group_IT_number 14
_symmetry_cell_setting 'monoclinic'
loop_
_space_group_symop_operation_xyz
x,y,z
-x,1/2+y,1/2-z
-x,-y,-z
x,1/2-y,1/2+z
loop_
_atom_site_type_symbol
_atom_site_label
_atom_site_fract_x
_atom_site_fract_y
_atom_site_fract_z
Si Si1 0.500000 0.500000 0.500000
Si Si2 0.433501 0.218951 0.167091
Si Si3 0.065539 0.577170 0.634338
Si Si4 0.175047 0.442496 0.982149
Si Si5 0.317313 0.522456 0.301311
Si Si6 0.140376 0.221470 0.118246
Si Si7 0.701312 0.169926 0.711950
O O1 0.545321 0.651738 0.427577
O O2 0.335229 0.573970 0.689887
O O3 0.226494 0.152187 0.373143
O O4 0.370073 0.383650 0.215887
O O5 0.688293 0.162662 0.019026
O O6 0.115223 0.523353 0.516104
O O7 0.014669 0.431645 0.716887
O O8 0.858788 0.691691 0.807020
O O9 0.424294 0.459893 0.845728
O O10 0.141149 0.596869 0.970031
O O11 0.028801 0.336130 0.144286
O O12 0.249853 0.666434 0.309398
O O13 0.416525 0.175031 0.891406
#
# Coordination Sequence:
#
# PCOD9239947 Si02
#       7
#     2   4   4   4   4   4   4
#     4  10  20  38  58  78 106 152 208 234 260 328
#     4  10  19  36  58  79 111 151 194 232 276 336
#     4  11  22  33  56  92 120 144 179 241 306 337
#     4   9  16  34  55  80 111 145 183 229 284 332
#     4  10  18  33  56  83 110 143 192 237 284 335
#     4  11  21  33  55  90 121 145 177 239 298 342
#     4  10  20  35  59  82 112 150 189 236 276 339
#
# _framework density 27.903568
#
# number of rings (size 3 to 8) (size 9 to 14) (size 15 to 20)
#    0.000    1.846    6.154    1.846    6.462    0.615 
#    0.000    0.000    0.000    9.231    0.000    0.000 
#    0.000    0.000    0.000    0.000    0.000    0.000 
#
# Total GULP energy -144792.304302 kJ/mol
# GULP energy per Si atom -5568.934781 kJ/mol
# Density = 2.784006 g / cm^3
# Si number density = 27.903568 Si / 1000 Ang^3
#
#
#
# Elastic Constant Matrix: (Units=GPa)
#
#
# Indices 1 2 3 4 5 6 
#
# 1 89.1253 59.9789 26.6941 0.0000 2.6951 0.0000
# 2 59.9789 247.4708 49.2448 0.0000 8.4327 0.0000
# 3 26.6941 49.2448 84.6281 0.0000 -2.3809 0.0000
# 4 0.0000 0.0000 0.0000 63.9769 0.0000 22.7970
# 5 2.6951 8.4327 -2.3809 0.0000 12.2128 0.0000
# 6 0.0000 0.0000 0.0000 22.7970 0.0000 28.6037
#
#
#
# Elastic Compliance Matrix: (Units=1/GPa)
#
#
# Indices 1 2 3 4 5 6 
#
# 1 0.013987 -0.002763 -0.002853 0.000000 -0.001735 0.000000
# 2 -0.002763 0.005288 -0.002304 0.000000 -0.003491 0.000000
# 3 -0.002853 -0.002304 0.014197 0.000000 0.004988 0.000000
# 4 0.000000 0.000000 0.000000 0.021830 0.000000 -0.017399
# 5 -0.001735 -0.003491 0.004988 0.000000 0.085646 0.000000
# 6 0.000000 0.000000 0.000000 -0.017399 0.000000 0.048827
#
#
# Mechanical properties :
#
#
# Convention : Reuss Voigt Hill
#
# Bulk Modulus (GPa) = 56.71327 77.00662 66.85994
# Shear Modulus (GPa) = 23.64156 39.97911 31.81034
#
# Velocity S-wave (km/s) = 2.91393 3.78929 3.38007
# Velocity P-wave (km/s) = 5.62940 6.84122 6.26468
#
# Compressibility (1/GPa) = 0.01763256
#
# Stress axis : x y z
#
# Youngs Moduli (GPa) = 71.49732 189.11028 70.43709
#
# Poissons Ratio (x) = 0.52253 0.20094
# Poissons Ratio (y) = 0.19755 0.16226
# Poissons Ratio (z) = 0.20396 0.43565
#
# Static dielectric constant tensor:
#      x y z
#    x 2.271220 0.000000 -0.120730 
#    y 0.000000 2.162110 0.000000 
#    z -0.120730 0.000000 2.227110 
# 
# From -- ./inp_files/60326.got.cif
#   From: 2010.05.17/outbox.cif.g08.bks.cpg/sg14_31_cif.got.tgz:60326.got - 2010.06.03 17:49:19.
