data_PCOD9239003
_publ_section_title
;
Structure prediction by ZEFSAII (Michael W. Deem and Ramdas Pophale) SiO2 
 PCOD9239003
Probable space group: P 2/C
;
_chemical_formula_sum "Si O2"
_cell_formula_units_Z 18
_cell_length_a 21.000000
_cell_length_b 9.000000
_cell_length_c 15.000000
_cell_angle_alpha 90.000000
_cell_angle_beta 20.000000
_cell_angle_gamma 90.000000
_cell_volume 969.627106
_symmetry_space_group_name_H-M "P 2/C"
_symmetry_group_IT_number 13
_symmetry_cell_setting 'monoclinic'
loop_
_space_group_symop_operation_xyz
x,y,z
-x,y,1/2-z
-x,-y,-z
x,-y,1/2+z
loop_
_atom_site_type_symbol
_atom_site_label
_atom_site_fract_x
_atom_site_fract_y
_atom_site_fract_z
Si Si1 0.621024 0.920705 0.711525
Si Si2 0.806728 0.784623 0.954602
Si Si3 0.196735 0.577194 0.716112
Si Si4 0.500000 0.344439 0.250000
Si Si5 0.408332 0.819195 0.548136
O O1 0.602397 0.770690 0.681316
O O2 0.641936 0.873302 0.787129
O O3 0.777591 0.038414 0.474126
O O4 0.436071 0.028497 0.953310
O O5 0.620611 0.754606 0.259351
O O6 0.807264 0.678241 0.868301
O O7 0.000000 0.762360 0.750000
O O8 0.351567 0.449797 0.495104
O O9 0.269905 0.695269 0.693281
O O10 0.000000 0.500000 0.000000
#
# Coordination Sequence:
#
# PCOD9239003 Si02
#       5
#     4   4   4   2   4
#     4   9  21  38  72  86 118 169 208 268 317 351
#     4  10  21  42  65  90 124 165 210 266 310 367
#     4  12  26  39  64  93 132 174 202 251 326 386
#     4  12  22  42  60  96 130 162 208 264 312 382
#     4   9  20  45  63  89 127 165 210 262 314 362
#
# _framework density 18.563836999999999
#
# number of rings (size 3 to 8) (size 9 to 14) (size 15 to 20)
#    1.333    0.444    2.222    1.333    3.111    4.444 
#    0.000    3.333    0.000    0.000    0.000    0.000 
#    0.000    0.000    0.000    0.000    0.000    0.000 
#
# Total GULP energy -100219.743917 kJ/mol
# GULP energy per Si atom -5567.763551 kJ/mol
# Density = 1.852159 g / cm^3
# Si number density = 18.563837 Si / 1000 Ang^3
#
#
#
# Elastic Constant Matrix: (Units=GPa)
#
#
# Indices 1 2 3 4 5 6 
#
# 1 53.2967 39.2035 5.7129 0.0000 -7.4524 0.0000
# 2 39.2035 134.3069 30.8006 0.0000 -4.3303 0.0000
# 3 5.7129 30.8006 71.6739 0.0000 -8.4295 0.0000
# 4 0.0000 0.0000 0.0000 33.5743 0.0000 2.0715
# 5 -7.4524 -4.3303 -8.4295 0.0000 25.2741 0.0000
# 6 0.0000 0.0000 0.0000 2.0715 0.0000 31.7280
#
#
#
# Elastic Compliance Matrix: (Units=1/GPa)
#
#
# Indices 1 2 3 4 5 6 
#
# 1 0.025055 -0.007565 0.002051 0.000000 0.006776 0.000000
# 2 -0.007565 0.010545 -0.004141 0.000000 -0.001805 0.000000
# 3 0.002051 -0.004141 0.016191 0.000000 0.005295 0.000000
# 4 0.000000 0.000000 0.000000 0.029905 0.000000 -0.001952
# 5 0.006776 -0.001805 0.005295 0.000000 0.043021 0.000000
# 6 0.000000 0.000000 0.000000 -0.001952 0.000000 0.031645
#
#
# Mechanical properties :
#
#
# Convention : Reuss Voigt Hill
#
# Bulk Modulus (GPa) = 30.78755 45.63462 38.21108
# Shear Modulus (GPa) = 26.80951 30.35264 28.58108
#
# Velocity S-wave (km/s) = 3.80436 4.04795 3.92804
# Velocity P-wave (km/s) = 5.99318 6.81790 6.41880
#
# Compressibility (1/GPa) = 0.03248066
#
# Stress axis : x y z
#
# Youngs Moduli (GPa) = 39.91166 94.82823 61.76307
#
# Poissons Ratio (x) = 0.71741 -0.12667
# Poissons Ratio (y) = 0.30195 0.25576
# Poissons Ratio (z) = -0.08185 0.39268
#
# Static dielectric constant tensor:
#      x y z
#    x 1.674680 0.000000 -0.003040 
#    y 0.000000 1.633420 0.000000 
#    z -0.003040 0.000000 1.635730 
# 
# From -- ./inp_files/56978.got.cif
#   From: 2010.05.17/outbox.ucp.g08.bks.cvg/sg13_29_cif.got.tgz:56978.got - 2010.06.11 12:23:55.
