data_PCOD9239491
_publ_section_title
;
Structure prediction by ZEFSAII (Michael W. Deem and Ramdas Pophale) SiO2 
 PCOD9239491
Probable space group: P 21/C
;
_chemical_formula_sum "Si O2"
_cell_formula_units_Z 32
_cell_length_a 9.599026
_cell_length_b 7.270788
_cell_length_c 23.570219
_cell_angle_alpha 90.000000
_cell_angle_beta 123.160309
_cell_angle_gamma 90.000000
_cell_volume 1377.121127
_symmetry_space_group_name_H-M "P 21/C"
_symmetry_group_IT_number 14
_symmetry_cell_setting 'monoclinic'
loop_
_space_group_symop_operation_xyz
x,y,z
-x,1/2+y,1/2-z
-x,-y,-z
x,1/2-y,1/2+z
loop_
_atom_site_type_symbol
_atom_site_label
_atom_site_fract_x
_atom_site_fract_y
_atom_site_fract_z
Si Si1 0.293434 0.797333 0.758078
Si Si2 0.609491 0.368507 0.894310
Si Si3 0.594639 0.887974 0.753066
Si Si4 0.259659 0.325466 0.493216
Si Si5 0.397832 0.699905 0.900531
Si Si6 0.208242 0.722619 0.459262
Si Si7 0.848673 0.872436 0.901774
Si Si8 0.079273 0.807651 0.608432
O O1 0.439102 0.910944 0.760397
O O2 0.337546 0.584228 0.752866
O O3 0.312819 0.810619 0.829843
O O4 0.127413 0.837464 0.685087
O O5 0.485140 0.287469 0.819155
O O6 0.503535 0.536080 0.895896
O O7 0.782179 0.412076 0.899091
O O8 0.667694 0.254515 0.961056
O O9 0.735463 0.804613 0.824581
O O10 0.453753 0.289710 0.530063
O O11 0.220592 0.505897 0.447808
O O12 0.233462 0.359322 0.554901
O O13 0.116910 0.175364 0.447456
O O14 0.257732 0.660320 0.915729
O O15 0.020155 0.738842 0.438886
O O16 0.882660 0.091291 0.899368
#
# Coordination Sequence:
#
# PCOD9239491 Si02
#       8
#     4   4   4   4   4   4   4   4
#     4   9  18  33  51  79 106 136 174 229 279 323
#     4  10  19  35  54  81 110 147 179 223 288 336
#     4   9  18  31  56  79 102 136 183 230 270 319
#     4  11  19  35  56  83 103 138 192 233 264 315
#     4  11  23  33  52  82 117 141 175 225 290 339
#     4  11  21  37  54  76 111 153 180 220 275 338
#     4  10  17  34  59  80 101 139 198 225 261 322
#     4   9  17  33  58  80 101 140 189 237 267 315
#
# _framework density 23.236881
#
# number of rings (size 3 to 8) (size 9 to 14) (size 15 to 20)
#    0.000    2.000    3.750    1.500    0.000    0.500 
#    0.000    1.250    0.000    7.500    0.000    0.000 
#    0.000    0.000    0.000    0.000    0.000    0.000 
#
# Total GULP energy -178537.736425 kJ/mol
# GULP energy per Si atom -5579.304263 kJ/mol
# Density = 2.318399 g / cm^3
# Si number density = 23.236881 Si / 1000 Ang^3
#
#
#
# Elastic Constant Matrix: (Units=GPa)
#
#
# Indices 1 2 3 4 5 6 
#
# 1 72.6183 16.4441 31.6860 0.0000 -14.1915 0.0000
# 2 16.4441 35.2441 11.7676 0.0000 -3.0179 0.0000
# 3 31.6860 11.7676 142.7184 0.0000 -3.5437 0.0000
# 4 0.0000 0.0000 0.0000 20.9159 0.0000 2.6995
# 5 -14.1915 -3.0179 -3.5437 0.0000 21.6051 0.0000
# 6 0.0000 0.0000 0.0000 2.6995 0.0000 15.8023
#
#
#
# Elastic Compliance Matrix: (Units=1/GPa)
#
#
# Indices 1 2 3 4 5 6 
#
# 1 0.018906 -0.006761 -0.003369 0.000000 0.010922 0.000000
# 2 -0.006761 0.031892 -0.001133 0.000000 -0.000172 0.000000
# 3 -0.003369 -0.001133 0.007821 0.000000 -0.001088 0.000000
# 4 0.000000 0.000000 0.000000 0.048888 0.000000 -0.008352
# 5 0.010922 -0.000172 -0.001088 0.000000 0.053257 0.000000
# 6 0.000000 0.000000 0.000000 -0.008352 0.000000 0.064709
#
#
# Mechanical properties :
#
#
# Convention : Reuss Voigt Hill
#
# Bulk Modulus (GPa) = 27.70591 41.15289 34.42940
# Shear Modulus (GPa) = 19.22866 24.37689 21.80277
#
# Velocity S-wave (km/s) = 2.87976 3.24243 3.06646
# Velocity P-wave (km/s) = 4.79651 5.63617 5.23321
#
# Compressibility (1/GPa) = 0.03609338
#
# Stress axis : x y z
#
# Youngs Moduli (GPa) = 52.89351 31.35621 127.85899
#
# Poissons Ratio (x) = 0.21200 0.43073
# Poissons Ratio (y) = 0.35762 0.14483
# Poissons Ratio (z) = 0.17819 0.03552
#
# Static dielectric constant tensor:
#      x y z
#    x 1.811880 0.000000 0.031740 
#    y 0.000000 2.005620 0.000000 
#    z 0.031740 0.000000 1.911400 
# 
# From -- ./inp_files/72091.got.cif
#   From: 2010.05.17/outbox.cif.g08.bks.cpg/sg14_37_cif.got.tgz:72091.got - 2010.06.03 17:49:19.
