data_PCOD9239271
_publ_section_title
;
Structure prediction by ZEFSAII (Michael W. Deem and Ramdas Pophale) SiO2 
 PCOD9239271
Probable space group: P 21/C
;
_chemical_formula_sum "Si O2"
_cell_formula_units_Z 28
_cell_length_a 9.031624
_cell_length_b 14.176248
_cell_length_c 11.511603
_cell_angle_alpha 90.000000
_cell_angle_beta 106.343561
_cell_angle_gamma 90.000000
_cell_volume 1414.325610
_symmetry_space_group_name_H-M "P 21/C"
_symmetry_group_IT_number 14
_symmetry_cell_setting 'monoclinic'
loop_
_space_group_symop_operation_xyz
x,y,z
-x,1/2+y,1/2-z
-x,-y,-z
x,1/2-y,1/2+z
loop_
_atom_site_type_symbol
_atom_site_label
_atom_site_fract_x
_atom_site_fract_y
_atom_site_fract_z
Si Si1 0.097162 0.077427 0.095952
Si Si2 0.783018 0.105238 0.100360
Si Si3 0.841191 0.198124 0.681480
Si Si4 0.057784 0.396776 0.046858
Si Si5 0.331958 0.927651 0.181122
Si Si6 0.314806 0.410973 0.302335
Si Si7 0.862733 0.730830 0.589161
O O1 0.968337 0.099659 0.162253
O O2 0.257250 0.031978 0.168250
O O3 0.124877 0.167651 0.023973
O O4 0.000000 0.000000 0.000000
O O5 0.745506 0.205032 0.148935
O O6 0.713219 0.007051 0.129591
O O7 0.738962 0.114318 0.954786
O O8 0.733319 0.122970 0.720330
O O9 0.917300 0.161332 0.577944
O O10 0.986491 0.211390 0.799885
O O11 0.190294 0.408594 0.172503
O O12 0.128566 0.337032 0.955591
O O13 0.000000 0.500000 0.000000
O O14 0.513492 0.918032 0.207990
O O15 0.278385 0.317428 0.371331
#
# Coordination Sequence:
#
# PCOD9239271 Si02
#       7
#     4   4   4   4   4   4   4
#     4  10  16  35  61  81 115 142 206 256 281 342
#     4  11  20  37  63  87 119 160 206 259 296 361
#     4  11  21  38  64  90 118 164 208 248 306 363
#     4  11  24  43  62  89 125 159 208 258 302 367
#     4  11  22  38  57  94 127 156 203 258 307 373
#     4  11  24  39  60  92 125 160 203 252 324 364
#     4  11  20  38  62  89 115 158 211 255 294 361
#
# _framework density 19.797422000000001
#
# number of rings (size 3 to 8) (size 9 to 14) (size 15 to 20)
#    0.000    1.143    7.143    2.143    0.000    1.143 
#    0.000    0.714    0.000    0.000    0.000    0.000 
#    0.000    0.000    0.000    0.000    0.000    0.000 
#
# Total GULP energy -156144.695909 kJ/mol
# GULP energy per Si atom -5576.596282 kJ/mol
# Density = 1.975236 g / cm^3
# Si number density = 19.797422 Si / 1000 Ang^3
#
#
#
# Elastic Constant Matrix: (Units=GPa)
#
#
# Indices 1 2 3 4 5 6 
#
# 1 98.9189 21.2808 19.2211 0.0000 2.1752 0.0000
# 2 21.2808 109.4882 29.9398 0.0000 -2.3152 0.0000
# 3 19.2211 29.9398 40.6633 0.0000 -4.8354 0.0000
# 4 0.0000 0.0000 0.0000 30.6560 0.0000 -7.5824
# 5 2.1752 -2.3152 -4.8354 0.0000 14.3459 0.0000
# 6 0.0000 0.0000 0.0000 -7.5824 0.0000 9.5721
#
#
#
# Elastic Compliance Matrix: (Units=1/GPa)
#
#
# Indices 1 2 3 4 5 6 
#
# 1 0.011380 -0.000876 -0.005163 0.000000 -0.003607 0.000000
# 2 -0.000876 0.011518 -0.008156 0.000000 -0.000757 0.000000
# 3 -0.005163 -0.008156 0.034352 0.000000 0.011045 0.000000
# 4 0.000000 0.000000 0.000000 0.040568 0.000000 0.032135
# 5 -0.003607 -0.000757 0.011045 0.000000 0.073854 0.000000
# 6 0.000000 0.000000 0.000000 0.032135 0.000000 0.129925
#
#
# Mechanical properties :
#
#
# Convention : Reuss Voigt Hill
#
# Bulk Modulus (GPa) = 34.65209 43.32822 38.99015
# Shear Modulus (GPa) = 14.72283 22.82339 18.77311
#
# Velocity S-wave (km/s) = 2.73000 3.39904 3.08272
# Velocity P-wave (km/s) = 5.24200 6.11048 5.69282
#
# Compressibility (1/GPa) = 0.02885829
#
# Stress axis : x y z
#
# Youngs Moduli (GPa) = 87.87041 86.81967 29.11080
#
# Poissons Ratio (x) = 0.07609 0.15030
# Poissons Ratio (y) = 0.07701 0.23744
# Poissons Ratio (z) = 0.45368 0.70814
#
# Static dielectric constant tensor:
#      x y z
#    x 1.721730 0.000000 -0.036400 
#    y 0.000000 1.316990 0.000000 
#    z -0.036400 0.000000 1.700240 
# 
# From -- ./inp_files/25304.got.cif
#   From: 2010.05.17/outbox.cif.g08.bks.cpg/sg14_13_cif.got.tgz:25304.got - 2010.06.03 17:49:19.
