data_PCOD9239175
_publ_section_title
;
Structure prediction by ZEFSAII (Michael W. Deem and Ramdas Pophale) SiO2 
 PCOD9239175
Probable space group: P 21/C
;
_chemical_formula_sum "Si O2"
_cell_formula_units_Z 24
_cell_length_a 8.967297
_cell_length_b 14.266318
_cell_length_c 8.137183
_cell_angle_alpha 90.000000
_cell_angle_beta 100.581596
_cell_angle_gamma 90.000000
_cell_volume 1023.289634
_symmetry_space_group_name_H-M "P 21/C"
_symmetry_group_IT_number 14
_symmetry_cell_setting 'monoclinic'
loop_
_space_group_symop_operation_xyz
x,y,z
-x,1/2+y,1/2-z
-x,-y,-z
x,1/2-y,1/2+z
loop_
_atom_site_type_symbol
_atom_site_label
_atom_site_fract_x
_atom_site_fract_y
_atom_site_fract_z
Si Si1 0.615539 0.954361 0.151913
Si Si2 0.125524 0.898433 0.368219
Si Si3 0.519363 0.112996 0.555945
Si Si4 0.863424 0.219751 0.958196
Si Si5 0.499065 0.739363 0.656636
Si Si6 0.058932 0.543752 0.339959
O O1 0.610588 0.842616 0.116029
O O2 0.561669 0.956251 0.332938
O O3 0.774519 0.003775 0.162774
O O4 0.500000 0.000000 0.000000
O O5 0.305516 0.913623 0.412244
O O6 0.084628 0.827001 0.506657
O O7 0.096627 0.833621 0.201218
O O8 0.321371 0.778203 0.073117
O O9 0.504933 0.212689 0.651466
O O10 0.954645 0.002973 0.679171
O O11 0.459901 0.153138 0.372026
O O12 0.925675 0.153260 0.116205
O O13 0.000000 0.500000 0.500000
#
# Coordination Sequence:
#
# PCOD9239175 Si02
#       6
#     4   4   4   4   4   4
#     4  10  16  29  50  73  92 121 164 198 230 280
#     4   9  17  31  48  72  94 128 160 198 234 291
#     4   8  16  29  49  69  92 121 162 194 237 278
#     4   9  16  31  51  69  92 126 164 192 242 283
#     4   8  15  28  48  72  88 122 157 197 233 280
#     4  10  18  31  47  74  98 127 161 199 232 286
#
# _framework density 23.453768
#
# number of rings (size 3 to 8) (size 9 to 14) (size 15 to 20)
#    1.000    2.000    1.667    1.000    0.000    0.000 
#    6.000    0.833    0.000    1.000    8.667    0.000 
#    0.000    0.000    0.000    0.000    0.000    0.000 
#
# Total GULP energy -133661.630315 kJ/mol
# GULP energy per Si atom -5569.234596 kJ/mol
# Density = 2.340039 g / cm^3
# Si number density = 23.453768 Si / 1000 Ang^3
#
#
#
# Elastic Constant Matrix: (Units=GPa)
#
#
# Indices 1 2 3 4 5 6 
#
# 1 38.5405 11.6743 -1.0628 0.0000 -5.6560 0.0000
# 2 11.6743 113.1376 22.7651 0.0000 1.1227 0.0000
# 3 -1.0628 22.7651 18.2385 0.0000 22.7878 0.0000
# 4 0.0000 0.0000 0.0000 41.6406 0.0000 11.4887
# 5 -5.6560 1.1227 22.7878 0.0000 9.8423 0.0000
# 6 0.0000 0.0000 0.0000 11.4887 0.0000 28.6074
#
#
#
# Elastic Compliance Matrix: (Units=1/GPa)
#
#
# Indices 1 2 3 4 5 6 
#
# 1 0.027409 -0.004250 0.007071 0.000000 -0.000136 0.000000
# 2 -0.004250 0.008672 0.003585 0.000000 -0.011731 0.000000
# 3 0.007071 0.003585 -0.024409 0.000000 0.060168 0.000000
# 4 0.000000 0.000000 0.000000 0.027008 0.000000 -0.010846
# 5 -0.000136 -0.011731 0.060168 0.000000 -0.036443 0.000000
# 6 0.000000 0.000000 0.000000 -0.010846 0.000000 0.039312
#
#
# Mechanical properties :
#
#
# Convention : Reuss Voigt Hill
#
# Bulk Modulus (GPa) = 40.84166 26.29666 33.56916
# Shear Modulus (GPa) = 135.50428 25.12070 80.31249
#
# Velocity S-wave (km/s) = 7.60924 3.27628 5.85809
# Velocity P-wave (km/s) = 9.72893 5.05455 7.75244
#
# Compressibility (1/GPa) = 0.02448480
#
# Stress axis : x y z
#
# Youngs Moduli (GPa) = 36.48417 115.30804 -40.96903
#
# Poissons Ratio (x) = 0.49003 0.28969
# Poissons Ratio (y) = 0.15505 0.14686
# Poissons Ratio (z) = -0.25798 -0.41335
#
# Static dielectric constant tensor:
#      x y z
#    x 1.819770 0.000000 0.019100 
#    y 0.000000 2.129870 0.000000 
#    z 0.019100 0.000000 2.016710 
# 
# From -- ./inp_files/24813.got.cif
#   From: 2010.05.17/outbox.cif.g08.bks.cpg/sg14_13_cif.got.tgz:24813.got - 2010.06.03 17:49:19.
