data_PCOD9239828
_publ_section_title
;
Structure prediction by ZEFSAII (Michael W. Deem and Ramdas Pophale) SiO2 
 PCOD9239828
Probable space group: P 21/C
;
_chemical_formula_sum "Si O2"
_cell_formula_units_Z 20
_cell_length_a 8.789246
_cell_length_b 14.048807
_cell_length_c 9.944541
_cell_angle_alpha 90.000000
_cell_angle_beta 135.173060
_cell_angle_gamma 90.000000
_cell_volume 865.655452
_symmetry_space_group_name_H-M "P 21/C"
_symmetry_group_IT_number 14
_symmetry_cell_setting 'monoclinic'
loop_
_space_group_symop_operation_xyz
x,y,z
-x,1/2+y,1/2-z
-x,-y,-z
x,1/2-y,1/2+z
loop_
_atom_site_type_symbol
_atom_site_label
_atom_site_fract_x
_atom_site_fract_y
_atom_site_fract_z
Si Si1 0.440655 0.150502 0.404613
Si Si2 0.867320 0.135212 0.773931
Si Si3 0.039187 0.238654 0.618136
Si Si4 0.445057 0.361500 0.367485
Si Si5 0.307048 0.460269 0.559574
O O1 0.539006 0.257056 0.448668
O O2 0.416145 0.095385 0.250478
O O3 0.619711 0.101757 0.609307
O O4 0.195005 0.180976 0.286075
O O5 0.930506 0.179733 0.668405
O O6 0.903480 0.210882 0.916783
O O7 0.049789 0.054304 0.907205
O O8 0.214019 0.166616 0.657285
O O9 0.385680 0.407401 0.473479
O O10 0.605826 0.433116 0.397030
#
# Coordination Sequence:
#
# PCOD9239828 Si02
#       5
#     4   4   4   4   4
#     4   9  19  31  54  75 107 140 167 218 276 307
#     4  10  18  32  54  78 102 141 176 215 264 319
#     4   8  19  32  50  77 103 133 176 218 257 315
#     4   8  17  34  53  75 109 138 170 235 258 301
#     4   9  17  35  50  80 108 131 185 223 258 313
#
# _framework density 23.103878999999999
#
# number of rings (size 3 to 8) (size 9 to 14) (size 15 to 20)
#    1.200    2.000    0.000    0.000    2.800    0.000 
#    3.600    3.000    0.000   15.600    0.000    0.000 
#    0.000    0.000    0.000    0.000    0.000    0.000 
#
# Total GULP energy -111419.788745 kJ/mol
# GULP energy per Si atom -5570.989437 kJ/mol
# Density = 2.305129 g / cm^3
# Si number density = 23.103879 Si / 1000 Ang^3
#
#
#
# Elastic Constant Matrix: (Units=GPa)
#
#
# Indices 1 2 3 4 5 6 
#
# 1 -527.1041 -48.3275 -351.6704 0.0000 -6.4288 0.0000
# 2 -48.3275 35.8303 -48.6097 0.0000 -0.7584 0.0000
# 3 -351.6704 -48.6097 -130.0464 0.0000 16.7507 0.0000
# 4 0.0000 0.0000 0.0000 18.8883 0.0000 -15.7236
# 5 -6.4288 -0.7584 16.7507 0.0000 27.1923 0.0000
# 6 0.0000 0.0000 0.0000 -15.7236 0.0000 68.8426
#
#
#
# Elastic Compliance Matrix: (Units=1/GPa)
#
#
# Indices 1 2 3 4 5 6 
#
# 1 0.004219 -0.005705 -0.008494 0.000000 0.006070 0.000000
# 2 -0.005705 0.026827 0.004930 0.000000 -0.003638 0.000000
# 3 -0.008494 0.004930 0.012225 0.000000 -0.009401 0.000000
# 4 0.000000 0.000000 0.000000 0.065372 0.000000 0.014931
# 5 0.006070 -0.003638 -0.009401 0.000000 0.043900 0.000000
# 6 0.000000 0.000000 0.000000 0.014931 0.000000 0.017936
#
#
# Mechanical properties :
#
#
# Convention : Reuss Voigt Hill
#
# Bulk Modulus (GPa) = 40.42931 -168.72618 -64.14844
# Shear Modulus (GPa) = 25.34728 11.47045 18.40887
#
# Velocity S-wave (km/s) = 3.31584 2.23058 2.82580
# Velocity P-wave (km/s) = 5.67421 8.15806 4.14471
#
# Compressibility (1/GPa) = 0.02473453
#
# Stress axis : x y z
#
# Youngs Moduli (GPa) = 237.04554 37.27617 81.79851
#
# Poissons Ratio (x) = 0.21265 0.69477
# Poissons Ratio (y) = 1.35225 -0.40329
# Poissons Ratio (z) = 2.01339 -0.18378
#
# Static dielectric constant tensor:
#      x y z
#    x 1.900480 0.000000 0.081430 
#    y 0.000000 1.877650 0.000000 
#    z 0.081430 0.000000 1.901160 
# 
# From -- ./inp_files/20982.got.cif
#   From: 2010.05.17/outbox.cif.g08.bks.cpg/sg14_11_cif.got.tgz:20982.got - 2010.06.03 17:49:19.
