data_PCOD9239693
_publ_section_title
;
Structure prediction by ZEFSAII (Michael W. Deem and Ramdas Pophale) SiO2 
 PCOD9239693
Probable space group: P 21/C
;
_chemical_formula_sum "Si O2"
_cell_formula_units_Z 32
_cell_length_a 8.277211
_cell_length_b 29.175942
_cell_length_c 5.744142
_cell_angle_alpha 90.000000
_cell_angle_beta 63.279907
_cell_angle_gamma 90.000000
_cell_volume 1239.051867
_symmetry_space_group_name_H-M "P 21/C"
_symmetry_group_IT_number 14
_symmetry_cell_setting 'monoclinic'
loop_
_space_group_symop_operation_xyz
x,y,z
-x,1/2+y,1/2-z
-x,-y,-z
x,1/2-y,1/2+z
loop_
_atom_site_type_symbol
_atom_site_label
_atom_site_fract_x
_atom_site_fract_y
_atom_site_fract_z
Si Si1 0.487979 0.144580 0.955869
Si Si2 0.764114 0.914946 0.126552
Si Si3 0.279158 0.008816 0.232237
Si Si4 0.015739 0.566979 0.844736
Si Si5 0.453489 0.567288 0.199443
Si Si6 0.817290 0.376299 0.894257
Si Si7 0.777074 0.224789 0.310686
Si Si8 0.377641 0.245214 0.106847
O O1 0.506413 0.108268 0.149466
O O2 0.468524 0.195408 0.054810
O O3 0.303407 0.131411 0.945992
O O4 0.660119 0.137359 0.680998
O O5 0.597667 0.926975 0.401640
O O6 0.944014 0.909452 0.159355
O O7 0.767990 0.957025 0.946611
O O8 0.474891 0.020837 0.218611
O O9 0.133018 0.027083 0.519089
O O10 0.210250 0.958108 0.214481
O O11 0.024065 0.602941 0.049539
O O12 0.266132 0.581046 0.199249
O O13 0.849755 0.327536 0.750324
O O14 0.823592 0.251438 0.035212
O O15 0.555669 0.222469 0.473788
O O16 0.280378 0.251639 0.418426
#
# Coordination Sequence:
#
# PCOD9239693 Si02
#       8
#     4   4   4   4   4   4   4   4
#     4  10  19  33  55  81 111 144 187 237 291 343
#     4   9  19  36  56  76 106 150 189 236 279 348
#     4   9  19  39  58  77 107 158 195 237 290 348
#     4  10  21  36  57  82 112 148 199 235 291 358
#     4   9  19  34  54  81 115 142 189 238 290 343
#     4  11  21  32  55  89 113 145 188 244 296 349
#     4  10  19  34  55  82 120 157 188 234 297 367
#     4  10  18  30  53  84 113 151 189 238 291 358
#
# _framework density 25.826198999999999
#
# number of rings (size 3 to 8) (size 9 to 14) (size 15 to 20)
#    0.000    2.250    2.500    1.875    1.750    1.500 
#    0.000    5.625    0.000    1.500    0.000    0.000 
#    0.000    0.000    0.000    0.000    0.000    0.000 
#
# Total GULP energy -178837.029087 kJ/mol
# GULP energy per Si atom -5588.657159 kJ/mol
# Density = 2.576742 g / cm^3
# Si number density = 25.826199 Si / 1000 Ang^3
#
#
#
# Elastic Constant Matrix: (Units=GPa)
#
#
# Indices 1 2 3 4 5 6 
#
# 1 96.3346 28.8797 34.9317 0.0000 30.4365 0.0000
# 2 28.8797 88.5353 27.3508 0.0000 9.3507 0.0000
# 3 34.9317 27.3508 120.1939 0.0000 17.1849 0.0000
# 4 0.0000 0.0000 0.0000 34.7359 0.0000 10.2320
# 5 30.4365 9.3507 17.1849 0.0000 34.1940 0.0000
# 6 0.0000 0.0000 0.0000 10.2320 0.0000 20.0321
#
#
#
# Elastic Compliance Matrix: (Units=1/GPa)
#
#
# Indices 1 2 3 4 5 6 
#
# 1 0.016022 -0.003262 -0.002158 0.000000 -0.012285 0.000000
# 2 -0.003262 0.012952 -0.002056 0.000000 0.000395 0.000000
# 3 -0.002158 -0.002056 0.009761 0.000000 -0.002423 0.000000
# 4 0.000000 0.000000 0.000000 0.033887 0.000000 -0.017309
# 5 -0.012285 0.000395 -0.002423 0.000000 0.041290 0.000000
# 6 0.000000 0.000000 0.000000 -0.017309 0.000000 0.058761
#
#
# Mechanical properties :
#
#
# Convention : Reuss Voigt Hill
#
# Bulk Modulus (GPa) = 42.04431 54.15425 48.09928
# Shear Modulus (GPa) = 25.56843 32.05251 28.81047
#
# Velocity S-wave (km/s) = 3.14987 3.52673 3.34361
# Velocity P-wave (km/s) = 5.43544 6.13172 5.79405
#
# Compressibility (1/GPa) = 0.02378443
#
# Stress axis : x y z
#
# Youngs Moduli (GPa) = 62.41292 77.20561 102.44653
#
# Poissons Ratio (x) = 0.25187 0.22105
# Poissons Ratio (y) = 0.20361 0.21060
# Poissons Ratio (z) = 0.13467 0.15872
#
# Static dielectric constant tensor:
#      x y z
#    x 2.099340 0.000000 -0.012070 
#    y 0.000000 1.991320 0.000000 
#    z -0.012070 0.000000 2.163070 
# 
# From -- ./inp_files/2131.got.cif
#   From: 2010.05.17/outbox.cif.g08.bks.cpg/sg14_2_cif.got.tgz:2131.got - 2010.06.03 17:49:19.
