data_PCOD9239220
_publ_section_title
;
Structure prediction by ZEFSAII (Michael W. Deem and Ramdas Pophale) SiO2 
 PCOD9239220
Probable space group: P 21/C
;
_chemical_formula_sum "Si O2"
_cell_formula_units_Z 22
_cell_length_a 7.975133
_cell_length_b 4.845278
_cell_length_c 30.585983
_cell_angle_alpha 90.000000
_cell_angle_beta 137.229103
_cell_angle_gamma 90.000000
_cell_volume 802.588029
_symmetry_space_group_name_H-M "P 21/C"
_symmetry_group_IT_number 14
_symmetry_cell_setting 'monoclinic'
loop_
_space_group_symop_operation_xyz
x,y,z
-x,1/2+y,1/2-z
-x,-y,-z
x,1/2-y,1/2+z
loop_
_atom_site_type_symbol
_atom_site_label
_atom_site_fract_x
_atom_site_fract_y
_atom_site_fract_z
Si Si1 0.790528 0.163956 0.997116
Si Si2 0.107172 0.811393 0.578966
Si Si3 0.821376 0.325415 0.810613
Si Si4 0.820956 0.189857 0.719288
Si Si5 0.833370 0.321852 0.630645
Si Si6 0.500000 0.000000 0.500000
O O1 0.015955 0.376688 0.052727
O O2 0.848891 0.866074 0.029884
O O3 0.545675 0.310526 0.965549
O O4 0.779245 0.175591 0.942318
O O5 0.250285 0.788095 0.652156
O O6 0.916971 0.634320 0.822800
O O7 0.683135 0.243669 0.738972
O O8 0.057978 0.125180 0.852001
O O9 0.065657 0.386299 0.763926
O O10 0.692214 0.268376 0.649254
O O11 0.682923 0.210750 0.561535
#
# Coordination Sequence:
#
# PCOD9239220 Si02
#       6
#     4   4   4   4   4   2
#     4  10  22  30  50  68 107 127 173 201 257 306
#     4  10  18  36  46  73  93 139 168 212 240 311
#     4  10  16  32  50  67  95 129 171 210 248 298
#     4   8  16  28  44  68  93 121 162 210 244 289
#     4  10  20  28  46  74 100 128 162 206 263 307
#     4  12  20  34  48  78 108 140 156 218 268 328
#
# _framework density 27.411324
#
# number of rings (size 3 to 8) (size 9 to 14) (size 15 to 20)
#    0.000    2.182    3.636    0.000    0.000    2.909 
#    0.000    0.000    0.000    0.000    0.000   22.909 
#    0.000    0.000    0.000    0.000    0.000    0.000 
#
# Total GULP energy -122502.995180 kJ/mol
# GULP energy per Si atom -5568.317963 kJ/mol
# Density = 2.734893 g / cm^3
# Si number density = 27.411324 Si / 1000 Ang^3
#
#
#
# Elastic Constant Matrix: (Units=GPa)
#
#
# Indices 1 2 3 4 5 6 
#
# 1 40.6771 4.7294 49.4176 -0.0092 -26.8636 0.0126
# 2 4.7294 103.4309 8.2834 0.0000 6.9614 -0.0143
# 3 49.4176 8.2834 129.4048 -0.0179 -67.8117 0.0360
# 4 -0.0092 0.0000 -0.0179 39.6837 -0.0056 -2.2675
# 5 -26.8636 6.9614 -67.8117 -0.0056 61.7880 0.0092
# 6 0.0126 -0.0143 0.0360 -2.2675 0.0092 34.8680
#
#
#
# Elastic Compliance Matrix: (Units=1/GPa)
#
#
# Indices 1 2 3 4 5 6 
#
# 1 0.046020 -0.000931 -0.016416 0.000004 0.002096 0.000000
# 2 -0.000931 0.010219 -0.002622 -0.000002 -0.004434 0.000008
# 3 -0.016416 -0.002622 0.024899 0.000009 0.020485 -0.000026
# 4 0.000004 -0.000002 0.000009 0.025293 0.000013 0.001645
# 5 0.002096 -0.004434 0.020485 0.000013 0.040077 -0.000033
# 6 0.000000 0.000008 -0.000026 0.001645 -0.000033 0.028787
#
#
# Mechanical properties :
#
#
# Convention : Reuss Voigt Hill
#
# Bulk Modulus (GPa) = 24.27150 44.26376 34.26763
# Shear Modulus (GPa) = 21.83717 41.34009 31.58863
#
# Velocity S-wave (km/s) = 2.82556 3.88769 3.39837
# Velocity P-wave (km/s) = 4.41801 6.02787 5.28460
#
# Compressibility (1/GPa) = 0.04120058
#
# Stress axis : x y z
#
# Youngs Moduli (GPa) = 21.72961 97.85437 40.16188
#
# Poissons Ratio (x) = 0.09107 0.65930
# Poissons Ratio (y) = 0.02022 0.10531
# Poissons Ratio (z) = 0.35672 0.25659
#
# Static dielectric constant tensor:
#      x y z
#    x 2.472100 0.008420 -0.036630 
#    y 0.008420 0.340310 -0.004470 
#    z -0.036630 -0.004470 2.153260 
# 
# From -- ./inp_files/75926.got.cif
#   From: 2010.05.17/outbox.cif.g08.bks.cpg/sg14_38_cif.got.tgz:75926.got - 2010.06.03 17:49:19.
