data_PCOD9239761
_publ_section_title
;
Structure prediction by ZEFSAII (Michael W. Deem and Ramdas Pophale) SiO2 
 PCOD9239761
Probable space group: P 21/C
;
_chemical_formula_sum "Si O2"
_cell_formula_units_Z 30
_cell_length_a 17.075214
_cell_length_b 4.971261
_cell_length_c 18.494211
_cell_angle_alpha 90.000000
_cell_angle_beta 118.368762
_cell_angle_gamma 90.000000
_cell_volume 1381.356177
_symmetry_space_group_name_H-M "P 21/C"
_symmetry_group_IT_number 14
_symmetry_cell_setting 'monoclinic'
loop_
_space_group_symop_operation_xyz
x,y,z
-x,1/2+y,1/2-z
-x,-y,-z
x,1/2-y,1/2+z
loop_
_atom_site_type_symbol
_atom_site_label
_atom_site_fract_x
_atom_site_fract_y
_atom_site_fract_z
Si Si1 0.209097 0.363354 0.522937
Si Si2 0.000000 0.000000 0.500000
Si Si3 0.248642 0.648088 0.283713
Si Si4 0.591731 0.939870 0.229736
Si Si5 0.122022 0.929539 0.126238
Si Si6 0.123839 0.869040 0.422414
Si Si7 0.609654 0.440213 0.335492
Si Si8 0.845374 0.629076 0.208993
O O1 0.158169 0.376246 0.578741
O O2 0.200801 0.065503 0.488852
O O3 0.307606 0.471020 0.580269
O O4 0.159232 0.566877 0.446733
O O5 0.044719 0.899817 0.443629
O O6 0.956597 0.258317 0.439119
O O7 0.343729 0.527860 0.306221
O O8 0.199887 0.721516 0.185855
O O9 0.189668 0.430823 0.300748
O O10 0.241035 0.930519 0.321679
O O11 0.610240 0.639300 0.265957
O O12 0.486773 0.973939 0.169961
O O13 0.613626 0.138907 0.306481
O O14 0.103304 0.077777 0.193207
O O15 0.103608 0.002318 0.336192
#
# Coordination Sequence:
#
# PCOD9239761 Si02
#       8
#     4   2   4   4   4   4   4   4
#     4  11  21  38  63  86 124 155 203 248 307 348
#     4  10  24  44  60  98 116 150 196 258 306 344
#     4  10  19  36  62  84 118 158 202 236 292 355
#     4  10  18  31  54  90 123 150 198 251 294 351
#     4   9  22  37  65  86 119 155 196 248 296 360
#     4  11  25  42  60  88 122 162 198 250 300 370
#     4  10  19  30  54  89 124 154 192 251 304 345
#     4  10  22  40  61  85 115 168 200 235 298 368
#
# _framework density 21.717786
#
# number of rings (size 3 to 8) (size 9 to 14) (size 15 to 20)
#    0.800    1.067    1.333    3.200    5.600    2.133 
#    2.400    0.000    0.000    4.800    0.000    0.000 
#    0.000    0.000    0.000    0.000    0.000    0.000 
#
# Total GULP energy -167019.109088 kJ/mol
# GULP energy per Si atom -5567.303636 kJ/mol
# Density = 2.166836 g / cm^3
# Si number density = 21.717786 Si / 1000 Ang^3
#
#
#
# Elastic Constant Matrix: (Units=GPa)
#
#
# Indices 1 2 3 4 5 6 
#
# 1 36.1835 -16.4328 28.3789 0.0000 0.0227 0.0000
# 2 -16.4328 41.2971 7.3020 0.0000 -3.9604 0.0000
# 3 28.3789 7.3020 76.0972 0.0000 -18.3805 0.0000
# 4 0.0000 0.0000 0.0000 27.0407 0.0000 1.9099
# 5 0.0227 -3.9604 -18.3805 0.0000 24.9212 0.0000
# 6 0.0000 0.0000 0.0000 1.9099 0.0000 17.6392
#
#
#
# Elastic Compliance Matrix: (Units=1/GPa)
#
#
# Indices 1 2 3 4 5 6 
#
# 1 0.067178 0.030656 -0.032649 0.000000 -0.019269 0.000000
# 2 0.030656 0.038766 -0.016635 0.000000 -0.006136 0.000000
# 3 -0.032649 -0.016635 0.031979 0.000000 0.020972 0.000000
# 4 0.000000 0.000000 0.000000 0.037266 0.000000 -0.004035
# 5 -0.019269 -0.006136 0.020972 0.000000 0.054637 0.000000
# 6 0.000000 0.000000 0.000000 -0.004035 0.000000 0.057129
#
#
# Mechanical properties :
#
#
# Convention : Reuss Voigt Hill
#
# Bulk Modulus (GPa) = 9.93358 21.34154 15.63756
# Shear Modulus (GPa) = 13.97565 22.87553 18.42559
#
# Velocity S-wave (km/s) = 2.53951 3.24899 2.91591
# Velocity P-wave (km/s) = 3.63079 4.89108 4.30728
#
# Compressibility (1/GPa) = 0.10066867
#
# Stress axis : x y z
#
# Youngs Moduli (GPa) = 14.88579 25.79568 31.27101
#
# Poissons Ratio (x) = -0.79080 1.02096
# Poissons Ratio (y) = -0.45634 0.52018
# Poissons Ratio (z) = 0.48600 0.42910
#
# Static dielectric constant tensor:
#      x y z
#    x 1.855880 0.000000 0.007200 
#    y 0.000000 1.810330 0.000000 
#    z 0.007200 0.000000 1.800840 
# 
# From -- ./inp_files/59896.got.cif
#   From: 2010.05.17/outbox.cif.g08.bks.cpg/sg14_30_cif.got.tgz:59896.got - 2010.06.03 17:49:19.
