data_PCOD9239504
_publ_section_title
;
Structure prediction by ZEFSAII (Michael W. Deem and Ramdas Pophale) SiO2 
 PCOD9239504
Probable space group: P 21/C
;
_chemical_formula_sum "Si O2"
_cell_formula_units_Z 32
_cell_length_a 9.250530
_cell_length_b 17.591456
_cell_length_c 10.981561
_cell_angle_alpha 90.000000
_cell_angle_beta 72.042277
_cell_angle_gamma 90.000000
_cell_volume 1699.976028
_symmetry_space_group_name_H-M "P 21/C"
_symmetry_group_IT_number 14
_symmetry_cell_setting 'monoclinic'
loop_
_space_group_symop_operation_xyz
x,y,z
-x,1/2+y,1/2-z
-x,-y,-z
x,1/2-y,1/2+z
loop_
_atom_site_type_symbol
_atom_site_label
_atom_site_fract_x
_atom_site_fract_y
_atom_site_fract_z
Si Si1 0.048350 0.255322 0.753697
Si Si2 0.452491 0.818838 0.160593
Si Si3 0.858774 0.393086 0.238545
Si Si4 0.051093 0.859168 0.942531
Si Si5 0.656439 0.258440 0.565559
Si Si6 0.763014 0.637052 0.694517
Si Si7 0.886163 0.370284 0.956026
Si Si8 0.901407 0.006372 0.242096
O O1 0.205798 0.210787 0.729030
O O2 0.925350 0.188061 0.765809
O O3 0.022415 0.309392 0.646504
O O4 0.010879 0.308666 0.878835
O O5 0.320769 0.882976 0.204092
O O6 0.414819 0.759490 0.282116
O O7 0.615167 0.852581 0.152670
O O8 0.440764 0.786463 0.025713
O O9 0.937707 0.462575 0.286252
O O10 0.911561 0.399399 0.085055
O O11 0.203087 0.816589 0.948196
O O12 0.097548 0.940176 0.875804
O O13 0.914412 0.865967 0.072564
O O14 0.732441 0.179179 0.502466
O O15 0.774498 0.559287 0.767129
O O16 0.879085 0.437786 0.861752
#
# Coordination Sequence:
#
# PCOD9239504 Si02
#       8
#     4   4   4   4   4   4   4   4
#     4  10  17  34  60  88 111 151 205 253 289 350
#     4  11  23  37  62  86 132 155 198 250 316 360
#     4  10  18  36  57  87 120 156 196 246 305 361
#     4  11  20  38  66  84 115 155 218 247 295 351
#     4  11  20  41  64  92 113 165 204 256 298 367
#     4  11  23  36  55  90 126 153 196 256 306 352
#     4  10  17  34  64  86 110 153 214 249 289 349
#     4  10  22  36  59  85 117 161 204 248 300 362
#
# _framework density 18.823795
#
# number of rings (size 3 to 8) (size 9 to 14) (size 15 to 20)
#    0.000    1.500    5.000    2.250    1.750    0.000 
#    0.000    5.000    5.500    0.000    0.000    0.000 
#    0.000    0.000    0.000    0.000    0.000    0.000 
#
# Total GULP energy -178388.656058 kJ/mol
# GULP energy per Si atom -5574.645502 kJ/mol
# Density = 1.878095 g / cm^3
# Si number density = 18.823795 Si / 1000 Ang^3
#
#
#
# Elastic Constant Matrix: (Units=GPa)
#
#
# Indices 1 2 3 4 5 6 
#
# 1 123.5676 37.2425 22.6613 0.0000 17.2193 0.0000
# 2 37.2425 82.4699 19.5422 0.0000 13.7155 0.0000
# 3 22.6613 19.5422 74.1016 0.0000 18.8106 0.0000
# 4 0.0000 0.0000 0.0000 24.6078 0.0000 11.5052
# 5 17.2193 13.7155 18.8106 0.0000 20.4765 0.0000
# 6 0.0000 0.0000 0.0000 11.5052 0.0000 18.6590
#
#
#
# Elastic Compliance Matrix: (Units=1/GPa)
#
#
# Indices 1 2 3 4 5 6 
#
# 1 0.010028 -0.003443 -0.000787 0.000000 -0.005403 0.000000
# 2 -0.003443 0.014988 -0.001417 0.000000 -0.005842 0.000000
# 3 -0.000787 -0.001417 0.017867 0.000000 -0.014803 0.000000
# 4 0.000000 0.000000 0.000000 0.057098 0.000000 -0.035207
# 5 -0.005403 -0.005842 -0.014803 0.000000 0.070892 0.000000
# 6 0.000000 0.000000 0.000000 -0.035207 0.000000 0.075302
#
#
# Mechanical properties :
#
#
# Convention : Reuss Voigt Hill
#
# Bulk Modulus (GPa) = 31.65666 48.78126 40.21896
# Shear Modulus (GPa) = 18.65681 26.12820 22.39251
#
# Velocity S-wave (km/s) = 3.15164 3.72968 3.45278
# Velocity P-wave (km/s) = 5.48613 6.67221 6.10803
#
# Compressibility (1/GPa) = 0.03158893
#
# Stress axis : x y z
#
# Youngs Moduli (GPa) = 99.72249 66.72043 55.96946
#
# Poissons Ratio (x) = 0.22974 0.04404
# Poissons Ratio (y) = 0.34338 0.07928
# Poissons Ratio (z) = 0.07847 0.09451
#
# Static dielectric constant tensor:
#      x y z
#    x 1.651170 0.000000 0.031480 
#    y 0.000000 1.668780 0.000000 
#    z 0.031480 0.000000 1.719950 
# 
# From -- ./inp_files/26264.got.cif
#   From: 2010.05.17/outbox.cif.g08.bks.cpg/sg14_14_cif.got.tgz:26264.got - 2010.06.03 17:49:19.
