data_PCOD9239077
_publ_section_title
;
Structure prediction by ZEFSAII (Michael W. Deem and Ramdas Pophale) SiO2 
 PCOD9239077
Probable space group: P 2/C
;
_chemical_formula_sum "Si O2"
_cell_formula_units_Z 24
_cell_length_a 9.000000
_cell_length_b 12.000000
_cell_length_c 12.000000
_cell_angle_alpha 90.000000
_cell_angle_beta 70.000000
_cell_angle_gamma 90.000000
_cell_volume 1217.841637
_symmetry_space_group_name_H-M "P 2/C"
_symmetry_group_IT_number 13
_symmetry_cell_setting 'monoclinic'
loop_
_space_group_symop_operation_xyz
x,y,z
-x,y,1/2-z
-x,-y,-z
x,-y,1/2+z
loop_
_atom_site_type_symbol
_atom_site_label
_atom_site_fract_x
_atom_site_fract_y
_atom_site_fract_z
Si Si1 0.338370 0.070493 0.863733
Si Si2 0.324052 0.575164 0.324992
Si Si3 0.159783 0.346842 0.288388
Si Si4 0.711540 0.812888 0.546217
Si Si5 0.823741 0.218516 0.770417
Si Si6 0.617660 0.270158 0.470462
O O1 0.500000 0.082348 0.750000
O O2 0.203684 0.122339 0.816064
O O3 0.317244 0.939335 0.899700
O O4 0.351578 0.153713 0.968196
O O5 0.500000 0.535564 0.250000
O O6 0.209640 0.468604 0.328362
O O7 0.275428 0.676823 0.253879
O O8 0.344917 0.634172 0.443187
O O9 0.185365 0.259920 0.388828
O O10 0.275690 0.299973 0.162963
O O11 0.000000 0.355316 0.250000
O O12 0.781333 0.826739 0.403825
O O13 0.552207 0.745895 0.548523
O O14 0.000000 0.259350 0.750000
#
# Coordination Sequence:
#
# PCOD9239077 Si02
#       6
#     4   4   4   4   4   4
#     4  11  23  44  73 101 134 180 230 285 330 401
#     4  11  23  47  75  97 132 180 231 285 331 409
#     4  12  30  43  65 105 141 178 225 285 348 397
#     4  12  25  44  73  98 137 182 232 280 329 407
#     4  11  25  43  68 105 138 180 227 275 351 401
#     4  11  23  46  71 100 134 176 234 278 336 405
#
# _framework density 19.706996
#
# number of rings (size 3 to 8) (size 9 to 14) (size 15 to 20)
#    0.000    0.667    3.333    4.500    9.333    3.333 
#    0.000    0.000    0.000    0.000    0.000    0.000 
#    0.000    0.000    0.000    0.000    0.000    0.000 
#
# Total GULP energy -133657.127824 kJ/mol
# GULP energy per Si atom -5569.046993 kJ/mol
# Density = 1.966214 g / cm^3
# Si number density = 19.706996 Si / 1000 Ang^3
#
#
#
# Elastic Constant Matrix: (Units=GPa)
#
#
# Indices 1 2 3 4 5 6 
#
# 1 128.2730 19.8246 5.5115 0.0000 38.6628 0.0000
# 2 19.8246 130.2918 22.4097 0.0000 25.5068 0.0000
# 3 5.5115 22.4097 89.7473 0.0000 37.8924 0.0000
# 4 0.0000 0.0000 0.0000 25.7435 0.0000 12.2134
# 5 38.6628 25.5068 37.8924 0.0000 43.9831 0.0000
# 6 0.0000 0.0000 0.0000 12.2134 0.0000 31.1321
#
#
#
# Elastic Compliance Matrix: (Units=1/GPa)
#
#
# Indices 1 2 3 4 5 6 
#
# 1 0.012391 0.000256 0.006030 0.000000 -0.016235 0.000000
# 2 0.000256 0.008664 0.000059 0.000000 -0.005300 0.000000
# 3 0.006030 0.000059 0.020447 0.000000 -0.022950 0.000000
# 4 0.000000 0.000000 0.000000 0.047728 0.000000 -0.018724
# 5 -0.016235 -0.005300 -0.022950 0.000000 0.059853 0.000000
# 6 0.000000 0.000000 0.000000 -0.018724 0.000000 0.039467
#
#
# Mechanical properties :
#
#
# Convention : Reuss Voigt Hill
#
# Bulk Modulus (GPa) = 18.45358 49.31154 33.88256
# Shear Modulus (GPa) = 25.78328 40.20948 32.99638
#
# Velocity S-wave (km/s) = 3.62101 4.52194 4.09632
# Velocity P-wave (km/s) = 5.18330 7.23468 6.29314
#
# Compressibility (1/GPa) = 0.05419003
#
# Stress axis : x y z
#
# Youngs Moduli (GPa) = 80.70591 115.42609 48.90613
#
# Poissons Ratio (x) = -0.02953 -0.29490
# Poissons Ratio (y) = -0.02065 -0.00286
# Poissons Ratio (z) = -0.48664 -0.00676
#
# Static dielectric constant tensor:
#      x y z
#    x 1.772070 0.000000 -0.076770 
#    y 0.000000 1.687240 0.000000 
#    z -0.076770 0.000000 1.734250 
# 
# From -- ./inp_files/29331.got.cif
#   From: 2010.05.17/outbox.ucp.g08.bks.cvg/sg13_15_cif.got.tgz:29331.got - 2010.06.11 12:23:55.
