data_PCOD9239359
_publ_section_title
;
Structure prediction by ZEFSAII (Michael W. Deem and Ramdas Pophale) SiO2 
 PCOD9239359
Probable space group: P 21/C
;
_chemical_formula_sum "Si O2"
_cell_formula_units_Z 24
_cell_length_a 7.153982
_cell_length_b 6.888552
_cell_length_c 20.455794
_cell_angle_alpha 90.000000
_cell_angle_beta 60.046692
_cell_angle_gamma 90.000000
_cell_volume 873.427578
_symmetry_space_group_name_H-M "P 21/C"
_symmetry_group_IT_number 14
_symmetry_cell_setting 'monoclinic'
loop_
_space_group_symop_operation_xyz
x,y,z
-x,1/2+y,1/2-z
-x,-y,-z
x,1/2-y,1/2+z
loop_
_atom_site_type_symbol
_atom_site_label
_atom_site_fract_x
_atom_site_fract_y
_atom_site_fract_z
Si Si1 0.457684 0.226910 0.988377
Si Si2 0.814261 0.620477 0.703749
Si Si3 0.033270 0.841088 0.938409
Si Si4 0.719019 0.113854 0.823550
Si Si5 0.694011 0.648758 0.860297
Si Si6 0.176781 0.955936 0.332902
O O1 0.585476 0.241225 0.898437
O O2 0.482736 0.353360 0.050140
O O3 0.500000 0.000000 0.000000
O O4 0.206331 0.240649 0.020066
O O5 0.879055 0.460899 0.639657
O O6 0.036537 0.666830 0.703081
O O7 0.665684 0.566153 0.791658
O O8 0.768326 0.818555 0.673810
O O9 0.182479 0.652929 0.901287
O O10 0.000000 0.000000 0.000000
O O11 0.682318 0.125991 0.752523
O O12 0.701424 0.883379 0.843606
O O13 0.926556 0.576304 0.849584
#
# Coordination Sequence:
#
# PCOD9239359 Si02
#       6
#     4   4   4   4   4   4
#     4   9  15  32  56  78 101 136 170 214 265 297
#     4  10  17  30  53  79 101 138 169 215 258 304
#     4  11  22  36  54  74 106 143 176 210 256 319
#     4   9  15  29  57  77 108 133 165 223 270 291
#     4   8  15  27  48  80 102 123 169 215 247 303
#     4   9  18  31  52  80 103 136 178 210 254 316
#
# _framework density 27.477954
#
# number of rings (size 3 to 8) (size 9 to 14) (size 15 to 20)
#    0.000    2.667    5.000    0.000    2.333    0.667 
#    0.000    3.333   11.000    0.000    0.000    0.000 
#    0.000    0.000    0.000    0.000    0.000    0.000 
#
# Total GULP energy -133920.891697 kJ/mol
# GULP energy per Si atom -5580.037154 kJ/mol
# Density = 2.741541 g / cm^3
# Si number density = 27.477954 Si / 1000 Ang^3
#
#
#
# Elastic Constant Matrix: (Units=GPa)
#
#
# Indices 1 2 3 4 5 6 
#
# 1 57.8534 11.9582 27.8296 0.0000 4.6605 0.0000
# 2 11.9582 75.2997 40.9295 0.0000 -7.0922 0.0000
# 3 27.8296 40.9295 186.5334 0.0000 -18.1190 0.0000
# 4 0.0000 0.0000 0.0000 67.0746 0.0000 0.0774
# 5 4.6605 -7.0922 -18.1190 0.0000 35.5345 0.0000
# 6 0.0000 0.0000 0.0000 0.0774 0.0000 20.0363
#
#
#
# Elastic Compliance Matrix: (Units=1/GPa)
#
#
# Indices 1 2 3 4 5 6 
#
# 1 0.019436 -0.001922 -0.002907 0.000000 -0.004415 0.000000
# 2 -0.001922 0.015334 -0.002900 0.000000 0.001834 0.000000
# 3 -0.002907 -0.002900 0.006746 0.000000 0.003242 0.000000
# 4 0.000000 0.000000 0.000000 0.014909 0.000000 -0.000058
# 5 -0.004415 0.001834 0.003242 0.000000 0.030740 0.000000
# 6 0.000000 0.000000 0.000000 -0.000058 0.000000 0.049910
#
#
# Mechanical properties :
#
#
# Convention : Reuss Voigt Hill
#
# Bulk Modulus (GPa) = 38.37498 53.45792 45.91645
# Shear Modulus (GPa) = 31.01361 40.46035 35.73698
#
# Velocity S-wave (km/s) = 3.36322 3.84144 3.61025
# Velocity P-wave (km/s) = 5.39237 6.25880 5.84167
#
# Compressibility (1/GPa) = 0.02605864
#
# Stress axis : x y z
#
# Youngs Moduli (GPa) = 51.44992 65.21245 148.23943
#
# Poissons Ratio (x) = 0.12537 0.43090
# Poissons Ratio (y) = 0.09891 0.42986
# Poissons Ratio (z) = 0.14955 0.18910
#
# Static dielectric constant tensor:
#      x y z
#    x 2.146400 0.000000 0.084600 
#    y 0.000000 2.249300 0.000000 
#    z 0.084600 0.000000 2.261950 
# 
# From -- ./inp_files/56753.got.cif
#   From: 2010.05.17/outbox.cif.g08.bks.cpg/sg14_29_cif.got.tgz:56753.got - 2010.06.03 17:49:19.
