data_PCOD9239649
_publ_section_title
;
Structure prediction by ZEFSAII (Michael W. Deem and Ramdas Pophale) SiO2 
 PCOD9239649
Probable space group: P 21/C
;
_chemical_formula_sum "Si O2"
_cell_formula_units_Z 32
_cell_length_a 19.017527
_cell_length_b 12.071943
_cell_length_c 5.556531
_cell_angle_alpha 90.000000
_cell_angle_beta 106.378086
_cell_angle_gamma 90.000000
_cell_volume 1223.896191
_symmetry_space_group_name_H-M "P 21/C"
_symmetry_group_IT_number 14
_symmetry_cell_setting 'monoclinic'
loop_
_space_group_symop_operation_xyz
x,y,z
-x,1/2+y,1/2-z
-x,-y,-z
x,1/2-y,1/2+z
loop_
_atom_site_type_symbol
_atom_site_label
_atom_site_fract_x
_atom_site_fract_y
_atom_site_fract_z
Si Si1 0.950679 0.439018 0.703517
Si Si2 0.089831 0.581053 0.835533
Si Si3 0.261574 0.957776 0.496236
Si Si4 0.282156 0.221249 0.507436
Si Si5 0.117180 0.189393 0.851736
Si Si6 0.547235 0.889592 0.889552
Si Si7 0.506881 0.145735 0.664546
Si Si8 0.339979 0.578946 0.572481
O O1 0.928574 0.373767 0.444706
O O2 0.906710 0.559349 0.667063
O O3 0.035858 0.472975 0.778576
O O4 0.932826 0.373635 0.927661
O O5 0.175345 0.562338 0.926289
O O6 0.269367 0.090585 0.500414
O O7 0.292242 0.914383 0.269625
O O8 0.298919 0.911161 0.776925
O O9 0.319392 0.250251 0.793125
O O10 0.205868 0.292724 0.435539
O O11 0.093448 0.249682 0.578494
O O12 0.537517 0.758116 0.898838
O O13 0.495769 0.903616 0.604098
O O14 0.619962 0.958278 0.894290
O O15 0.529210 0.920152 0.149022
O O16 0.590807 0.160483 0.830596
#
# Coordination Sequence:
#
# PCOD9239649 Si02
#       8
#     4   4   4   4   4   4   4   4
#     4  10  19  34  58  82 105 157 219 244 301 338
#     4  10  20  35  56  82 117 154 200 259 286 369
#     4  12  24  38  55  90 135 167 197 248 330 392
#     4  10  19  34  49  71 114 166 195 238 296 372
#     4  10  18  29  51  75 102 144 195 249 287 346
#     4  10  21  41  67  95 119 159 218 254 303 362
#     4  10  21  41  68  91 125 161 207 268 295 362
#     4  12  24  40  62  96 129 170 201 254 326 383
#
# _framework density 26.146007999999998
#
# number of rings (size 3 to 8) (size 9 to 14) (size 15 to 20)
#    0.000    1.500    0.000    7.500    0.000    0.000 
#   13.500    0.000    0.000    0.000   19.500    0.000 
#    0.000    0.000    0.000    0.000    0.000    0.000 
#
# Total GULP energy -178850.152994 kJ/mol
# GULP energy per Si atom -5589.067281 kJ/mol
# Density = 2.608650 g / cm^3
# Si number density = 26.146008 Si / 1000 Ang^3
#
#
#
# Elastic Constant Matrix: (Units=GPa)
#
#
# Indices 1 2 3 4 5 6 
#
# 1 161.3141 12.5023 79.7789 0.0000 2.5140 0.0000
# 2 12.5023 87.4064 35.2971 0.0000 -3.6625 0.0000
# 3 79.7789 35.2971 280.6691 0.0000 -31.7038 0.0000
# 4 0.0000 0.0000 0.0000 -12.2684 0.0000 -101.7693
# 5 2.5140 -3.6625 -31.7038 0.0000 64.5241 0.0000
# 6 0.0000 0.0000 0.0000 -101.7693 0.0000 -289.6542
#
#
#
# Elastic Compliance Matrix: (Units=1/GPa)
#
#
# Indices 1 2 3 4 5 6 
#
# 1 0.007332 -0.000213 -0.002214 0.000000 -0.001386 0.000000
# 2 -0.000213 0.012059 -0.001459 0.000000 -0.000024 0.000000
# 3 -0.002214 -0.001459 0.004633 0.000000 0.002280 0.000000
# 4 0.000000 0.000000 0.000000 0.042575 0.000000 -0.014959
# 5 -0.001386 -0.000024 0.002280 0.000000 0.016671 0.000000
# 6 0.000000 0.000000 0.000000 -0.014959 0.000000 0.001803
#
#
# Mechanical properties :
#
#
# Convention : Reuss Voigt Hill
#
# Bulk Modulus (GPa) = 61.52452 87.17177 74.34815
# Shear Modulus (GPa) = 50.88410 -20.69226 15.09592
#
# Velocity S-wave (km/s) = 4.41631 -2.81626 2.40546
# Velocity P-wave (km/s) = 7.04182 4.77888 6.01768
#
# Compressibility (1/GPa) = 0.01625368
#
# Stress axis : x y z
#
# Youngs Moduli (GPa) = 136.38771 82.92322 215.83410
#
# Poissons Ratio (x) = 0.01765 0.47782
# Poissons Ratio (y) = 0.02902 0.31486
# Poissons Ratio (z) = 0.30194 0.12097
#
# Static dielectric constant tensor:
#      x y z
#    x 2.102810 0.000000 -0.026160 
#    y 0.000000 2.199680 0.000000 
#    z -0.026160 0.000000 2.107680 
# 
# From -- ./inp_files/4192.got.cif
#   From: 2010.05.17/outbox.cif.g08.bks.cpg/sg14_3_cif.got.tgz:4192.got - 2010.06.03 17:49:19.
