data_PCOD9239037
_publ_section_title
;
Structure prediction by ZEFSAII (Michael W. Deem and Ramdas Pophale) SiO2 
 PCOD9239037
Probable space group: P 2/C
;
_chemical_formula_sum "Si O2"
_cell_formula_units_Z 20
_cell_length_a 18.000000
_cell_length_b 9.000000
_cell_length_c 12.000000
_cell_angle_alpha 90.000000
_cell_angle_beta 150.000000
_cell_angle_gamma 90.000000
_cell_volume 972.000000
_symmetry_space_group_name_H-M "P 2/C"
_symmetry_group_IT_number 13
_symmetry_cell_setting 'monoclinic'
loop_
_space_group_symop_operation_xyz
x,y,z
-x,y,1/2-z
-x,-y,-z
x,-y,1/2+z
loop_
_atom_site_type_symbol
_atom_site_label
_atom_site_fract_x
_atom_site_fract_y
_atom_site_fract_z
Si Si1 0.425897 0.338012 0.870688
Si Si2 0.339623 0.632494 0.491779
Si Si3 0.167725 0.175055 0.420769
Si Si4 0.273717 0.697621 0.834371
Si Si5 0.177799 0.827142 0.472122
O O1 0.271319 0.305929 0.607525
O O2 0.500000 0.500000 0.000000
O O3 0.387371 0.275589 0.943391
O O4 0.549586 0.271241 0.949099
O O5 0.500000 0.586747 0.750000
O O6 0.259369 0.478617 0.348236
O O7 0.246820 0.731374 0.458916
O O8 0.187455 0.205732 0.314338
O O9 0.000000 0.189909 0.250000
O O10 0.218462 0.004222 0.514876
O O11 0.225409 0.743845 0.647404
O O12 0.000000 0.824867 0.250000
#
# Coordination Sequence:
#
# PCOD9239037 Si02
#       5
#     4   4   4   4   4
#     4  10  22  45  70  98 137 180 232 292 340 415
#     4  11  23  44  71 100 138 178 235 295 350 411
#     4  11  27  45  70 101 144 186 230 287 359 416
#     4  11  24  45  72  98 138 187 231 292 345 420
#     4  11  28  45  65 106 144 182 237 290 349 421
#
# _framework density 20.576132000000001
#
# number of rings (size 3 to 8) (size 9 to 14) (size 15 to 20)
#    0.000    1.200    2.000    3.000    8.400    5.600 
#    0.000    0.000    0.000    0.000    0.000    0.000 
#    0.000    0.000    0.000    0.000    0.000    0.000 
#
# Total GULP energy -111453.293771 kJ/mol
# GULP energy per Si atom -5572.664689 kJ/mol
# Density = 2.052930 g / cm^3
# Si number density = 20.576132 Si / 1000 Ang^3
#
#
#
# Elastic Constant Matrix: (Units=GPa)
#
#
# Indices 1 2 3 4 5 6 
#
# 1 209.5627 43.7964 32.5619 0.0000 0.6586 0.0000
# 2 43.7964 102.9580 23.4506 0.0000 11.3996 0.0000
# 3 32.5619 23.4506 59.7369 0.0000 12.4716 0.0000
# 4 0.0000 0.0000 0.0000 27.5955 0.0000 -1.2981
# 5 0.6586 11.3996 12.4716 0.0000 39.2518 0.0000
# 6 0.0000 0.0000 0.0000 -1.2981 0.0000 28.4713
#
#
#
# Elastic Compliance Matrix: (Units=1/GPa)
#
#
# Indices 1 2 3 4 5 6 
#
# 1 0.005566 -0.001930 -0.002543 0.000000 0.001275 0.000000
# 2 -0.001930 0.011468 -0.002958 0.000000 -0.002359 0.000000
# 3 -0.002543 -0.002958 0.020456 0.000000 -0.005598 0.000000
# 4 0.000000 0.000000 0.000000 0.036316 0.000000 0.001656
# 5 0.001275 -0.002359 -0.005598 0.000000 0.027919 0.000000
# 6 0.000000 0.000000 0.000000 0.001656 0.000000 0.035199
#
#
# Mechanical properties :
#
#
# Convention : Reuss Voigt Hill
#
# Bulk Modulus (GPa) = 44.18915 63.54170 53.86543
# Shear Modulus (GPa) = 31.38194 37.22699 34.30446
#
# Velocity S-wave (km/s) = 3.90957 4.25812 4.08756
# Velocity P-wave (km/s) = 6.47319 7.42454 6.96513
#
# Compressibility (1/GPa) = 0.02262999
#
# Stress axis : x y z
#
# Youngs Moduli (GPa) = 179.65500 87.19599 48.88566
#
# Poissons Ratio (x) = 0.16827 0.12430
# Poissons Ratio (y) = 0.34670 0.14459
# Poissons Ratio (z) = 0.45681 0.25791
#
# Static dielectric constant tensor:
#      x y z
#    x 1.767190 0.000000 -0.043110 
#    y 0.000000 1.751750 0.000000 
#    z -0.043110 0.000000 1.846190 
# 
# From -- ./inp_files/38827.got.cif
#   From: 2010.05.17/outbox.ucp.g08.bks.cvg/sg13_20_cif.got.tgz:38827.got - 2010.06.11 12:23:55.
