data_PCOD9239529
_publ_section_title
;
Structure prediction by ZEFSAII (Michael W. Deem and Ramdas Pophale) SiO2 
 PCOD9239529
Probable space group: P 21/C
;
_chemical_formula_sum "Si O2"
_cell_formula_units_Z 32
_cell_length_a 11.389586
_cell_length_b 8.497298
_cell_length_c 34.259532
_cell_angle_alpha 90.000000
_cell_angle_beta 22.216794
_cell_angle_gamma 90.000000
_cell_volume 1253.691986
_symmetry_space_group_name_H-M "P 21/C"
_symmetry_group_IT_number 14
_symmetry_cell_setting 'monoclinic'
loop_
_space_group_symop_operation_xyz
x,y,z
-x,1/2+y,1/2-z
-x,-y,-z
x,1/2-y,1/2+z
loop_
_atom_site_type_symbol
_atom_site_label
_atom_site_fract_x
_atom_site_fract_y
_atom_site_fract_z
Si Si1 0.096690 0.242207 0.311347
Si Si2 0.675108 0.877215 0.839034
Si Si3 0.911652 0.583311 0.468401
Si Si4 0.626515 0.705449 0.985203
Si Si5 0.167467 0.449439 0.624963
Si Si6 0.417886 0.561771 0.941752
Si Si7 0.214660 0.264918 0.359921
Si Si8 0.769561 0.646753 0.065681
O O1 0.723207 0.221268 0.423775
O O2 0.100321 0.432070 0.305481
O O3 0.283461 0.216137 0.294115
O O4 0.198128 0.140216 0.243371
O O5 0.811261 0.963948 0.835108
O O6 0.662948 0.696933 0.857930
O O7 0.354421 0.969722 0.933173
O O8 0.764543 0.681283 0.477515
O O9 0.163798 0.453397 0.377815
O O10 0.967454 0.712969 0.484537
O O11 0.620551 0.535383 0.006785
O O12 0.848653 0.766812 0.882417
O O13 0.500000 0.500000 0.500000
O O14 0.455708 0.424689 0.897815
O O15 0.108591 0.669297 0.034673
O O16 0.383296 0.207814 0.347325
O O17 0.000000 0.500000 0.000000
#
# Coordination Sequence:
#
# PCOD9239529 Si02
#       8
#     4   4   4   4   4   4   4   4
#     4  11  22  33  54  82 123 147 196 235 285 367
#     4  11  22  34  54  84 116 159 190 234 302 355
#     4  10  17  35  60  82 110 152 196 233 307 350
#     4  10  18  34  58  81 111 153 187 237 292 340
#     4  10  18  37  56  79 115 154 191 234 288 353
#     4   9  20  34  56  83 111 140 192 248 288 337
#     4  10  19  36  56  83 111 147 194 246 284 355
#     4   9  19  35  60  87 109 138 197 261 288 336
#
# _framework density 25.524611
#
# number of rings (size 3 to 8) (size 9 to 14) (size 15 to 20)
#    0.000    2.000    3.750    2.625    1.750    2.000 
#    0.000    1.250    0.000    0.000    0.000    0.000 
#    0.000    0.000    0.000    0.000    0.000    0.000 
#
# Total GULP energy -178151.638868 kJ/mol
# GULP energy per Si atom -5567.238715 kJ/mol
# Density = 2.546652 g / cm^3
# Si number density = 25.524611 Si / 1000 Ang^3
#
#
#
# Elastic Constant Matrix: (Units=GPa)
#
#
# Indices 1 2 3 4 5 6 
#
# 1 88.7802 36.7182 30.0743 0.0001 50.1406 0.0025
# 2 36.7182 124.9358 17.9057 0.0031 14.9824 -0.0023
# 3 30.0743 17.9057 59.8669 0.0015 29.0333 -0.0052
# 4 0.0001 0.0031 0.0015 35.9160 0.0008 15.8602
# 5 50.1406 14.9824 29.0333 0.0008 42.0432 -0.0003
# 6 0.0025 -0.0023 -0.0052 15.8602 -0.0003 28.9772
#
#
#
# Elastic Compliance Matrix: (Units=1/GPa)
#
#
# Indices 1 2 3 4 5 6 
#
# 1 0.039724 -0.006628 0.005798 0.000004 -0.049018 -0.000006
# 2 -0.006628 0.009569 -0.002574 -0.000002 0.006272 0.000002
# 3 0.005798 -0.002574 0.026266 -0.000003 -0.024136 0.000005
# 4 0.000004 -0.000002 -0.000003 0.036717 -0.000003 -0.020097
# 5 -0.049018 0.006272 -0.024136 -0.000003 0.096676 0.000003
# 6 -0.000006 0.000002 0.000005 -0.020097 0.000003 0.045509
#
#
# Mechanical properties :
#
#
# Convention : Reuss Voigt Hill
#
# Bulk Modulus (GPa) = 14.54500 49.21992 31.88246
# Shear Modulus (GPa) = 17.59415 33.97960 25.78688
#
# Velocity S-wave (km/s) = 2.62830 3.65259 3.18193
# Velocity P-wave (km/s) = 3.86283 6.09210 5.10074
#
# Compressibility (1/GPa) = 0.06875217
#
# Stress axis : x y z
#
# Youngs Moduli (GPa) = 25.17344 104.50675 38.07224
#
# Poissons Ratio (x) = 0.69264 -0.22076
# Poissons Ratio (y) = 0.16684 0.09800
# Poissons Ratio (z) = -0.14596 0.26901
#
# Static dielectric constant tensor:
#      x y z
#    x 2.148120 0.000000 0.036810 
#    y 0.000000 2.133690 0.000000 
#    z 0.036810 0.000000 2.098440 
# 
# From -- ./inp_files/80008.got.cif
#   From: 2010.05.17/outbox.cif.g08.bks.cpg/sg14_41_cif.got.tgz:80008.got - 2010.06.03 17:49:19.
