data_PCOD9239954
_publ_section_title
;
Structure prediction by ZEFSAII (Michael W. Deem and Ramdas Pophale) SiO2 
 PCOD9239954
Probable space group: P 21/C
;
_chemical_formula_sum "Si O2"
_cell_formula_units_Z 20
_cell_length_a 6.896044
_cell_length_b 6.749679
_cell_length_c 18.705165
_cell_angle_alpha 90.000000
_cell_angle_beta 66.564543
_cell_angle_gamma 90.000000
_cell_volume 798.830921
_symmetry_space_group_name_H-M "P 21/C"
_symmetry_group_IT_number 14
_symmetry_cell_setting 'monoclinic'
loop_
_space_group_symop_operation_xyz
x,y,z
-x,1/2+y,1/2-z
-x,-y,-z
x,1/2-y,1/2+z
loop_
_atom_site_type_symbol
_atom_site_label
_atom_site_fract_x
_atom_site_fract_y
_atom_site_fract_z
Si Si1 0.778157 0.621860 0.220327
Si Si2 0.800729 0.372070 0.088593
Si Si3 0.544099 0.303924 0.348325
Si Si4 0.777423 0.750074 0.991096
Si Si5 0.680966 0.627105 0.848326
O O1 0.896545 0.488401 0.143833
O O2 0.683147 0.469629 0.291625
O O3 0.609799 0.723781 0.191478
O O4 0.843240 0.800233 0.263356
O O5 0.560467 0.316673 0.141226
O O6 0.971645 0.205472 0.044729
O O7 0.775262 0.530036 0.028109
O O8 0.390690 0.365844 0.436022
O O9 0.677029 0.111428 0.353455
O O10 0.707431 0.731215 0.920207
#
# Coordination Sequence:
#
# PCOD9239954 Si02
#       5
#     4   4   4   4   4
#     4  10  18  33  57  81 108 144 183 219 269 321
#     4   9  18  35  56  79 111 146 178 219 271 326
#     4  10  18  34  58  79 106 150 177 218 274 323
#     4   9  19  35  56  81 111 142 181 223 271 316
#     4  10  19  35  59  78 107 145 181 222 270 319
#
# _framework density 25.036584000000001
#
# number of rings (size 3 to 8) (size 9 to 14) (size 15 to 20)
#    0.000    2.800    4.000    2.400    0.000    0.800 
#    3.600    1.000    0.000    0.000    0.000    0.000 
#    0.000    0.000    0.000    0.000    0.000    0.000 
#
# Total GULP energy -111550.582666 kJ/mol
# GULP energy per Si atom -5577.529133 kJ/mol
# Density = 2.497960 g / cm^3
# Si number density = 25.036584 Si / 1000 Ang^3
#
#
#
# Elastic Constant Matrix: (Units=GPa)
#
#
# Indices 1 2 3 4 5 6 
#
# 1 62.8580 6.8284 38.4515 0.0000 3.2830 0.0000
# 2 6.8284 41.3532 13.6196 0.0000 -4.5543 0.0000
# 3 38.4515 13.6196 155.9065 0.0000 21.0930 0.0000
# 4 0.0000 0.0000 0.0000 33.8533 0.0000 -9.0480
# 5 3.2830 -4.5543 21.0930 0.0000 41.8052 0.0000
# 6 0.0000 0.0000 0.0000 -9.0480 0.0000 14.2323
#
#
#
# Elastic Compliance Matrix: (Units=1/GPa)
#
#
# Indices 1 2 3 4 5 6 
#
# 1 0.018859 -0.001521 -0.004610 0.000000 0.000679 0.000000
# 2 -0.001521 0.025690 -0.002430 0.000000 0.004144 0.000000
# 3 -0.004610 -0.002430 0.008318 0.000000 -0.004100 0.000000
# 4 0.000000 0.000000 0.000000 0.035586 0.000000 0.022623
# 5 0.000679 0.004144 -0.004100 0.000000 0.026387 0.000000
# 6 0.000000 0.000000 0.000000 0.022623 0.000000 0.084645
#
#
# Mechanical properties :
#
#
# Convention : Reuss Voigt Hill
#
# Bulk Modulus (GPa) = 27.97607 41.99074 34.98341
# Shear Modulus (GPa) = 21.87987 31.39272 26.63629
#
# Velocity S-wave (km/s) = 2.95941 3.54485 3.26528
# Velocity P-wave (km/s) = 4.78287 5.79334 5.31218
#
# Compressibility (1/GPa) = 0.03574483
#
# Stress axis : x y z
#
# Youngs Moduli (GPa) = 53.02574 38.92616 120.22078
#
# Poissons Ratio (x) = 0.05920 0.55425
# Poissons Ratio (y) = 0.08064 0.29211
# Poissons Ratio (z) = 0.24446 0.09458
#
# Static dielectric constant tensor:
#      x y z
#    x 2.098400 0.000000 -0.103010 
#    y 0.000000 2.032220 0.000000 
#    z -0.103010 0.000000 1.972500 
# 
# From -- ./inp_files/54314.got.cif
#   From: 2010.05.17/outbox.cif.g08.bks.cpg/sg14_28_cif.got.tgz:54314.got - 2010.06.03 17:49:19.
