data_PCOD9239026
_publ_section_title
;
Structure prediction by ZEFSAII (Michael W. Deem and Ramdas Pophale) SiO2 
 PCOD9239026
Probable space group: P 2/C
;
_chemical_formula_sum "Si O2"
_cell_formula_units_Z 18
_cell_length_a 9.000000
_cell_length_b 6.000000
_cell_length_c 18.000000
_cell_angle_alpha 90.000000
_cell_angle_beta 60.000000
_cell_angle_gamma 90.000000
_cell_volume 841.776692
_symmetry_space_group_name_H-M "P 2/C"
_symmetry_group_IT_number 13
_symmetry_cell_setting 'monoclinic'
loop_
_space_group_symop_operation_xyz
x,y,z
-x,y,1/2-z
-x,-y,-z
x,-y,1/2+z
loop_
_atom_site_type_symbol
_atom_site_label
_atom_site_fract_x
_atom_site_fract_y
_atom_site_fract_z
Si Si1 0.500000 0.139631 0.250000
Si Si2 0.162359 0.174867 0.600927
Si Si3 0.232823 0.797423 0.250898
Si Si4 0.149821 0.318262 0.032587
Si Si5 0.758665 0.450342 0.131994
O O1 0.599475 0.286592 0.163705
O O2 0.356251 0.984182 0.251276
O O3 0.253225 0.198282 0.657629
O O4 0.186436 0.425619 0.557384
O O5 0.961588 0.157448 0.673609
O O6 0.200705 0.928290 0.553390
O O7 0.267336 0.559502 0.280505
O O8 0.941386 0.323793 0.081354
O O9 0.228711 0.350506 0.930866
#
# Coordination Sequence:
#
# PCOD9239026 Si02
#       5
#     2   4   4   4   4
#     4  12  22  40  62  92 130 170 210 258 318 396
#     4  10  22  41  67  96 123 164 214 270 312 365
#     4  10  23  38  65  92 129 164 215 259 318 379
#     4  10  22  41  68  95 126 163 219 266 308 368
#     4  10  23  39  65  94 128 169 213 257 317 381
#
# _framework density 21.383343
#
# number of rings (size 3 to 8) (size 9 to 14) (size 15 to 20)
#    0.000    1.778    2.222    0.667    6.222    4.444 
#    0.000    2.222    0.000    0.000    0.000    0.000 
#    0.000    0.000    0.000    0.000    0.000    0.000 
#
# Total GULP energy -100279.490671 kJ/mol
# GULP energy per Si atom -5571.082815 kJ/mol
# Density = 2.133467 g / cm^3
# Si number density = 21.383343 Si / 1000 Ang^3
#
#
#
# Elastic Constant Matrix: (Units=GPa)
#
#
# Indices 1 2 3 4 5 6 
#
# 1 37.3970 20.9692 31.7018 0.0000 7.1810 0.0000
# 2 20.9692 99.5304 21.8909 0.0000 6.9620 0.0000
# 3 31.7018 21.8909 52.2382 0.0000 12.2320 0.0000
# 4 0.0000 0.0000 0.0000 38.2489 0.0000 8.2118
# 5 7.1810 6.9620 12.2320 0.0000 27.7557 0.0000
# 6 0.0000 0.0000 0.0000 8.2118 0.0000 8.0653
#
#
#
# Elastic Compliance Matrix: (Units=1/GPa)
#
#
# Indices 1 2 3 4 5 6 
#
# 1 0.057149 -0.004879 -0.032852 0.000000 0.000916 0.000000
# 2 -0.004879 0.011500 -0.001649 0.000000 -0.000896 0.000000
# 3 -0.032852 -0.001649 0.042020 0.000000 -0.009605 0.000000
# 4 0.000000 0.000000 0.000000 0.033458 0.000000 -0.034066
# 5 0.000916 -0.000896 -0.009605 0.000000 0.040249 0.000000
# 6 0.000000 0.000000 0.000000 -0.034066 0.000000 0.158672
#
#
# Mechanical properties :
#
#
# Convention : Reuss Voigt Hill
#
# Bulk Modulus (GPa) = 31.33793 37.58773 34.46283
# Shear Modulus (GPa) = 11.56218 22.45423 17.00821
#
# Velocity S-wave (km/s) = 2.32784 3.24401 2.82333
# Velocity P-wave (km/s) = 4.68105 5.62563 5.17493
#
# Compressibility (1/GPa) = 0.03191021
#
# Stress axis : x y z
#
# Youngs Moduli (GPa) = 17.49820 86.95397 23.79821
#
# Poissons Ratio (x) = 0.42423 0.78182
# Poissons Ratio (y) = 0.08537 0.03924
# Poissons Ratio (z) = 0.57485 0.14337
#
# Static dielectric constant tensor:
#      x y z
#    x 1.825590 0.000000 0.047780 
#    y 0.000000 1.808080 0.000000 
#    z 0.047780 0.000000 1.796910 
# 
# From -- ./inp_files/62164.got.cif
#   From: 2010.05.17/outbox.ucp.g08.bks.cvg/sg13_32_cif.got.tgz:62164.got - 2010.06.11 12:23:55.
