data_PCOD9239241
_publ_section_title
;
Structure prediction by ZEFSAII (Michael W. Deem and Ramdas Pophale) SiO2 
 PCOD9239241
Probable space group: P 21/C
;
_chemical_formula_sum "Si O2"
_cell_formula_units_Z 20
_cell_length_a 13.171615
_cell_length_b 5.242328
_cell_length_c 13.649638
_cell_angle_alpha 90.000000
_cell_angle_beta 75.007009
_cell_angle_gamma 90.000000
_cell_volume 910.421200
_symmetry_space_group_name_H-M "P 21/C"
_symmetry_group_IT_number 14
_symmetry_cell_setting 'monoclinic'
loop_
_space_group_symop_operation_xyz
x,y,z
-x,1/2+y,1/2-z
-x,-y,-z
x,1/2-y,1/2+z
loop_
_atom_site_type_symbol
_atom_site_label
_atom_site_fract_x
_atom_site_fract_y
_atom_site_fract_z
Si Si1 0.747034 0.087580 0.534893
Si Si2 0.567142 0.080624 0.729369
Si Si3 0.751798 0.200038 0.827661
Si Si4 0.139791 0.198607 0.656426
Si Si5 0.958497 0.248925 0.567267
O O1 0.642739 0.022809 0.618743
O O2 0.725186 0.276441 0.449940
O O3 0.799796 0.850825 0.462946
O O4 0.833412 0.216117 0.584984
O O5 0.489680 0.317383 0.727498
O O6 0.646102 0.182024 0.793162
O O7 0.823512 0.450130 0.793316
O O8 0.817896 0.943967 0.799494
O O9 0.019367 0.232766 0.655380
O O10 0.000000 0.500000 0.500000
O O11 0.000000 0.000000 0.500000
#
# Coordination Sequence:
#
# PCOD9239241 Si02
#       5
#     4   4   4   4   4
#     4   9  23  38  66  86 123 159 195 239 308 347
#     4  12  28  43  59  87 119 157 212 258 292 347
#     4  10  21  40  62  85 123 151 202 245 298 354
#     4   9  18  37  62  92 119 153 187 241 298 367
#     4  10  16  32  62  93 117 153 188 231 293 365
#
# _framework density 21.967853999999999
#
# number of rings (size 3 to 8) (size 9 to 14) (size 15 to 20)
#    1.200    0.800    2.000    1.200    2.800    1.600 
#    0.000    2.000    0.000    0.000    0.000    0.000 
#    0.000    0.000    0.000    0.000    0.000    0.000 
#
# Total GULP energy -111569.905660 kJ/mol
# GULP energy per Si atom -5578.495283 kJ/mol
# Density = 2.191785 g / cm^3
# Si number density = 21.967854 Si / 1000 Ang^3
#
#
#
# Elastic Constant Matrix: (Units=GPa)
#
#
# Indices 1 2 3 4 5 6 
#
# 1 85.0307 15.5481 28.4687 0.0000 -4.2745 0.0000
# 2 15.5481 119.5457 9.1558 0.0000 -5.4187 0.0000
# 3 28.4687 9.1558 52.8549 0.0000 -7.2976 0.0000
# 4 0.0000 0.0000 0.0000 24.8358 0.0000 8.3758
# 5 -4.2745 -5.4187 -7.2976 0.0000 48.6860 0.0000
# 6 0.0000 0.0000 0.0000 8.3758 0.0000 32.9776
#
#
#
# Elastic Compliance Matrix: (Units=1/GPa)
#
#
# Indices 1 2 3 4 5 6 
#
# 1 0.014547 -0.001310 -0.007610 0.000000 -0.000009 0.000000
# 2 -0.001310 0.008621 -0.000686 0.000000 0.000742 0.000000
# 3 -0.007610 -0.000686 0.023521 0.000000 0.002781 0.000000
# 4 0.000000 0.000000 0.000000 0.044037 0.000000 -0.011185
# 5 -0.000009 0.000742 0.002781 0.000000 0.021038 0.000000
# 6 0.000000 0.000000 0.000000 -0.011185 0.000000 0.033164
#
#
# Mechanical properties :
#
#
# Convention : Reuss Voigt Hill
#
# Bulk Modulus (GPa) = 36.39038 40.41962 38.40500
# Shear Modulus (GPa) = 28.85177 34.91711 31.88444
#
# Velocity S-wave (km/s) = 3.62797 3.99113 3.81388
# Velocity P-wave (km/s) = 5.84387 6.29907 6.07573
#
# Compressibility (1/GPa) = 0.02747979
#
# Stress axis : x y z
#
# Youngs Moduli (GPa) = 68.74134 115.98958 42.51467
#
# Poissons Ratio (x) = 0.15190 0.32353
# Poissons Ratio (y) = 0.09002 0.02915
# Poissons Ratio (z) = 0.52311 0.07953
#
# Static dielectric constant tensor:
#      x y z
#    x 1.813010 0.000000 -0.007700 
#    y 0.000000 1.773420 0.000000 
#    z -0.007700 0.000000 1.846140 
# 
# From -- ./inp_files/42430.got.cif
#   From: 2010.05.17/outbox.cif.g08.bks.cpg/sg14_22_cif.got.tgz:42430.got - 2010.06.03 17:49:19.
