data_PCOD9239298
_publ_section_title
;
Structure prediction by ZEFSAII (Michael W. Deem and Ramdas Pophale) SiO2 
 PCOD9239298
Probable space group: P 21/C
;
_chemical_formula_sum "Si O2"
_cell_formula_units_Z 32
_cell_length_a 24.247082
_cell_length_b 14.434218
_cell_length_c 13.391584
_cell_angle_alpha 90.000000
_cell_angle_beta 164.008467
_cell_angle_gamma 90.000000
_cell_volume 1291.215961
_symmetry_space_group_name_H-M "P 21/C"
_symmetry_group_IT_number 14
_symmetry_cell_setting 'monoclinic'
loop_
_space_group_symop_operation_xyz
x,y,z
-x,1/2+y,1/2-z
-x,-y,-z
x,1/2-y,1/2+z
loop_
_atom_site_type_symbol
_atom_site_label
_atom_site_fract_x
_atom_site_fract_y
_atom_site_fract_z
Si Si1 0.000374 0.366571 0.314821
Si Si2 0.042631 0.677666 0.540807
Si Si3 0.590454 0.895764 0.287168
Si Si4 0.496140 0.406477 0.581251
Si Si5 0.615986 0.745668 0.475112
Si Si6 0.830297 0.575841 0.763571
Si Si7 0.010596 0.072195 0.248496
Si Si8 0.865367 0.377701 0.861492
O O1 0.899810 0.362264 0.249707
O O2 0.181219 0.292105 0.628974
O O3 0.881904 0.353968 0.006395
O O4 0.073745 0.471849 0.427327
O O5 0.080611 0.637849 0.495594
O O6 0.121383 0.782026 0.675124
O O7 0.802910 0.654759 0.134420
O O8 0.465823 0.893584 0.968976
O O9 0.509861 0.831396 0.236083
O O10 0.606522 0.007051 0.326416
O O11 0.507428 0.309560 0.657422
O O12 0.254897 0.430079 0.162573
O O13 0.677835 0.660908 0.510545
O O14 0.923587 0.580840 0.816512
O O15 0.992183 0.592424 0.137197
O O16 0.741835 0.472845 0.627738
#
# Coordination Sequence:
#
# PCOD9239298 Si02
#       8
#     4   4   4   4   4   4   4   4
#     4  10  18  28  46  74 101 130 160 203 249 297
#     4  10  18  29  49  74 101 131 168 207 244 293
#     4   9  17  31  52  76  96 130 174 207 246 291
#     4   9  18  32  53  76  97 131 168 209 243 292
#     4  10  18  31  53  76  97 129 171 203 249 296
#     4   9  17  28  45  72  99 134 159 199 243 298
#     4   9  18  30  47  71 104 128 164 204 250 292
#     4  10  17  27  45  71 105 129 163 198 242 300
#
# _framework density 24.782841999999999
#
# number of rings (size 3 to 8) (size 9 to 14) (size 15 to 20)
#    0.000    2.500    2.500    2.625    0.000    0.000 
#    0.000    0.000    0.000   32.250    0.000    0.000 
#    0.000    0.000    0.000    0.000    0.000    0.000 
#
# Total GULP energy -178240.739963 kJ/mol
# GULP energy per Si atom -5570.023124 kJ/mol
# Density = 2.472644 g / cm^3
# Si number density = 24.782842 Si / 1000 Ang^3
#
#
#
# Elastic Constant Matrix: (Units=GPa)
#
#
# Indices 1 2 3 4 5 6 
#
# 1 115.8232 36.8710 16.8931 0.0000 -26.6873 0.0000
# 2 36.8710 201.6181 47.7914 0.0000 -2.0621 0.0000
# 3 16.8931 47.7914 88.2785 0.0000 -11.6723 0.0000
# 4 0.0000 0.0000 0.0000 36.2325 0.0000 -9.4592
# 5 -26.6873 -2.0621 -11.6723 0.0000 22.0469 0.0000
# 6 0.0000 0.0000 0.0000 -9.4592 0.0000 45.7772
#
#
#
# Elastic Compliance Matrix: (Units=1/GPa)
#
#
# Indices 1 2 3 4 5 6 
#
# 1 0.012941 -0.002428 0.000945 0.000000 0.015939 0.000000
# 2 -0.002428 0.006174 -0.003430 0.000000 -0.004177 0.000000
# 3 0.000945 -0.003430 0.014100 0.000000 0.008288 0.000000
# 4 0.000000 0.000000 0.000000 0.029173 0.000000 0.006028
# 5 0.015939 -0.004177 0.008288 0.000000 0.068648 0.000000
# 6 0.000000 0.000000 0.000000 0.006028 0.000000 0.023091
#
#
# Mechanical properties :
#
#
# Convention : Reuss Voigt Hill
#
# Bulk Modulus (GPa) = 42.75366 67.64787 55.20076
# Shear Modulus (GPa) = 29.11212 41.08895 35.10054
#
# Velocity S-wave (km/s) = 3.43109 4.07622 3.76749
# Velocity P-wave (km/s) = 5.74328 7.03631 6.42242
#
# Compressibility (1/GPa) = 0.02338981
#
# Stress axis : x y z
#
# Youngs Moduli (GPa) = 77.27218 161.96365 70.92278
#
# Poissons Ratio (x) = 0.39320 -0.06704
# Poissons Ratio (y) = 0.18759 0.24329
# Poissons Ratio (z) = -0.07304 0.55558
#
# Static dielectric constant tensor:
#      x y z
#    x 2.127300 0.000000 0.098170 
#    y 0.000000 2.034020 0.000000 
#    z 0.098170 0.000000 2.052390 
# 
# From -- ./inp_files/52344.got.cif
#   From: 2010.05.17/outbox.cif.g08.bks.cpg/sg14_27_cif.got.tgz:52344.got - 2010.06.03 17:49:19.
