data_PCOD9239987
_publ_section_title
;
Structure prediction by ZEFSAII (Michael W. Deem and Ramdas Pophale) SiO2 
 PCOD9239987
Probable space group: P 21/C
;
_chemical_formula_sum "Si O2"
_cell_formula_units_Z 32
_cell_length_a 5.100828
_cell_length_b 20.447952
_cell_length_c 10.580004
_cell_angle_alpha 90.000000
_cell_angle_beta 80.415545
_cell_angle_gamma 90.000000
_cell_volume 1088.106515
_symmetry_space_group_name_H-M "P 21/C"
_symmetry_group_IT_number 14
_symmetry_cell_setting 'monoclinic'
loop_
_space_group_symop_operation_xyz
x,y,z
-x,1/2+y,1/2-z
-x,-y,-z
x,1/2-y,1/2+z
loop_
_atom_site_type_symbol
_atom_site_label
_atom_site_fract_x
_atom_site_fract_y
_atom_site_fract_z
Si Si1 0.191284 0.103159 0.336952
Si Si2 0.441590 0.209530 0.983899
Si Si3 0.047040 0.717293 0.277827
Si Si4 0.692290 0.474081 0.099305
Si Si5 0.858602 0.842790 0.212912
Si Si6 0.662651 0.525611 0.617751
Si Si7 0.558686 0.152117 0.528516
Si Si8 0.635968 0.108591 0.111132
O O1 0.009824 0.165460 0.329944
O O2 0.422406 0.124313 0.413962
O O3 0.350038 0.094073 0.193513
O O4 0.097359 0.031088 0.385794
O O5 0.202659 0.215206 0.105307
O O6 0.616554 0.272671 0.997997
O O7 0.583008 0.138232 0.977691
O O8 0.297525 0.209527 0.861910
O O9 0.095321 0.793318 0.239351
O O10 0.268597 0.675736 0.332507
O O11 0.532014 0.468982 0.245389
O O12 0.772787 0.399785 0.061775
O O13 0.500000 0.500000 0.000000
O O14 0.855054 0.910708 0.130131
O O15 0.677867 0.853887 0.349472
O O16 0.500000 0.500000 0.500000
O O17 0.811792 0.454981 0.623340
#
# Coordination Sequence:
#
# PCOD9239987 Si02
#       8
#     4   4   4   4   4   4   4   4
#     4   9  17  35  60  80 112 150 193 232 292 348
#     4  10  19  36  57  81 114 156 191 237 294 347
#     4  10  21  37  57  84 113 157 191 238 293 354
#     4   8  16  30  55  85 111 152 196 233 284 359
#     4  10  19  35  60  84 118 153 195 242 299 352
#     4  10  18  33  61  90 117 156 196 245 304 355
#     4   9  17  32  57  84 109 152 193 234 288 347
#     4  10  21  37  58  85 118 151 194 236 295 355
#
# _framework density 29.408888000000001
#
# number of rings (size 3 to 8) (size 9 to 14) (size 15 to 20)
#    0.000    2.500    2.500    0.000    0.000    0.000 
#    2.250    1.875    0.000   25.500    0.000    0.000 
#    0.000    0.000    0.000    0.000    0.000    0.000 
#
# Total GULP energy -178626.787498 kJ/mol
# GULP energy per Si atom -5582.087109 kJ/mol
# Density = 2.934195 g / cm^3
# Si number density = 29.408888 Si / 1000 Ang^3
#
#
#
# Elastic Constant Matrix: (Units=GPa)
#
#
# Indices 1 2 3 4 5 6 
#
# 1 69.0867 23.0823 10.4457 0.0000 -5.3598 0.0000
# 2 23.0823 126.3109 12.7728 0.0000 4.9144 0.0000
# 3 10.4457 12.7728 120.6630 0.0000 -7.7340 0.0000
# 4 0.0000 0.0000 0.0000 45.4904 0.0000 -12.1783
# 5 -5.3598 4.9144 -7.7340 0.0000 37.1899 0.0000
# 6 0.0000 0.0000 0.0000 -12.1783 0.0000 37.3282
#
#
#
# Elastic Compliance Matrix: (Units=1/GPa)
#
#
# Indices 1 2 3 4 5 6 
#
# 1 0.015766 -0.002886 -0.000901 0.000000 0.002466 0.000000
# 2 -0.002886 0.008589 -0.000769 0.000000 -0.001711 0.000000
# 3 -0.000901 -0.000769 0.008559 0.000000 0.001752 0.000000
# 4 0.000000 0.000000 0.000000 0.024086 0.000000 0.007858
# 5 0.002466 -0.001711 0.001752 0.000000 0.027835 0.000000
# 6 0.000000 0.000000 0.000000 0.007858 0.000000 0.029353
#
#
# Mechanical properties :
#
#
# Convention : Reuss Voigt Hill
#
# Bulk Modulus (GPa) = 42.01368 45.40690 43.71029
# Shear Modulus (GPa) = 38.09956 41.98569 40.04263
#
# Velocity S-wave (km/s) = 3.60323 3.78253 3.69397
# Velocity P-wave (km/s) = 5.62388 5.87793 5.75231
#
# Compressibility (1/GPa) = 0.02380177
#
# Stress axis : x y z
#
# Youngs Moduli (GPa) = 63.42600 116.43225 116.83271
#
# Poissons Ratio (x) = 0.33602 0.10530
# Poissons Ratio (y) = 0.18305 0.08984
# Poissons Ratio (z) = 0.05717 0.08953
#
# Static dielectric constant tensor:
#      x y z
#    x 2.316820 0.000000 0.048540 
#    y 0.000000 2.494150 0.000000 
#    z 0.048540 0.000000 2.458920 
# 
# From -- ./inp_files/21800.got.cif
#   From: 2010.05.17/outbox.cif.g08.bks.cpg/sg14_11_cif.got.tgz:21800.got - 2010.06.03 17:49:19.
