data_PCOD9239489
_publ_section_title
;
Structure prediction by ZEFSAII (Michael W. Deem and Ramdas Pophale) SiO2 
 PCOD9239489
Probable space group: P 21/C
;
_chemical_formula_sum "Si O2"
_cell_formula_units_Z 32
_cell_length_a 12.127994
_cell_length_b 7.189618
_cell_length_c 20.645193
_cell_angle_alpha 90.000000
_cell_angle_beta 51.605768
_cell_angle_gamma 90.000000
_cell_volume 1410.894715
_symmetry_space_group_name_H-M "P 21/C"
_symmetry_group_IT_number 14
_symmetry_cell_setting 'monoclinic'
loop_
_space_group_symop_operation_xyz
x,y,z
-x,1/2+y,1/2-z
-x,-y,-z
x,1/2-y,1/2+z
loop_
_atom_site_type_symbol
_atom_site_label
_atom_site_fract_x
_atom_site_fract_y
_atom_site_fract_z
Si Si1 0.366298 0.248609 0.837845
Si Si2 0.730082 0.801711 0.755961
Si Si3 0.686560 0.179468 0.415193
Si Si4 0.606460 0.826474 0.033337
Si Si5 0.416073 0.760928 0.414454
Si Si6 0.863431 0.067007 0.231850
Si Si7 0.317815 0.819350 0.815730
Si Si8 0.820101 0.557944 0.354077
O O1 0.297209 0.373151 0.806673
O O2 0.332189 0.270904 0.925174
O O3 0.533780 0.270298 0.771405
O O4 0.327673 0.038302 0.831506
O O5 0.577574 0.714026 0.832303
O O6 0.849051 0.644218 0.712289
O O7 0.775154 0.940318 0.795662
O O8 0.545403 0.255048 0.432443
O O9 0.632706 0.119235 0.505914
O O10 0.768611 0.063689 0.331391
O O11 0.793872 0.349788 0.388337
O O12 0.587770 0.044970 0.060020
O O13 0.711487 0.818627 0.934687
O O14 0.320021 0.778669 0.385400
O O15 0.800232 0.191078 0.196549
O O16 0.021229 0.118608 0.192419
#
# Coordination Sequence:
#
# PCOD9239489 Si02
#       8
#     4   4   4   4   4   4   4   4
#     4   9  18  31  55  78 101 129 175 224 254 300
#     4  10  19  35  51  80 109 132 172 222 267 295
#     4  11  19  35  57  79  98 141 186 208 254 311
#     4  10  17  34  58  81  94 138 191 211 244 307
#     4   9  17  33  57  77 100 131 178 227 247 299
#     4  11  23  33  51  81 114 137 166 216 275 315
#     4   9  18  33  50  79 106 131 172 216 269 298
#     4  11  21  37  53  75 111 144 172 212 260 316
#
# _framework density 22.680641999999999
#
# number of rings (size 3 to 8) (size 9 to 14) (size 15 to 20)
#    0.000    2.000    3.750    1.500    0.000    0.500 
#    0.000   11.250    0.000    0.000    0.000    4.375 
#    0.000    0.000    0.000    0.000    0.000    0.000 
#
# Total GULP energy -178739.556842 kJ/mol
# GULP energy per Si atom -5585.611151 kJ/mol
# Density = 2.262902 g / cm^3
# Si number density = 22.680642 Si / 1000 Ang^3
#
#
#
# Elastic Constant Matrix: (Units=GPa)
#
#
# Indices 1 2 3 4 5 6 
#
# 1 153.3724 23.6784 65.9011 0.0000 14.0896 0.0000
# 2 23.6784 22.7650 18.1555 0.0000 5.9530 0.0000
# 3 65.9011 18.1555 72.5885 0.0000 17.2075 0.0000
# 4 0.0000 0.0000 0.0000 25.5901 0.0000 8.2176
# 5 14.0896 5.9530 17.2075 0.0000 44.2723 0.0000
# 6 0.0000 0.0000 0.0000 8.2176 0.0000 29.2402
#
#
#
# Elastic Compliance Matrix: (Units=1/GPa)
#
#
# Indices 1 2 3 4 5 6 
#
# 1 0.011040 -0.004413 -0.009061 0.000000 0.000602 0.000000
# 2 -0.004413 0.056841 -0.009617 0.000000 -0.002501 0.000000
# 3 -0.009061 -0.009617 0.025795 0.000000 -0.005849 0.000000
# 4 0.000000 0.000000 0.000000 0.042954 0.000000 -0.012072
# 5 0.000602 -0.002501 -0.005849 0.000000 0.025005 0.000000
# 6 0.000000 0.000000 0.000000 -0.012072 0.000000 0.037592
#
#
# Mechanical properties :
#
#
# Convention : Reuss Voigt Hill
#
# Bulk Modulus (GPa) = 21.05640 51.57732 36.31686
# Shear Modulus (GPa) = 19.13931 29.21991 24.17961
#
# Velocity S-wave (km/s) = 2.90808 3.59321 3.26865
# Velocity P-wave (km/s) = 4.53651 6.32495 5.50386
#
# Compressibility (1/GPa) = 0.04749150
#
# Stress axis : x y z
#
# Youngs Moduli (GPa) = 90.58248 17.59283 38.76735
#
# Poissons Ratio (x) = 0.07764 0.35129
# Poissons Ratio (y) = 0.39977 0.37284
# Poissons Ratio (z) = 0.82081 0.16920
#
# Static dielectric constant tensor:
#      x y z
#    x 1.828790 0.000000 0.070300 
#    y 0.000000 1.983830 0.000000 
#    z 0.070300 0.000000 1.838910 
# 
# From -- ./inp_files/67011.got.cif
#   From: 2010.05.17/outbox.cif.g08.bks.cpg/sg14_34_cif.got.tgz:67011.got - 2010.06.03 17:49:19.
