data_PCOD9239092
_publ_section_title
;
Structure prediction by ZEFSAII (Michael W. Deem and Ramdas Pophale) SiO2 
 PCOD9239092
Probable space group: P 21/C
;
_chemical_formula_sum "Si O2"
_cell_formula_units_Z 28
_cell_length_a 6.614771
_cell_length_b 20.011540
_cell_length_c 13.802031
_cell_angle_alpha 90.000000
_cell_angle_beta 37.644145
_cell_angle_gamma 90.000000
_cell_volume 1115.849582
_symmetry_space_group_name_H-M "P 21/C"
_symmetry_group_IT_number 14
_symmetry_cell_setting 'monoclinic'
loop_
_space_group_symop_operation_xyz
x,y,z
-x,1/2+y,1/2-z
-x,-y,-z
x,1/2-y,1/2+z
loop_
_atom_site_type_symbol
_atom_site_label
_atom_site_fract_x
_atom_site_fract_y
_atom_site_fract_z
Si Si1 0.809802 0.493722 0.307790
Si Si2 0.066610 0.620747 0.293000
Si Si3 0.668871 0.800602 0.633800
Si Si4 0.640460 0.174649 0.672502
Si Si5 0.014704 0.846227 0.243806
Si Si6 0.398236 0.235019 0.048685
Si Si7 0.279163 0.441897 0.391686
O O1 0.500000 0.500000 0.500000
O O2 0.988441 0.425214 0.266349
O O3 0.620481 0.482317 0.279214
O O4 0.040054 0.557330 0.233428
O O5 0.421478 0.639862 0.199927
O O6 0.900191 0.685656 0.308483
O O7 0.833544 0.601994 0.472705
O O8 0.504247 0.750088 0.772109
O O9 0.673450 0.753405 0.536630
O O10 0.033667 0.826283 0.517893
O O11 0.819013 0.163587 0.712002
O O12 0.368419 0.115308 0.779256
O O13 0.667477 0.807128 0.378466
O O14 0.266142 0.807665 0.075988
O O15 0.000000 0.500000 0.500000
#
# Coordination Sequence:
#
# PCOD9239092 Si02
#       7
#     4   4   4   4   4   4   4
#     4   9  17  29  47  73 103 125 162 200 248 301
#     4  11  17  29  50  79  95 130 159 208 252 290
#     4  10  15  26  49  78  98 116 170 214 238 282
#     4   9  15  27  45  75  95 122 162 211 238 282
#     4   9  15  25  41  68  96 116 156 203 235 278
#     4  10  14  24  45  71  93 119 164 202 237 273
#     4  10  19  33  48  70  97 134 168 200 250 304
#
# _framework density 25.092986
#
# number of rings (size 3 to 8) (size 9 to 14) (size 15 to 20)
#    0.000    2.286   10.000    0.000    0.000    0.000 
#    0.000    7.143    0.000    0.000   22.286    0.000 
#    0.000    0.000    0.000    0.000    0.000    0.000 
#
# Total GULP energy -156275.414737 kJ/mol
# GULP energy per Si atom -5581.264812 kJ/mol
# Density = 2.503587 g / cm^3
# Si number density = 25.092986 Si / 1000 Ang^3
#
#
#
# Elastic Constant Matrix: (Units=GPa)
#
#
# Indices 1 2 3 4 5 6 
#
# 1 49.8030 36.2850 22.6216 0.0000 -24.2593 0.0000
# 2 36.2850 141.4488 25.0044 0.0000 -26.2770 0.0000
# 3 22.6216 25.0044 71.7785 0.0000 -34.7187 0.0000
# 4 0.0000 0.0000 0.0000 44.6260 0.0000 -13.1072
# 5 -24.2593 -26.2770 -34.7187 0.0000 42.9583 0.0000
# 6 0.0000 0.0000 0.0000 -13.1072 0.0000 33.2201
#
#
#
# Elastic Compliance Matrix: (Units=1/GPa)
#
#
# Indices 1 2 3 4 5 6 
#
# 1 0.030954 -0.005244 -0.001683 0.000000 0.012912 0.000000
# 2 -0.005244 0.008885 -0.000404 0.000000 0.002147 0.000000
# 3 -0.001683 -0.000404 0.023024 0.000000 0.017411 0.000000
# 4 0.000000 0.000000 0.000000 0.025346 0.000000 0.010000
# 5 0.012912 0.002147 0.017411 0.000000 0.045955 0.000000
# 6 0.000000 0.000000 0.000000 0.010000 0.000000 0.034048
#
#
# Mechanical properties :
#
#
# Convention : Reuss Voigt Hill
#
# Bulk Modulus (GPa) = 20.74645 47.87249 34.30947
# Shear Modulus (GPa) = 25.13308 36.10216 30.61762
#
# Velocity S-wave (km/s) = 3.16824 3.79718 3.49688
# Velocity P-wave (km/s) = 4.65504 6.19227 5.47785
#
# Compressibility (1/GPa) = 0.04820101
#
# Stress axis : x y z
#
# Youngs Moduli (GPa) = 32.30603 112.54647 43.43249
#
# Poissons Ratio (x) = 0.59022 0.07310
# Poissons Ratio (y) = 0.16942 0.01755
# Poissons Ratio (z) = 0.05437 0.04547
#
# Static dielectric constant tensor:
#      x y z
#    x 2.271770 0.000000 -0.000470 
#    y 0.000000 1.985320 0.000000 
#    z -0.000470 0.000000 2.008740 
# 
# From -- ./inp_files/65998.got.cif
#   From: 2010.05.17/outbox.cif.g08.bks.cpg/sg14_33_cif.got.tgz:65998.got - 2010.06.03 17:49:19.
