data_PCOD9239470
_publ_section_title
;
Structure prediction by ZEFSAII (Michael W. Deem and Ramdas Pophale) SiO2 
 PCOD9239470
Probable space group: P 21/C
;
_chemical_formula_sum "Si O2"
_cell_formula_units_Z 32
_cell_length_a 28.378249
_cell_length_b 11.851201
_cell_length_c 14.617304
_cell_angle_alpha 90.000000
_cell_angle_beta 20.858043
_cell_angle_gamma 90.000000
_cell_volume 1750.374025
_symmetry_space_group_name_H-M "P 21/C"
_symmetry_group_IT_number 14
_symmetry_cell_setting 'monoclinic'
loop_
_space_group_symop_operation_xyz
x,y,z
-x,1/2+y,1/2-z
-x,-y,-z
x,1/2-y,1/2+z
loop_
_atom_site_type_symbol
_atom_site_label
_atom_site_fract_x
_atom_site_fract_y
_atom_site_fract_z
Si Si1 0.617130 0.680974 0.273641
Si Si2 0.289001 0.257776 0.095456
Si Si3 0.348902 0.641485 0.042634
Si Si4 0.372984 0.484943 0.456440
Si Si5 0.828683 0.497250 0.905474
Si Si6 0.351223 0.648375 0.665629
Si Si7 0.127817 0.474648 0.390710
Si Si8 0.473866 0.809087 0.693330
O O1 0.488861 0.618939 0.465120
O O2 0.555559 0.768302 0.457539
O O3 0.681189 0.733809 0.066759
O O4 0.725228 0.596468 0.119856
O O5 0.171544 0.345220 0.330925
O O6 0.416464 0.303001 0.922703
O O7 0.277808 0.123613 0.130568
O O8 0.481623 0.568307 0.795993
O O9 0.362940 0.719483 0.926785
O O10 0.352209 0.725374 0.123543
O O11 0.224002 0.560113 0.268552
O O12 0.336038 0.566867 0.606259
O O13 0.399902 0.570889 0.323421
O O14 0.842667 0.506177 0.770802
O O15 0.974596 0.502758 0.683006
O O16 0.763684 0.380806 0.055604
#
# Coordination Sequence:
#
# PCOD9239470 Si02
#       8
#     4   4   4   4   4   4   4   4
#     4  11  19  34  57  87 111 136 190 240 275 344
#     4  10  19  34  52  79 115 145 182 232 275 338
#     4  10  18  34  53  79 113 143 175 235 279 332
#     4  10  17  34  53  78 116 145 179 226 294 326
#     4  10  21  34  56  83 104 149 195 233 282 326
#     4  11  20  35  55  86 111 139 191 233 281 332
#     4  10  20  38  55  76 113 150 191 236 278 331
#     4  10  19  31  57  83 110 148 178 232 299 322
#
# _framework density 18.281806
#
# number of rings (size 3 to 8) (size 9 to 14) (size 15 to 20)
#    0.000    1.750    5.000    3.375    0.000    0.500 
#    4.500    0.000    0.000    0.000    0.000    6.125 
#    0.000    0.000    0.000    0.000    0.000    0.000 
#
# Total GULP energy -178210.126743 kJ/mol
# GULP energy per Si atom -5569.066461 kJ/mol
# Density = 1.824020 g / cm^3
# Si number density = 18.281806 Si / 1000 Ang^3
#
#
#
# Elastic Constant Matrix: (Units=GPa)
#
#
# Indices 1 2 3 4 5 6 
#
# 1 41.8952 20.5817 14.8554 0.0000 2.4083 0.0000
# 2 20.5817 99.5467 25.6990 0.0000 -6.3691 0.0000
# 3 14.8554 25.6990 63.1030 0.0000 -15.5247 0.0000
# 4 0.0000 0.0000 0.0000 16.3726 0.0000 6.4693
# 5 2.4083 -6.3691 -15.5247 0.0000 17.4298 0.0000
# 6 0.0000 0.0000 0.0000 6.4693 0.0000 22.3364
#
#
#
# Elastic Compliance Matrix: (Units=1/GPa)
#
#
# Indices 1 2 3 4 5 6 
#
# 1 0.030012 -0.004903 -0.008362 0.000000 -0.013386 0.000000
# 2 -0.004903 0.012027 -0.003196 0.000000 0.002225 0.000000
# 3 -0.008362 -0.003196 0.024478 0.000000 0.021790 0.000000
# 4 0.000000 0.000000 0.000000 0.068971 0.000000 -0.019976
# 5 -0.013386 0.002225 0.021790 0.000000 0.079444 0.000000
# 6 0.000000 0.000000 0.000000 -0.019976 0.000000 0.050556
#
#
# Mechanical properties :
#
#
# Convention : Reuss Voigt Hill
#
# Bulk Modulus (GPa) = 29.76642 36.31302 33.03972
# Shear Modulus (GPa) = 16.14945 20.78835 18.46890
#
# Velocity S-wave (km/s) = 2.97536 3.37576 3.18187
# Velocity P-wave (km/s) = 5.30293 5.92456 5.62234
#
# Compressibility (1/GPa) = 0.03359490
#
# Stress axis : x y z
#
# Youngs Moduli (GPa) = 33.31973 83.14794 40.85271
#
# Poissons Ratio (x) = 0.40767 0.34161
# Poissons Ratio (y) = 0.16336 0.13058
# Poissons Ratio (z) = 0.27862 0.26576
#
# Static dielectric constant tensor:
#      x y z
#    x 1.661490 0.000000 0.016930 
#    y 0.000000 1.696050 0.000000 
#    z 0.016930 0.000000 1.632420 
# 
# From -- ./inp_files/52309.got.cif
#   From: 2010.05.17/outbox.cif.g08.bks.cpg/sg14_27_cif.got.tgz:52309.got - 2010.06.03 17:49:19.
