data_PCOD9239079
_publ_section_title
;
Structure prediction by ZEFSAII (Michael W. Deem and Ramdas Pophale) SiO2 
 PCOD9239079
Probable space group: P 2/C
;
_chemical_formula_sum "Si O2"
_cell_formula_units_Z 14
_cell_length_a 6.000000
_cell_length_b 9.000000
_cell_length_c 15.000000
_cell_angle_alpha 90.000000
_cell_angle_beta 130.000000
_cell_angle_gamma 90.000000
_cell_volume 620.495999
_symmetry_space_group_name_H-M "P 2/C"
_symmetry_group_IT_number 13
_symmetry_cell_setting 'monoclinic'
loop_
_space_group_symop_operation_xyz
x,y,z
-x,y,1/2-z
-x,-y,-z
x,-y,1/2+z
loop_
_atom_site_type_symbol
_atom_site_label
_atom_site_fract_x
_atom_site_fract_y
_atom_site_fract_z
Si Si1 0.677649 0.175744 0.631106
Si Si2 0.352343 0.530672 0.061126
Si Si3 0.500000 0.675126 0.750000
Si Si4 0.712401 0.095230 0.434260
O O1 0.438458 0.297727 0.597986
O O2 0.696227 0.169924 0.527879
O O3 0.000000 0.209402 0.750000
O O4 0.563701 0.016622 0.637732
O O5 0.551041 0.434330 0.180349
O O6 0.500000 0.500000 0.000000
O O7 0.000000 0.500000 0.000000
O O8 0.282154 0.789219 0.645803
O O9 0.000000 0.000000 0.500000
#
# Coordination Sequence:
#
# PCOD9239079 Si02
#       4
#     4   4   2   4
#     4  11  26  47  77 114 161 212 270 344 408 488
#     4  12  29  52  76 117 163 211 270 331 409 492
#     4  12  26  46  84 112 162 214 272 330 420 474
#     4  11  24  49  77 115 160 209 274 334 413 494
#
# _framework density 22.562595000000002
#
# number of rings (size 3 to 8) (size 9 to 14) (size 15 to 20)
#    0.000    0.571    2.857    3.429    4.000    3.429 
#   10.286    0.000    0.000    0.000    0.000    0.000 
#    0.000    0.000    0.000    0.000    0.000    0.000 
#
# Total GULP energy -78084.755439 kJ/mol
# GULP energy per Si atom -5577.482531 kJ/mol
# Density = 2.251124 g / cm^3
# Si number density = 22.562595 Si / 1000 Ang^3
#
#
#
# Elastic Constant Matrix: (Units=GPa)
#
#
# Indices 1 2 3 4 5 6 
#
# 1 133.3778 38.3362 53.1606 0.0000 3.4564 0.0000
# 2 38.3362 131.3409 71.5114 0.0000 -6.9793 0.0000
# 3 53.1606 71.5114 120.3724 0.0000 -13.7932 0.0000
# 4 0.0000 0.0000 0.0000 63.6291 0.0000 -5.9177
# 5 3.4564 -6.9793 -13.7932 0.0000 51.9200 0.0000
# 6 0.0000 0.0000 0.0000 -5.9177 0.0000 50.7510
#
#
#
# Elastic Compliance Matrix: (Units=1/GPa)
#
#
# Indices 1 2 3 4 5 6 
#
# 1 0.009293 -0.000682 -0.003899 0.000000 -0.001746 0.000000
# 2 -0.000682 0.011308 -0.006433 0.000000 -0.000143 0.000000
# 3 -0.003899 -0.006433 0.014214 0.000000 0.003171 0.000000
# 4 0.000000 0.000000 0.000000 0.015888 0.000000 0.001853
# 5 -0.001746 -0.000143 0.003171 0.000000 0.020200 0.000000
# 6 0.000000 0.000000 0.000000 0.001853 0.000000 0.019920
#
#
# Mechanical properties :
#
#
# Convention : Reuss Voigt Hill
#
# Bulk Modulus (GPa) = 78.20429 79.01195 78.60812
# Shear Modulus (GPa) = 42.69360 48.06555 45.37958
#
# Velocity S-wave (km/s) = 4.35470 4.62055 4.48959
# Velocity P-wave (km/s) = 7.74731 7.97251 7.86072
#
# Compressibility (1/GPa) = 0.01278702
#
# Stress axis : x y z
#
# Youngs Moduli (GPa) = 107.61012 88.43403 70.35146
#
# Poissons Ratio (x) = 0.06036 0.27428
# Poissons Ratio (y) = 0.07344 0.45256
# Poissons Ratio (z) = 0.41953 0.56888
#
# Static dielectric constant tensor:
#      x y z
#    x 1.826920 0.000000 0.000240 
#    y 0.000000 1.943900 0.000000 
#    z 0.000240 0.000000 1.855080 
# 
# From -- ./inp_files/25306.got.cif
#   From: 2010.05.17/outbox.ucp.g08.bks.cvg/sg13_13_cif.got.tgz:25306.got - 2010.06.11 12:23:55.
