data_PCOD9239311
_publ_section_title
;
Structure prediction by ZEFSAII (Michael W. Deem and Ramdas Pophale) SiO2 
 PCOD9239311
Probable space group: P 21/C
;
_chemical_formula_sum "Si O2"
_cell_formula_units_Z 28
_cell_length_a 12.234395
_cell_length_b 18.369370
_cell_length_c 5.565481
_cell_angle_alpha 90.000000
_cell_angle_beta 115.354047
_cell_angle_gamma 90.000000
_cell_volume 1130.299837
_symmetry_space_group_name_H-M "P 21/C"
_symmetry_group_IT_number 14
_symmetry_cell_setting 'monoclinic'
loop_
_space_group_symop_operation_xyz
x,y,z
-x,1/2+y,1/2-z
-x,-y,-z
x,1/2-y,1/2+z
loop_
_atom_site_type_symbol
_atom_site_label
_atom_site_fract_x
_atom_site_fract_y
_atom_site_fract_z
Si Si1 0.826789 0.750487 0.214137
Si Si2 0.198692 0.709647 0.431394
Si Si3 0.910678 0.914075 0.261211
Si Si4 0.601607 0.070880 0.354580
Si Si5 0.540829 0.236982 0.334466
Si Si6 0.997870 0.607100 0.344546
Si Si7 0.665712 0.998542 0.914095
O O1 0.758414 0.750076 0.899762
O O2 0.899182 0.826377 0.276269
O O3 0.914800 0.680366 0.289639
O O4 0.164022 0.754228 0.642367
O O5 0.343584 0.708795 0.563763
O O6 0.130629 0.633867 0.396224
O O7 0.947972 0.936208 0.566579
O O8 0.994676 0.926140 0.107456
O O9 0.781928 0.947529 0.062839
O O10 0.598764 0.157139 0.381065
O O11 0.665219 0.036995 0.651256
O O12 0.460708 0.046283 0.215051
O O13 0.655813 0.045957 0.149889
O O14 0.476207 0.249332 0.524012
#
# Coordination Sequence:
#
# PCOD9239311 Si02
#       7
#     4   4   4   4   4   4   4
#     4   8  14  23  37  60  95 131 163 206 259 309
#     4  10  18  30  51  81 107 141 186 227 291 348
#     4  10  18  29  47  77 109 142 188 224 272 346
#     4  10  21  40  60  83 116 150 199 245 280 348
#     4  10  21  37  60  90 113 143 191 246 299 335
#     4  10  17  28  47  76 112 143 178 230 282 340
#     4  10  21  37  60  83 112 162 197 228 289 342
#
# _framework density 24.772186999999999
#
# number of rings (size 3 to 8) (size 9 to 14) (size 15 to 20)
#    0.000    2.286    0.000    5.143    0.000    0.000 
#    0.000    4.286    0.000    0.000    0.000  106.000 
#    0.000    0.000    0.000    0.000    0.000    0.000 
#
# Total GULP energy -156438.047476 kJ/mol
# GULP energy per Si atom -5587.073124 kJ/mol
# Density = 2.471580 g / cm^3
# Si number density = 24.772187 Si / 1000 Ang^3
#
#
#
# Elastic Constant Matrix: (Units=GPa)
#
#
# Indices 1 2 3 4 5 6 
#
# 1 90.3449 23.2681 72.3454 0.0000 -27.8292 0.0000
# 2 23.2681 73.7377 49.5480 0.0000 -10.1230 0.0000
# 3 72.3454 49.5480 231.7967 0.0000 -64.6262 0.0000
# 4 0.0000 0.0000 0.0000 53.6423 0.0000 5.3262
# 5 -27.8292 -10.1230 -64.6262 0.0000 57.5773 0.0000
# 6 0.0000 0.0000 0.0000 5.3262 0.0000 51.6810
#
#
#
# Elastic Compliance Matrix: (Units=1/GPa)
#
#
# Indices 1 2 3 4 5 6 
#
# 1 0.015355 -0.002083 -0.003464 0.000000 0.003167 0.000000
# 2 -0.002083 0.016206 -0.003348 0.000000 -0.001915 0.000000
# 3 -0.003464 -0.003348 0.007976 0.000000 0.006690 0.000000
# 4 0.000000 0.000000 0.000000 0.018835 0.000000 -0.001941
# 5 0.003167 -0.001915 0.006690 0.000000 0.026070 0.000000
# 6 0.000000 0.000000 0.000000 -0.001941 0.000000 0.019550
#
#
# Mechanical properties :
#
#
# Convention : Reuss Voigt Hill
#
# Bulk Modulus (GPa) = 45.98433 76.24471 61.11452
# Shear Modulus (GPa) = 38.75086 49.29464 44.02275
#
# Velocity S-wave (km/s) = 3.95940 4.46569 4.22014
# Velocity P-wave (km/s) = 6.28535 7.57859 6.96206
#
# Compressibility (1/GPa) = 0.02174654
#
# Stress axis : x y z
#
# Youngs Moduli (GPa) = 65.12708 61.70731 125.37551
#
# Poissons Ratio (x) = 0.12852 0.43431
# Poissons Ratio (y) = 0.13564 0.41976
# Poissons Ratio (z) = 0.22561 0.20660
#
# Static dielectric constant tensor:
#      x y z
#    x 1.917300 0.000000 -0.043340 
#    y 0.000000 1.974820 0.000000 
#    z -0.043340 0.000000 1.985820 
# 
# From -- ./inp_files/3824.got.cif
#   From: 2010.05.17/outbox.cif.g08.bks.cpg/sg14_2_cif.got.tgz:3824.got - 2010.06.03 17:49:19.
