data_PCOD9239764
_publ_section_title
;
Structure prediction by ZEFSAII (Michael W. Deem and Ramdas Pophale) SiO2 
 PCOD9239764
Probable space group: P 21/C
;
_chemical_formula_sum "Si O2"
_cell_formula_units_Z 32
_cell_length_a 10.274072
_cell_length_b 15.463637
_cell_length_c 9.381356
_cell_angle_alpha 90.000000
_cell_angle_beta 91.974201
_cell_angle_gamma 90.000000
_cell_volume 1489.573754
_symmetry_space_group_name_H-M "P 21/C"
_symmetry_group_IT_number 14
_symmetry_cell_setting 'monoclinic'
loop_
_space_group_symop_operation_xyz
x,y,z
-x,1/2+y,1/2-z
-x,-y,-z
x,1/2-y,1/2+z
loop_
_atom_site_type_symbol
_atom_site_label
_atom_site_fract_x
_atom_site_fract_y
_atom_site_fract_z
Si Si1 0.020112 0.623129 0.907762
Si Si2 0.142494 0.179505 0.840994
Si Si3 0.398735 0.286864 0.211561
Si Si4 0.835907 0.296841 0.608946
Si Si5 0.341097 0.754026 0.140215
Si Si6 0.197756 0.033923 0.405403
Si Si7 0.565162 0.641474 0.089827
Si Si8 0.905488 0.642879 0.334759
O O1 0.966871 0.623530 0.743812
O O2 0.073607 0.718113 0.944551
O O3 0.142680 0.560573 0.931169
O O4 0.897041 0.592817 0.997569
O O5 0.112450 0.275229 0.774224
O O6 0.284994 0.159899 0.782230
O O7 0.143954 0.167241 0.009615
O O8 0.542346 0.306322 0.278250
O O9 0.383977 0.187800 0.264027
O O10 0.393779 0.299948 0.043845
O O11 0.720654 0.306138 0.491928
O O12 0.769684 0.266827 0.751551
O O13 0.938965 0.371688 0.642104
O O14 0.411524 0.663397 0.094750
O O15 0.351143 0.054989 0.429710
O O16 0.160385 0.062312 0.244097
#
# Coordination Sequence:
#
# PCOD9239764 Si02
#       8
#     4   4   4   4   4   4   4   4
#     4  10  23  36  55  79 121 153 182 236 284 352
#     4  11  19  34  55  87 107 142 187 233 295 321
#     4  10  18  31  55  80 108 132 181 241 267 319
#     4  11  20  34  52  83 113 142 180 228 289 325
#     4  10  19  32  54  78 108 137 183 228 269 328
#     4  11  21  38  55  82 114 152 194 227 289 335
#     4  10  19  33  56  81 107 140 182 242 272 319
#     4  11  21  32  58  81 113 144 179 238 281 347
#
# _framework density 21.482655999999999
#
# number of rings (size 3 to 8) (size 9 to 14) (size 15 to 20)
#    0.750    0.750    3.750    4.500    0.000    0.500 
#    0.000    0.625    0.000    0.000    0.000    4.375 
#    0.000    0.000    0.000    0.000    0.000    0.000 
#
# Total GULP energy -178226.285406 kJ/mol
# GULP energy per Si atom -5569.571419 kJ/mol
# Density = 2.143376 g / cm^3
# Si number density = 21.482656 Si / 1000 Ang^3
#
#
#
# Elastic Constant Matrix: (Units=GPa)
#
#
# Indices 1 2 3 4 5 6 
#
# 1 80.3520 -8.6385 -14.3605 0.0000 2.4092 0.0000
# 2 -8.6385 9.9277 -6.0601 0.0000 2.8730 0.0000
# 3 -14.3605 -6.0601 76.9510 0.0000 -10.5428 0.0000
# 4 0.0000 0.0000 0.0000 9.9968 0.0000 -0.6191
# 5 2.4092 2.8730 -10.5428 0.0000 36.1733 0.0000
# 6 0.0000 0.0000 0.0000 -0.6191 0.0000 10.2482
#
#
#
# Elastic Compliance Matrix: (Units=1/GPa)
#
#
# Indices 1 2 3 4 5 6 
#
# 1 0.014841 0.015580 0.003845 0.000000 -0.001105 0.000000
# 2 0.015580 0.123535 0.011614 0.000000 -0.007464 0.000000
# 3 0.003845 0.011614 0.015068 0.000000 0.003213 0.000000
# 4 0.000000 0.000000 0.000000 0.100408 0.000000 0.006065
# 5 -0.001105 -0.007464 0.003213 0.000000 0.029248 0.000000
# 6 0.000000 0.000000 0.000000 0.006065 0.000000 0.097944
#
#
# Mechanical properties :
#
#
# Convention : Reuss Voigt Hill
#
# Bulk Modulus (GPa) = 4.63992 12.12361 8.38177
# Shear Modulus (GPa) = 12.79411 24.36965 18.58188
#
# Velocity S-wave (km/s) = 2.44305 3.37172 2.94423
# Velocity P-wave (km/s) = 3.18159 4.56220 3.93295
#
# Compressibility (1/GPa) = 0.21552095
#
# Stress axis : x y z
#
# Youngs Moduli (GPa) = 67.38277 8.09490 66.36729
#
# Poissons Ratio (x) = -0.12612 -0.25519
# Poissons Ratio (y) = -1.04985 -0.77076
# Poissons Ratio (z) = -0.25909 -0.09401
#
# Static dielectric constant tensor:
#      x y z
#    x 1.860970 0.000000 0.037620 
#    y 0.000000 1.797350 0.000000 
#    z 0.037620 0.000000 1.802770 
# 
# From -- ./inp_files/13748.got.cif
#   From: 2010.05.17/outbox.cif.g08.bks.cpg/sg14_7_cif.got.tgz:13748.got - 2010.06.03 17:49:19.
