data_PCOD9239126
_publ_section_title
;
Structure prediction by ZEFSAII (Michael W. Deem and Ramdas Pophale) SiO2 
 PCOD9239126
Probable space group: P 21/C
;
_chemical_formula_sum "Si O2"
_cell_formula_units_Z 28
_cell_length_a 13.281617
_cell_length_b 13.892637
_cell_length_c 7.613587
_cell_angle_alpha 90.000000
_cell_angle_beta 49.836383
_cell_angle_gamma 90.000000
_cell_volume 1073.582076
_symmetry_space_group_name_H-M "P 21/C"
_symmetry_group_IT_number 14
_symmetry_cell_setting 'monoclinic'
loop_
_space_group_symop_operation_xyz
x,y,z
-x,1/2+y,1/2-z
-x,-y,-z
x,1/2-y,1/2+z
loop_
_atom_site_type_symbol
_atom_site_label
_atom_site_fract_x
_atom_site_fract_y
_atom_site_fract_z
Si Si1 0.637450 0.636088 0.508097
Si Si2 0.985783 0.626757 0.595587
Si Si3 0.414430 0.358722 0.830405
Si Si4 0.438928 0.615282 0.010757
Si Si5 0.203567 0.016713 0.893531
Si Si6 0.314016 0.682234 0.614042
Si Si7 0.885784 0.195271 0.391488
O O1 0.632991 0.749643 0.566987
O O2 0.653141 0.620263 0.281918
O O3 0.495386 0.602889 0.750629
O O4 0.744739 0.578365 0.500819
O O5 0.077495 0.549612 0.589743
O O6 0.048156 0.633126 0.330674
O O7 0.005378 0.734118 0.645772
O O8 0.842396 0.585523 0.716827
O O9 0.437960 0.404665 0.997849
O O10 0.569295 0.377956 0.598230
O O11 0.306364 0.561234 0.205906
O O12 0.400810 0.727014 0.084131
O O13 0.216458 0.731738 0.585537
O O14 0.210627 0.639764 0.867877
#
# Coordination Sequence:
#
# PCOD9239126 Si02
#       7
#     4   4   4   4   4   4   4
#     4  11  23  37  65  93 126 165 210 255 314 375
#     4  10  23  39  67  86 120 168 210 263 315 368
#     4  11  20  36  63  95 122 166 214 250 304 385
#     4  11  20  39  63  91 125 166 208 255 318 377
#     4  11  23  41  59  91 132 163 200 267 332 360
#     4  10  15  30  60  88 109 145 212 254 275 361
#     4  10  17  34  62  89 106 158 218 250 291 373
#
# _framework density 26.080914
#
# number of rings (size 3 to 8) (size 9 to 14) (size 15 to 20)
#    0.000    1.429    7.143    1.286    0.000    1.714 
#    0.000    0.000    9.429    7.714    0.000    0.000 
#    0.000    0.000    0.000    0.000    0.000    0.000 
#
# Total GULP energy -156339.155007 kJ/mol
# GULP energy per Si atom -5583.541250 kJ/mol
# Density = 2.602155 g / cm^3
# Si number density = 26.080914 Si / 1000 Ang^3
#
#
#
# Elastic Constant Matrix: (Units=GPa)
#
#
# Indices 1 2 3 4 5 6 
#
# 1 115.1204 34.9843 7.6257 0.0000 1.4707 0.0000
# 2 34.9843 60.9516 12.6073 0.0000 -3.8881 0.0000
# 3 7.6257 12.6073 56.4999 0.0000 31.0711 0.0000
# 4 0.0000 0.0000 0.0000 19.3042 0.0000 -4.3239
# 5 1.4707 -3.8881 31.0711 0.0000 30.4067 0.0000
# 6 0.0000 0.0000 0.0000 -4.3239 0.0000 59.7064
#
#
#
# Elastic Compliance Matrix: (Units=1/GPa)
#
#
# Indices 1 2 3 4 5 6 
#
# 1 0.010642 -0.006700 0.001856 0.000000 -0.003268 0.000000
# 2 -0.006700 0.024483 -0.014744 0.000000 0.018521 0.000000
# 3 0.001856 -0.014744 0.049822 0.000000 -0.052886 0.000000
# 4 0.000000 0.000000 0.000000 0.052656 0.000000 0.003813
# 5 -0.003268 0.018521 -0.052886 0.000000 0.089456 0.000000
# 6 0.000000 0.000000 0.000000 0.003813 0.000000 0.017025
#
#
# Mechanical properties :
#
#
# Convention : Reuss Voigt Hill
#
# Bulk Modulus (GPa) = 21.84821 38.11184 29.98002
# Shear Modulus (GPa) = 16.74942 33.70710 25.22826
#
# Velocity S-wave (km/s) = 2.53694 3.59890 3.11353
# Velocity P-wave (km/s) = 4.12027 5.64926 4.94423
#
# Compressibility (1/GPa) = 0.04577035
#
# Stress axis : x y z
#
# Youngs Moduli (GPa) = 93.97149 40.84401 20.07128
#
# Poissons Ratio (x) = 0.27367 -0.03725
# Poissons Ratio (y) = 0.62963 0.29594
# Poissons Ratio (z) = -0.17442 0.60222
#
# Static dielectric constant tensor:
#      x y z
#    x 2.140920 0.000000 0.019060 
#    y 0.000000 2.205340 0.000000 
#    z 0.019060 0.000000 2.128680 
# 
# From -- ./inp_files/16048.got.cif
#   From: 2010.05.17/outbox.cif.g08.bks.cpg/sg14_9_cif.got.tgz:16048.got - 2010.06.03 17:49:19.
