data_PCOD9239921
_publ_section_title
;
Structure prediction by ZEFSAII (Michael W. Deem and Ramdas Pophale) SiO2 
 PCOD9239921
Probable space group: P 21/C
;
_chemical_formula_sum "Si O2"
_cell_formula_units_Z 28
_cell_length_a 11.210647
_cell_length_b 13.862242
_cell_length_c 8.511877
_cell_angle_alpha 90.000000
_cell_angle_beta 55.106749
_cell_angle_gamma 90.000000
_cell_volume 1084.974319
_symmetry_space_group_name_H-M "P 21/C"
_symmetry_group_IT_number 14
_symmetry_cell_setting 'monoclinic'
loop_
_space_group_symop_operation_xyz
x,y,z
-x,1/2+y,1/2-z
-x,-y,-z
x,1/2-y,1/2+z
loop_
_atom_site_type_symbol
_atom_site_label
_atom_site_fract_x
_atom_site_fract_y
_atom_site_fract_z
Si Si1 0.661144 0.615633 0.163447
Si Si2 0.442935 0.471821 0.219151
Si Si3 0.760317 0.368670 0.627529
Si Si4 0.933147 0.857730 0.958570
Si Si5 0.241072 0.259204 0.154913
Si Si6 0.905473 0.468222 0.923753
Si Si7 0.335688 0.816518 0.452934
O O1 0.637440 0.695603 0.048113
O O2 0.796083 0.556880 0.987162
O O3 0.533396 0.540279 0.269092
O O4 0.704611 0.665743 0.291798
O O5 0.283416 0.518870 0.359943
O O6 0.509490 0.366510 0.200941
O O7 0.500000 0.500000 0.000000
O O8 0.928963 0.347902 0.529173
O O9 0.690143 0.295534 0.557188
O O10 0.691466 0.337178 0.844702
O O11 0.992265 0.943600 0.801251
O O12 0.890626 0.776392 0.859053
O O13 0.803342 0.836786 0.179185
O O14 0.796367 0.377002 0.030768
O O15 0.000000 0.500000 0.000000
#
# Coordination Sequence:
#
# PCOD9239921 Si02
#       7
#     4   4   4   4   4   4   4
#     4  10  21  36  57  80 111 149 186 229 287 341
#     4   9  20  39  59  81 113 153 195 232 285 347
#     4  10  19  35  60  86 110 152 195 238 281 344
#     4  10  19  34  56  85 114 145 189 232 287 342
#     4  10  21  35  55  85 114 141 186 235 282 349
#     4  10  18  33  54  78 113 152 182 225 290 343
#     4   9  20  35  59  83 112 150 194 235 288 338
#
# _framework density 25.807064
#
# number of rings (size 3 to 8) (size 9 to 14) (size 15 to 20)
#    0.000    2.286    1.429    2.571    2.000    2.857 
#    0.000    0.714    0.000    0.000    0.000    0.000 
#    0.000    0.000    0.000    0.000    0.000    0.000 
#
# Total GULP energy -156349.497908 kJ/mol
# GULP energy per Si atom -5583.910640 kJ/mol
# Density = 2.574833 g / cm^3
# Si number density = 25.807064 Si / 1000 Ang^3
#
#
#
# Elastic Constant Matrix: (Units=GPa)
#
#
# Indices 1 2 3 4 5 6 
#
# 1 94.2847 -0.1130 6.6591 0.0000 -4.3064 0.0000
# 2 -0.1130 43.8152 -0.6537 0.0000 3.0541 0.0000
# 3 6.6591 -0.6537 42.0311 0.0000 -0.4718 0.0000
# 4 0.0000 0.0000 0.0000 31.8015 0.0000 -1.9965
# 5 -4.3064 3.0541 -0.4718 0.0000 20.3166 0.0000
# 6 0.0000 0.0000 0.0000 -1.9965 0.0000 44.7772
#
#
#
# Elastic Compliance Matrix: (Units=1/GPa)
#
#
# Indices 1 2 3 4 5 6 
#
# 1 0.010830 -0.000156 -0.001693 0.000000 0.002280 0.000000
# 2 -0.000156 0.023071 0.000344 0.000000 -0.003493 0.000000
# 3 -0.001693 0.000344 0.024067 0.000000 0.000148 0.000000
# 4 0.000000 0.000000 0.000000 0.031533 0.000000 0.001406
# 5 0.002280 -0.003493 0.000148 0.000000 0.050233 0.000000
# 6 0.000000 0.000000 0.000000 0.001406 0.000000 0.022395
#
#
# Mechanical properties :
#
#
# Convention : Reuss Voigt Hill
#
# Bulk Modulus (GPa) = 18.19531 21.32397 19.75964
# Shear Modulus (GPa) = 27.25417 30.99498 29.12458
#
# Velocity S-wave (km/s) = 3.25325 3.46934 3.36304
# Velocity P-wave (km/s) = 4.60189 4.93247 4.77004
#
# Compressibility (1/GPa) = 0.05495920
#
# Stress axis : x y z
#
# Youngs Moduli (GPa) = 92.33906 43.34377 41.55053
#
# Poissons Ratio (x) = 0.00677 0.07033
# Poissons Ratio (y) = 0.01443 -0.01431
# Poissons Ratio (z) = 0.15629 -0.01493
#
# Static dielectric constant tensor:
#      x y z
#    x 2.158030 0.000000 -0.039950 
#    y 0.000000 2.171910 0.000000 
#    z -0.039950 0.000000 1.983260 
# 
# From -- ./inp_files/12989.got.cif
#   From: 2010.05.17/outbox.cif.g08.bks.cpg/sg14_7_cif.got.tgz:12989.got - 2010.06.03 17:49:19.
