data_PCOD9239479
_publ_section_title
;
Structure prediction by ZEFSAII (Michael W. Deem and Ramdas Pophale) SiO2 
 PCOD9239479
Probable space group: P 21/C
;
_chemical_formula_sum "Si O2"
_cell_formula_units_Z 32
_cell_length_a 16.532445
_cell_length_b 14.330857
_cell_length_c 14.247547
_cell_angle_alpha 90.000000
_cell_angle_beta 149.258971
_cell_angle_gamma 90.000000
_cell_volume 1725.460219
_symmetry_space_group_name_H-M "P 21/C"
_symmetry_group_IT_number 14
_symmetry_cell_setting 'monoclinic'
loop_
_space_group_symop_operation_xyz
x,y,z
-x,1/2+y,1/2-z
-x,-y,-z
x,1/2-y,1/2+z
loop_
_atom_site_type_symbol
_atom_site_label
_atom_site_fract_x
_atom_site_fract_y
_atom_site_fract_z
Si Si1 0.407479 0.300388 0.302477
Si Si2 0.399352 0.989032 0.805258
Si Si3 0.407806 0.504594 0.680843
Si Si4 0.667767 0.290753 0.412326
Si Si5 0.150791 0.677152 0.756810
Si Si6 0.646967 0.993465 0.575775
Si Si7 0.796805 0.878605 0.881210
Si Si8 0.304216 0.797755 0.760738
O O1 0.342662 0.405721 0.227999
O O2 0.504128 0.273037 0.304961
O O3 0.278021 0.223913 0.195256
O O4 0.541185 0.297594 0.517609
O O5 0.278870 0.904715 0.703230
O O6 0.517897 0.961046 0.838893
O O7 0.500000 0.000000 0.000000
O O8 0.311381 0.597773 0.559097
O O9 0.301235 0.437829 0.638880
O O10 0.561697 0.536716 0.894994
O O11 0.799268 0.232501 0.599894
O O12 0.665209 0.261509 0.302037
O O13 0.276424 0.594287 0.864476
O O14 0.169802 0.749604 0.689506
O O15 0.979486 0.631217 0.588722
O O16 0.769094 0.927376 0.752321
O O17 0.500000 0.000000 0.500000
#
# Coordination Sequence:
#
# PCOD9239479 Si02
#       8
#     4   4   4   4   4   4   4   4
#     4   9  19  34  55  80 104 138 192 239 266 319
#     4   9  18  32  55  81 105 142 193 233 267 316
#     4  10  19  35  61  84 106 146 195 239 274 325
#     4  10  19  35  56  80 106 143 187 228 274 326
#     4  11  23  36  54  86 122 147 177 231 291 346
#     4  10  19  35  60  84 105 142 194 240 278 321
#     4  11  21  37  56  85 119 145 177 233 298 343
#     4  10  17  34  56  76 107 149 188 229 273 326
#
# _framework density 18.545776
#
# number of rings (size 3 to 8) (size 9 to 14) (size 15 to 20)
#    0.000    2.000    0.000    7.875    0.000    0.000 
#    0.000   10.625    0.000    0.000    0.000    0.000 
#    0.000    0.000    0.000    0.000    0.000    0.000 
#
# Total GULP energy -178418.341496 kJ/mol
# GULP energy per Si atom -5575.573172 kJ/mol
# Density = 1.850357 g / cm^3
# Si number density = 18.545776 Si / 1000 Ang^3
#
#
#
# Elastic Constant Matrix: (Units=GPa)
#
#
# Indices 1 2 3 4 5 6 
#
# 1 84.9919 22.4676 28.3301 0.0000 -23.1916 0.0000
# 2 22.4676 91.4633 22.3683 0.0000 15.1767 0.0000
# 3 28.3301 22.3683 53.4389 0.0000 3.9859 0.0000
# 4 0.0000 0.0000 0.0000 23.3311 0.0000 -7.3218
# 5 -23.1916 15.1767 3.9859 0.0000 20.9875 0.0000
# 6 0.0000 0.0000 0.0000 -7.3218 0.0000 23.8909
#
#
#
# Elastic Compliance Matrix: (Units=1/GPa)
#
#
# Indices 1 2 3 4 5 6 
#
# 1 0.034506 -0.012775 -0.016716 0.000000 0.050542 0.000000
# 2 -0.012775 0.018376 0.001141 0.000000 -0.027621 0.000000
# 3 -0.016716 0.001141 0.028946 0.000000 -0.024794 0.000000
# 4 0.000000 0.000000 0.000000 0.047422 0.000000 0.014533
# 5 0.050542 -0.027621 -0.024794 0.000000 0.128180 0.000000
# 6 0.000000 0.000000 0.000000 0.014533 0.000000 0.046311
#
#
# Mechanical properties :
#
#
# Convention : Reuss Voigt Hill
#
# Bulk Modulus (GPa) = 39.79454 41.80289 40.79871
# Shear Modulus (GPa) = 13.55688 24.09043 18.82366
#
# Velocity S-wave (km/s) = 2.70663 3.60803 3.18934
# Velocity P-wave (km/s) = 5.59212 6.32033 5.96734
#
# Compressibility (1/GPa) = 0.02512908
#
# Stress axis : x y z
#
# Youngs Moduli (GPa) = 28.98045 54.42004 34.54669
#
# Poissons Ratio (x) = 0.69521 0.57747
# Poissons Ratio (y) = 0.37022 -0.03942
# Poissons Ratio (z) = 0.48443 -0.06210
#
# Static dielectric constant tensor:
#      x y z
#    x 1.644270 0.000000 -0.017770 
#    y 0.000000 1.682350 0.000000 
#    z -0.017770 0.000000 1.636540 
# 
# From -- ./inp_files/49173.got.cif
#   From: 2010.05.17/outbox.cif.g08.bks.cpg/sg14_25_cif.got.tgz:49173.got - 2010.06.03 17:49:19.
