data_PCOD9239882
_publ_section_title
;
Structure prediction by ZEFSAII (Michael W. Deem and Ramdas Pophale) SiO2 
 PCOD9239882
Probable space group: P 21/C
;
_chemical_formula_sum "Si O2"
_cell_formula_units_Z 32
_cell_length_a 8.796599
_cell_length_b 29.621893
_cell_length_c 5.814066
_cell_angle_alpha 90.000000
_cell_angle_beta 106.200097
_cell_angle_gamma 90.000000
_cell_volume 1454.827228
_symmetry_space_group_name_H-M "P 21/C"
_symmetry_group_IT_number 14
_symmetry_cell_setting 'monoclinic'
loop_
_space_group_symop_operation_xyz
x,y,z
-x,1/2+y,1/2-z
-x,-y,-z
x,1/2-y,1/2+z
loop_
_atom_site_type_symbol
_atom_site_label
_atom_site_fract_x
_atom_site_fract_y
_atom_site_fract_z
Si Si1 0.863361 0.062861 0.457203
Si Si2 0.449725 0.550849 0.908241
Si Si3 0.870022 0.768876 0.274820
Si Si4 0.899936 0.635827 0.015615
Si Si5 0.357493 0.414674 0.394396
Si Si6 0.382511 0.138656 0.306741
Si Si7 0.124202 0.486215 0.362547
Si Si8 0.495454 0.237204 0.420362
O O1 0.729430 0.060790 0.594201
O O2 0.932527 0.110454 0.399596
O O3 0.016728 0.039187 0.630583
O O4 0.807022 0.030597 0.228150
O O5 0.501040 0.559368 0.668215
O O6 0.500000 0.500000 0.000000
O O7 0.543356 0.592029 0.069674
O O8 0.925406 0.742839 0.535861
O O9 0.908651 0.819850 0.364005
O O10 0.679999 0.760001 0.176148
O O11 0.770160 0.603919 0.839624
O O12 0.804267 0.644884 0.212282
O O13 0.406538 0.369932 0.548323
O O14 0.258572 0.451562 0.498983
O O15 0.467814 0.183393 0.428284
O O16 0.000000 0.500000 0.500000
O O17 0.568709 0.253175 0.696306
#
# Coordination Sequence:
#
# PCOD9239882 Si02
#       8
#     4   4   4   4   4   4   4   4
#     4  10  22  39  53  80 119 151 199 251 300 367
#     4  11  24  40  56  80 125 169 209 255 311 372
#     4  10  18  32  58  91 123 151 193 255 323 378
#     4  10  20  35  58  87 115 148 194 259 308 367
#     4  10  21  35  57  84 116 154 206 247 307 365
#     4  11  22  35  61  91 118 156 203 259 310 383
#     4  10  20  35  59  80 109 152 202 251 304 349
#     4  10  19  34  61  95 127 152 202 266 326 378
#
# _framework density 21.995739
#
# number of rings (size 3 to 8) (size 9 to 14) (size 15 to 20)
#    0.000    1.750    3.750    2.250    5.250    1.500 
#    0.000    0.000    0.000    1.500    0.000    0.000 
#    0.000    0.000    0.000    0.000    0.000    0.000 
#
# Total GULP energy -178191.292387 kJ/mol
# GULP energy per Si atom -5568.477887 kJ/mol
# Density = 2.194568 g / cm^3
# Si number density = 21.995739 Si / 1000 Ang^3
#
#
#
# Elastic Constant Matrix: (Units=GPa)
#
#
# Indices 1 2 3 4 5 6 
#
# 1 52.6565 37.1457 13.5436 0.0000 -8.1293 0.0000
# 2 37.1457 105.1669 24.3422 0.0000 -2.0184 0.0000
# 3 13.5436 24.3422 81.4618 0.0000 -17.1275 0.0000
# 4 0.0000 0.0000 0.0000 36.5212 0.0000 -4.7540
# 5 -8.1293 -2.0184 -17.1275 0.0000 24.7823 0.0000
# 6 0.0000 0.0000 0.0000 -4.7540 0.0000 14.8870
#
#
#
# Elastic Compliance Matrix: (Units=1/GPa)
#
#
# Indices 1 2 3 4 5 6 
#
# 1 0.026800 -0.009316 0.000020 0.000000 0.008046 0.000000
# 2 -0.009316 0.013501 -0.003389 0.000000 -0.004299 0.000000
# 3 0.000020 -0.003389 0.015478 0.000000 0.010427 0.000000
# 4 0.000000 0.000000 0.000000 0.028569 0.000000 0.009123
# 5 0.008046 -0.004299 0.010427 0.000000 0.049847 0.000000
# 6 0.000000 0.000000 0.000000 0.009123 0.000000 0.070086
#
#
# Mechanical properties :
#
#
# Convention : Reuss Voigt Hill
#
# Bulk Modulus (GPa) = 32.88663 43.26091 38.07377
# Shear Modulus (GPa) = 20.85177 26.18835 23.52006
#
# Velocity S-wave (km/s) = 3.08229 3.45427 3.27356
# Velocity P-wave (km/s) = 5.25844 5.96823 5.62454
#
# Compressibility (1/GPa) = 0.03040749
#
# Stress axis : x y z
#
# Youngs Moduli (GPa) = 37.31344 74.06748 64.60973
#
# Poissons Ratio (x) = 0.69002 -0.00128
# Poissons Ratio (y) = 0.34762 0.21898
# Poissons Ratio (z) = -0.00074 0.25104
#
# Static dielectric constant tensor:
#      x y z
#    x 1.794270 0.000000 -0.059100 
#    y 0.000000 1.906200 0.000000 
#    z -0.059100 0.000000 2.032370 
# 
# From -- ./inp_files/2125.got.cif
#   From: 2010.05.17/outbox.cif.g08.bks.cpg/sg14_2_cif.got.tgz:2125.got - 2010.06.03 17:49:19.
