data_PCOD9239017
_publ_section_title
;
Structure prediction by ZEFSAII (Michael W. Deem and Ramdas Pophale) SiO2 
 PCOD9239017
Probable space group: P 2/C
;
_chemical_formula_sum "Si O2"
_cell_formula_units_Z 28
_cell_length_a 15.000000
_cell_length_b 9.000000
_cell_length_c 21.000000
_cell_angle_alpha 90.000000
_cell_angle_beta 150.000000
_cell_angle_gamma 90.000000
_cell_volume 1417.500000
_symmetry_space_group_name_H-M "P 2/C"
_symmetry_group_IT_number 13
_symmetry_cell_setting 'monoclinic'
loop_
_space_group_symop_operation_xyz
x,y,z
-x,y,1/2-z
-x,-y,-z
x,-y,1/2+z
loop_
_atom_site_type_symbol
_atom_site_label
_atom_site_fract_x
_atom_site_fract_y
_atom_site_fract_z
Si Si1 0.847105 0.881826 0.424725
Si Si2 0.727951 0.882603 0.610853
Si Si3 0.963607 0.647468 0.020138
Si Si4 0.371960 0.157745 0.226892
Si Si5 0.100514 0.766466 0.900528
Si Si6 0.574231 0.802293 0.983765
Si Si7 0.868149 0.415202 0.609166
O O1 0.876766 0.807947 0.511863
O O2 0.863503 0.751750 0.383234
O O3 0.678604 0.988085 0.320239
O O4 0.000000 0.000000 0.500000
O O5 0.750233 0.840929 0.551037
O O6 0.571790 0.791531 0.549982
O O7 0.910856 0.833757 0.759344
O O8 0.693144 0.060133 0.584777
O O9 0.799650 0.734210 0.884535
O O10 0.918547 0.639805 0.068096
O O11 0.000000 0.500000 0.000000
O O12 0.500000 0.212898 0.250000
O O13 0.459572 0.155002 0.350373
O O14 0.121717 0.592584 0.897013
O O15 0.690031 0.664356 0.027510
O O16 0.000000 0.383786 0.750000
#
# Coordination Sequence:
#
# PCOD9239017 Si02
#       7
#     4   4   4   4   4   4   4
#     4  10  22  38  71  96 130 175 226 275 332 399
#     4  10  23  42  69  98 136 174 223 287 336 405
#     4  11  23  43  69  99 132 181 227 271 339 415
#     4  11  22  42  66  99 133 172 224 288 336 397
#     4  11  22  45  68  99 136 177 223 280 342 415
#     4  11  25  43  68 100 135 178 231 285 345 401
#     4  12  26  43  68 100 136 182 228 277 352 417
#
# _framework density 19.753086
#
# number of rings (size 3 to 8) (size 9 to 14) (size 15 to 20)
#    0.000    1.143    4.286    2.571    4.000    2.857 
#    0.000    3.571    0.000    0.000    0.000    0.000 
#    0.000    0.000    0.000    0.000    0.000    0.000 
#
# Total GULP energy -155936.616726 kJ/mol
# GULP energy per Si atom -5569.164883 kJ/mol
# Density = 1.970813 g / cm^3
# Si number density = 19.753086 Si / 1000 Ang^3
#
#
#
# Elastic Constant Matrix: (Units=GPa)
#
#
# Indices 1 2 3 4 5 6 
#
# 1 159.7642 35.9371 32.4719 0.0000 10.9080 0.0000
# 2 35.9371 100.9687 40.4668 0.0000 17.3873 0.0000
# 3 32.4719 40.4668 73.7625 0.0000 -0.2347 0.0000
# 4 0.0000 0.0000 0.0000 24.5966 0.0000 -1.1424
# 5 10.9080 17.3873 -0.2347 0.0000 25.6773 0.0000
# 6 0.0000 0.0000 0.0000 -1.1424 0.0000 39.8334
#
#
#
# Elastic Compliance Matrix: (Units=1/GPa)
#
#
# Indices 1 2 3 4 5 6 
#
# 1 0.007191 -0.001142 -0.002547 0.000000 -0.002305 0.000000
# 2 -0.001142 0.015147 -0.007838 0.000000 -0.009843 0.000000
# 3 -0.002547 -0.007838 0.018999 0.000000 0.006563 0.000000
# 4 0.000000 0.000000 0.000000 0.040710 0.000000 0.001168
# 5 -0.002305 -0.009843 0.006563 0.000000 0.046649 0.000000
# 6 0.000000 0.000000 0.000000 0.001168 0.000000 0.025138
#
#
# Mechanical properties :
#
#
# Convention : Reuss Voigt Hill
#
# Bulk Modulus (GPa) = 54.69407 61.36079 58.02743
# Shear Modulus (GPa) = 27.32487 33.06276 30.19382
#
# Velocity S-wave (km/s) = 3.72334 4.09565 3.91392
# Velocity P-wave (km/s) = 6.79951 7.31417 7.06153
#
# Compressibility (1/GPa) = 0.01828352
#
# Stress axis : x y z
#
# Youngs Moduli (GPa) = 139.06219 66.01911 52.63380
#
# Poissons Ratio (x) = 0.07539 0.13403
# Poissons Ratio (y) = 0.15880 0.41257
# Poissons Ratio (z) = 0.35412 0.51749
#
# Static dielectric constant tensor:
#      x y z
#    x 1.718130 0.000000 0.049270 
#    y 0.000000 1.738420 0.000000 
#    z 0.049270 0.000000 1.727810 
# 
# From -- ./inp_files/80011.got.cif
#   From: 2010.05.17/outbox.ucp.g08.bks.cvg/sg13_41_cif.got.tgz:80011.got - 2010.06.11 12:23:55.
