data_PCOD9239232
_publ_section_title
;
Structure prediction by ZEFSAII (Michael W. Deem and Ramdas Pophale) SiO2 
 PCOD9239232
Probable space group: P 21/C
;
_chemical_formula_sum "Si O2"
_cell_formula_units_Z 28
_cell_length_a 15.707079
_cell_length_b 14.398538
_cell_length_c 8.579937
_cell_angle_alpha 90.000000
_cell_angle_beta 136.514760
_cell_angle_gamma 90.000000
_cell_volume 1335.341055
_symmetry_space_group_name_H-M "P 21/C"
_symmetry_group_IT_number 14
_symmetry_cell_setting 'monoclinic'
loop_
_space_group_symop_operation_xyz
x,y,z
-x,1/2+y,1/2-z
-x,-y,-z
x,1/2-y,1/2+z
loop_
_atom_site_type_symbol
_atom_site_label
_atom_site_fract_x
_atom_site_fract_y
_atom_site_fract_z
Si Si1 0.820138 0.047659 0.848519
Si Si2 0.650863 0.300788 0.554158
Si Si3 0.806264 0.711251 0.748316
Si Si4 0.293836 0.371383 0.684711
Si Si5 0.019097 0.184739 0.255654
Si Si6 0.815589 0.163172 0.554630
Si Si7 0.438338 0.866468 0.375829
O O1 0.834495 0.072359 0.685173
O O2 0.688470 0.088798 0.731285
O O3 0.808080 0.941303 0.880511
O O4 0.927019 0.105034 0.076811
O O5 0.735450 0.233619 0.557666
O O6 0.741359 0.352374 0.795654
O O7 0.574140 0.359732 0.327515
O O8 0.566064 0.235449 0.548791
O O9 0.720047 0.774233 0.742610
O O10 0.733349 0.646454 0.532163
O O11 0.885918 0.782527 0.749636
O O12 0.902955 0.659229 0.988308
O O13 0.431755 0.407758 0.898213
O O14 0.937974 0.277390 0.182850
#
# Coordination Sequence:
#
# PCOD9239232 Si02
#       7
#     4   4   4   4   4   4   4
#     4  11  22  35  65  93 114 146 201 253 292 326
#     4   9  16  29  57  88 112 153 189 225 298 341
#     4  10  24  40  60  78 120 166 192 229 300 351
#     4  11  24  43  56  84 122 163 193 235 291 365
#     4  11  18  38  62  87 114 147 198 247 288 344
#     4  10  16  32  57  92 116 139 186 249 291 332
#     4  10  19  35  59  88 122 150 195 239 290 346
#
# _framework density 20.968426000000001
#
# number of rings (size 3 to 8) (size 9 to 14) (size 15 to 20)
#    0.000    1.714    5.714    1.286    0.000    1.143 
#    0.000    3.571    0.000    0.000    0.000    0.000 
#    0.000    0.000    0.000    0.000    0.000    0.000 
#
# Total GULP energy -156314.935006 kJ/mol
# GULP energy per Si atom -5582.676250 kJ/mol
# Density = 2.092070 g / cm^3
# Si number density = 20.968426 Si / 1000 Ang^3
#
#
#
# Elastic Constant Matrix: (Units=GPa)
#
#
# Indices 1 2 3 4 5 6 
#
# 1 49.9886 3.0764 48.5602 0.0000 -9.5300 0.0000
# 2 3.0764 23.4106 22.7574 0.0000 6.1702 0.0000
# 3 48.5602 22.7574 180.1493 0.0000 -13.5865 0.0000
# 4 0.0000 0.0000 0.0000 12.4223 0.0000 2.8353
# 5 -9.5300 6.1702 -13.5865 0.0000 26.0307 0.0000
# 6 0.0000 0.0000 0.0000 2.8353 0.0000 19.9238
#
#
#
# Elastic Compliance Matrix: (Units=1/GPa)
#
#
# Indices 1 2 3 4 5 6 
#
# 1 0.028216 0.001888 -0.007390 0.000000 0.006025 0.000000
# 2 0.001888 0.055532 -0.008811 0.000000 -0.017071 0.000000
# 3 -0.007390 -0.008811 0.008962 0.000000 0.004061 0.000000
# 4 0.000000 0.000000 0.000000 0.083203 0.000000 -0.011840
# 5 0.006025 -0.017071 0.004061 0.000000 0.046788 0.000000
# 6 0.000000 0.000000 0.000000 -0.011840 0.000000 0.051876
#
#
# Mechanical properties :
#
#
# Convention : Reuss Voigt Hill
#
# Bulk Modulus (GPa) = 15.60469 44.70405 30.15437
# Shear Modulus (GPa) = 15.40521 23.61902 19.51211
#
# Velocity S-wave (km/s) = 2.71345 3.35984 3.05380
# Velocity P-wave (km/s) = 4.15635 6.03468 5.18134
#
# Compressibility (1/GPa) = 0.06408329
#
# Stress axis : x y z
#
# Youngs Moduli (GPa) = 35.44131 18.00747 111.57911
#
# Poissons Ratio (x) = -0.03399 0.82454
# Poissons Ratio (y) = -0.06690 0.98317
# Poissons Ratio (z) = 0.26190 0.15867
#
# Static dielectric constant tensor:
#      x y z
#    x 1.751040 0.000000 0.007910 
#    y 0.000000 1.791530 0.000000 
#    z 0.007910 0.000000 1.770380 
# 
# From -- ./inp_files/13045.got.cif
#   From: 2010.05.17/outbox.cif.g08.bks.cpg/sg14_7_cif.got.tgz:13045.got - 2010.06.03 17:49:19.
