data_PCOD9239795
_publ_section_title
;
Structure prediction by ZEFSAII (Michael W. Deem and Ramdas Pophale) SiO2 
 PCOD9239795
Probable space group: P 21/C
;
_chemical_formula_sum "Si O2"
_cell_formula_units_Z 28
_cell_length_a 19.238429
_cell_length_b 8.648801
_cell_length_c 14.910391
_cell_angle_alpha 90.000000
_cell_angle_beta 32.108849
_cell_angle_gamma 90.000000
_cell_volume 1318.687344
_symmetry_space_group_name_H-M "P 21/C"
_symmetry_group_IT_number 14
_symmetry_cell_setting 'monoclinic'
loop_
_space_group_symop_operation_xyz
x,y,z
-x,1/2+y,1/2-z
-x,-y,-z
x,1/2-y,1/2+z
loop_
_atom_site_type_symbol
_atom_site_label
_atom_site_fract_x
_atom_site_fract_y
_atom_site_fract_z
Si Si1 0.692296 0.023452 0.959153
Si Si2 0.868920 0.692883 0.142828
Si Si3 0.781193 0.299020 0.948207
Si Si4 0.513209 0.723487 0.652240
Si Si5 0.612473 0.225038 0.892685
Si Si6 0.703925 0.976225 0.378371
Si Si7 0.883103 0.095482 0.517671
O O1 0.601602 0.139194 0.999734
O O2 0.769898 0.910781 0.809117
O O3 0.799077 0.124600 0.893968
O O4 0.595198 0.907180 0.114707
O O5 0.801705 0.860837 0.218333
O O6 0.887371 0.589122 0.033213
O O7 0.003412 0.680723 0.050920
O O8 0.632474 0.278998 0.149464
O O9 0.875956 0.359824 0.921532
O O10 0.780585 0.414562 0.864795
O O11 0.493773 0.687661 0.566552
O O12 0.600433 0.877299 0.550448
O O13 0.629346 0.406435 0.893660
O O14 0.748565 0.162198 0.704858
#
# Coordination Sequence:
#
# PCOD9239795 Si02
#       7
#     4   4   4   4   4   4   4
#     4   9  18  32  50  71  99 132 166 206 253 303
#     4   9  19  36  54  72  99 136 173 210 258 312
#     4  10  20  33  50  75 103 131 168 215 260 301
#     4  10  18  32  50  72 101 135 166 200 248 307
#     4   9  18  32  51  74 100 131 167 206 248 300
#     4  10  20  33  51  78 105 131 168 214 257 302
#     4   9  19  36  54  72  99 136 174 212 257 309
#
# _framework density 21.233236999999999
#
# number of rings (size 3 to 8) (size 9 to 14) (size 15 to 20)
#    0.000    2.571    0.000    1.714    0.000    2.857 
#    0.000    7.143    0.000    0.000    0.000    0.000 
#    0.000    0.000    0.000    0.000    0.000    0.000 
#
# Total GULP energy -155989.570082 kJ/mol
# GULP energy per Si atom -5571.056074 kJ/mol
# Density = 2.118491 g / cm^3
# Si number density = 21.233237 Si / 1000 Ang^3
#
#
#
# Elastic Constant Matrix: (Units=GPa)
#
#
# Indices 1 2 3 4 5 6 
#
# 1 89.8791 36.4920 -0.3209 0.0000 -3.1660 0.0000
# 2 36.4920 106.8339 3.8309 0.0000 -6.2474 0.0000
# 3 -0.3209 3.8309 21.7753 0.0000 -11.1602 0.0000
# 4 0.0000 0.0000 0.0000 3.0813 0.0000 6.8367
# 5 -3.1660 -6.2474 -11.1602 0.0000 26.2845 0.0000
# 6 0.0000 0.0000 0.0000 6.8367 0.0000 23.4704
#
#
#
# Elastic Compliance Matrix: (Units=1/GPa)
#
#
# Indices 1 2 3 4 5 6 
#
# 1 0.012966 -0.004416 0.001573 0.000000 0.001180 0.000000
# 2 -0.004416 0.011004 -0.001193 0.000000 0.001577 0.000000
# 3 0.001573 -0.001193 0.058933 0.000000 0.024928 0.000000
# 4 0.000000 0.000000 0.000000 0.917539 0.000000 -0.267271
# 5 0.001180 0.001577 0.024928 0.000000 0.049147 0.000000
# 6 0.000000 0.000000 0.000000 -0.267271 0.000000 0.120460
#
#
# Mechanical properties :
#
#
# Convention : Reuss Voigt Hill
#
# Bulk Modulus (GPa) = 13.36356 33.16581 23.26468
# Shear Modulus (GPa) = 4.15605 22.46631 13.31118
#
# Velocity S-wave (km/s) = 1.40056 3.25633 2.50652
# Velocity P-wave (km/s) = 2.98711 5.45820 4.39970
#
# Compressibility (1/GPa) = 0.07483037
#
# Stress axis : x y z
#
# Youngs Moduli (GPa) = 77.12267 90.87718 16.96846
#
# Poissons Ratio (x) = 0.40135 -0.02669
# Poissons Ratio (y) = 0.34061 0.02024
# Poissons Ratio (z) = -0.12130 0.10839
#
# Static dielectric constant tensor:
#      x y z
#    x 1.788380 0.000000 0.037090 
#    y 0.000000 1.836790 0.000000 
#    z 0.037090 0.000000 1.831450 
# 
# From -- ./inp_files/48538.got.cif
#   From: 2010.05.17/outbox.cif.g08.bks.cpg/sg14_25_cif.got.tgz:48538.got - 2010.06.03 17:49:19.
