data_PCOD9239106
_publ_section_title
;
Structure prediction by ZEFSAII (Michael W. Deem and Ramdas Pophale) SiO2 
 PCOD9239106
Probable space group: P 21/C
;
_chemical_formula_sum "Si O2"
_cell_formula_units_Z 28
_cell_length_a 8.726387
_cell_length_b 7.672907
_cell_length_c 16.516726
_cell_angle_alpha 90.000000
_cell_angle_beta 111.791632
_cell_angle_gamma 90.000000
_cell_volume 1026.878381
_symmetry_space_group_name_H-M "P 21/C"
_symmetry_group_IT_number 14
_symmetry_cell_setting 'monoclinic'
loop_
_space_group_symop_operation_xyz
x,y,z
-x,1/2+y,1/2-z
-x,-y,-z
x,1/2-y,1/2+z
loop_
_atom_site_type_symbol
_atom_site_label
_atom_site_fract_x
_atom_site_fract_y
_atom_site_fract_z
Si Si1 0.463872 0.794591 0.477556
Si Si2 0.786554 0.927652 0.063017
Si Si3 0.980217 0.401743 0.911876
Si Si4 0.680354 0.685976 0.714972
Si Si5 0.104201 0.409777 0.639746
Si Si6 0.781999 0.048284 0.677119
Si Si7 0.677346 0.316464 0.378687
O O1 0.614244 0.659624 0.497331
O O2 0.340234 0.803321 0.376888
O O3 0.372638 0.728762 0.539984
O O4 0.500000 0.000000 0.500000
O O5 0.749238 0.925923 0.154098
O O6 0.914687 0.775935 0.062630
O O7 0.913819 0.092753 0.080809
O O8 0.789846 0.339997 0.865790
O O9 0.079630 0.502293 0.861516
O O10 0.000000 0.500000 0.000000
O O11 0.807162 0.733547 0.812005
O O12 0.670800 0.876568 0.670201
O O13 0.493085 0.644537 0.702212
O O14 0.125478 0.548042 0.719261
O O15 0.218235 0.505296 0.597390
#
# Coordination Sequence:
#
# PCOD9239106 Si02
#       7
#     4   4   4   4   4   4   4
#     4  11  14  28  49  71  97 124 145 200 262 288
#     4   9  17  28  48  69  98 128 150 191 247 291
#     4  10  15  23  44  72  98 119 147 192 253 292
#     4   8  17  32  45  64 102 125 150 196 236 279
#     4   9  19  32  42  71 104 126 161 186 237 308
#     4   9  17  29  44  64 103 124 144 192 239 291
#     4  10  17  27  47  74  97 124 157 195 239 290
#
# _framework density 27.267105000000001
#
# number of rings (size 3 to 8) (size 9 to 14) (size 15 to 20)
#    0.857    1.714    5.714    0.000    0.000    0.000 
#    5.143    0.000    0.000    0.000    0.000    6.000 
#    0.000    0.000    0.000    0.000    0.000    0.000 
#
# Total GULP energy -156344.817407 kJ/mol
# GULP energy per Si atom -5583.743479 kJ/mol
# Density = 2.720504 g / cm^3
# Si number density = 27.267105 Si / 1000 Ang^3
#
#
#
# Elastic Constant Matrix: (Units=GPa)
#
#
# Indices 1 2 3 4 5 6 
#
# 1 188.5934 48.0582 34.8676 0.0000 34.1757 0.0000
# 2 48.0582 98.8821 9.9312 0.0000 19.0565 0.0000
# 3 34.8676 9.9312 77.2629 0.0000 22.7440 0.0000
# 4 0.0000 0.0000 0.0000 4.4070 0.0000 -2.0285
# 5 34.1757 19.0565 22.7440 0.0000 58.7075 0.0000
# 6 0.0000 0.0000 0.0000 -2.0285 0.0000 54.0344
#
#
#
# Elastic Compliance Matrix: (Units=1/GPa)
#
#
# Indices 1 2 3 4 5 6 
#
# 1 0.006768 -0.002643 -0.002040 0.000000 -0.002292 0.000000
# 2 -0.002643 0.011831 0.000395 0.000000 -0.002455 0.000000
# 3 -0.002040 0.000395 0.015239 0.000000 -0.004844 0.000000
# 4 0.000000 0.000000 0.000000 0.230902 0.000000 0.008668
# 5 -0.002292 -0.002455 -0.004844 0.000000 0.021041 0.000000
# 6 0.000000 0.000000 0.000000 0.008668 0.000000 0.018832
#
#
# Mechanical properties :
#
#
# Convention : Reuss Voigt Hill
#
# Bulk Modulus (GPa) = 39.58644 61.16138 50.37391
# Shear Modulus (GPa) = 15.54675 41.55521 28.55098
#
# Velocity S-wave (km/s) = 2.39040 3.90809 3.23938
# Velocity P-wave (km/s) = 4.70832 6.54548 5.70139
#
# Compressibility (1/GPa) = 0.02526117
#
# Stress axis : x y z
#
# Youngs Moduli (GPa) = 147.74538 84.52369 65.62224
#
# Poissons Ratio (x) = 0.22339 0.13388
# Poissons Ratio (y) = 0.39049 -0.02589
# Poissons Ratio (z) = 0.30142 -0.03335
#
# Static dielectric constant tensor:
#      x y z
#    x 2.145140 0.000000 -0.014650 
#    y 0.000000 2.181360 0.000000 
#    z -0.014650 0.000000 2.360230 
# 
# From -- ./inp_files/55667.got.cif
#   From: 2010.05.17/outbox.cif.g08.bks.cpg/sg14_28_cif.got.tgz:55667.got - 2010.06.03 17:49:19.
