data_PCOD9239739
_publ_section_title
;
Structure prediction by ZEFSAII (Michael W. Deem and Ramdas Pophale) SiO2 
 PCOD9239739
Probable space group: P 21/C
;
_chemical_formula_sum "Si O2"
_cell_formula_units_Z 32
_cell_length_a 13.993230
_cell_length_b 18.574968
_cell_length_c 7.884024
_cell_angle_alpha 90.000000
_cell_angle_beta 131.110666
_cell_angle_gamma 90.000000
_cell_volume 1543.985567
_symmetry_space_group_name_H-M "P 21/C"
_symmetry_group_IT_number 14
_symmetry_cell_setting 'monoclinic'
loop_
_space_group_symop_operation_xyz
x,y,z
-x,1/2+y,1/2-z
-x,-y,-z
x,1/2-y,1/2+z
loop_
_atom_site_type_symbol
_atom_site_label
_atom_site_fract_x
_atom_site_fract_y
_atom_site_fract_z
Si Si1 0.529056 0.640814 0.882147
Si Si2 0.143676 0.504114 0.374821
Si Si3 0.520874 0.710377 0.500066
Si Si4 0.115330 0.570885 0.963989
Si Si5 0.755636 0.359580 0.358049
Si Si6 0.612967 0.926652 0.959774
Si Si7 0.640647 0.993574 0.371155
Si Si8 0.239910 0.709259 0.008017
O O1 0.520493 0.678555 0.687638
O O2 0.561378 0.706650 0.042855
O O3 0.386542 0.615982 0.757902
O O4 0.622919 0.573967 0.974672
O O5 0.158296 0.570567 0.520126
O O6 0.270365 0.456162 0.511216
O O7 0.021126 0.454929 0.258498
O O8 0.130589 0.541784 0.173704
O O9 0.607618 0.658125 0.488463
O O10 0.378234 0.705059 0.258430
O O11 0.143025 0.655717 0.988148
O O12 0.226492 0.533854 0.982160
O O13 0.794368 0.293383 0.526006
O O14 0.751972 0.321721 0.171581
O O15 0.476674 0.952859 0.732343
O O16 0.623781 0.962566 0.160108
#
# Coordination Sequence:
#
# PCOD9239739 Si02
#       8
#     4   4   4   4   4   4   4   4
#     4  10  18  31  52  77 107 137 175 219 269 316
#     4  10  20  36  57  80 107 143 182 217 263 320
#     4  10  18  31  52  77 107 137 175 219 269 316
#     4  10  20  36  57  80 107 143 182 217 263 320
#     4  11  21  34  54  79 108 139 178 221 267 315
#     4   9  16  30  53  77 104 137 174 215 259 314
#     4   9  16  30  53  77 104 137 174 215 259 314
#     4  11  21  34  54  79 108 139 178 221 267 315
#
# _framework density 20.725583
#
# number of rings (size 3 to 8) (size 9 to 14) (size 15 to 20)
#    0.000    2.000    2.500    4.500    0.000    0.500 
#    0.000    5.000    0.000    3.000    0.000    0.000 
#    0.000    0.000    0.000    0.000    0.000    0.000 
#
# Total GULP energy -178810.824675 kJ/mol
# GULP energy per Si atom -5587.838271 kJ/mol
# Density = 2.067841 g / cm^3
# Si number density = 20.725583 Si / 1000 Ang^3
#
#
#
# Elastic Constant Matrix: (Units=GPa)
#
#
# Indices 1 2 3 4 5 6 
#
# 1 66.4660 18.3618 38.0098 0.0000 13.6324 0.0000
# 2 18.3618 61.1874 11.1257 0.0000 16.2624 0.0000
# 3 38.0098 11.1257 47.7097 0.0000 -2.8653 0.0000
# 4 0.0000 0.0000 0.0000 16.7156 0.0000 0.0214
# 5 13.6324 16.2624 -2.8653 0.0000 36.7387 0.0000
# 6 0.0000 0.0000 0.0000 0.0214 0.0000 39.4698
#
#
#
# Elastic Compliance Matrix: (Units=1/GPa)
#
#
# Indices 1 2 3 4 5 6 
#
# 1 0.034284 -0.001438 -0.027835 0.000000 -0.014256 0.000000
# 2 -0.001438 0.019763 -0.003975 0.000000 -0.008525 0.000000
# 3 -0.027835 -0.003975 0.044999 0.000000 0.015598 0.000000
# 4 0.000000 0.000000 0.000000 0.059825 0.000000 -0.000032
# 5 -0.014256 -0.008525 0.015598 0.000000 0.037499 0.000000
# 6 0.000000 0.000000 0.000000 -0.000032 0.000000 0.025336
#
#
# Mechanical properties :
#
#
# Convention : Reuss Voigt Hill
#
# Bulk Modulus (GPa) = 30.72070 34.48417 32.60244
# Shear Modulus (GPa) = 16.71946 25.77587 21.24766
#
# Velocity S-wave (km/s) = 2.84334 3.53040 3.20533
# Velocity P-wave (km/s) = 5.06302 5.77000 5.42803
#
# Compressibility (1/GPa) = 0.03255134
#
# Stress axis : x y z
#
# Youngs Moduli (GPa) = 29.16774 50.59903 22.22251
#
# Poissons Ratio (x) = 0.07278 0.61856
# Poissons Ratio (y) = 0.04195 0.08833
# Poissons Ratio (z) = 0.81188 0.20112
#
# Static dielectric constant tensor:
#      x y z
#    x 1.760150 0.000000 -0.063140 
#    y 0.000000 1.765680 0.000000 
#    z -0.063140 0.000000 1.753310 
# 
# From -- ./inp_files/16865.got.cif
#   From: 2010.05.17/outbox.cif.g08.bks.cpg/sg14_9_cif.got.tgz:16865.got - 2010.06.03 17:49:19.
