data_PCOD9239148
_publ_section_title
;
Structure prediction by ZEFSAII (Michael W. Deem and Ramdas Pophale) SiO2 
 PCOD9239148
Probable space group: P 21/C
;
_chemical_formula_sum "Si O2"
_cell_formula_units_Z 32
_cell_length_a 18.335386
_cell_length_b 5.374893
_cell_length_c 13.093562
_cell_angle_alpha 90.000000
_cell_angle_beta 79.834359
_cell_angle_gamma 90.000000
_cell_volume 1270.123324
_symmetry_space_group_name_H-M "P 21/C"
_symmetry_group_IT_number 14
_symmetry_cell_setting 'monoclinic'
loop_
_space_group_symop_operation_xyz
x,y,z
-x,1/2+y,1/2-z
-x,-y,-z
x,1/2-y,1/2+z
loop_
_atom_site_type_symbol
_atom_site_label
_atom_site_fract_x
_atom_site_fract_y
_atom_site_fract_z
Si Si1 0.533021 0.989792 0.368506
Si Si2 0.556684 0.509515 0.620505
Si Si3 0.724043 0.093553 0.023910
Si Si4 0.258680 0.911221 0.227863
Si Si5 0.308943 0.409186 0.172743
Si Si6 0.066081 0.486175 0.137691
Si Si7 0.210058 0.402459 0.997250
Si Si8 0.091878 0.513702 0.763929
O O1 0.486728 0.741146 0.397948
O O2 0.486866 0.239486 0.398058
O O3 0.555682 0.990604 0.243643
O O4 0.613514 0.972875 0.400409
O O5 0.639492 0.489760 0.557841
O O6 0.740963 0.114835 0.897550
O O7 0.775915 0.869836 0.050985
O O8 0.743621 0.368163 0.059624
O O9 0.312220 0.146458 0.230476
O O10 0.287922 0.639949 0.249093
O O11 0.175542 0.973436 0.282664
O O12 0.245041 0.380512 0.103612
O O13 0.124410 0.469482 0.031788
O O14 0.082884 0.741534 0.194627
O O15 0.977830 0.480552 0.142030
O O16 0.082718 0.241041 0.202150
#
# Coordination Sequence:
#
# PCOD9239148 Si02
#       8
#     4   4   4   4   4   4   4   4
#     4  10  21  37  52  66  85 113 154 196 229 266
#     4  10  21  37  52  66  85 113 154 196 229 266
#     4  10  18  30  48  65  91 121 143 183 232 265
#     4  10  17  30  43  70 100 119 145 179 221 273
#     4  10  18  30  48  65  91 121 143 183 232 265
#     4  10  16  25  41  63  96 129 152 174 207 258
#     4  10  17  30  43  70 100 119 145 179 221 273
#     4  10  16  25  41  63  96 129 152 174 207 258
#
# _framework density 25.194402
#
# number of rings (size 3 to 8) (size 9 to 14) (size 15 to 20)
#    0.000    2.000    5.000    1.500    0.000    0.000 
#    0.000   15.000    0.000    0.000    0.000    0.000 
#    0.000   11.000    0.000    0.000    0.000    0.000 
#
# Total GULP energy -179075.700869 kJ/mol
# GULP energy per Si atom -5596.115652 kJ/mol
# Density = 2.513706 g / cm^3
# Si number density = 25.194402 Si / 1000 Ang^3
#
#
#
# Elastic Constant Matrix: (Units=GPa)
#
#
# Indices 1 2 3 4 5 6 
#
# 1 124.9168 30.6004 35.4407 0.0000 -39.6880 0.0000
# 2 30.6004 217.5558 7.0225 0.0000 -15.5379 0.0000
# 3 35.4407 7.0225 84.9250 0.0000 -15.3796 0.0000
# 4 0.0000 0.0000 0.0000 -495.9986 0.0000 -429.8822
# 5 -39.6880 -15.5379 -15.3796 0.0000 49.3458 0.0000
# 6 0.0000 0.0000 0.0000 -429.8822 0.0000 -286.2628
#
#
#
# Elastic Compliance Matrix: (Units=1/GPa)
#
#
# Indices 1 2 3 4 5 6 
#
# 1 0.011776 -0.000968 -0.003364 0.000000 0.008118 0.000000
# 2 -0.000968 0.004783 0.000149 0.000000 0.000774 0.000000
# 3 -0.003364 0.000149 0.013444 0.000000 0.001531 0.000000
# 4 0.000000 0.000000 0.000000 0.006686 0.000000 -0.010041
# 5 0.008118 0.000774 0.001531 0.000000 0.027515 0.000000
# 6 0.000000 0.000000 0.000000 -0.010041 0.000000 0.011585
#
#
# Mechanical properties :
#
#
# Convention : Reuss Voigt Hill
#
# Bulk Modulus (GPa) = 46.21903 63.72498 54.97201
# Shear Modulus (GPa) = 54.72285 -122.96085 -34.11900
#
# Velocity S-wave (km/s) = 4.66555 -6.99362 -3.68398
# Velocity P-wave (km/s) = 6.88535 6.31397 1.94188
#
# Compressibility (1/GPa) = 0.02163611
#
# Stress axis : x y z
#
# Youngs Moduli (GPa) = 84.91742 209.06730 74.38247
#
# Poissons Ratio (x) = 0.20238 0.25024
# Poissons Ratio (y) = 0.08220 -0.01105
# Poissons Ratio (z) = 0.28568 -0.03106
#
# Static dielectric constant tensor:
#      x y z
#    x 1.963280 0.000000 0.062540 
#    y 0.000000 2.008740 0.000000 
#    z 0.062540 0.000000 2.093930 
# 
# From -- ./inp_files/68919.got.cif
#   From: 2010.05.17/outbox.cif.g08.bks.cpg/sg14_35_cif.got.tgz:68919.got - 2010.06.03 17:49:19.
