data_PCOD9239165
_publ_section_title
;
Structure prediction by ZEFSAII (Michael W. Deem and Ramdas Pophale) SiO2 
 PCOD9239165
Probable space group: P 21/C
;
_chemical_formula_sum "Si O2"
_cell_formula_units_Z 32
_cell_length_a 9.326913
_cell_length_b 14.166744
_cell_length_c 13.374974
_cell_angle_alpha 90.000000
_cell_angle_beta 132.339116
_cell_angle_gamma 90.000000
_cell_volume 1306.309561
_symmetry_space_group_name_H-M "P 21/C"
_symmetry_group_IT_number 14
_symmetry_cell_setting 'monoclinic'
loop_
_space_group_symop_operation_xyz
x,y,z
-x,1/2+y,1/2-z
-x,-y,-z
x,1/2-y,1/2+z
loop_
_atom_site_type_symbol
_atom_site_label
_atom_site_fract_x
_atom_site_fract_y
_atom_site_fract_z
Si Si1 0.304218 0.181661 0.551949
Si Si2 0.647698 0.889424 0.229677
Si Si3 0.193717 0.938885 0.590708
Si Si4 0.326860 0.385959 0.482263
Si Si5 0.725309 0.496075 0.078401
Si Si6 0.215050 0.589610 0.504702
Si Si7 0.771496 0.134010 0.767961
Si Si8 0.786416 0.166775 0.202180
O O1 0.246237 0.177282 0.641444
O O2 0.261158 0.284547 0.490823
O O3 0.537047 0.156395 0.665327
O O4 0.222337 0.098150 0.443243
O O5 0.427638 0.859762 0.107495
O O6 0.648868 0.988459 0.289768
O O7 0.737807 0.901183 0.163174
O O8 0.245304 0.922820 0.499955
O O9 0.166405 0.860220 0.660523
O O10 0.000000 0.000000 0.500000
O O11 0.260761 0.478002 0.512045
O O12 0.561699 0.371279 0.592008
O O13 0.816759 0.457938 0.222838
O O14 0.500000 0.500000 0.000000
O O15 0.141452 0.617154 0.580638
O O16 0.123710 0.624991 0.357640
O O17 0.827591 0.222627 0.726207
#
# Coordination Sequence:
#
# PCOD9239165 Si02
#       8
#     4   4   4   4   4   4   4   4
#     4   8  17  28  46  79 111 141 177 222 291 341
#     4   9  16  32  46  74 108 134 180 232 272 328
#     4  11  21  35  59  78 109 155 195 231 277 344
#     4  10  16  28  51  80 109 142 178 238 292 327
#     4   9  19  36  55  81 118 147 184 238 288 334
#     4  10  17  30  53  82 112 137 181 244 294 323
#     4   9  19  30  51  82 110 145 185 235 293 338
#     4  10  19  32  51  82 110 147 193 237 281 347
#
# _framework density 24.496493000000001
#
# number of rings (size 3 to 8) (size 9 to 14) (size 15 to 20)
#    0.000    2.500    2.500    1.500    1.750    1.000 
#    4.500    0.000    5.500    0.750    0.000    0.000 
#    0.000    0.000    0.000    0.000    0.000    0.000 
#
# Total GULP energy -178390.067918 kJ/mol
# GULP energy per Si atom -5574.689622 kJ/mol
# Density = 2.444074 g / cm^3
# Si number density = 24.496493 Si / 1000 Ang^3
#
#
#
# Elastic Constant Matrix: (Units=GPa)
#
#
# Indices 1 2 3 4 5 6 
#
# 1 76.2578 12.6397 46.9840 0.0000 -17.4514 0.0000
# 2 12.6397 126.3311 48.9711 0.0000 -41.3120 0.0000
# 3 46.9840 48.9711 141.3151 0.0000 -41.0062 0.0000
# 4 0.0000 0.0000 0.0000 22.0843 0.0000 -14.6225
# 5 -17.4514 -41.3120 -41.0062 0.0000 49.5622 0.0000
# 6 0.0000 0.0000 0.0000 -14.6225 0.0000 14.3233
#
#
#
# Elastic Compliance Matrix: (Units=1/GPa)
#
#
# Indices 1 2 3 4 5 6 
#
# 1 0.016724 0.001189 -0.005232 0.000000 0.002551 0.000000
# 2 0.001189 0.011213 -0.001905 0.000000 0.008189 0.000000
# 3 -0.005232 -0.001905 0.011160 0.000000 0.005803 0.000000
# 4 0.000000 0.000000 0.000000 0.139735 0.000000 0.142654
# 5 0.002551 0.008189 0.005803 0.000000 0.032703 0.000000
# 6 0.000000 0.000000 0.000000 0.142654 0.000000 0.215451
#
#
# Mechanical properties :
#
#
# Convention : Reuss Voigt Hill
#
# Bulk Modulus (GPa) = 36.76297 62.34376 49.55337
# Shear Modulus (GPa) = 11.16200 32.88124 22.02162
#
# Velocity S-wave (km/s) = 2.13693 3.66769 3.00154
# Velocity P-wave (km/s) = 4.59659 6.59100 5.68199
#
# Compressibility (1/GPa) = 0.02720128
#
# Stress axis : x y z
#
# Youngs Moduli (GPa) = 59.79544 89.18119 89.60540
#
# Poissons Ratio (x) = -0.10605 0.46882
# Poissons Ratio (y) = -0.07110 0.17068
# Poissons Ratio (z) = 0.31286 0.16987
#
# Static dielectric constant tensor:
#      x y z
#    x 2.010250 0.000000 0.041650 
#    y 0.000000 1.959660 0.000000 
#    z 0.041650 0.000000 2.024640 
# 
# From -- ./inp_files/30042.got.cif
#   From: 2010.05.17/outbox.cif.g08.bks.cpg/sg14_16_cif.got.tgz:30042.got - 2010.06.03 17:49:19.
