data_PCOD9239829
_publ_section_title
;
Structure prediction by ZEFSAII (Michael W. Deem and Ramdas Pophale) SiO2 
 PCOD9239829
Probable space group: P 21/C
;
_chemical_formula_sum "Si O2"
_cell_formula_units_Z 24
_cell_length_a 9.281540
_cell_length_b 8.144049
_cell_length_c 17.749409
_cell_angle_alpha 90.000000
_cell_angle_beta 89.459278
_cell_angle_gamma 90.000000
_cell_volume 1341.605949
_symmetry_space_group_name_H-M "P 21/C"
_symmetry_group_IT_number 14
_symmetry_cell_setting 'monoclinic'
loop_
_space_group_symop_operation_xyz
x,y,z
-x,1/2+y,1/2-z
-x,-y,-z
x,1/2-y,1/2+z
loop_
_atom_site_type_symbol
_atom_site_label
_atom_site_fract_x
_atom_site_fract_y
_atom_site_fract_z
Si Si1 0.185181 0.447866 0.270219
Si Si2 0.641033 0.108910 0.685205
Si Si3 0.406762 0.838229 0.678796
Si Si4 0.671713 0.461147 0.419678
Si Si5 0.135198 0.421117 0.715602
Si Si6 0.653070 0.420304 0.590715
O O1 0.274557 0.551290 0.208396
O O2 0.160875 0.264204 0.242037
O O3 0.276961 0.462073 0.346802
O O4 0.031743 0.533097 0.284883
O O5 0.560195 0.217331 0.750360
O O6 0.678984 0.235214 0.619232
O O7 0.539069 0.958958 0.662621
O O8 0.781308 0.038192 0.725711
O O9 0.360409 0.721996 0.610934
O O10 0.789210 0.542676 0.364831
O O11 0.710175 0.456007 0.507154
O O12 0.519222 0.553959 0.410685
#
# Coordination Sequence:
#
# PCOD9239829 Si02
#       6
#     4   4   4   4   4   4
#     4  11  21  36  57  79 104 138 179 219 261 312
#     4  10  18  32  54  79 106 137 178 219 257 306
#     4  10  18  32  54  79 106 137 178 219 257 306
#     4  10  21  36  54  79 110 141 173 214 264 311
#     4  11  21  36  57  79 104 138 179 219 261 312
#     4  10  21  36  54  79 110 141 173 214 264 311
#
# _framework density 17.889008
#
# number of rings (size 3 to 8) (size 9 to 14) (size 15 to 20)
#    0.000    1.667    0.000   10.000    0.000    1.333 
#    0.000    1.667    0.000    4.000    0.000    0.000 
#    0.000    0.000    0.000    0.000    0.000    0.000 
#
# Total GULP energy -134050.908779 kJ/mol
# GULP energy per Si atom -5585.454532 kJ/mol
# Density = 1.784829 g / cm^3
# Si number density = 17.889008 Si / 1000 Ang^3
#
#
#
# Elastic Constant Matrix: (Units=GPa)
#
#
# Indices 1 2 3 4 5 6 
#
# 1 40.5908 -15.2710 3.8522 0.0000 -3.2909 0.0000
# 2 -15.2710 70.7843 9.4623 0.0000 6.2070 0.0000
# 3 3.8522 9.4623 62.3514 0.0000 1.5888 0.0000
# 4 0.0000 0.0000 0.0000 13.9753 0.0000 0.7927
# 5 -3.2909 6.2070 1.5888 0.0000 9.1871 0.0000
# 6 0.0000 0.0000 0.0000 0.7927 0.0000 33.4259
#
#
#
# Elastic Compliance Matrix: (Units=1/GPa)
#
#
# Indices 1 2 3 4 5 6 
#
# 1 0.027584 0.005750 -0.002742 0.000000 0.006470 0.000000
# 2 0.005750 0.016476 -0.002636 0.000000 -0.008616 0.000000
# 3 -0.002742 -0.002636 0.016661 0.000000 -0.002082 0.000000
# 4 0.000000 0.000000 0.000000 0.071651 0.000000 -0.001699
# 5 0.006470 -0.008616 -0.002082 0.000000 0.117347 0.000000
# 6 0.000000 0.000000 0.000000 -0.001699 0.000000 0.029957
#
#
# Mechanical properties :
#
#
# Convention : Reuss Voigt Hill
#
# Bulk Modulus (GPa) = 16.26929 18.86817 17.56873
# Shear Modulus (GPa) = 16.69899 23.02987 19.86443
#
# Velocity S-wave (km/s) = 3.05860 3.59189 3.33592
# Velocity P-wave (km/s) = 4.64626 5.26996 4.96791
#
# Compressibility (1/GPa) = 0.06146550
#
# Stress axis : x y z
#
# Youngs Moduli (GPa) = 36.25261 60.69487 60.02171
#
# Poissons Ratio (x) = -0.34901 0.16456
# Poissons Ratio (y) = -0.20846 0.15822
# Poissons Ratio (z) = 0.09939 0.16000
#
# Static dielectric constant tensor:
#      x y z
#    x 1.603910 0.000000 0.002030 
#    y 0.000000 1.619000 0.000000 
#    z 0.002030 0.000000 1.597220 
# 
# From -- ./inp_files/54567.got.cif
#   From: 2010.05.17/outbox.cif.g08.bks.cpg/sg14_28_cif.got.tgz:54567.got - 2010.06.03 17:49:19.
