data_PCOD9239592
_publ_section_title
;
Structure prediction by ZEFSAII (Michael W. Deem and Ramdas Pophale) SiO2 
 PCOD9239592
Probable space group: P 21/C
;
_chemical_formula_sum "Si O2"
_cell_formula_units_Z 28
_cell_length_a 14.380379
_cell_length_b 9.219787
_cell_length_c 8.482566
_cell_angle_alpha 90.000000
_cell_angle_beta 85.678019
_cell_angle_gamma 90.000000
_cell_volume 1121.454616
_symmetry_space_group_name_H-M "P 21/C"
_symmetry_group_IT_number 14
_symmetry_cell_setting 'monoclinic'
loop_
_space_group_symop_operation_xyz
x,y,z
-x,1/2+y,1/2-z
-x,-y,-z
x,1/2-y,1/2+z
loop_
_atom_site_type_symbol
_atom_site_label
_atom_site_fract_x
_atom_site_fract_y
_atom_site_fract_z
Si Si1 0.850600 0.286764 0.298446
Si Si2 0.770531 0.843816 0.296596
Si Si3 0.560967 0.167301 0.954594
Si Si4 0.460483 0.581976 0.855637
Si Si5 0.670166 0.395384 0.727870
Si Si6 0.089687 0.943036 0.898122
Si Si7 0.753177 0.542348 0.143554
O O1 0.765646 0.175479 0.278850
O O2 0.858430 0.350563 0.471196
O O3 0.826778 0.422421 0.190198
O O4 0.933182 0.179543 0.231664
O O5 0.753133 0.675505 0.266212
O O6 0.784094 0.883183 0.477021
O O7 0.678015 0.936505 0.266135
O O8 0.851531 0.921304 0.180650
O O9 0.514657 0.061510 0.833162
O O10 0.600191 0.294094 0.834472
O O11 0.505812 0.257306 0.091607
O O12 0.648574 0.113861 0.045305
O O13 0.348276 0.539057 0.862910
O O14 0.500000 0.500000 0.000000
O O15 0.000000 0.000000 0.000000
#
# Coordination Sequence:
#
# PCOD9239592 Si02
#       7
#     4   4   4   4   4   4   4
#     4  11  21  41  74  94 128 182 224 266 328 408
#     4  11  24  39  64  98 133 169 224 278 332 385
#     4  10  19  39  67  88 126 168 227 269 326 410
#     4  11  25  42  63  96 135 172 224 284 346 389
#     4  10  17  37  66  94 115 167 226 266 312 390
#     4  11  26  45  68 103 137 173 219 275 343 401
#     4  12  24  41  67  97 132 175 234 276 327 407
#
# _framework density 24.967573999999999
#
# number of rings (size 3 to 8) (size 9 to 14) (size 15 to 20)
#    0.000    1.143    4.286    4.286    2.000    3.429 
#    0.000    3.571    0.000    0.000    0.000    0.000 
#    0.000    0.000    0.000    0.000    0.000    0.000 
#
# Total GULP energy -156104.810522 kJ/mol
# GULP energy per Si atom -5575.171804 kJ/mol
# Density = 2.491075 g / cm^3
# Si number density = 24.967574 Si / 1000 Ang^3
#
#
#
# Elastic Constant Matrix: (Units=GPa)
#
#
# Indices 1 2 3 4 5 6 
#
# 1 46.8365 10.5589 1.6252 0.0000 -19.4367 0.0000
# 2 10.5589 137.8256 3.6132 0.0000 0.4405 0.0000
# 3 1.6252 3.6132 105.1049 0.0000 3.2554 0.0000
# 4 0.0000 0.0000 0.0000 48.9840 0.0000 -4.6201
# 5 -19.4367 0.4405 3.2554 0.0000 21.9872 0.0000
# 6 0.0000 0.0000 0.0000 -4.6201 0.0000 34.9980
#
#
#
# Elastic Compliance Matrix: (Units=1/GPa)
#
#
# Indices 1 2 3 4 5 6 
#
# 1 0.034948 -0.002740 -0.001411 0.000000 0.031158 0.000000
# 2 -0.002740 0.007477 -0.000136 0.000000 -0.002552 0.000000
# 3 -0.001411 -0.000136 0.009623 0.000000 -0.002670 0.000000
# 4 0.000000 0.000000 0.000000 0.020672 0.000000 0.002729
# 5 0.031158 -0.002552 -0.002670 0.000000 0.073471 0.000000
# 6 0.000000 0.000000 0.000000 0.002729 0.000000 0.028933
#
#
# Mechanical properties :
#
#
# Convention : Reuss Voigt Hill
#
# Bulk Modulus (GPa) = 23.00191 35.70684 29.35438
# Shear Modulus (GPa) = 25.22835 39.45849 32.34342
#
# Velocity S-wave (km/s) = 3.18220 3.97972 3.60309
# Velocity P-wave (km/s) = 4.76808 5.95398 5.39372
#
# Compressibility (1/GPa) = 0.04347465
#
# Stress axis : x y z
#
# Youngs Moduli (GPa) = 28.61423 133.74048 103.91259
#
# Poissons Ratio (x) = 0.36644 0.14664
# Poissons Ratio (y) = 0.07840 0.01409
# Poissons Ratio (z) = 0.04038 0.01814
#
# Static dielectric constant tensor:
#      x y z
#    x 2.186770 0.000000 -0.067490 
#    y 0.000000 2.191630 0.000000 
#    z -0.067490 0.000000 2.062260 
# 
# From -- ./inp_files/17601.got.cif
#   From: 2010.05.17/outbox.cif.g08.bks.cpg/sg14_9_cif.got.tgz:17601.got - 2010.06.03 17:49:19.
