data_PCOD9239253
_publ_section_title
;
Structure prediction by ZEFSAII (Michael W. Deem and Ramdas Pophale) SiO2 
 PCOD9239253
Probable space group: P 21/C
;
_chemical_formula_sum "Si O2"
_cell_formula_units_Z 28
_cell_length_a 21.401223
_cell_length_b 6.628350
_cell_length_c 14.595366
_cell_angle_alpha 90.000000
_cell_angle_beta 147.470638
_cell_angle_gamma 90.000000
_cell_volume 1113.331997
_symmetry_space_group_name_H-M "P 21/C"
_symmetry_group_IT_number 14
_symmetry_cell_setting 'monoclinic'
loop_
_space_group_symop_operation_xyz
x,y,z
-x,1/2+y,1/2-z
-x,-y,-z
x,1/2-y,1/2+z
loop_
_atom_site_type_symbol
_atom_site_label
_atom_site_fract_x
_atom_site_fract_y
_atom_site_fract_z
Si Si1 0.249302 0.622095 0.588940
Si Si2 0.148801 0.529524 0.283314
Si Si3 0.498890 0.725010 0.957780
Si Si4 0.677749 0.642437 0.823326
Si Si5 0.113445 0.488509 0.034201
Si Si6 0.122503 0.015035 0.100491
Si Si7 0.684653 0.851359 0.535112
O O1 0.201795 0.667570 0.428629
O O2 0.365000 0.739624 0.762929
O O3 0.286352 0.382129 0.632144
O O4 0.148579 0.618357 0.542207
O O5 0.137956 0.594817 0.163367
O O6 0.230557 0.336100 0.378124
O O7 0.019426 0.469952 0.155560
O O8 0.579048 0.721576 0.967016
O O9 0.500000 0.500000 0.000000
O O10 0.567349 0.855978 0.118728
O O11 0.789562 0.518277 0.924617
O O12 0.645472 0.581149 0.886536
O O13 0.117771 0.249365 0.064483
O O14 0.235380 0.999471 0.306084
O O15 0.000000 0.000000 0.000000
#
# Coordination Sequence:
#
# PCOD9239253 Si02
#       7
#     4   4   4   4   4   4   4
#     4   9  18  31  53  78 106 146 188 230 277 330
#     4   9  17  31  54  82 106 148 179 230 288 343
#     4  10  16  34  54  77 107 138 194 235 267 336
#     4   9  17  30  52  81 105 145 186 231 276 334
#     4   9  17  33  52  79 116 142 186 224 285 350
#     4  10  19  32  49  81 114 141 183 233 276 336
#     4  10  18  32  53  84 104 144 190 227 289 332
#
# _framework density 25.149729000000001
#
# number of rings (size 3 to 8) (size 9 to 14) (size 15 to 20)
#    0.000    2.571    5.714    0.000    2.000    0.000 
#    0.000    1.429    0.000    0.857    0.000    0.000 
#    0.000    0.000    0.000    0.000    0.000    0.000 
#
# Total GULP energy -156508.219084 kJ/mol
# GULP energy per Si atom -5589.579253 kJ/mol
# Density = 2.509249 g / cm^3
# Si number density = 25.149729 Si / 1000 Ang^3
#
#
#
# Elastic Constant Matrix: (Units=GPa)
#
#
# Indices 1 2 3 4 5 6 
#
# 1 50.7932 33.3959 121.8868 0.0000 -42.6830 0.0000
# 2 33.3959 41.3220 23.8102 0.0000 11.7536 0.0000
# 3 121.8868 23.8102 112.8627 0.0000 25.7799 0.0000
# 4 0.0000 0.0000 0.0000 46.0014 0.0000 7.8798
# 5 -42.6830 11.7536 25.7799 0.0000 21.6979 0.0000
# 6 0.0000 0.0000 0.0000 7.8798 0.0000 45.1814
#
#
#
# Elastic Compliance Matrix: (Units=1/GPa)
#
#
# Indices 1 2 3 4 5 6 
#
# 1 -0.002307 0.002449 0.004549 0.000000 -0.011269 0.000000
# 2 0.002449 0.027007 -0.008373 0.000000 0.000135 0.000000
# 3 0.004549 -0.008373 0.003616 0.000000 0.009187 0.000000
# 4 0.000000 0.000000 0.000000 0.022408 0.000000 -0.003908
# 5 -0.011269 0.000135 0.009187 0.000000 0.012931 0.000000
# 6 0.000000 0.000000 0.000000 -0.003908 0.000000 0.022815
#
#
# Mechanical properties :
#
#
# Convention : Reuss Voigt Hill
#
# Bulk Modulus (GPa) = 39.11576 62.57374 50.84475
# Shear Modulus (GPa) = 51.15434 24.30181 37.72808
#
# Velocity S-wave (km/s) = 4.51487 3.11188 3.87736
# Velocity P-wave (km/s) = 6.53955 6.15193 6.34870
#
# Compressibility (1/GPa) = 0.02556514
#
# Stress axis : x y z
#
# Youngs Moduli (GPa) = -433.49962 37.02688 276.56097
#
# Poissons Ratio (x) = -0.09066 -1.25798
# Poissons Ratio (y) = 1.06147 2.31561
# Poissons Ratio (z) = 1.97183 0.31002
#
# Static dielectric constant tensor:
#      x y z
#    x 1.910720 0.000000 -0.057070 
#    y 0.000000 2.161410 0.000000 
#    z -0.057070 0.000000 1.945740 
# 
# From -- ./inp_files/50285.got.cif
#   From: 2010.05.17/outbox.cif.g08.bks.cpg/sg14_26_cif.got.tgz:50285.got - 2010.06.03 17:49:19.
