data_PCOD9239390
_publ_section_title
;
Structure prediction by ZEFSAII (Michael W. Deem and Ramdas Pophale) SiO2 
 PCOD9239390
Probable space group: P 21/C
;
_chemical_formula_sum "Si O2"
_cell_formula_units_Z 32
_cell_length_a 8.281415
_cell_length_b 11.318281
_cell_length_c 20.412931
_cell_angle_alpha 90.000000
_cell_angle_beta 139.203449
_cell_angle_gamma 90.000000
_cell_volume 1250.123514
_symmetry_space_group_name_H-M "P 21/C"
_symmetry_group_IT_number 14
_symmetry_cell_setting 'monoclinic'
loop_
_space_group_symop_operation_xyz
x,y,z
-x,1/2+y,1/2-z
-x,-y,-z
x,1/2-y,1/2+z
loop_
_atom_site_type_symbol
_atom_site_label
_atom_site_fract_x
_atom_site_fract_y
_atom_site_fract_z
Si Si1 0.102614 0.903282 0.682755
Si Si2 0.016954 0.432985 0.714579
Si Si3 0.537650 0.747175 0.635016
Si Si4 0.948028 0.533029 0.559064
Si Si5 0.358895 0.281768 0.472827
Si Si6 0.404979 0.887138 0.368637
Si Si7 0.154065 0.562114 0.988849
Si Si8 0.591706 0.201177 0.768463
O O1 0.154878 0.907394 0.775977
O O2 0.870471 0.811842 0.601772
O O3 0.012603 0.026750 0.624640
O O4 0.323594 0.838174 0.712240
O O5 0.245240 0.343083 0.790976
O O6 0.139786 0.559805 0.771247
O O7 0.934025 0.437187 0.613704
O O8 0.590207 0.676279 0.584978
O O9 0.548360 0.682735 0.707256
O O10 0.266043 0.810154 0.542273
O O11 0.713313 0.615966 0.499626
O O12 0.000000 0.500000 0.500000
O O13 0.176794 0.615481 0.650000
O O14 0.585701 0.206652 0.570686
O O15 0.591585 0.990816 0.444851
O O16 0.514754 0.833129 0.334802
O O17 0.000000 0.500000 0.000000
#
# Coordination Sequence:
#
# PCOD9239390 Si02
#       8
#     4   4   4   4   4   4   4   4
#     4   9  17  34  58  80 109 142 181 233 281 337
#     4   9  19  36  57  83 109 146 188 233 290 336
#     4  10  19  34  57  87 113 141 187 243 288 336
#     4  10  22  40  57  77 115 159 192 228 283 354
#     4   9  19  36  58  79 110 148 188 232 282 342
#     4   9  19  34  55  79 111 150 182 233 288 340
#     4  10  17  31  55  87 111 140 185 238 290 333
#     4  10  20  36  56  82 115 144 186 232 280 345
#
# _framework density 25.597470999999999
#
# number of rings (size 3 to 8) (size 9 to 14) (size 15 to 20)
#    0.000    2.500    1.250    0.750    1.750    3.000 
#    4.500    0.625    0.000    0.000    0.000    0.000 
#    0.000    0.000    0.000    0.000    0.000    0.000 
#
# Total GULP energy -178733.248362 kJ/mol
# GULP energy per Si atom -5585.414011 kJ/mol
# Density = 2.553921 g / cm^3
# Si number density = 25.597471 Si / 1000 Ang^3
#
#
#
# Elastic Constant Matrix: (Units=GPa)
#
#
# Indices 1 2 3 4 5 6 
#
# 1 89.8515 13.0692 40.9099 0.0000 -35.4178 0.0000
# 2 13.0692 39.7705 38.1005 0.0000 -0.1586 0.0000
# 3 40.9099 38.1005 112.2739 0.0000 -29.2284 0.0000
# 4 0.0000 0.0000 0.0000 40.7619 0.0000 -1.9431
# 5 -35.4178 -0.1586 -29.2284 0.0000 52.0406 0.0000
# 6 0.0000 0.0000 0.0000 -1.9431 0.0000 27.2689
#
#
#
# Elastic Compliance Matrix: (Units=1/GPa)
#
#
# Indices 1 2 3 4 5 6 
#
# 1 0.016592 -0.003108 -0.002405 0.000000 0.009931 0.000000
# 2 -0.003108 0.041073 -0.015606 0.000000 -0.010755 0.000000
# 3 -0.002405 -0.015606 0.017148 0.000000 0.007946 0.000000
# 4 0.000000 0.000000 0.000000 0.024616 0.000000 0.001754
# 5 0.009931 -0.010755 0.007946 0.000000 0.030405 0.000000
# 6 0.000000 0.000000 0.000000 0.001754 0.000000 0.036797
#
#
# Mechanical properties :
#
#
# Convention : Reuss Voigt Hill
#
# Bulk Modulus (GPa) = 30.69937 47.33944 39.01941
# Shear Modulus (GPa) = 22.75549 34.00203 28.37876
#
# Velocity S-wave (km/s) = 2.98480 3.64859 3.33326
# Velocity P-wave (km/s) = 4.88855 6.02358 5.48550
#
# Compressibility (1/GPa) = 0.03257396
#
# Stress axis : x y z
#
# Youngs Moduli (GPa) = 60.27175 24.34678 58.31683
#
# Poissons Ratio (x) = 0.07568 0.14027
# Poissons Ratio (y) = 0.18735 0.91007
# Poissons Ratio (z) = 0.14497 0.37995
#
# Static dielectric constant tensor:
#      x y z
#    x 2.064190 0.000000 -0.006160 
#    y 0.000000 2.087860 0.000000 
#    z -0.006160 0.000000 2.006430 
# 
# From -- ./inp_files/55867.got.cif
#   From: 2010.05.17/outbox.cif.g08.bks.cpg/sg14_28_cif.got.tgz:55867.got - 2010.06.03 17:49:19.
