data_PCOD9239335
_publ_section_title
;
Structure prediction by ZEFSAII (Michael W. Deem and Ramdas Pophale) SiO2 
 PCOD9239335
Probable space group: P 21/C
;
_chemical_formula_sum "Si O2"
_cell_formula_units_Z 32
_cell_length_a 20.557546
_cell_length_b 7.287802
_cell_length_c 19.291440
_cell_angle_alpha 90.000000
_cell_angle_beta 26.082542
_cell_angle_gamma 90.000000
_cell_volume 1270.734705
_symmetry_space_group_name_H-M "P 21/C"
_symmetry_group_IT_number 14
_symmetry_cell_setting 'monoclinic'
loop_
_space_group_symop_operation_xyz
x,y,z
-x,1/2+y,1/2-z
-x,-y,-z
x,1/2-y,1/2+z
loop_
_atom_site_type_symbol
_atom_site_label
_atom_site_fract_x
_atom_site_fract_y
_atom_site_fract_z
Si Si1 0.515783 0.988321 0.174693
Si Si2 0.846752 0.155139 0.320840
Si Si3 0.740209 0.793691 0.864860
Si Si4 0.744978 0.184052 0.781940
Si Si5 0.524051 0.420327 0.137960
Si Si6 0.043698 0.468604 0.753943
Si Si7 0.601195 0.704961 0.865954
Si Si8 0.221092 0.984094 0.389761
O O1 0.553926 0.983587 0.218438
O O2 0.346916 0.928960 0.323957
O O3 0.530040 0.196992 0.135730
O O4 0.605494 0.843874 0.043990
O O5 0.839313 0.189993 0.244845
O O6 0.697924 0.035178 0.473679
O O7 0.979134 0.075083 0.240381
O O8 0.841705 0.362512 0.357624
O O9 0.690085 0.661680 0.850699
O O10 0.881239 0.793507 0.780216
O O11 0.762153 0.983452 0.800122
O O12 0.802537 0.165725 0.648286
O O13 0.565646 0.221164 0.955065
O O14 0.435108 0.457473 0.153017
O O15 0.917905 0.529256 0.929406
O O16 0.704816 0.846674 0.723579
#
# Coordination Sequence:
#
# PCOD9239335 Si02
#       8
#     4   4   4   4   4   4   4   4
#     4  11  18  34  56  81 103 140 178 219 263 315
#     4  10  21  37  51  77 115 145 170 216 272 318
#     4  10  17  31  52  78 106 135 172 224 273 299
#     4   9  15  31  55  76 105 133 177 231 267 291
#     4  10  20  34  56  82 108 135 179 225 266 311
#     4  11  22  34  54  79 114 144 172 214 271 325
#     4   9  16  30  53  79 106 131 175 233 268 293
#     4  10  17  29  54  82 100 136 182 219 263 315
#
# _framework density 25.182283000000002
#
# number of rings (size 3 to 8) (size 9 to 14) (size 15 to 20)
#    0.000    2.000    7.500    0.750    0.000    6.500 
#    0.000    0.000    0.000    3.000    0.000    0.000 
#    0.000    0.000    0.000    0.000    0.000    0.000 
#
# Total GULP energy -178535.574135 kJ/mol
# GULP energy per Si atom -5579.236692 kJ/mol
# Density = 2.512497 g / cm^3
# Si number density = 25.182283 Si / 1000 Ang^3
#
#
#
# Elastic Constant Matrix: (Units=GPa)
#
#
# Indices 1 2 3 4 5 6 
#
# 1 132.5525 64.6543 12.0629 0.0000 -27.9138 0.0000
# 2 64.6543 60.0023 14.4202 0.0000 2.4841 0.0000
# 3 12.0629 14.4202 63.3492 0.0000 -6.3388 0.0000
# 4 0.0000 0.0000 0.0000 28.6936 0.0000 -5.2913
# 5 -27.9138 2.4841 -6.3388 0.0000 37.1042 0.0000
# 6 0.0000 0.0000 0.0000 -5.2913 0.0000 22.5757
#
#
#
# Elastic Compliance Matrix: (Units=1/GPa)
#
#
# Indices 1 2 3 4 5 6 
#
# 1 0.027664 -0.031835 0.004349 0.000000 0.023687 0.000000
# 2 -0.031835 0.054397 -0.009239 0.000000 -0.029170 0.000000
# 3 0.004349 -0.009239 0.017753 0.000000 0.006923 0.000000
# 4 0.000000 0.000000 0.000000 0.036425 0.000000 0.008537
# 5 0.023687 -0.029170 0.006923 0.000000 0.047907 0.000000
# 6 0.000000 0.000000 0.000000 0.008537 0.000000 0.046296
#
#
# Mechanical properties :
#
#
# Convention : Reuss Voigt Hill
#
# Bulk Modulus (GPa) = 37.93023 48.68653 43.30838
# Shear Modulus (GPa) = 15.99066 28.65915 22.32490
#
# Velocity S-wave (km/s) = 2.52265 3.37719 2.98070
# Velocity P-wave (km/s) = 4.85592 5.88071 5.39272
#
# Compressibility (1/GPa) = 0.02636420
#
# Stress axis : x y z
#
# Youngs Moduli (GPa) = 36.14742 18.38323 56.32751
#
# Poissons Ratio (x) = 0.58523 -0.24496
# Poissons Ratio (y) = 1.15076 0.52043
# Poissons Ratio (z) = -0.15720 0.16985
#
# Static dielectric constant tensor:
#      x y z
#    x 2.042240 0.000000 -0.035420 
#    y 0.000000 2.178380 0.000000 
#    z -0.035420 0.000000 1.962170 
# 
# From -- ./inp_files/60525.got.cif
#   From: 2010.05.17/outbox.cif.g08.bks.cpg/sg14_31_cif.got.tgz:60525.got - 2010.06.03 17:49:19.
