data_PCOD9239573
_publ_section_title
;
Structure prediction by ZEFSAII (Michael W. Deem and Ramdas Pophale) SiO2 
 PCOD9239573
Probable space group: P 21/C
;
_chemical_formula_sum "Si O2"
_cell_formula_units_Z 28
_cell_length_a 6.187830
_cell_length_b 27.362808
_cell_length_c 9.485354
_cell_angle_alpha 90.000000
_cell_angle_beta 132.197619
_cell_angle_gamma 90.000000
_cell_volume 1189.796296
_symmetry_space_group_name_H-M "P 21/C"
_symmetry_group_IT_number 14
_symmetry_cell_setting 'monoclinic'
loop_
_space_group_symop_operation_xyz
x,y,z
-x,1/2+y,1/2-z
-x,-y,-z
x,1/2-y,1/2+z
loop_
_atom_site_type_symbol
_atom_site_label
_atom_site_fract_x
_atom_site_fract_y
_atom_site_fract_z
Si Si1 0.468196 0.414085 0.013734
Si Si2 0.118155 0.854337 0.715186
Si Si3 0.866910 0.188678 0.979747
Si Si4 0.784666 0.713274 0.849207
Si Si5 0.659122 0.446538 0.823497
Si Si6 0.930463 0.634632 0.690068
Si Si7 0.690887 0.549045 0.762376
O O1 0.500717 0.433801 0.187591
O O2 0.746480 0.379759 0.113545
O O3 0.466623 0.450553 0.880442
O O4 0.167777 0.385826 0.874699
O O5 0.343195 0.892923 0.746318
O O6 0.990322 0.814767 0.551094
O O7 0.218168 0.830433 0.903347
O O8 0.562342 0.206945 0.775009
O O9 0.017386 0.147259 0.949952
O O10 0.100752 0.231804 0.102726
O O11 0.843283 0.684594 0.729511
O O12 0.610958 0.492642 0.700237
O O13 0.986544 0.451497 0.027709
O O14 0.727251 0.589950 0.657477
#
# Coordination Sequence:
#
# PCOD9239573 Si02
#       7
#     4   4   4   4   4   4   4
#     4  10  17  36  66  94 138 176 221 278 330 393
#     4  11  23  43  66 102 136 172 232 272 345 403
#     4  12  29  43  73  98 136 177 229 284 349 404
#     4  12  26  48  66 100 133 179 230 284 340 410
#     4   9  18  33  64 100 135 177 224 273 327 405
#     4  11  21  42  67  96 141 173 222 288 337 393
#     4   9  17  33  62 102 134 174 228 269 332 396
#
# _framework density 23.533439000000001
#
# number of rings (size 3 to 8) (size 9 to 14) (size 15 to 20)
#    0.000    1.429    5.714    1.286    2.000    5.714 
#    0.000    0.714    0.000    4.286    0.000    0.000 
#    0.000    0.000    0.000    0.000    0.000    0.000 
#
# Total GULP energy -156328.473224 kJ/mol
# GULP energy per Si atom -5583.159758 kJ/mol
# Density = 2.347988 g / cm^3
# Si number density = 23.533439 Si / 1000 Ang^3
#
#
#
# Elastic Constant Matrix: (Units=GPa)
#
#
# Indices 1 2 3 4 5 6 
#
# 1 81.5746 24.2300 19.6394 0.0000 -7.7936 0.0000
# 2 24.2300 99.2924 35.2505 0.0000 -4.6291 0.0000
# 3 19.6394 35.2505 95.6285 0.0000 -16.4586 0.0000
# 4 0.0000 0.0000 0.0000 6.7250 0.0000 -3.5059
# 5 -7.7936 -4.6291 -16.4586 0.0000 33.3156 0.0000
# 6 0.0000 0.0000 0.0000 -3.5059 0.0000 10.0223
#
#
#
# Elastic Compliance Matrix: (Units=1/GPa)
#
#
# Indices 1 2 3 4 5 6 
#
# 1 0.013611 -0.002715 -0.001433 0.000000 0.002099 0.000000
# 2 -0.002715 0.012138 -0.004083 0.000000 -0.000966 0.000000
# 3 -0.001433 -0.004083 0.013226 0.000000 0.005631 0.000000
# 4 0.000000 0.000000 0.000000 0.181864 0.000000 0.063617
# 5 0.002099 -0.000966 0.005631 0.000000 0.033155 0.000000
# 6 0.000000 0.000000 0.000000 0.063617 0.000000 0.122031
#
#
# Mechanical properties :
#
#
# Convention : Reuss Voigt Hill
#
# Bulk Modulus (GPa) = 44.41975 48.30392 46.36184
# Shear Modulus (GPa) = 12.50030 23.17095 17.83562
#
# Velocity S-wave (km/s) = 2.30722 3.14123 2.75596
# Velocity P-wave (km/s) = 5.10037 5.80747 5.46537
#
# Compressibility (1/GPa) = 0.02251251
#
# Stress axis : x y z
#
# Youngs Moduli (GPa) = 73.47192 82.38414 75.60983
#
# Poissons Ratio (x) = 0.22364 0.10838
# Poissons Ratio (y) = 0.19945 0.30872
# Poissons Ratio (z) = 0.10531 0.33638
#
# Static dielectric constant tensor:
#      x y z
#    x 1.910860 0.000000 -0.036660 
#    y 0.000000 1.919060 0.000000 
#    z -0.036660 0.000000 1.890920 
# 
# From -- ./inp_files/6848.got.cif
#   From: 2010.05.17/outbox.cif.g08.bks.cpg/sg14_4_cif.got.tgz:6848.got - 2010.06.03 17:49:19.
