data_PCOD9239544
_publ_section_title
;
Structure prediction by ZEFSAII (Michael W. Deem and Ramdas Pophale) SiO2 
 PCOD9239544
Probable space group: P 21/C
;
_chemical_formula_sum "Si O2"
_cell_formula_units_Z 32
_cell_length_a 9.076177
_cell_length_b 17.486490
_cell_length_c 18.603126
_cell_angle_alpha 90.000000
_cell_angle_beta 143.656148
_cell_angle_gamma 90.000000
_cell_volume 1749.746114
_symmetry_space_group_name_H-M "P 21/C"
_symmetry_group_IT_number 14
_symmetry_cell_setting 'monoclinic'
loop_
_space_group_symop_operation_xyz
x,y,z
-x,1/2+y,1/2-z
-x,-y,-z
x,1/2-y,1/2+z
loop_
_atom_site_type_symbol
_atom_site_label
_atom_site_fract_x
_atom_site_fract_y
_atom_site_fract_z
Si Si1 0.361032 0.860639 0.637894
Si Si2 0.095599 0.901207 0.022615
Si Si3 0.895713 0.489653 0.625432
Si Si4 0.390746 0.315062 0.624753
Si Si5 0.602939 0.472800 0.226705
Si Si6 0.492076 0.875457 0.979679
Si Si7 0.784242 0.653634 0.888373
Si Si8 0.509194 0.793963 0.139426
O O1 0.395915 0.829664 0.732714
O O2 0.506075 0.797497 0.646582
O O3 0.074052 0.864954 0.504415
O O4 0.485833 0.943382 0.684317
O O5 0.252569 0.944653 0.144752
O O6 0.239949 0.823052 0.060907
O O7 0.101984 0.951119 0.952973
O O8 0.824868 0.877436 0.943531
O O9 0.769726 0.421679 0.622007
O O10 0.706422 0.560050 0.557990
O O11 0.176104 0.520487 0.745597
O O12 0.486117 0.324192 0.582022
O O13 0.275676 0.232663 0.595058
O O14 0.380724 0.411419 0.137429
O O15 0.533756 0.827830 0.069304
O O16 0.696877 0.668395 0.771220
#
# Coordination Sequence:
#
# PCOD9239544 Si02
#       8
#     4   4   4   4   4   4   4   4
#     4  11  21  37  62  88 117 160 209 240 295 368
#     4  10  17  35  63  90 113 148 207 255 299 336
#     4  10  19  34  57  95 121 147 189 250 317 346
#     4  11  20  37  66  94 112 151 207 266 290 346
#     4  11  20  34  60  86 121 157 197 249 294 356
#     4  10  21  35  61  94 124 144 197 263 304 345
#     4  10  23  39  59  88 120 162 206 237 299 372
#     4   9  21  38  60  85 118 161 192 249 301 359
#
# _framework density 18.288367000000001
#
# number of rings (size 3 to 8) (size 9 to 14) (size 15 to 20)
#    0.000    1.750    3.750    1.500    0.000    1.000 
#    0.000    5.000    0.000    2.250    0.000    0.000 
#    0.000    0.000    0.000    0.000    0.000    0.000 
#
# Total GULP energy -178365.556599 kJ/mol
# GULP energy per Si atom -5573.923644 kJ/mol
# Density = 1.824674 g / cm^3
# Si number density = 18.288367 Si / 1000 Ang^3
#
#
#
# Elastic Constant Matrix: (Units=GPa)
#
#
# Indices 1 2 3 4 5 6 
#
# 1 100.3552 35.1251 39.9317 0.0000 -4.8354 0.0000
# 2 35.1251 116.6301 21.3748 0.0000 0.4560 0.0000
# 3 39.9317 21.3748 75.3240 0.0000 12.2650 0.0000
# 4 0.0000 0.0000 0.0000 23.4663 0.0000 7.6695
# 5 -4.8354 0.4560 12.2650 0.0000 29.9626 0.0000
# 6 0.0000 0.0000 0.0000 7.6695 0.0000 12.6121
#
#
#
# Elastic Compliance Matrix: (Units=1/GPa)
#
#
# Indices 1 2 3 4 5 6 
#
# 1 0.014292 -0.002926 -0.007638 0.000000 0.005478 0.000000
# 2 -0.002926 0.009670 -0.001170 0.000000 -0.000140 0.000000
# 3 -0.007638 -0.001170 0.019130 0.000000 -0.009046 0.000000
# 4 0.000000 0.000000 0.000000 0.053184 0.000000 -0.032342
# 5 0.005478 -0.000140 -0.009046 0.000000 0.037964 0.000000
# 6 0.000000 0.000000 0.000000 -0.032342 0.000000 0.098956
#
#
# Mechanical properties :
#
#
# Convention : Reuss Voigt Hill
#
# Bulk Modulus (GPa) = 50.95846 53.90808 52.43327
# Shear Modulus (GPa) = 18.99652 26.26673 22.63163
#
# Velocity S-wave (km/s) = 3.22642 3.79391 3.52161
# Velocity P-wave (km/s) = 6.46560 6.98085 6.72816
#
# Compressibility (1/GPa) = 0.01962383
#
# Stress axis : x y z
#
# Youngs Moduli (GPa) = 69.96988 103.40950 52.27326
#
# Poissons Ratio (x) = 0.30256 0.39928
# Poissons Ratio (y) = 0.20472 0.06117
# Poissons Ratio (z) = 0.53445 0.12101
#
# Static dielectric constant tensor:
#      x y z
#    x 1.628570 0.000000 0.018350 
#    y 0.000000 1.659700 0.000000 
#    z 0.018350 0.000000 1.637710 
# 
# From -- ./inp_files/56109.got.cif
#   From: 2010.05.17/outbox.cif.g08.bks.cpg/sg14_29_cif.got.tgz:56109.got - 2010.06.03 17:49:19.
