data_PCOD9239142
_publ_section_title
;
Structure prediction by ZEFSAII (Michael W. Deem and Ramdas Pophale) SiO2 
 PCOD9239142
Probable space group: P 21/C
;
_chemical_formula_sum "Si O2"
_cell_formula_units_Z 32
_cell_length_a 11.852460
_cell_length_b 22.395554
_cell_length_c 5.599210
_cell_angle_alpha 90.000000
_cell_angle_beta 89.999972
_cell_angle_gamma 90.000000
_cell_volume 1486.267785
_symmetry_space_group_name_H-M "P 21/C"
_symmetry_group_IT_number 14
_symmetry_cell_setting 'monoclinic'
loop_
_space_group_symop_operation_xyz
x,y,z
-x,1/2+y,1/2-z
-x,-y,-z
x,1/2-y,1/2+z
loop_
_atom_site_type_symbol
_atom_site_label
_atom_site_fract_x
_atom_site_fract_y
_atom_site_fract_z
Si Si1 0.595466 0.863457 0.750000
Si Si2 0.218295 0.921364 0.250000
Si Si3 0.592266 0.843115 0.250000
Si Si4 0.566525 0.998345 0.750000
Si Si5 0.096298 0.048629 0.250000
Si Si6 0.832026 0.076337 0.250000
Si Si7 0.775115 0.762489 0.750000
Si Si8 0.789512 0.560054 0.750000
O O1 0.532225 0.847174 0.504642
O O2 0.622851 0.933164 0.750000
O O3 0.711809 0.825843 0.750000
O O4 0.532225 0.847174 0.995357
O O5 0.197261 0.891099 0.503849
O O6 0.342192 0.949768 0.250000
O O7 0.132657 0.978797 0.250000
O O8 0.197261 0.891099 0.996151
O O9 0.670387 0.784461 0.250000
O O10 0.678633 0.899278 0.250000
O O11 0.500000 0.000000 0.500000
O O12 0.500000 0.000000 0.000000
O O13 0.143137 0.072552 0.504189
O O14 0.963009 0.058136 0.250000
O O15 0.143137 0.072552 0.995811
O O16 0.766594 0.011638 0.250000
O O17 0.836546 0.750000 0.499999
#
# Coordination Sequence:
#
# PCOD9239142 Si02
#       8
#     4   4   4   4   4   4   4   4
#     4  10  18  32  46  60  86 119 158 204 234 267
#     4  10  18  30  44  58  82 115 152 201 237 261
#     4  10  17  28  46  68  87 116 158 189 233 298
#     4  12  24  35  46  65  91 128 180 208 231 287
#     4  10  18  27  42  64  86 115 157 192 225 268
#     4  10  17  28  44  64  84 114 158 194 228 268
#     4   8  16  27  44  65  84 108 151 190 234 291
#     4  10  16  23  36  58  88 113 138 184 222 258
#
# _framework density 21.530441
#
# number of rings (size 3 to 8) (size 9 to 14) (size 15 to 20)
#    0.000    2.000    0.000    9.000    0.000    0.000 
#    0.000    0.000    0.000    0.000    0.000    0.000 
#    0.000    0.000    0.000    0.000    0.000 1695.000 
#
# Total GULP energy -178609.975256 kJ/mol
# GULP energy per Si atom -5581.561727 kJ/mol
# Density = 2.148144 g / cm^3
# Si number density = 21.530441 Si / 1000 Ang^3
#
#
#
# Elastic Constant Matrix: (Units=GPa)
#
#
# Indices 1 2 3 4 5 6 
#
# 1 41.9982 -7.9540 44.2758 0.0000 0.0000 0.0000
# 2 -7.9540 39.5239 6.6039 0.0000 0.0000 0.0000
# 3 44.2758 6.6039 284.4956 0.0000 0.0001 0.0000
# 4 0.0000 0.0000 0.0000 19.1666 0.0000 0.0000
# 5 0.0000 0.0000 0.0001 0.0000 30.5872 0.0000
# 6 0.0000 0.0000 0.0000 0.0000 0.0000 0.3323
#
#
#
# Elastic Compliance Matrix: (Units=1/GPa)
#
#
# Indices 1 2 3 4 5 6 
#
# 1 0.030249 0.006901 -0.004868 0.000000 0.000000 0.000000
# 2 0.006901 0.026974 -0.001700 0.000000 0.000000 0.000000
# 3 -0.004868 -0.001700 0.004312 0.000000 0.000000 0.000000
# 4 0.000000 0.000000 0.000000 0.052174 0.000000 -0.000004
# 5 0.000000 0.000000 0.000000 0.000000 0.032693 0.000000
# 6 0.000000 0.000000 0.000000 -0.000004 0.000000 3.009307
#
#
# Mechanical properties :
#
#
# Convention : Reuss Voigt Hill
#
# Bulk Modulus (GPa) = 16.07688 50.20767 33.14228
# Shear Modulus (GPa) = 1.57442 31.55667 16.56555
#
# Velocity S-wave (km/s) = 0.85606 3.83257 2.77682
# Velocity P-wave (km/s) = 2.90867 6.55399 5.07027
#
# Compressibility (1/GPa) = 0.06220113
#
# Stress axis : x y z
#
# Youngs Moduli (GPa) = 33.05860 37.07276 231.90889
#
# Poissons Ratio (x) = -0.25583 1.12890
# Poissons Ratio (y) = -0.22813 0.39427
# Poissons Ratio (z) = 0.16092 0.06303
#
# Static dielectric constant tensor:
#      x y z
#    x 1.800640 0.000000 0.000000 
#    y 0.000000 1.611330 0.000000 
#    z 0.000000 0.000000 1.978860 
# 
# From -- ./inp_files/3163.got.cif
#   From: 2010.05.17/outbox.cif.g08.bks.cpg/sg14_2_cif.got.tgz:3163.got - 2010.06.03 17:49:19.
