data_PCOD9239254
_publ_section_title
;
Structure prediction by ZEFSAII (Michael W. Deem and Ramdas Pophale) SiO2 
 PCOD9239254
Probable space group: P 21/C
;
_chemical_formula_sum "Si O2"
_cell_formula_units_Z 20
_cell_length_a 9.217651
_cell_length_b 7.529800
_cell_length_c 23.535399
_cell_angle_alpha 90.000000
_cell_angle_beta 32.205191
_cell_angle_gamma 90.000000
_cell_volume 870.590911
_symmetry_space_group_name_H-M "P 21/C"
_symmetry_group_IT_number 14
_symmetry_cell_setting 'monoclinic'
loop_
_space_group_symop_operation_xyz
x,y,z
-x,1/2+y,1/2-z
-x,-y,-z
x,1/2-y,1/2+z
loop_
_atom_site_type_symbol
_atom_site_label
_atom_site_fract_x
_atom_site_fract_y
_atom_site_fract_z
Si Si1 0.144698 0.387007 0.018403
Si Si2 0.814047 0.164528 0.040838
Si Si3 0.625825 0.020839 0.748312
Si Si4 0.782720 0.517212 0.437845
Si Si5 0.365469 0.928531 0.715464
O O1 0.424420 0.472603 0.904191
O O2 0.209520 0.205518 0.031121
O O3 0.968848 0.322198 0.021695
O O4 0.938233 0.497399 0.126066
O O5 0.514505 0.124128 0.165144
O O6 0.806924 0.139050 0.976225
O O7 0.000000 0.000000 0.000000
O O8 0.603889 0.215666 0.783768
O O9 0.454975 0.011408 0.746289
O O10 0.500000 0.500000 0.500000
O O11 0.053061 0.521236 0.309604
#
# Coordination Sequence:
#
# PCOD9239254 Si02
#       5
#     4   4   4   4   4
#     4  10  20  34  60  83 112 145 190 237 279 329
#     4  10  16  34  56  80 109 144 186 226 282 327
#     4  11  18  32  58  88 115 138 186 240 280 327
#     4  10  20  34  55  77 113 155 186 217 281 343
#     4  11  19  34  57  87 116 146 187 234 287 327
#
# _framework density 22.972902999999999
#
# number of rings (size 3 to 8) (size 9 to 14) (size 15 to 20)
#    0.000    1.600   10.000    0.600    0.000    0.000 
#    0.000    2.000    0.000    1.200    0.000    0.000 
#    0.000    0.000    0.000    0.000    0.000    0.000 
#
# Total GULP energy -111819.268051 kJ/mol
# GULP energy per Si atom -5590.963403 kJ/mol
# Density = 2.292062 g / cm^3
# Si number density = 22.972903 Si / 1000 Ang^3
#
#
#
# Elastic Constant Matrix: (Units=GPa)
#
#
# Indices 1 2 3 4 5 6 
#
# 1 57.8601 24.0808 47.1449 0.0000 -24.3213 0.0000
# 2 24.0808 94.3468 43.3156 0.0000 -7.1409 0.0000
# 3 47.1449 43.3156 251.3229 0.0000 -5.1793 0.0000
# 4 0.0000 0.0000 0.0000 31.1433 0.0000 0.6154
# 5 -24.3213 -7.1409 -5.1793 0.0000 34.2070 0.0000
# 6 0.0000 0.0000 0.0000 0.6154 0.0000 10.0359
#
#
#
# Elastic Compliance Matrix: (Units=1/GPa)
#
#
# Indices 1 2 3 4 5 6 
#
# 1 0.031809 -0.004332 -0.004788 0.000000 0.020987 0.000000
# 2 -0.004332 0.012254 -0.001314 0.000000 -0.000721 0.000000
# 3 -0.004788 -0.001314 0.005043 0.000000 -0.002915 0.000000
# 4 0.000000 0.000000 0.000000 0.032149 0.000000 -0.001971
# 5 0.020987 -0.000721 -0.002915 0.000000 0.043564 0.000000
# 6 0.000000 0.000000 0.000000 -0.001971 0.000000 0.099763
#
#
# Mechanical properties :
#
#
# Convention : Reuss Voigt Hill
#
# Bulk Modulus (GPa) = 35.41343 70.29028 52.85185
# Shear Modulus (GPa) = 19.61840 34.34315 26.98077
#
# Velocity S-wave (km/s) = 2.92546 3.87064 3.43076
# Velocity P-wave (km/s) = 5.18265 7.11613 6.22492
#
# Compressibility (1/GPa) = 0.02823788
#
# Stress axis : x y z
#
# Youngs Moduli (GPa) = 31.43761 81.60816 198.27538
#
# Poissons Ratio (x) = 0.35355 0.94930
# Poissons Ratio (y) = 0.13620 0.26056
# Poissons Ratio (z) = 0.15052 0.10724
#
# Static dielectric constant tensor:
#      x y z
#    x 1.799270 0.000000 0.035340 
#    y 0.000000 2.018140 0.000000 
#    z 0.035340 0.000000 1.921540 
# 
# From -- ./inp_files/64661.got.cif
#   From: 2010.05.17/outbox.cif.g08.bks.cpg/sg14_33_cif.got.tgz:64661.got - 2010.06.03 17:49:19.
