data_PCOD9239654
_publ_section_title
;
Structure prediction by ZEFSAII (Michael W. Deem and Ramdas Pophale) SiO2 
 PCOD9239654
Probable space group: P 21/C
;
_chemical_formula_sum "Si O2"
_cell_formula_units_Z 32
_cell_length_a 9.134999
_cell_length_b 29.549718
_cell_length_c 5.404961
_cell_angle_alpha 90.000000
_cell_angle_beta 101.701644
_cell_angle_gamma 90.000000
_cell_volume 1428.674688
_symmetry_space_group_name_H-M "P 21/C"
_symmetry_group_IT_number 14
_symmetry_cell_setting 'monoclinic'
loop_
_space_group_symop_operation_xyz
x,y,z
-x,1/2+y,1/2-z
-x,-y,-z
x,1/2-y,1/2+z
loop_
_atom_site_type_symbol
_atom_site_label
_atom_site_fract_x
_atom_site_fract_y
_atom_site_fract_z
Si Si1 0.701116 0.484969 0.543689
Si Si2 0.004372 0.441249 0.735475
Si Si3 0.191552 0.733240 0.122588
Si Si4 0.847678 0.769706 0.943009
Si Si5 0.720062 0.931786 0.358040
Si Si6 0.171051 0.634500 0.013188
Si Si7 0.889827 0.632921 0.598812
Si Si8 0.590881 0.436115 0.008569
O O1 0.673149 0.536509 0.612582
O O2 0.644582 0.467570 0.258256
O O3 0.879682 0.476216 0.605893
O O4 0.629873 0.458149 0.755682
O O5 0.076833 0.412179 0.542672
O O6 0.140078 0.456223 0.957122
O O7 0.909612 0.404192 0.856130
O O8 0.262327 0.758499 0.378706
O O9 0.021134 0.751939 0.023557
O O10 0.195608 0.679822 0.175491
O O11 0.780458 0.753423 0.179011
O O12 0.838686 0.823897 0.926538
O O13 0.778365 0.883795 0.275615
O O14 0.582842 0.928035 0.498114
O O15 0.315823 0.610541 0.949972
O O16 0.048377 0.647604 0.767545
#
# Coordination Sequence:
#
# PCOD9239654 Si02
#       8
#     4   4   4   4   4   4   4   4
#     4  11  24  44  65  87 121 169 218 258 298 366
#     4  10  22  38  61  92 125 161 205 263 310 357
#     4  10  18  29  56  87 116 144 197 250 297 347
#     4  10  19  32  55  86 117 150 195 245 296 360
#     4  11  26  39  61  92 127 167 205 257 316 373
#     4  10  20  37  58  91 119 158 203 256 299 363
#     4  11  21  36  61  89 125 155 201 256 313 361
#     4  11  25  43  64  87 124 168 214 252 308 369
#
# _framework density 22.398382000000002
#
# number of rings (size 3 to 8) (size 9 to 14) (size 15 to 20)
#    0.000    1.500    3.750    2.625    5.250    0.500 
#    0.000    0.000    0.000    1.500    0.000    0.000 
#    0.000    0.000    0.000    0.000    0.000    0.000 
#
# Total GULP energy -178795.858277 kJ/mol
# GULP energy per Si atom -5587.370571 kJ/mol
# Density = 2.234740 g / cm^3
# Si number density = 22.398382 Si / 1000 Ang^3
#
#
#
# Elastic Constant Matrix: (Units=GPa)
#
#
# Indices 1 2 3 4 5 6 
#
# 1 106.9042 32.1126 26.5042 0.0000 -10.4185 0.0000
# 2 32.1126 75.2834 -2.8617 0.0000 -15.7669 0.0000
# 3 26.5042 -2.8617 102.7651 0.0000 -13.4158 0.0000
# 4 0.0000 0.0000 0.0000 16.1655 0.0000 -2.1754
# 5 -10.4185 -15.7669 -13.4158 0.0000 32.1853 0.0000
# 6 0.0000 0.0000 0.0000 -2.1754 0.0000 9.2493
#
#
#
# Elastic Compliance Matrix: (Units=1/GPa)
#
#
# Indices 1 2 3 4 5 6 
#
# 1 0.011666 -0.005105 -0.003156 0.000000 -0.000040 0.000000
# 2 -0.005105 0.017239 0.002838 0.000000 0.007975 0.000000
# 3 -0.003156 0.002838 0.011286 0.000000 0.005073 0.000000
# 4 0.000000 0.000000 0.000000 0.063882 0.000000 0.015024
# 5 -0.000040 0.007975 0.005073 0.000000 0.037079 0.000000
# 6 0.000000 0.000000 0.000000 0.015024 0.000000 0.111649
#
#
# Mechanical properties :
#
#
# Convention : Reuss Voigt Hill
#
# Bulk Modulus (GPa) = 34.07729 44.05145 39.06437
# Shear Modulus (GPa) = 18.28629 26.79987 22.54308
#
# Velocity S-wave (km/s) = 2.86039 3.46281 3.17592
# Velocity P-wave (km/s) = 5.11433 5.97478 5.56122
#
# Compressibility (1/GPa) = 0.02934505
#
# Stress axis : x y z
#
# Youngs Moduli (GPa) = 85.71825 58.00896 88.60357
#
# Poissons Ratio (x) = 0.29611 0.27965
# Poissons Ratio (y) = 0.43756 -0.25143
# Poissons Ratio (z) = 0.27054 -0.16461
#
# Static dielectric constant tensor:
#      x y z
#    x 1.840970 0.000000 -0.012020 
#    y 0.000000 1.831230 0.000000 
#    z -0.012020 0.000000 1.945630 
# 
# From -- ./inp_files/2138.got.cif
#   From: 2010.05.17/outbox.cif.g08.bks.cpg/sg14_2_cif.got.tgz:2138.got - 2010.06.03 17:49:19.
