data_PCOD9239919
_publ_section_title
;
Structure prediction by ZEFSAII (Michael W. Deem and Ramdas Pophale) SiO2 
 PCOD9239919
Probable space group: P 21/C
;
_chemical_formula_sum "Si O2"
_cell_formula_units_Z 24
_cell_length_a 16.000903
_cell_length_b 15.515647
_cell_length_c 7.551694
_cell_angle_alpha 90.000000
_cell_angle_beta 32.757837
_cell_angle_gamma 90.000000
_cell_volume 1014.443530
_symmetry_space_group_name_H-M "P 21/C"
_symmetry_group_IT_number 14
_symmetry_cell_setting 'monoclinic'
loop_
_space_group_symop_operation_xyz
x,y,z
-x,1/2+y,1/2-z
-x,-y,-z
x,1/2-y,1/2+z
loop_
_atom_site_type_symbol
_atom_site_label
_atom_site_fract_x
_atom_site_fract_y
_atom_site_fract_z
Si Si1 0.452780 0.076748 0.712162
Si Si2 0.658103 0.042727 0.644446
Si Si3 0.867350 0.873670 0.215420
Si Si4 0.973435 0.399262 0.225742
Si Si5 0.200497 0.194231 0.045210
Si Si6 0.192447 0.950929 0.292388
O O1 0.500000 0.000000 0.500000
O O2 0.593270 0.095228 0.593391
O O3 0.370303 0.153282 0.756869
O O4 0.308442 0.031319 0.067688
O O5 0.741287 0.095353 0.653262
O O6 0.772204 0.963315 0.388330
O O7 0.500000 0.000000 0.000000
O O8 0.015128 0.878378 0.086022
O O9 0.777280 0.796033 0.474271
O O10 0.877984 0.839286 0.996144
O O11 0.088748 0.339165 0.903318
O O12 0.033716 0.498828 0.117020
O O13 0.825126 0.402112 0.361350
#
# Coordination Sequence:
#
# PCOD9239919 Si02
#       6
#     4   4   4   4   4   4
#     4  10  18  33  53  83 111 138 187 226 266 331
#     4   9  18  33  56  78 107 146 181 228 272 325
#     4  11  20  34  55  82 108 144 186 231 282 324
#     4   9  18  35  51  77 106 134 176 221 270 322
#     4  11  21  33  55  82 107 144 186 230 279 330
#     4   8  17  33  53  74 105 136 167 227 272 309
#
# _framework density 23.658290000000001
#
# number of rings (size 3 to 8) (size 9 to 14) (size 15 to 20)
#    0.000    2.333    3.333    1.000    0.000    0.000 
#    3.000    3.333    0.000    8.000    0.000    0.000 
#    0.000    0.000    0.000    0.000    0.000    0.000 
#
# Total GULP energy -133671.299898 kJ/mol
# GULP energy per Si atom -5569.637496 kJ/mol
# Density = 2.360444 g / cm^3
# Si number density = 23.658290 Si / 1000 Ang^3
#
#
#
# Elastic Constant Matrix: (Units=GPa)
#
#
# Indices 1 2 3 4 5 6 
#
# 1 253.2096 32.5911 28.2154 0.0000 -16.7790 0.0000
# 2 32.5911 65.3459 10.0014 0.0000 -13.0559 0.0000
# 3 28.2154 10.0014 44.8849 0.0000 10.5034 0.0000
# 4 0.0000 0.0000 0.0000 23.4758 0.0000 0.9161
# 5 -16.7790 -13.0559 10.5034 0.0000 33.9120 0.0000
# 6 0.0000 0.0000 0.0000 0.9161 0.0000 27.9876
#
#
#
# Elastic Compliance Matrix: (Units=1/GPa)
#
#
# Indices 1 2 3 4 5 6 
#
# 1 0.004670 -0.001249 -0.003327 0.000000 0.002861 0.000000
# 2 -0.001249 0.018326 -0.005180 0.000000 0.008042 0.000000
# 3 -0.003327 -0.005180 0.028438 0.000000 -0.012448 0.000000
# 4 0.000000 0.000000 0.000000 0.042652 0.000000 -0.001396
# 5 0.002861 0.008042 -0.012448 0.000000 0.037855 0.000000
# 6 0.000000 0.000000 0.000000 -0.001396 0.000000 0.035776
#
#
# Mechanical properties :
#
#
# Convention : Reuss Voigt Hill
#
# Bulk Modulus (GPa) = 31.32641 56.11736 43.72188
# Shear Modulus (GPa) = 25.26928 36.58390 30.92659
#
# Velocity S-wave (km/s) = 3.27172 3.93663 3.61947
# Velocity P-wave (km/s) = 5.24806 6.66589 5.99901
#
# Compressibility (1/GPa) = 0.03192195
#
# Stress axis : x y z
#
# Youngs Moduli (GPa) = 214.11960 54.56869 35.16426
#
# Poissons Ratio (x) = 0.06813 0.11699
# Poissons Ratio (y) = 0.26734 0.18216
# Poissons Ratio (z) = 0.71238 0.28269
#
# Static dielectric constant tensor:
#      x y z
#    x 2.070490 0.000000 0.087340 
#    y 0.000000 1.883640 0.000000 
#    z 0.087340 0.000000 2.245460 
# 
# From -- ./inp_files/13503.got.cif
#   From: 2010.05.17/outbox.cif.g08.bks.cpg/sg14_7_cif.got.tgz:13503.got - 2010.06.03 17:49:19.
