data_PCOD9239715
_publ_section_title
;
Structure prediction by ZEFSAII (Michael W. Deem and Ramdas Pophale) SiO2 
 PCOD9239715
Probable space group: P 21/C
;
_chemical_formula_sum "Si O2"
_cell_formula_units_Z 32
_cell_length_a 15.220147
_cell_length_b 5.479440
_cell_length_c 23.901542
_cell_angle_alpha 90.000000
_cell_angle_beta 116.052555
_cell_angle_gamma 90.000000
_cell_volume 1790.798041
_symmetry_space_group_name_H-M "P 21/C"
_symmetry_group_IT_number 14
_symmetry_cell_setting 'monoclinic'
loop_
_space_group_symop_operation_xyz
x,y,z
-x,1/2+y,1/2-z
-x,-y,-z
x,1/2-y,1/2+z
loop_
_atom_site_type_symbol
_atom_site_label
_atom_site_fract_x
_atom_site_fract_y
_atom_site_fract_z
Si Si1 0.692085 0.406192 0.730512
Si Si2 0.138430 0.685045 0.781046
Si Si3 0.724786 0.400306 0.354080
Si Si4 0.012352 0.043505 0.332099
Si Si5 0.936103 0.726261 0.546443
Si Si6 0.128385 0.773491 0.522445
Si Si7 0.513069 0.929517 0.789175
Si Si8 0.154813 0.204750 0.187376
O O1 0.753279 0.291994 0.696718
O O2 0.706641 0.240752 0.790414
O O3 0.576449 0.432287 0.692064
O O4 0.751106 0.648579 0.763359
O O5 0.106291 0.580960 0.831170
O O6 0.130810 0.484432 0.729723
O O7 0.057555 0.882085 0.739196
O O8 0.771796 0.232453 0.414149
O O9 0.622507 0.523484 0.341297
O O10 0.809598 0.589993 0.360530
O O11 0.940248 0.870148 0.347379
O O12 0.040969 0.259931 0.381274
O O13 0.882368 0.475137 0.516291
O O14 0.037207 0.751335 0.540085
O O15 0.879990 0.975582 0.514109
O O16 0.489780 0.165928 0.742847
#
# Coordination Sequence:
#
# PCOD9239715 Si02
#       8
#     4   4   4   4   4   4   4   4
#     4   9  19  32  49  78 104 139 166 216 266 324
#     4  10  20  32  51  73 105 135 179 212 266 325
#     4  10  20  32  54  74 107 139 175 212 267 318
#     4  11  21  33  50  77 100 146 175 221 260 315
#     4  10  23  35  53  70 109 137 188 217 257 309
#     4  10  22  36  50  77 100 147 179 220 258 309
#     4  10  19  33  52  79 107 138 172 213 268 326
#     4  10  18  31  49  72 106 134 169 211 259 320
#
# _framework density 17.869129000000001
#
# number of rings (size 3 to 8) (size 9 to 14) (size 15 to 20)
#    0.000    2.000    2.500    2.250    8.750    0.000 
#    0.000    0.000    0.000    0.000    0.000    1.750 
#    0.000    0.000    0.000    0.000    0.000    0.000 
#
# Total GULP energy -178437.923325 kJ/mol
# GULP energy per Si atom -5576.185104 kJ/mol
# Density = 1.782846 g / cm^3
# Si number density = 17.869129 Si / 1000 Ang^3
#
#
#
# Elastic Constant Matrix: (Units=GPa)
#
#
# Indices 1 2 3 4 5 6 
#
# 1 99.7429 22.3159 21.0763 0.0000 3.8169 0.0000
# 2 22.3159 70.2385 10.5991 0.0000 1.1003 0.0000
# 3 21.0763 10.5991 39.3200 0.0000 2.9269 0.0000
# 4 0.0000 0.0000 0.0000 14.1704 0.0000 2.1436
# 5 3.8169 1.1003 2.9269 0.0000 11.4440 0.0000
# 6 0.0000 0.0000 0.0000 2.1436 0.0000 21.5281
#
#
#
# Elastic Compliance Matrix: (Units=1/GPa)
#
#
# Indices 1 2 3 4 5 6 
#
# 1 0.011916 -0.002931 -0.005426 0.000000 -0.002305 0.000000
# 2 -0.002931 0.015564 -0.002636 0.000000 0.000155 0.000000
# 3 -0.005426 -0.002636 0.029458 0.000000 -0.005471 0.000000
# 4 0.000000 0.000000 0.000000 0.071649 0.000000 -0.007134
# 5 -0.002305 0.000155 -0.005471 0.000000 0.089535 0.000000
# 6 0.000000 0.000000 0.000000 -0.007134 0.000000 0.047161
#
#
# Mechanical properties :
#
#
# Convention : Reuss Voigt Hill
#
# Bulk Modulus (GPa) = 28.60963 35.25376 31.93170
# Shear Modulus (GPa) = 16.72688 19.78252 18.25470
#
# Velocity S-wave (km/s) = 3.06286 3.33089 3.19968
# Velocity P-wave (km/s) = 5.34355 5.87918 5.61775
#
# Compressibility (1/GPa) = 0.03495327
#
# Stress axis : x y z
#
# Youngs Moduli (GPa) = 83.91909 64.25175 33.94619
#
# Poissons Ratio (x) = 0.18833 0.18418
# Poissons Ratio (y) = 0.24598 0.08948
# Poissons Ratio (z) = 0.45532 0.16935
#
# Static dielectric constant tensor:
#      x y z
#    x 1.623810 0.000000 0.003910 
#    y 0.000000 1.725180 0.000000 
#    z 0.003910 0.000000 1.582150 
# 
# From -- ./inp_files/73505.got.cif
#   From: 2010.05.17/outbox.cif.g08.bks.cpg/sg14_37_cif.got.tgz:73505.got - 2010.06.03 17:49:19.
