data_PCOD9239546
_publ_section_title
;
Structure prediction by ZEFSAII (Michael W. Deem and Ramdas Pophale) SiO2 
 PCOD9239546
Probable space group: P 21/C
;
_chemical_formula_sum "Si O2"
_cell_formula_units_Z 28
_cell_length_a 9.176349
_cell_length_b 13.883416
_cell_length_c 21.066154
_cell_angle_alpha 90.000000
_cell_angle_beta 24.060067
_cell_angle_gamma 90.000000
_cell_volume 1094.173001
_symmetry_space_group_name_H-M "P 21/C"
_symmetry_group_IT_number 14
_symmetry_cell_setting 'monoclinic'
loop_
_space_group_symop_operation_xyz
x,y,z
-x,1/2+y,1/2-z
-x,-y,-z
x,1/2-y,1/2+z
loop_
_atom_site_type_symbol
_atom_site_label
_atom_site_fract_x
_atom_site_fract_y
_atom_site_fract_z
Si Si1 0.979220 0.834417 0.128355
Si Si2 0.168801 0.806957 0.445450
Si Si3 0.871321 0.471641 0.948038
Si Si4 0.141193 0.824916 0.663202
Si Si5 0.696711 0.388459 0.302445
Si Si6 0.846505 0.758486 0.943418
Si Si7 0.965856 0.006315 0.214999
O O1 0.571816 0.833462 0.267378
O O2 0.093225 0.940982 0.104750
O O3 0.187217 0.779984 0.989738
O O4 0.981458 0.767451 0.190876
O O5 0.011624 0.900989 0.542361
O O6 0.944350 0.778805 0.474311
O O7 0.815808 0.402078 0.909928
O O8 0.179429 0.545744 0.805699
O O9 0.468688 0.511100 0.119314
O O10 0.528131 0.794002 0.532749
O O11 0.933791 0.885995 0.800010
O O12 0.294183 0.366323 0.485056
O O13 0.905530 0.438257 0.277565
O O14 0.828001 0.281572 0.228846
#
# Coordination Sequence:
#
# PCOD9239546 Si02
#       7
#     4   4   4   4   4   4   4
#     4  10  21  39  61  83 118 158 193 236 298 348
#     4  10  23  39  58  85 121 159 190 237 294 353
#     4   9  18  37  61  82 115 154 199 236 287 342
#     4  10  18  34  61  87 114 141 197 250 280 335
#     4  11  21  35  62  90 115 150 193 250 288 338
#     4  12  22  36  59  91 120 146 196 244 291 340
#     4  10  17  35  64  90 109 150 206 245 279 336
#
# _framework density 25.590102999999999
#
# number of rings (size 3 to 8) (size 9 to 14) (size 15 to 20)
#    0.000    1.714    4.286    1.714    0.000    0.571 
#    2.571    0.714    6.286    8.571    0.000    0.000 
#    0.000    0.000    0.000    0.000    0.000    0.000 
#
# Total GULP energy -156359.562995 kJ/mol
# GULP energy per Si atom -5584.270107 kJ/mol
# Density = 2.553186 g / cm^3
# Si number density = 25.590103 Si / 1000 Ang^3
#
#
#
# Elastic Constant Matrix: (Units=GPa)
#
#
# Indices 1 2 3 4 5 6 
#
# 1 114.0004 30.7032 13.9487 0.0000 -17.8966 0.0000
# 2 30.7032 131.0913 -6.4860 0.0000 -2.1214 0.0000
# 3 13.9487 -6.4860 30.7848 0.0000 2.3966 0.0000
# 4 0.0000 0.0000 0.0000 35.4755 0.0000 5.4527
# 5 -17.8966 -2.1214 2.3966 0.0000 27.2586 0.0000
# 6 0.0000 0.0000 0.0000 5.4527 0.0000 23.5934
#
#
#
# Elastic Compliance Matrix: (Units=1/GPa)
#
#
# Indices 1 2 3 4 5 6 
#
# 1 0.011599 -0.002909 -0.006488 0.000000 0.007959 0.000000
# 2 -0.002909 0.008444 0.003217 0.000000 -0.001535 0.000000
# 3 -0.006488 0.003217 0.036664 0.000000 -0.007233 0.000000
# 4 0.000000 0.000000 0.000000 0.029227 0.000000 -0.006755
# 5 0.007959 -0.001535 -0.007233 0.000000 0.042428 0.000000
# 6 0.000000 0.000000 0.000000 -0.006755 0.000000 0.043946
#
#
# Mechanical properties :
#
#
# Convention : Reuss Voigt Hill
#
# Bulk Modulus (GPa) = 22.54977 39.13425 30.84201
# Shear Modulus (GPa) = 25.06909 33.11286 29.09097
#
# Velocity S-wave (km/s) = 3.13332 3.60108 3.37531
# Velocity P-wave (km/s) = 4.68201 5.71107 5.22195
#
# Compressibility (1/GPa) = 0.04434634
#
# Stress axis : x y z
#
# Youngs Moduli (GPa) = 86.21731 118.42973 27.27470
#
# Poissons Ratio (x) = 0.34448 0.17695
# Poissons Ratio (y) = 0.25078 -0.08773
# Poissons Ratio (z) = 0.55936 -0.38093
#
# Static dielectric constant tensor:
#      x y z
#    x 2.017900 0.000000 0.012400 
#    y 0.000000 2.112340 0.000000 
#    z 0.012400 0.000000 2.203440 
# 
# From -- ./inp_files/25185.got.cif
#   From: 2010.05.17/outbox.cif.g08.bks.cpg/sg14_13_cif.got.tgz:25185.got - 2010.06.03 17:49:19.
