data_PCOD9239250
_publ_section_title
;
Structure prediction by ZEFSAII (Michael W. Deem and Ramdas Pophale) SiO2 
 PCOD9239250
Probable space group: P 21/C
;
_chemical_formula_sum "Si O2"
_cell_formula_units_Z 32
_cell_length_a 11.502535
_cell_length_b 9.075296
_cell_length_c 21.949051
_cell_angle_alpha 90.000000
_cell_angle_beta 49.074059
_cell_angle_gamma 90.000000
_cell_volume 1731.160431
_symmetry_space_group_name_H-M "P 21/C"
_symmetry_group_IT_number 14
_symmetry_cell_setting 'monoclinic'
loop_
_space_group_symop_operation_xyz
x,y,z
-x,1/2+y,1/2-z
-x,-y,-z
x,1/2-y,1/2+z
loop_
_atom_site_type_symbol
_atom_site_label
_atom_site_fract_x
_atom_site_fract_y
_atom_site_fract_z
Si Si1 0.475602 0.860389 0.422338
Si Si2 0.597881 0.211345 0.676145
Si Si3 0.189732 0.831371 0.050425
Si Si4 0.180953 0.359302 0.494226
Si Si5 0.503044 0.962345 0.173529
Si Si6 0.636073 0.840948 0.484453
Si Si7 0.059524 0.836172 0.493921
Si Si8 0.392223 0.902746 0.082994
O O1 0.500619 0.874048 0.342237
O O2 0.361334 0.720729 0.469897
O O3 0.621711 0.846475 0.416324
O O4 0.379849 0.998382 0.481465
O O5 0.572739 0.141528 0.750229
O O6 0.543196 0.379943 0.689190
O O7 0.774627 0.189069 0.594679
O O8 0.228460 0.871132 0.107157
O O9 0.083114 0.704906 0.057533
O O10 0.138921 0.981924 0.035644
O O11 0.336841 0.389354 0.403129
O O12 0.226077 0.250850 0.534331
O O13 0.056647 0.280378 0.495633
O O14 0.399554 0.972566 0.147596
O O15 0.481378 0.752759 0.556784
O O16 0.000000 0.000000 0.500000
O O17 0.500000 0.000000 0.000000
#
# Coordination Sequence:
#
# PCOD9239250 Si02
#       8
#     4   4   4   4   4   4   4   4
#     4   9  17  32  48  82 120 142 189 243 295 346
#     4  11  24  38  56  87 124 156 188 244 309 367
#     4  10  18  32  56  83 108 146 201 247 281 339
#     4  11  19  34  60  85 110 153 201 241 288 346
#     4  11  23  36  61  87 125 152 193 252 310 352
#     4   9  17  27  55  82 111 147 189 247 291 333
#     4  11  23  38  59  85 124 156 200 239 296 359
#     4  10  16  33  57  85 112 148 204 249 291 342
#
# _framework density 18.484711000000001
#
# number of rings (size 3 to 8) (size 9 to 14) (size 15 to 20)
#    0.000    1.750    5.000    2.625    5.250    0.000 
#    0.000    0.000    0.000    3.000    0.000    0.000 
#    0.000    0.000    0.000    0.000    0.000    0.000 
#
# Total GULP energy -178192.605330 kJ/mol
# GULP energy per Si atom -5568.518917 kJ/mol
# Density = 1.844264 g / cm^3
# Si number density = 18.484711 Si / 1000 Ang^3
#
#
#
# Elastic Constant Matrix: (Units=GPa)
#
#
# Indices 1 2 3 4 5 6 
#
# 1 124.8103 56.6218 30.9898 0.0000 31.9454 0.0000
# 2 56.6218 112.3736 21.9467 0.0000 16.0786 0.0000
# 3 30.9898 21.9467 54.3840 0.0000 26.0259 0.0000
# 4 0.0000 0.0000 0.0000 19.5642 0.0000 6.3045
# 5 31.9454 16.0786 26.0259 0.0000 27.5825 0.0000
# 6 0.0000 0.0000 0.0000 6.3045 0.0000 37.4167
#
#
#
# Elastic Compliance Matrix: (Units=1/GPa)
#
#
# Indices 1 2 3 4 5 6 
#
# 1 0.013569 -0.005056 0.000763 0.000000 -0.013488 0.000000
# 2 -0.005056 0.011740 -0.002523 0.000000 0.001393 0.000000
# 3 0.000763 -0.002523 0.034078 0.000000 -0.031568 0.000000
# 4 0.000000 0.000000 0.000000 0.054048 0.000000 -0.009107
# 5 -0.013488 0.001393 -0.031568 0.000000 0.080851 0.000000
# 6 0.000000 0.000000 0.000000 -0.009107 0.000000 0.028261
#
#
# Mechanical properties :
#
#
# Convention : Reuss Voigt Hill
#
# Bulk Modulus (GPa) = 21.85569 56.74273 39.29921
# Shear Modulus (GPa) = 19.88623 29.04664 24.46644
#
# Velocity S-wave (km/s) = 3.28353 3.96837 3.64208
# Velocity P-wave (km/s) = 5.12101 7.19452 6.24443
#
# Compressibility (1/GPa) = 0.04575468
#
# Stress axis : x y z
#
# Youngs Moduli (GPa) = 73.69967 85.17931 29.34408
#
# Poissons Ratio (x) = 0.43067 -0.02239
# Poissons Ratio (y) = 0.37263 0.07404
# Poissons Ratio (z) = -0.05624 0.21493
#
# Static dielectric constant tensor:
#      x y z
#    x 1.702550 0.000000 0.061210 
#    y 0.000000 1.688560 0.000000 
#    z 0.061210 0.000000 1.645540 
# 
# From -- ./inp_files/66856.got.cif
#   From: 2010.05.17/outbox.cif.g08.bks.cpg/sg14_34_cif.got.tgz:66856.got - 2010.06.03 17:49:19.
