data_PCOD9239454
_publ_section_title
;
Structure prediction by ZEFSAII (Michael W. Deem and Ramdas Pophale) SiO2 
 PCOD9239454
Probable space group: P 21/C
;
_chemical_formula_sum "Si O2"
_cell_formula_units_Z 32
_cell_length_a 12.566865
_cell_length_b 18.962135
_cell_length_c 9.690902
_cell_angle_alpha 90.000000
_cell_angle_beta 45.166612
_cell_angle_gamma 90.000000
_cell_volume 1637.655769
_symmetry_space_group_name_H-M "P 21/C"
_symmetry_group_IT_number 14
_symmetry_cell_setting 'monoclinic'
loop_
_space_group_symop_operation_xyz
x,y,z
-x,1/2+y,1/2-z
-x,-y,-z
x,1/2-y,1/2+z
loop_
_atom_site_type_symbol
_atom_site_label
_atom_site_fract_x
_atom_site_fract_y
_atom_site_fract_z
Si Si1 0.327009 0.314605 0.355262
Si Si2 0.389388 0.011962 0.428764
Si Si3 0.904919 0.004120 0.768744
Si Si4 0.605462 0.375015 0.227842
Si Si5 0.276531 0.474869 0.318923
Si Si6 0.932432 0.377848 0.030879
Si Si7 0.358487 0.069687 0.153574
Si Si8 0.800201 0.717434 0.252204
O O1 0.496211 0.315245 0.263441
O O2 0.292399 0.397658 0.373199
O O3 0.282236 0.279465 0.252983
O O4 0.222977 0.276878 0.563260
O O5 0.279236 0.034934 0.651967
O O6 0.366357 0.050458 0.305612
O O7 0.362662 0.929327 0.424979
O O8 0.566934 0.017337 0.301755
O O9 0.752251 0.983022 0.825778
O O10 0.013078 0.937949 0.631174
O O11 0.954480 0.077131 0.652144
O O12 0.859108 0.008878 0.970843
O O13 0.761981 0.356785 0.154709
O O14 0.510708 0.420248 0.427784
O O15 0.031570 0.307226 0.934890
O O16 0.287980 0.146737 0.208226
#
# Coordination Sequence:
#
# PCOD9239454 Si02
#       8
#     4   4   4   4   4   4   4   4
#     4  10  21  40  58  78 110 157 202 235 278 339
#     4  10  18  28  55  90 116 141 184 236 296 332
#     4  10  17  33  56  83 119 149 185 227 295 357
#     4  10  18  34  59  87 116 148 189 247 284 338
#     4  10  19  33  52  87 120 144 181 246 286 336
#     4  10  19  32  60  85 113 151 196 234 286 346
#     4  10  17  33  57  85 110 150 192 229 282 350
#     4  10  22  38  58  81 108 156 200 235 278 346
#
# _framework density 19.540126000000001
#
# number of rings (size 3 to 8) (size 9 to 14) (size 15 to 20)
#    0.000    2.000    6.250    1.125    1.750    0.000 
#    0.000    3.125    2.750    0.000    0.000    0.000 
#    0.000    0.000    0.000    0.000    0.000    0.000 
#
# Total GULP energy -178229.260250 kJ/mol
# GULP energy per Si atom -5569.664383 kJ/mol
# Density = 1.949565 g / cm^3
# Si number density = 19.540126 Si / 1000 Ang^3
#
#
#
# Elastic Constant Matrix: (Units=GPa)
#
#
# Indices 1 2 3 4 5 6 
#
# 1 52.6456 1.9247 30.3278 0.0000 -5.6241 0.0000
# 2 1.9247 9.5525 -0.0138 0.0000 -0.5873 0.0000
# 3 30.3278 -0.0138 118.5974 0.0000 15.9759 0.0000
# 4 0.0000 0.0000 0.0000 10.9240 0.0000 5.0215
# 5 -5.6241 -0.5873 15.9759 0.0000 39.3263 0.0000
# 6 0.0000 0.0000 0.0000 5.0215 0.0000 32.1344
#
#
#
# Elastic Compliance Matrix: (Units=1/GPa)
#
#
# Indices 1 2 3 4 5 6 
#
# 1 0.023796 -0.004427 -0.006913 0.000000 0.006146 0.000000
# 2 -0.004427 0.105610 0.001076 0.000000 0.000507 0.000000
# 3 -0.006913 0.001076 0.010929 0.000000 -0.005412 0.000000
# 4 0.000000 0.000000 0.000000 0.098626 0.000000 -0.015412
# 5 0.006146 0.000507 -0.005412 0.000000 0.028514 0.000000
# 6 0.000000 0.000000 0.000000 -0.015412 0.000000 0.033528
#
#
# Mechanical properties :
#
#
# Convention : Reuss Voigt Hill
#
# Bulk Modulus (GPa) = 8.34680 27.25252 17.79966
# Shear Modulus (GPa) = 13.83256 26.38071 20.10664
#
# Velocity S-wave (km/s) = 2.66354 3.67833 3.21127
# Velocity P-wave (km/s) = 3.70677 5.65839 4.78317
#
# Compressibility (1/GPa) = 0.11980635
#
# Stress axis : x y z
#
# Youngs Moduli (GPa) = 42.02386 9.46882 91.49943
#
# Poissons Ratio (x) = 0.04192 0.63258
# Poissons Ratio (y) = 0.18603 -0.09846
# Poissons Ratio (z) = 0.29053 -0.01019
#
# Static dielectric constant tensor:
#      x y z
#    x 1.760940 0.000000 -0.008920 
#    y 0.000000 1.682000 0.000000 
#    z -0.008920 0.000000 1.786100 
# 
# From -- ./inp_files/14311.got.cif
#   From: 2010.05.17/outbox.cif.g08.bks.cpg/sg14_8_cif.got.tgz:14311.got - 2010.06.03 17:49:19.
