data_PCOD9239821
_publ_section_title
;
Structure prediction by ZEFSAII (Michael W. Deem and Ramdas Pophale) SiO2 
 PCOD9239821
Probable space group: P 21/C
;
_chemical_formula_sum "Si O2"
_cell_formula_units_Z 32
_cell_length_a 7.933479
_cell_length_b 11.763757
_cell_length_c 14.245027
_cell_angle_alpha 90.000000
_cell_angle_beta 65.629918
_cell_angle_gamma 90.000000
_cell_volume 1210.997763
_symmetry_space_group_name_H-M "P 21/C"
_symmetry_group_IT_number 14
_symmetry_cell_setting 'monoclinic'
loop_
_space_group_symop_operation_xyz
x,y,z
-x,1/2+y,1/2-z
-x,-y,-z
x,1/2-y,1/2+z
loop_
_atom_site_type_symbol
_atom_site_label
_atom_site_fract_x
_atom_site_fract_y
_atom_site_fract_z
Si Si1 0.182169 0.972354 0.328938
Si Si2 0.285707 0.569840 0.148384
Si Si3 0.973907 0.811726 0.518603
Si Si4 0.427893 0.275611 0.678850
Si Si5 0.062245 0.406445 0.697547
Si Si6 0.819731 0.393673 0.571174
Si Si7 0.385532 0.426154 0.305038
Si Si8 0.640603 0.639944 0.984549
O O1 0.397245 0.955853 0.254329
O O2 0.118948 0.091880 0.392933
O O3 0.078032 0.974587 0.252230
O O4 0.118610 0.877582 0.416893
O O5 0.111199 0.649977 0.205895
O O6 0.296748 0.489224 0.235775
O O7 0.283301 0.486404 0.058474
O O8 0.477536 0.633277 0.095974
O O9 0.081046 0.695550 0.522647
O O10 0.806849 0.786937 0.484882
O O11 0.627414 0.332100 0.647644
O O12 0.450970 0.186937 0.588435
O O13 0.259376 0.351378 0.676739
O O14 0.365480 0.205881 0.784875
O O15 0.980317 0.410478 0.612482
O O16 0.723133 0.518601 0.582042
#
# Coordination Sequence:
#
# PCOD9239821 Si02
#       8
#     4   4   4   4   4   4   4   4
#     4  11  21  34  58  89 121 149 188 241 300 348
#     4   9  19  31  52  82 118 146 183 227 294 340
#     4  11  21  34  56  92 121 147 185 243 301 353
#     4  11  22  35  56  82 116 153 195 239 287 338
#     4  11  22  36  54  84 119 161 187 228 286 358
#     4  11  23  36  54  85 118 154 197 234 289 353
#     4  10  20  36  54  81 116 150 194 239 279 342
#     4  10  18  32  53  84 117 148 181 239 291 343
#
# _framework density 26.424493999999999
#
# number of rings (size 3 to 8) (size 9 to 14) (size 15 to 20)
#    0.000    1.500    6.250    0.000    1.750    0.000 
#    0.000    0.000    0.000    0.750    0.000    1.750 
#    0.000    0.000    0.000    0.000    0.000    0.000 
#
# Total GULP energy -178416.746716 kJ/mol
# GULP energy per Si atom -5575.523335 kJ/mol
# Density = 2.636435 g / cm^3
# Si number density = 26.424494 Si / 1000 Ang^3
#
#
#
# Elastic Constant Matrix: (Units=GPa)
#
#
# Indices 1 2 3 4 5 6 
#
# 1 141.9015 14.7530 29.3331 0.0000 -26.9561 0.0000
# 2 14.7530 44.4959 26.3501 0.0000 -15.3287 0.0000
# 3 29.3331 26.3501 76.2143 0.0000 -28.4451 0.0000
# 4 0.0000 0.0000 0.0000 43.6433 0.0000 -8.5611
# 5 -26.9561 -15.3287 -28.4451 0.0000 46.0898 0.0000
# 6 0.0000 0.0000 0.0000 -8.5611 0.0000 27.9736
#
#
#
# Elastic Compliance Matrix: (Units=1/GPa)
#
#
# Indices 1 2 3 4 5 6 
#
# 1 0.008113 -0.000501 -0.001612 0.000000 0.003584 0.000000
# 2 -0.000501 0.028987 -0.008238 0.000000 0.004264 0.000000
# 3 -0.001612 -0.008238 0.019769 0.000000 0.008518 0.000000
# 4 0.000000 0.000000 0.000000 0.024376 0.000000 0.007460
# 5 0.003584 0.004264 0.008518 0.000000 0.030468 0.000000
# 6 0.000000 0.000000 0.000000 0.007460 0.000000 0.038031
#
#
# Mechanical properties :
#
#
# Convention : Reuss Voigt Hill
#
# Bulk Modulus (GPa) = 27.64902 44.83157 36.24029
# Shear Modulus (GPa) = 27.39703 36.35304 31.87503
#
# Velocity S-wave (km/s) = 3.22344 3.71311 3.47691
# Velocity P-wave (km/s) = 4.93358 5.94859 5.46470
#
# Compressibility (1/GPa) = 0.03616765
#
# Stress axis : x y z
#
# Youngs Moduli (GPa) = 123.25616 34.49788 50.58539
#
# Poissons Ratio (x) = 0.01728 0.08154
# Poissons Ratio (y) = 0.06174 0.41672
# Poissons Ratio (z) = 0.19867 0.28419
#
# Static dielectric constant tensor:
#      x y z
#    x 2.084140 0.000000 0.009440 
#    y 0.000000 2.216360 0.000000 
#    z 0.009440 0.000000 2.170020 
# 
# From -- ./inp_files/62017.got.cif
#   From: 2010.05.17/outbox.cif.g08.bks.cpg/sg14_32_cif.got.tgz:62017.got - 2010.06.03 17:49:19.
