data_PCOD9239350
_publ_section_title
;
Structure prediction by ZEFSAII (Michael W. Deem and Ramdas Pophale) SiO2 
 PCOD9239350
Probable space group: P 21/C
;
_chemical_formula_sum "Si O2"
_cell_formula_units_Z 24
_cell_length_a 10.241935
_cell_length_b 4.967473
_cell_length_c 25.953381
_cell_angle_alpha 90.000000
_cell_angle_beta 94.541695
_cell_angle_gamma 90.000000
_cell_volume 1316.271965
_symmetry_space_group_name_H-M "P 21/C"
_symmetry_group_IT_number 14
_symmetry_cell_setting 'monoclinic'
loop_
_space_group_symop_operation_xyz
x,y,z
-x,1/2+y,1/2-z
-x,-y,-z
x,1/2-y,1/2+z
loop_
_atom_site_type_symbol
_atom_site_label
_atom_site_fract_x
_atom_site_fract_y
_atom_site_fract_z
Si Si1 0.309570 0.810563 0.403150
Si Si2 0.591774 0.248606 0.989516
Si Si3 0.830713 0.719586 0.758561
Si Si4 0.486064 0.304989 0.383303
Si Si5 0.556616 0.034391 0.277492
Si Si6 0.110046 0.724731 0.808015
O O1 0.295203 0.752609 0.463887
O O2 0.418662 0.598475 0.384468
O O3 0.180603 0.802043 0.364643
O O4 0.371790 0.104121 0.398242
O O5 0.604692 0.226998 0.928351
O O6 0.500000 0.500000 0.000000
O O7 0.500000 0.000000 0.000000
O O8 0.696636 0.612536 0.778447
O O9 0.860368 0.520164 0.712299
O O10 0.953300 0.691914 0.801021
O O11 0.832173 0.013173 0.732300
O O12 0.528377 0.192331 0.329440
O O13 0.460462 0.779586 0.264007
#
# Coordination Sequence:
#
# PCOD9239350 Si02
#       6
#     4   4   4   4   4   4
#     4  10  17  30  50  70  90 121 159 191 234 274
#     4   8  16  28  44  67  92 117 150 192 233 270
#     4  10  21  33  46  69  95 125 158 192 234 273
#     4  10  19  30  46  70  98 121 149 195 236 275
#     4  12  22  32  48  70  98 128 156 187 235 291
#     4  10  19  33  50  66  93 124 160 199 225 273
#
# _framework density 18.233315999999999
#
# number of rings (size 3 to 8) (size 9 to 14) (size 15 to 20)
#    0.000    2.000    0.000    6.000    0.000    0.000 
#    0.000    0.000    0.000    1.000    0.000    0.000 
#    0.000   26.667    0.000    0.000    0.000    7.833 
#
# Total GULP energy -133674.635419 kJ/mol
# GULP energy per Si atom -5569.776476 kJ/mol
# Density = 1.819182 g / cm^3
# Si number density = 18.233316 Si / 1000 Ang^3
#
#
#
# Elastic Constant Matrix: (Units=GPa)
#
#
# Indices 1 2 3 4 5 6 
#
# 1 69.7452 -3.8340 28.4714 0.0000 22.5746 0.0000
# 2 -3.8340 74.4945 -3.6663 0.0000 0.8019 0.0000
# 3 28.4714 -3.6663 135.0200 0.0000 36.9923 0.0000
# 4 0.0000 0.0000 0.0000 5.5042 0.0000 -4.9740
# 5 22.5746 0.8019 36.9923 0.0000 34.6025 0.0000
# 6 0.0000 0.0000 0.0000 -4.9740 0.0000 14.8606
#
#
#
# Elastic Compliance Matrix: (Units=1/GPa)
#
#
# Indices 1 2 3 4 5 6 
#
# 1 0.018319 0.001024 -0.000784 0.000000 -0.011137 0.000000
# 2 0.001024 0.013523 0.000594 0.000000 -0.001617 0.000000
# 3 -0.000784 0.000594 0.010538 0.000000 -0.010768 0.000000
# 4 0.000000 0.000000 0.000000 0.260464 0.000000 0.087180
# 5 -0.011137 -0.001617 -0.010768 0.000000 0.047715 0.000000
# 6 0.000000 0.000000 0.000000 0.087180 0.000000 0.096472
#
#
# Mechanical properties :
#
#
# Convention : Reuss Voigt Hill
#
# Bulk Modulus (GPa) = 22.70189 35.68908 29.19549
# Shear Modulus (GPa) = 10.86851 28.21271 19.54061
#
# Velocity S-wave (km/s) = 2.44412 3.93786 3.27723
# Velocity P-wave (km/s) = 4.52137 6.34758 5.51065
#
# Compressibility (1/GPa) = 0.04404920
#
# Stress axis : x y z
#
# Youngs Moduli (GPa) = 54.58836 73.94719 94.89519
#
# Poissons Ratio (x) = -0.07573 0.07438
# Poissons Ratio (y) = -0.05591 -0.05639
# Poissons Ratio (z) = 0.04279 -0.04394
#
# Static dielectric constant tensor:
#      x y z
#    x 1.622030 0.000000 0.044730 
#    y 0.000000 1.626060 0.000000 
#    z 0.044730 0.000000 1.725940 
# 
# From -- ./inp_files/78982.got.cif
#   From: 2010.05.17/outbox.cif.g08.bks.cpg/sg14_40_cif.got.tgz:78982.got - 2010.06.03 17:49:19.
