data_PCOD9239285
_publ_section_title
;
Structure prediction by ZEFSAII (Michael W. Deem and Ramdas Pophale) SiO2 
 PCOD9239285
Probable space group: P 21/C
;
_chemical_formula_sum "Si O2"
_cell_formula_units_Z 24
_cell_length_a 8.290227
_cell_length_b 6.979134
_cell_length_c 16.242798
_cell_angle_alpha 90.000000
_cell_angle_beta 86.617935
_cell_angle_gamma 90.000000
_cell_volume 938.148852
_symmetry_space_group_name_H-M "P 21/C"
_symmetry_group_IT_number 14
_symmetry_cell_setting 'monoclinic'
loop_
_space_group_symop_operation_xyz
x,y,z
-x,1/2+y,1/2-z
-x,-y,-z
x,1/2-y,1/2+z
loop_
_atom_site_type_symbol
_atom_site_label
_atom_site_fract_x
_atom_site_fract_y
_atom_site_fract_z
Si Si1 0.806462 0.210769 0.581746
Si Si2 0.129223 0.883016 0.100299
Si Si3 0.134355 0.156874 0.623367
Si Si4 0.466438 0.209121 0.557316
Si Si5 0.801786 0.585838 0.689806
Si Si6 0.471220 0.864718 0.126366
O O1 0.833159 0.323738 0.494602
O O2 0.632417 0.112138 0.581361
O O3 0.795766 0.369154 0.654707
O O4 0.965348 0.086855 0.592121
O O5 0.283952 0.812782 0.149371
O O6 0.951512 0.823236 0.134595
O O7 0.127920 0.113909 0.107460
O O8 0.302090 0.096018 0.577197
O O9 0.147589 0.107233 0.717963
O O10 0.480988 0.275698 0.463048
O O11 0.463017 0.406429 0.609610
O O12 0.621752 0.670720 0.681927
#
# Coordination Sequence:
#
# PCOD9239285 Si02
#       6
#     4   4   4   4   4   4
#     4   9  17  31  47  62  86 117 148 178 208 253
#     4   9  17  31  47  62  86 117 148 178 208 253
#     4  10  17  24  40  67  93 112 136 178 224 255
#     4   8  14  26  43  59  77 106 141 173 207 250
#     4  10  17  24  40  67  93 112 136 178 224 255
#     4   8  14  26  43  59  77 106 141 173 207 250
#
# _framework density 25.582294000000001
#
# number of rings (size 3 to 8) (size 9 to 14) (size 15 to 20)
#    0.000    3.000    0.000    6.000    0.000    1.333 
#    0.000    0.000    0.000    0.000    0.000   42.000 
#    0.000  129.333    0.000    0.000    0.000    0.000 
#
# Total GULP energy -134178.205071 kJ/mol
# GULP energy per Si atom -5590.758545 kJ/mol
# Density = 2.552407 g / cm^3
# Si number density = 25.582294 Si / 1000 Ang^3
#
#
#
# Elastic Constant Matrix: (Units=GPa)
#
#
# Indices 1 2 3 4 5 6 
#
# 1 243.5108 18.0235 16.5821 0.0000 12.9578 0.0000
# 2 18.0235 105.2471 20.9525 0.0000 -0.3261 0.0000
# 3 16.5821 20.9525 60.8541 0.0000 22.2949 0.0000
# 4 0.0000 0.0000 0.0000 5.5810 0.0000 2.8876
# 5 12.9578 -0.3261 22.2949 0.0000 28.3293 0.0000
# 6 0.0000 0.0000 0.0000 2.8876 0.0000 -25.6614
#
#
#
# Elastic Compliance Matrix: (Units=1/GPa)
#
#
# Indices 1 2 3 4 5 6 
#
# 1 0.004269 -0.000677 -0.000298 0.000000 -0.001726 0.000000
# 2 -0.000677 0.010650 -0.005116 0.000000 0.004458 0.000000
# 3 -0.000298 -0.005116 0.025639 0.000000 -0.020101 0.000000
# 4 0.000000 0.000000 0.000000 0.169322 0.000000 0.019054
# 5 -0.001726 0.004458 -0.020101 0.000000 0.051959 0.000000
# 6 0.000000 0.000000 0.000000 0.019054 0.000000 -0.036825
#
#
# Mechanical properties :
#
#
# Convention : Reuss Voigt Hill
#
# Bulk Modulus (GPa) = 35.23972 57.85870 46.54921
# Shear Modulus (GPa) = 20.27132 25.25337 22.76235
#
# Velocity S-wave (km/s) = 2.81801 3.14529 2.98614
# Velocity P-wave (km/s) = 4.93894 5.98801 5.48860
#
# Compressibility (1/GPa) = 0.02837707
#
# Stress axis : x y z
#
# Youngs Moduli (GPa) = 234.25618 93.90005 39.00249
#
# Poissons Ratio (x) = 0.06358 0.01161
# Poissons Ratio (y) = 0.15862 0.19952
# Poissons Ratio (z) = 0.06974 0.48035
#
# Static dielectric constant tensor:
#      x y z
#    x 2.122580 0.000000 -0.029980 
#    y 0.000000 2.011250 0.000000 
#    z -0.029980 0.000000 1.922530 
# 
# From -- ./inp_files/39574.got.cif
#   From: 2010.05.17/outbox.cif.g08.bks.cpg/sg14_20_cif.got.tgz:39574.got - 2010.06.03 17:49:19.
