data_PCOD9239488
_publ_section_title
;
Structure prediction by ZEFSAII (Michael W. Deem and Ramdas Pophale) SiO2 
 PCOD9239488
Probable space group: P 21/C
;
_chemical_formula_sum "Si O2"
_cell_formula_units_Z 24
_cell_length_a 9.608424
_cell_length_b 7.955637
_cell_length_c 19.737983
_cell_angle_alpha 90.000000
_cell_angle_beta 39.433775
_cell_angle_gamma 90.000000
_cell_volume 958.364570
_symmetry_space_group_name_H-M "P 21/C"
_symmetry_group_IT_number 14
_symmetry_cell_setting 'monoclinic'
loop_
_space_group_symop_operation_xyz
x,y,z
-x,1/2+y,1/2-z
-x,-y,-z
x,1/2-y,1/2+z
loop_
_atom_site_type_symbol
_atom_site_label
_atom_site_fract_x
_atom_site_fract_y
_atom_site_fract_z
Si Si1 0.478073 0.317539 0.544965
Si Si2 0.160852 0.481145 0.280251
Si Si3 0.930045 0.184414 0.435683
Si Si4 0.037628 0.325191 0.525296
Si Si5 0.127198 0.986706 0.247422
Si Si6 0.500397 0.797535 0.604341
O O1 0.500000 0.500000 0.500000
O O2 0.282384 0.353560 0.669790
O O3 0.439017 0.191763 0.497599
O O4 0.703301 0.264655 0.494952
O O5 0.114753 0.318449 0.342638
O O6 0.409741 0.530681 0.169679
O O7 0.057437 0.630844 0.365358
O O8 0.032013 0.471160 0.257432
O O9 0.928717 0.186068 0.517357
O O10 0.995230 0.023429 0.366162
O O11 0.291630 0.278989 0.436802
O O12 0.000000 0.500000 0.500000
O O13 0.294488 0.830776 0.186242
#
# Coordination Sequence:
#
# PCOD9239488 Si02
#       6
#     4   4   4   4   4   4
#     4  10  17  34  58  80 104 152 188 219 271 344
#     4  11  19  37  59  84 112 148 193 235 280 333
#     4  11  22  36  58  86 114 144 194 237 276 337
#     4  10  22  38  58  85 115 154 191 228 278 349
#     4  11  19  36  60  85 109 150 194 235 275 338
#     4  11  21  35  62  84 112 151 193 231 282 335
#
# _framework density 25.042660999999999
#
# number of rings (size 3 to 8) (size 9 to 14) (size 15 to 20)
#    0.000    1.333    6.667    3.000    0.000    4.000 
#    0.000    3.333    0.000    0.000    0.000    0.000 
#    0.000    0.000    0.000    0.000    0.000    0.000 
#
# Total GULP energy -134276.343924 kJ/mol
# GULP energy per Si atom -5594.847664 kJ/mol
# Density = 2.498566 g / cm^3
# Si number density = 25.042661 Si / 1000 Ang^3
#
#
#
# Elastic Constant Matrix: (Units=GPa)
#
#
# Indices 1 2 3 4 5 6 
#
# 1 149.0112 13.5309 27.3589 0.0000 6.7570 0.0000
# 2 13.5309 76.2961 26.0539 0.0000 0.5390 0.0000
# 3 27.3589 26.0539 73.2854 0.0000 -0.3144 0.0000
# 4 0.0000 0.0000 0.0000 58.7212 0.0000 -5.3214
# 5 6.7570 0.5390 -0.3144 0.0000 28.5103 0.0000
# 6 0.0000 0.0000 0.0000 -5.3214 0.0000 19.9487
#
#
#
# Elastic Compliance Matrix: (Units=1/GPa)
#
#
# Indices 1 2 3 4 5 6 
#
# 1 0.007302 -0.000397 -0.002592 0.000000 -0.001752 0.000000
# 2 -0.000397 0.014943 -0.005165 0.000000 -0.000245 0.000000
# 3 -0.002592 -0.005165 0.016453 0.000000 0.000894 0.000000
# 4 0.000000 0.000000 0.000000 0.017451 0.000000 0.004655
# 5 -0.001752 -0.000245 0.000894 0.000000 0.035505 0.000000
# 6 0.000000 0.000000 0.000000 0.004655 0.000000 0.051371
#
#
# Mechanical properties :
#
#
# Convention : Reuss Voigt Hill
#
# Bulk Modulus (GPa) = 44.66544 48.05335 46.35940
# Shear Modulus (GPa) = 29.97644 36.87929 33.42787
#
# Velocity S-wave (km/s) = 3.46354 3.84169 3.65751
# Velocity P-wave (km/s) = 5.81973 6.23765 6.03231
#
# Compressibility (1/GPa) = 0.02238867
#
# Stress axis : x y z
#
# Youngs Moduli (GPa) = 136.94142 66.92176 60.77874
#
# Poissons Ratio (x) = 0.02660 0.15756
# Poissons Ratio (y) = 0.05443 0.31392
# Poissons Ratio (z) = 0.35500 0.34565
#
# Static dielectric constant tensor:
#      x y z
#    x 1.925130 0.000000 0.048650 
#    y 0.000000 2.126570 0.000000 
#    z 0.048650 0.000000 2.007960 
# 
# From -- ./inp_files/64746.got.cif
#   From: 2010.05.17/outbox.cif.g08.bks.cpg/sg14_33_cif.got.tgz:64746.got - 2010.06.03 17:49:19.
