data_PCOD9239009
_publ_section_title
;
Structure prediction by ZEFSAII (Michael W. Deem and Ramdas Pophale) SiO2 
 PCOD9239009
Probable space group: P 2/C
;
_chemical_formula_sum "Si O2"
_cell_formula_units_Z 22
_cell_length_a 24.000000
_cell_length_b 9.000000
_cell_length_c 15.000000
_cell_angle_alpha 90.000000
_cell_angle_beta 160.000000
_cell_angle_gamma 90.000000
_cell_volume 1108.145264
_symmetry_space_group_name_H-M "P 2/C"
_symmetry_group_IT_number 13
_symmetry_cell_setting 'monoclinic'
loop_
_space_group_symop_operation_xyz
x,y,z
-x,y,1/2-z
-x,-y,-z
x,-y,1/2+z
loop_
_atom_site_type_symbol
_atom_site_label
_atom_site_fract_x
_atom_site_fract_y
_atom_site_fract_z
Si Si1 0.070006 0.331025 0.100115
Si Si2 0.000000 0.387171 0.250000
Si Si3 0.697606 0.435457 0.897714
Si Si4 0.478954 0.724042 0.918109
Si Si5 0.810709 0.830777 0.331715
Si Si6 0.839331 0.831822 0.946482
O O1 0.226773 0.344280 0.404448
O O2 0.135277 0.280536 0.100452
O O3 0.000000 0.500000 0.000000
O O4 0.919580 0.221389 0.907553
O O5 0.137141 0.479495 0.406443
O O6 0.097621 0.278268 0.461686
O O7 0.596380 0.587852 0.753535
O O8 0.586138 0.337088 0.663418
O O9 0.323374 0.803872 0.735079
O O10 0.615731 0.800738 0.058324
O O11 0.833334 0.003087 0.392486
O O12 0.000000 0.825043 0.250000
#
# Coordination Sequence:
#
# PCOD9239009 Si02
#       6
#     4   2   4   4   4   4
#     4  11  25  42  69  98 136 175 225 275 337 394
#     4   8  16  34  66  88 126 172 208 262 328 390
#     4   9  20  38  65  97 131 167 219 272 330 387
#     4  10  22  39  71  98 130 168 225 276 331 392
#     4  10  21  44  64  94 133 175 218 273 331 396
#     4  12  25  42  68  99 134 180 225 270 335 408
#
# _framework density 19.852993000000001
#
# number of rings (size 3 to 8) (size 9 to 14) (size 15 to 20)
#    0.000    1.818    0.909    2.182   11.455    0.727 
#    0.000    2.727    8.000    0.000    0.000    0.000 
#    0.000    0.000    0.000    0.000    0.000    0.000 
#
# Total GULP energy -122508.954585 kJ/mol
# GULP energy per Si atom -5568.588845 kJ/mol
# Density = 1.980781 g / cm^3
# Si number density = 19.852993 Si / 1000 Ang^3
#
#
#
# Elastic Constant Matrix: (Units=GPa)
#
#
# Indices 1 2 3 4 5 6 
#
# 1 95.3267 15.1177 38.5200 0.0000 16.5011 0.0000
# 2 15.1177 91.9252 31.7551 0.0000 6.5207 0.0000
# 3 38.5200 31.7551 134.1578 0.0000 19.9615 0.0000
# 4 0.0000 0.0000 0.0000 36.5316 0.0000 8.3284
# 5 16.5011 6.5207 19.9615 0.0000 38.9936 0.0000
# 6 0.0000 0.0000 0.0000 8.3284 0.0000 35.7940
#
#
#
# Elastic Compliance Matrix: (Units=1/GPa)
#
#
# Indices 1 2 3 4 5 6 
#
# 1 0.012393 -0.000803 -0.002823 0.000000 -0.003665 0.000000
# 2 -0.000803 0.011912 -0.002536 0.000000 -0.000354 0.000000
# 3 -0.002823 -0.002536 0.009335 0.000000 -0.003160 0.000000
# 4 0.000000 0.000000 0.000000 0.028907 0.000000 -0.006726
# 5 -0.003665 -0.000354 -0.003160 0.000000 0.028873 0.000000
# 6 0.000000 0.000000 0.000000 -0.006726 0.000000 0.029503
#
#
# Mechanical properties :
#
#
# Convention : Reuss Voigt Hill
#
# Bulk Modulus (GPa) = 46.91516 54.68835 50.80175
# Shear Modulus (GPa) = 35.62496 37.99830 36.81163
#
# Velocity S-wave (km/s) = 4.24068 4.37966 4.31073
# Velocity P-wave (km/s) = 6.90365 7.29257 7.10077
#
# Compressibility (1/GPa) = 0.02131507
#
# Stress axis : x y z
#
# Youngs Moduli (GPa) = 80.69297 83.95105 107.12423
#
# Poissons Ratio (x) = 0.06741 0.30240
# Poissons Ratio (y) = 0.06479 0.27170
# Poissons Ratio (z) = 0.22779 0.21293
#
# Static dielectric constant tensor:
#      x y z
#    x 1.765450 0.000000 0.001990 
#    y 0.000000 1.709760 0.000000 
#    z 0.001990 0.000000 1.718140 
# 
# From -- ./inp_files/58765.got.cif
#   From: 2010.05.17/outbox.ucp.g08.bks.cvg/sg13_30_cif.got.tgz:58765.got - 2010.06.11 12:23:55.
