data_PCOD9239561
_publ_section_title
;
Structure prediction by ZEFSAII (Michael W. Deem and Ramdas Pophale) SiO2 
 PCOD9239561
Probable space group: P 21/C
;
_chemical_formula_sum "Si O2"
_cell_formula_units_Z 28
_cell_length_a 10.445041
_cell_length_b 14.906159
_cell_length_c 18.249856
_cell_angle_alpha 90.000000
_cell_angle_beta 30.409043
_cell_angle_gamma 90.000000
_cell_volume 1438.240938
_symmetry_space_group_name_H-M "P 21/C"
_symmetry_group_IT_number 14
_symmetry_cell_setting 'monoclinic'
loop_
_space_group_symop_operation_xyz
x,y,z
-x,1/2+y,1/2-z
-x,-y,-z
x,1/2-y,1/2+z
loop_
_atom_site_type_symbol
_atom_site_label
_atom_site_fract_x
_atom_site_fract_y
_atom_site_fract_z
Si Si1 0.393328 0.474425 0.856953
Si Si2 0.662854 0.612924 0.272331
Si Si3 0.077767 0.571726 0.815450
Si Si4 0.646140 0.169425 0.697725
Si Si5 0.064161 0.019977 0.883937
Si Si6 0.103665 0.280579 0.406991
Si Si7 0.280775 0.945994 0.066189
O O1 0.420796 0.419830 0.767464
O O2 0.325114 0.577215 0.865488
O O3 0.660644 0.480020 0.765137
O O4 0.184062 0.427713 0.010719
O O5 0.829381 0.530429 0.218712
O O6 0.818676 0.702058 0.185950
O O7 0.431468 0.624727 0.441946
O O8 0.272828 0.636153 0.761863
O O9 0.091165 0.588766 0.722222
O O10 0.355970 0.201713 0.832479
O O11 0.850828 0.244340 0.571833
O O12 0.069893 0.127461 0.880425
O O13 0.862112 0.992241 0.923004
O O14 0.000000 0.000000 0.000000
O O15 0.500000 0.000000 0.000000
#
# Coordination Sequence:
#
# PCOD9239561 Si02
#       7
#     4   4   4   4   4   4   4
#     4  10  18  35  63  83 119 152 209 252 296 367
#     4  10  17  36  60  88 114 163 196 245 300 369
#     4  10  19  36  60  86 122 157 200 239 315 376
#     4  10  20  34  57  92 116 158 205 253 303 369
#     4  11  23  38  60  93 121 157 217 261 292 362
#     4  11  21  34  63  89 121 156 217 256 299 354
#     4  10  22  37  62  86 123 161 192 244 317 370
#
# _framework density 19.468226000000001
#
# number of rings (size 3 to 8) (size 9 to 14) (size 15 to 20)
#    0.000    1.714    4.286    1.714    2.000    0.571 
#    0.000    1.429    0.000    0.000    0.000    0.000 
#    0.000    0.000    0.000    0.000    0.000    0.000 
#
# Total GULP energy -156087.307035 kJ/mol
# GULP energy per Si atom -5574.546680 kJ/mol
# Density = 1.942392 g / cm^3
# Si number density = 19.468226 Si / 1000 Ang^3
#
#
#
# Elastic Constant Matrix: (Units=GPa)
#
#
# Indices 1 2 3 4 5 6 
#
# 1 103.6638 -0.0675 55.3835 0.0000 -6.2893 0.0000
# 2 -0.0675 54.2730 12.0402 0.0000 -2.6609 0.0000
# 3 55.3835 12.0402 86.2718 0.0000 8.3145 0.0000
# 4 0.0000 0.0000 0.0000 24.1786 0.0000 -9.3226
# 5 -6.2893 -2.6609 8.3145 0.0000 35.1514 0.0000
# 6 0.0000 0.0000 0.0000 -9.3226 0.0000 13.4749
#
#
#
# Elastic Compliance Matrix: (Units=1/GPa)
#
#
# Indices 1 2 3 4 5 6 
#
# 1 0.015977 0.002784 -0.011196 0.000000 0.005718 0.000000
# 2 0.002784 0.019654 -0.004832 0.000000 0.003129 0.000000
# 3 -0.011196 -0.004832 0.020141 0.000000 -0.007133 0.000000
# 4 0.000000 0.000000 0.000000 0.056406 0.000000 0.039024
# 5 0.005718 0.003129 -0.007133 0.000000 0.031395 0.000000
# 6 0.000000 0.000000 0.000000 0.039024 0.000000 0.101211
#
#
# Mechanical properties :
#
#
# Convention : Reuss Voigt Hill
#
# Bulk Modulus (GPa) = 34.14855 42.10235 38.12545
# Shear Modulus (GPa) = 17.79150 26.35111 22.07130
#
# Velocity S-wave (km/s) = 3.02631 3.68305 3.37071
# Velocity P-wave (km/s) = 5.45804 6.30552 5.89702
#
# Compressibility (1/GPa) = 0.02928382
#
# Stress axis : x y z
#
# Youngs Moduli (GPa) = 62.58993 50.87989 49.65077
#
# Poissons Ratio (x) = -0.14165 0.55590
# Poissons Ratio (y) = -0.17425 0.23990
# Poissons Ratio (z) = 0.70077 0.24584
#
# Static dielectric constant tensor:
#      x y z
#    x 1.747010 0.000000 -0.024910 
#    y 0.000000 1.689060 0.000000 
#    z -0.024910 0.000000 1.748930 
# 
# From -- ./inp_files/41409.got.cif
#   From: 2010.05.17/outbox.cif.g08.bks.cpg/sg14_21_cif.got.tgz:41409.got - 2010.06.03 17:49:19.
