data_PCOD9239756
_publ_section_title
;
Structure prediction by ZEFSAII (Michael W. Deem and Ramdas Pophale) SiO2 
 PCOD9239756
Probable space group: P 21/C
;
_chemical_formula_sum "Si O2"
_cell_formula_units_Z 28
_cell_length_a 8.391834
_cell_length_b 25.816657
_cell_length_c 5.586430
_cell_angle_alpha 90.000000
_cell_angle_beta 86.447633
_cell_angle_gamma 90.000000
_cell_volume 1207.969552
_symmetry_space_group_name_H-M "P 21/C"
_symmetry_group_IT_number 14
_symmetry_cell_setting 'monoclinic'
loop_
_space_group_symop_operation_xyz
x,y,z
-x,1/2+y,1/2-z
-x,-y,-z
x,1/2-y,1/2+z
loop_
_atom_site_type_symbol
_atom_site_label
_atom_site_fract_x
_atom_site_fract_y
_atom_site_fract_z
Si Si1 0.182260 0.725739 0.071298
Si Si2 0.764772 0.046677 0.587467
Si Si3 0.631580 0.540537 0.402908
Si Si4 0.852610 0.121149 0.217263
Si Si5 0.568031 0.125590 0.925920
Si Si6 0.057450 0.054751 0.887334
Si Si7 0.451884 0.263930 0.395151
O O1 0.122226 0.750658 0.326701
O O2 0.137694 0.664937 0.083949
O O3 0.374877 0.735814 0.074485
O O4 0.774407 0.067234 0.318311
O O5 0.944944 0.058321 0.666188
O O6 0.718433 0.988698 0.673455
O O7 0.638034 0.084620 0.729214
O O8 0.500000 0.500000 0.500000
O O9 0.543973 0.594850 0.377331
O O10 0.753901 0.550668 0.610176
O O11 0.726504 0.144970 0.044250
O O12 0.007444 0.102198 0.064037
O O13 0.480658 0.175633 0.837973
O O14 0.000000 0.000000 0.000000
O O15 0.373190 0.259761 0.665224
#
# Coordination Sequence:
#
# PCOD9239756 Si02
#       7
#     4   4   4   4   4   4   4
#     4  10  19  32  55  90 120 147 198 251 297 344
#     4   9  19  34  56  80 114 147 192 235 296 351
#     4   9  19  37  55  78 115 153 190 240 289 357
#     4  11  20  32  59  85 111 151 190 246 298 349
#     4  10  19  32  54  83 112 146 190 243 292 348
#     4   9  20  37  55  79 115 147 191 239 295 354
#     4  10  18  31  54  83 116 148 195 247 293 345
#
# _framework density 23.179390999999999
#
# number of rings (size 3 to 8) (size 9 to 14) (size 15 to 20)
#    0.000    2.286    2.857    2.571    2.000    2.857 
#    0.000    2.857    0.000    1.714    0.000    0.000 
#    0.000    0.000    0.000    0.000    0.000    0.000 
#
# Total GULP energy -156069.992032 kJ/mol
# GULP energy per Si atom -5573.928287 kJ/mol
# Density = 2.312663 g / cm^3
# Si number density = 23.179391 Si / 1000 Ang^3
#
#
#
# Elastic Constant Matrix: (Units=GPa)
#
#
# Indices 1 2 3 4 5 6 
#
# 1 65.1868 12.3064 4.6942 0.0000 0.9082 0.0000
# 2 12.3064 108.2314 17.5067 0.0000 -11.2278 0.0000
# 3 4.6942 17.5067 93.7463 0.0000 -5.4445 0.0000
# 4 0.0000 0.0000 0.0000 39.9485 0.0000 -6.6038
# 5 0.9082 -11.2278 -5.4445 0.0000 10.2772 0.0000
# 6 0.0000 0.0000 0.0000 -6.6038 0.0000 12.3821
#
#
#
# Elastic Compliance Matrix: (Units=1/GPa)
#
#
# Indices 1 2 3 4 5 6 
#
# 1 0.015843 -0.002119 -0.000633 0.000000 -0.004051 0.000000
# 2 -0.002119 0.010866 -0.001262 0.000000 0.011390 0.000000
# 3 -0.000633 -0.001262 0.011202 0.000000 0.004612 0.000000
# 4 0.000000 0.000000 0.000000 0.027453 0.000000 0.014641
# 5 -0.004051 0.011390 0.004612 0.000000 0.112548 0.000000
# 6 0.000000 0.000000 0.000000 0.014641 0.000000 0.088570
#
#
# Mechanical properties :
#
#
# Convention : Reuss Voigt Hill
#
# Bulk Modulus (GPa) = 33.46298 37.35324 35.40811
# Shear Modulus (GPa) = 17.57652 28.03203 22.80428
#
# Velocity S-wave (km/s) = 2.75668 3.48135 3.13999
# Velocity P-wave (km/s) = 4.95986 5.68415 5.33431
#
# Compressibility (1/GPa) = 0.02988377
#
# Stress axis : x y z
#
# Youngs Moduli (GPa) = 63.12084 92.02932 89.26791
#
# Poissons Ratio (x) = 0.19503 0.05649
# Poissons Ratio (y) = 0.13377 0.11262
# Poissons Ratio (z) = 0.03994 0.11610
#
# Static dielectric constant tensor:
#      x y z
#    x 1.916760 0.000000 -0.003220 
#    y 0.000000 1.937860 0.000000 
#    z -0.003220 0.000000 1.991570 
# 
# From -- ./inp_files/1916.got.cif
#   From: 2010.05.17/outbox.cif.g08.bks.cpg/sg14_1_cif.got.tgz:1916.got - 2010.06.03 17:49:19.
