data_PCOD9239616
_publ_section_title
;
Structure prediction by ZEFSAII (Michael W. Deem and Ramdas Pophale) SiO2 
 PCOD9239616
Probable space group: P 21/C
;
_chemical_formula_sum "Si O2"
_cell_formula_units_Z 32
_cell_length_a 22.360534
_cell_length_b 5.621107
_cell_length_c 20.228638
_cell_angle_alpha 90.000000
_cell_angle_beta 140.729379
_cell_angle_gamma 90.000000
_cell_volume 1609.397768
_symmetry_space_group_name_H-M "P 21/C"
_symmetry_group_IT_number 14
_symmetry_cell_setting 'monoclinic'
loop_
_space_group_symop_operation_xyz
x,y,z
-x,1/2+y,1/2-z
-x,-y,-z
x,1/2-y,1/2+z
loop_
_atom_site_type_symbol
_atom_site_label
_atom_site_fract_x
_atom_site_fract_y
_atom_site_fract_z
Si Si1 0.461002 0.462655 0.364095
Si Si2 0.629375 0.089771 0.851721
Si Si3 0.449091 0.469282 0.026643
Si Si4 0.956672 0.694404 0.512213
Si Si5 0.404458 0.085131 0.665584
Si Si6 0.771828 0.467909 0.355027
Si Si7 0.692277 0.792487 0.170033
Si Si8 0.861189 0.420013 0.834477
O O1 0.507982 0.724155 0.406080
O O2 0.405940 0.430943 0.247313
O O3 0.393801 0.444404 0.371441
O O4 0.529349 0.228718 0.423832
O O5 0.515641 0.083405 0.742231
O O6 0.643951 0.342472 0.899550
O O7 0.693220 0.093321 0.841153
O O8 0.643487 0.831336 0.896491
O O9 0.343964 0.389476 0.916349
O O10 0.500000 0.500000 0.000000
O O11 0.865954 0.578545 0.469649
O O12 0.000000 0.500000 0.500000
O O13 0.050257 0.798339 0.626990
O O14 0.910468 0.889828 0.424871
O O15 0.726824 0.647611 0.263775
O O16 0.807824 0.254688 0.339651
O O17 0.779476 0.954749 0.222760
#
# Coordination Sequence:
#
# PCOD9239616 Si02
#       8
#     4   4   4   4   4   4   4   4
#     4  11  20  33  46  62  94 129 164 198 236 264
#     4  10  20  32  47  71  91 123 167 196 228 278
#     4  10  22  31  44  65  91 124 165 201 228 273
#     4   8  16  30  40  65  91 123 146 184 235 281
#     4  10  20  33  48  65  93 127 164 202 232 267
#     4  10  18  27  47  66  94 126 155 193 228 289
#     4  10  19  27  44  64  88 125 161 190 230 278
#     4   9  17  27  46  62  91 125 150 185 232 289
#
# _framework density 19.883212
#
# number of rings (size 3 to 8) (size 9 to 14) (size 15 to 20)
#    0.000    2.250    1.250    3.000    8.750    0.000 
#    0.000    0.000    0.000    0.000    0.000    0.000 
#    0.000    0.000   25.500    0.875    0.000    0.000 
#
# Total GULP energy -178162.896427 kJ/mol
# GULP energy per Si atom -5567.590513 kJ/mol
# Density = 1.983796 g / cm^3
# Si number density = 19.883212 Si / 1000 Ang^3
#
#
#
# Elastic Constant Matrix: (Units=GPa)
#
#
# Indices 1 2 3 4 5 6 
#
# 1 38.7652 22.6438 8.7915 0.0000 6.2920 0.0000
# 2 22.6438 147.2800 39.4871 0.0000 15.8148 0.0000
# 3 8.7915 39.4871 62.1859 0.0000 20.6698 0.0000
# 4 0.0000 0.0000 0.0000 34.7362 0.0000 12.6345
# 5 6.2920 15.8148 20.6698 0.0000 25.7846 0.0000
# 6 0.0000 0.0000 0.0000 12.6345 0.0000 15.5275
#
#
#
# Elastic Compliance Matrix: (Units=1/GPa)
#
#
# Indices 1 2 3 4 5 6 
#
# 1 0.028848 -0.003927 -0.000062 0.000000 -0.004581 0.000000
# 2 -0.003927 0.008743 -0.004816 0.000000 -0.000544 0.000000
# 3 -0.000062 -0.004816 0.024757 0.000000 -0.016877 0.000000
# 4 0.000000 0.000000 0.000000 0.040890 0.000000 -0.033272
# 5 -0.004581 -0.000544 -0.016877 0.000000 0.053764 0.000000
# 6 0.000000 0.000000 0.000000 -0.033272 0.000000 0.091475
#
#
# Mechanical properties :
#
#
# Convention : Reuss Voigt Hill
#
# Bulk Modulus (GPa) = 22.35200 43.34177 32.84689
# Shear Modulus (GPa) = 17.79365 27.03025 22.41195
#
# Velocity S-wave (km/s) = 2.99475 3.69107 3.36099
# Velocity P-wave (km/s) = 4.81914 6.32541 5.62294
#
# Compressibility (1/GPa) = 0.04473872
#
# Stress axis : x y z
#
# Youngs Moduli (GPa) = 34.66482 114.37654 40.39191
#
# Poissons Ratio (x) = 0.44911 0.00252
# Poissons Ratio (y) = 0.13612 0.19452
# Poissons Ratio (z) = 0.00216 0.55082
#
# Static dielectric constant tensor:
#      x y z
#    x 1.710410 0.000000 0.041990 
#    y 0.000000 1.851970 0.000000 
#    z 0.041990 0.000000 1.809940 
# 
# From -- ./inp_files/74486.got.cif
#   From: 2010.05.17/outbox.cif.g08.bks.cpg/sg14_38_cif.got.tgz:74486.got - 2010.06.03 17:49:19.
