data_PCOD9239884
_publ_section_title
;
Structure prediction by ZEFSAII (Michael W. Deem and Ramdas Pophale) SiO2 
 PCOD9239884
Probable space group: P 21/C
;
_chemical_formula_sum "Si O2"
_cell_formula_units_Z 28
_cell_length_a 19.203712
_cell_length_b 14.088324
_cell_length_c 11.997073
_cell_angle_alpha 90.000000
_cell_angle_beta 24.115834
_cell_angle_gamma 90.000000
_cell_volume 1326.171843
_symmetry_space_group_name_H-M "P 21/C"
_symmetry_group_IT_number 14
_symmetry_cell_setting 'monoclinic'
loop_
_space_group_symop_operation_xyz
x,y,z
-x,1/2+y,1/2-z
-x,-y,-z
x,1/2-y,1/2+z
loop_
_atom_site_type_symbol
_atom_site_label
_atom_site_fract_x
_atom_site_fract_y
_atom_site_fract_z
Si Si1 0.042566 0.733216 0.402986
Si Si2 0.071930 0.384788 0.640835
Si Si3 0.453994 0.436860 0.407676
Si Si4 0.686806 0.715669 0.540687
Si Si5 0.051724 0.561730 0.533183
Si Si6 0.856505 0.426628 0.169828
Si Si7 0.318719 0.407405 0.850840
O O1 0.009853 0.681185 0.334704
O O2 0.852280 0.762495 0.722270
O O3 0.121850 0.658547 0.376369
O O4 0.143296 0.831514 0.257387
O O5 0.228628 0.335254 0.475612
O O6 0.134141 0.483938 0.494354
O O7 0.921990 0.401189 0.950153
O O8 0.439278 0.352939 0.341230
O O9 0.318785 0.517738 0.571631
O O10 0.391044 0.403448 0.621142
O O11 0.628505 0.493060 0.170202
O O12 0.612072 0.816719 0.684162
O O13 0.000000 0.500000 0.500000
O O14 0.884497 0.596240 0.844981
O O15 0.000000 0.500000 0.000000
#
# Coordination Sequence:
#
# PCOD9239884 Si02
#       7
#     4   4   4   4   4   4   4
#     4   9  19  32  54  85 116 146 187 238 292 341
#     4  10  18  32  59  83 111 148 187 244 287 333
#     4  11  21  39  59  87 117 154 197 236 288 355
#     4  10  20  36  59  84 110 158 195 232 289 353
#     4   9  18  35  57  84 113 152 191 238 290 345
#     4  11  20  33  54  88 112 144 196 244 278 338
#     4  10  22  38  61  80 121 160 189 235 298 353
#
# _framework density 21.113403000000002
#
# number of rings (size 3 to 8) (size 9 to 14) (size 15 to 20)
#    0.000    2.000    4.286    0.857    0.000    1.143 
#    5.143    0.000    0.000    8.571    0.000    0.000 
#    0.000    0.000    0.000    0.000    0.000    0.000 
#
# Total GULP energy -156303.108739 kJ/mol
# GULP energy per Si atom -5582.253884 kJ/mol
# Density = 2.106535 g / cm^3
# Si number density = 21.113403 Si / 1000 Ang^3
#
#
#
# Elastic Constant Matrix: (Units=GPa)
#
#
# Indices 1 2 3 4 5 6 
#
# 1 87.5693 52.7898 11.3628 0.0000 17.6987 0.0000
# 2 52.7898 137.4142 9.8425 0.0000 15.1925 0.0000
# 3 11.3628 9.8425 21.7453 0.0000 3.8981 0.0000
# 4 0.0000 0.0000 0.0000 22.5319 0.0000 -0.6423
# 5 17.6987 15.1925 3.8981 0.0000 11.2742 0.0000
# 6 0.0000 0.0000 0.0000 -0.6423 0.0000 52.8643
#
#
#
# Elastic Compliance Matrix: (Units=1/GPa)
#
#
# Indices 1 2 3 4 5 6 
#
# 1 0.019309 -0.004625 -0.003923 0.000000 -0.022724 0.000000
# 2 -0.004625 0.009735 -0.001002 0.000000 -0.005512 0.000000
# 3 -0.003923 -0.001002 0.050259 0.000000 -0.009869 0.000000
# 4 0.000000 0.000000 0.000000 0.044397 0.000000 0.000539
# 5 -0.022724 -0.005512 -0.009869 0.000000 0.135212 0.000000
# 6 0.000000 0.000000 0.000000 0.000539 0.000000 0.018923
#
#
# Mechanical properties :
#
#
# Convention : Reuss Voigt Hill
#
# Bulk Modulus (GPa) = 16.60987 43.85766 30.23376
# Shear Modulus (GPa) = 15.77274 28.84965 22.31119
#
# Velocity S-wave (km/s) = 2.73618 3.70051 3.25427
# Velocity P-wave (km/s) = 4.22686 6.25107 5.33583
#
# Compressibility (1/GPa) = 0.06020517
#
# Stress axis : x y z
#
# Youngs Moduli (GPa) = 51.78868 102.72169 19.89679
#
# Poissons Ratio (x) = 0.47504 0.07806
# Poissons Ratio (y) = 0.23950 0.01993
# Poissons Ratio (z) = 0.20317 0.10289
#
# Static dielectric constant tensor:
#      x y z
#    x 1.786640 0.000000 -0.015160 
#    y 0.000000 1.816080 0.000000 
#    z -0.015160 0.000000 1.773410 
# 
# From -- ./inp_files/34077.got.cif
#   From: 2010.05.17/outbox.cif.g08.bks.cpg/sg14_18_cif.got.tgz:34077.got - 2010.06.03 17:49:19.
