data_PCOD9239343
_publ_section_title
;
Structure prediction by ZEFSAII (Michael W. Deem and Ramdas Pophale) SiO2 
 PCOD9239343
Probable space group: P 21/C
;
_chemical_formula_sum "Si O2"
_cell_formula_units_Z 28
_cell_length_a 6.995940
_cell_length_b 16.963814
_cell_length_c 9.938333
_cell_angle_alpha 90.000000
_cell_angle_beta 70.782374
_cell_angle_gamma 90.000000
_cell_volume 1113.734533
_symmetry_space_group_name_H-M "P 21/C"
_symmetry_group_IT_number 14
_symmetry_cell_setting 'monoclinic'
loop_
_space_group_symop_operation_xyz
x,y,z
-x,1/2+y,1/2-z
-x,-y,-z
x,1/2-y,1/2+z
loop_
_atom_site_type_symbol
_atom_site_label
_atom_site_fract_x
_atom_site_fract_y
_atom_site_fract_z
Si Si1 0.031647 0.289362 0.607872
Si Si2 0.489479 0.564759 0.307691
Si Si3 0.719650 0.494900 0.028623
Si Si4 0.037353 0.380431 0.190226
Si Si5 0.264487 0.654370 0.118831
Si Si6 0.308628 0.816933 0.043138
Si Si7 0.816638 0.563114 0.564401
O O1 0.942122 0.309952 0.775352
O O2 0.856256 0.293161 0.534026
O O3 0.104311 0.199936 0.601358
O O4 0.162363 0.364550 0.539767
O O5 0.684249 0.533683 0.182784
O O6 0.349837 0.601115 0.220019
O O7 0.466338 0.629969 0.427006
O O8 0.382338 0.488142 0.392369
O O9 0.500000 0.500000 0.000000
O O10 0.894273 0.544634 0.913937
O O11 0.759712 0.401409 0.004427
O O12 0.166826 0.397529 0.293847
O O13 0.814306 0.362272 0.308708
O O14 0.396342 0.733061 0.069549
O O15 0.000000 0.500000 0.500000
#
# Coordination Sequence:
#
# PCOD9239343 Si02
#       7
#     4   4   4   4   4   4   4
#     4   9  18  28  48  75  96 121 159 202 244 272
#     4  10  18  30  50  73  92 126 162 198 238 285
#     4  10  18  30  48  71  97 124 161 197 242 281
#     4  10  17  30  48  72  99 122 158 207 233 282
#     4   9  16  30  49  71  96 125 157 201 239 283
#     4   9  18  31  49  71  99 123 160 198 244 284
#     4  11  15  30  52  71  93 124 164 203 226 282
#
# _framework density 25.140640999999999
#
# number of rings (size 3 to 8) (size 9 to 14) (size 15 to 20)
#    0.000    2.286    7.143    0.000    0.000    0.000 
#    2.571    0.714    0.000    0.000    0.000    9.000 
#    0.000    0.000    0.000    0.000    0.000    0.000 
#
# Total GULP energy -156337.966996 kJ/mol
# GULP energy per Si atom -5583.498821 kJ/mol
# Density = 2.508342 g / cm^3
# Si number density = 25.140641 Si / 1000 Ang^3
#
#
#
# Elastic Constant Matrix: (Units=GPa)
#
#
# Indices 1 2 3 4 5 6 
#
# 1 68.1162 25.2053 17.4697 0.0000 6.6514 0.0000
# 2 25.2053 190.6802 83.1978 0.0000 -4.6959 0.0000
# 3 17.4697 83.1978 148.1131 0.0000 -23.7145 0.0000
# 4 0.0000 0.0000 0.0000 72.4546 0.0000 3.2352
# 5 6.6514 -4.6959 -23.7145 0.0000 19.4432 0.0000
# 6 0.0000 0.0000 0.0000 3.2352 0.0000 3.7617
#
#
#
# Elastic Compliance Matrix: (Units=1/GPa)
#
#
# Indices 1 2 3 4 5 6 
#
# 1 0.016777 -0.001227 -0.002803 0.000000 -0.009455 0.000000
# 2 -0.001227 0.007274 -0.004465 0.000000 -0.003269 0.000000
# 3 -0.002803 -0.004465 0.011894 0.000000 0.014387 0.000000
# 4 0.000000 0.000000 0.000000 0.014353 0.000000 -0.012344
# 5 -0.009455 -0.003269 0.014387 0.000000 0.071424 0.000000
# 6 0.000000 0.000000 0.000000 -0.012344 0.000000 0.276454
#
#
# Mechanical properties :
#
#
# Convention : Reuss Voigt Hill
#
# Bulk Modulus (GPa) = 52.75802 73.18390 62.97096
# Shear Modulus (GPa) = 11.86284 37.86768 24.86526
#
# Velocity S-wave (km/s) = 2.17459 3.88523 3.14832
# Velocity P-wave (km/s) = 5.22837 7.02137 6.19013
#
# Compressibility (1/GPa) = 0.01895446
#
# Stress axis : x y z
#
# Youngs Moduli (GPa) = 59.60483 137.47356 84.07917
#
# Poissons Ratio (x) = 0.16875 0.23569
# Poissons Ratio (y) = 0.07316 0.37538
# Poissons Ratio (z) = 0.16708 0.61376
#
# Static dielectric constant tensor:
#      x y z
#    x 2.068180 0.000000 0.015850 
#    y 0.000000 2.082420 0.000000 
#    z 0.015850 0.000000 2.071480 
# 
# From -- ./inp_files/29537.got.cif
#   From: 2010.05.17/outbox.cif.g08.bks.cpg/sg14_15_cif.got.tgz:29537.got - 2010.06.03 17:49:19.
