data_PCOD9239647
_publ_section_title
;
Structure prediction by ZEFSAII (Michael W. Deem and Ramdas Pophale) SiO2 
 PCOD9239647
Probable space group: P 21/C
;
_chemical_formula_sum "Si O2"
_cell_formula_units_Z 24
_cell_length_a 8.988996
_cell_length_b 8.375222
_cell_length_c 12.387422
_cell_angle_alpha 90.000000
_cell_angle_beta 72.377870
_cell_angle_gamma 90.000000
_cell_volume 888.822383
_symmetry_space_group_name_H-M "P 21/C"
_symmetry_group_IT_number 14
_symmetry_cell_setting 'monoclinic'
loop_
_space_group_symop_operation_xyz
x,y,z
-x,1/2+y,1/2-z
-x,-y,-z
x,1/2-y,1/2+z
loop_
_atom_site_type_symbol
_atom_site_label
_atom_site_fract_x
_atom_site_fract_y
_atom_site_fract_z
Si Si1 0.343144 0.310192 0.597572
Si Si2 0.378520 0.751423 0.224191
Si Si3 0.001573 0.287542 0.900381
Si Si4 0.174261 0.024308 0.720245
Si Si5 0.304605 0.424322 0.840285
Si Si6 0.295765 0.878755 0.005277
O O1 0.291274 0.127037 0.617465
O O2 0.270661 0.375586 0.724277
O O3 0.528202 0.341352 0.572228
O O4 0.282544 0.429381 0.518154
O O5 0.280947 0.591688 0.270099
O O6 0.552500 0.690100 0.159915
O O7 0.361358 0.894273 0.313868
O O8 0.311248 0.816769 0.126319
O O9 0.931972 0.416289 0.832389
O O10 0.858334 0.213377 0.999743
O O11 0.070550 0.136666 0.818738
O O12 0.142091 0.377909 0.931348
#
# Coordination Sequence:
#
# PCOD9239647 Si02
#       6
#     4   4   4   4   4   4
#     4   9  18  33  54  76 103 136 167 202 250 305
#     4  10  20  33  53  75 100 135 171 205 250 306
#     4  10  18  29  50  76 101 128 169 212 246 288
#     4  10  18  31  51  74 101 131 168 208 246 295
#     4  10  19  33  52  74 100 132 170 208 251 298
#     4   9  19  34  54  77 103 134 169 205 249 299
#
# _framework density 27.002018
#
# number of rings (size 3 to 8) (size 9 to 14) (size 15 to 20)
#    0.000    2.333    0.000    6.000    0.000    2.667 
#    0.000    0.000    0.000   33.000    0.000    0.000 
#    0.000    0.000    0.000    0.000    0.000    0.000 
#
# Total GULP energy -134257.941930 kJ/mol
# GULP energy per Si atom -5594.080914 kJ/mol
# Density = 2.694056 g / cm^3
# Si number density = 27.002018 Si / 1000 Ang^3
#
#
#
# Elastic Constant Matrix: (Units=GPa)
#
#
# Indices 1 2 3 4 5 6 
#
# 1 94.9634 56.1145 23.5485 0.0000 -36.6550 0.0000
# 2 56.1145 167.6425 41.2475 0.0000 -26.4868 0.0000
# 3 23.5485 41.2475 96.0255 0.0000 -34.0291 0.0000
# 4 0.0000 0.0000 0.0000 54.1748 0.0000 -16.9025
# 5 -36.6550 -26.4868 -34.0291 0.0000 42.6551 0.0000
# 6 0.0000 0.0000 0.0000 -16.9025 0.0000 56.6290
#
#
#
# Elastic Compliance Matrix: (Units=1/GPa)
#
#
# Indices 1 2 3 4 5 6 
#
# 1 0.018330 -0.004417 0.002805 0.000000 0.015247 0.000000
# 2 -0.004417 0.007946 -0.002686 0.000000 -0.001004 0.000000
# 3 0.002805 -0.002686 0.015535 0.000000 0.013136 0.000000
# 4 0.000000 0.000000 0.000000 0.020354 0.000000 0.006075
# 5 0.015247 -0.001004 0.013136 0.000000 0.046402 0.000000
# 6 0.000000 0.000000 0.000000 0.006075 0.000000 0.019472
#
#
# Mechanical properties :
#
#
# Convention : Reuss Voigt Hill
#
# Bulk Modulus (GPa) = 30.10640 66.71696 48.41168
# Shear Modulus (GPa) = 33.85127 46.53983 40.19555
#
# Velocity S-wave (km/s) = 3.54454 4.15609 3.86244
# Velocity P-wave (km/s) = 5.28447 6.91322 6.15297
#
# Compressibility (1/GPa) = 0.03321553
#
# Stress axis : x y z
#
# Youngs Moduli (GPa) = 54.55619 125.85519 64.37176
#
# Poissons Ratio (x) = 0.55587 -0.18058
# Poissons Ratio (y) = 0.24096 0.17289
# Poissons Ratio (z) = -0.15304 0.33802
#
# Static dielectric constant tensor:
#      x y z
#    x 2.142290 0.000000 0.032000 
#    y 0.000000 2.169810 0.000000 
#    z 0.032000 0.000000 2.159370 
# 
# From -- ./inp_files/54520.got.cif
#   From: 2010.05.17/outbox.cif.g08.bks.cpg/sg14_28_cif.got.tgz:54520.got - 2010.06.03 17:49:19.
