data_PCOD9239632
_publ_section_title
;
Structure prediction by ZEFSAII (Michael W. Deem and Ramdas Pophale) SiO2 
 PCOD9239632
Probable space group: P 21/C
;
_chemical_formula_sum "Si O2"
_cell_formula_units_Z 32
_cell_length_a 20.363572
_cell_length_b 7.029918
_cell_length_c 20.667531
_cell_angle_alpha 90.000000
_cell_angle_beta 29.709464
_cell_angle_gamma 90.000000
_cell_volume 1466.310656
_symmetry_space_group_name_H-M "P 21/C"
_symmetry_group_IT_number 14
_symmetry_cell_setting 'monoclinic'
loop_
_space_group_symop_operation_xyz
x,y,z
-x,1/2+y,1/2-z
-x,-y,-z
x,1/2-y,1/2+z
loop_
_atom_site_type_symbol
_atom_site_label
_atom_site_fract_x
_atom_site_fract_y
_atom_site_fract_z
Si Si1 0.369162 0.634160 0.455422
Si Si2 0.652643 0.581704 0.064475
Si Si3 0.944379 0.780826 0.501929
Si Si4 0.079598 0.829876 0.015340
Si Si5 0.662376 0.840502 0.706619
Si Si6 0.640763 0.410831 0.684382
Si Si7 0.080407 0.407315 0.225169
Si Si8 0.099896 0.848503 0.243680
O O1 0.517529 0.589542 0.352231
O O2 0.251021 0.586883 0.605211
O O3 0.360448 0.860936 0.445739
O O4 0.655365 0.048199 0.095153
O O5 0.682127 0.592430 0.115537
O O6 0.506694 0.670463 0.179945
O O7 0.776462 0.666895 0.919942
O O8 0.020536 0.775744 0.504233
O O9 0.028304 0.877066 0.372888
O O10 0.928695 0.557101 0.494270
O O11 0.796964 0.867919 0.630812
O O12 0.993814 0.799274 0.153632
O O13 0.233729 0.792083 0.898951
O O14 0.646368 0.612048 0.715237
O O15 0.102080 0.620341 0.231853
O O16 0.986938 0.419751 0.242478
#
# Coordination Sequence:
#
# PCOD9239632 Si02
#       8
#     4   4   4   4   4   4   4   4
#     4   9  17  27  43  68  92 111 143 189 224 255
#     4   9  17  27  43  68  92 111 143 189 224 255
#     4   9  17  29  45  65  91 122 151 179 218 269
#     4   9  17  29  45  65  91 122 151 179 218 269
#     4   9  16  28  45  65  89 118 147 177 221 267
#     4   9  16  28  45  65  89 118 147 177 221 267
#     4  10  18  29  46  68  91 115 149 188 222 258
#     4  10  18  29  46  68  91 115 149 188 222 258
#
# _framework density 21.823478999999999
#
# number of rings (size 3 to 8) (size 9 to 14) (size 15 to 20)
#    0.000    2.750    2.500    0.000    0.000    0.000 
#    0.000    1.250    0.000   10.500    0.000    0.000 
#    0.000   10.000    0.000    0.000    0.000    0.000 
#
# Total GULP energy -178765.879672 kJ/mol
# GULP energy per Si atom -5586.433740 kJ/mol
# Density = 2.177381 g / cm^3
# Si number density = 21.823479 Si / 1000 Ang^3
#
#
#
# Elastic Constant Matrix: (Units=GPa)
#
#
# Indices 1 2 3 4 5 6 
#
# 1 115.8646 10.3408 86.9374 0.0000 -20.0517 0.0000
# 2 10.3408 65.9372 8.6397 0.0000 -3.9855 0.0000
# 3 86.9374 8.6397 191.3944 0.0000 -27.8531 0.0000
# 4 0.0000 0.0000 0.0000 9.7608 0.0000 0.4519
# 5 -20.0517 -3.9855 -27.8531 0.0000 34.4314 0.0000
# 6 0.0000 0.0000 0.0000 0.4519 0.0000 35.8172
#
#
#
# Elastic Compliance Matrix: (Units=1/GPa)
#
#
# Indices 1 2 3 4 5 6 
#
# 1 0.013502 -0.001189 -0.005616 0.000000 0.003182 0.000000
# 2 -0.001189 0.015418 0.000004 0.000000 0.001095 0.000000
# 3 -0.005616 0.000004 0.008274 0.000000 0.003423 0.000000
# 4 0.000000 0.000000 0.000000 0.102510 0.000000 -0.001293
# 5 0.003182 0.001095 0.003423 0.000000 0.033792 0.000000
# 6 0.000000 0.000000 0.000000 -0.001293 0.000000 0.027936
#
#
# Mechanical properties :
#
#
# Convention : Reuss Voigt Hill
#
# Bulk Modulus (GPa) = 42.39083 65.00354 53.69719
# Shear Modulus (GPa) = 22.43177 33.82045 28.12611
#
# Velocity S-wave (km/s) = 3.20952 3.94093 3.59388
# Velocity P-wave (km/s) = 5.76206 7.11046 6.47147
#
# Compressibility (1/GPa) = 0.02359001
#
# Stress axis : x y z
#
# Youngs Moduli (GPa) = 74.06571 64.85851 120.86416
#
# Poissons Ratio (x) = 0.07713 0.67878
# Poissons Ratio (y) = 0.08808 -0.00043
# Poissons Ratio (z) = 0.41596 -0.00023
#
# Static dielectric constant tensor:
#      x y z
#    x 1.734110 0.000000 -0.019020 
#    y 0.000000 1.883930 0.000000 
#    z -0.019020 0.000000 1.811890 
# 
# From -- ./inp_files/69221.got.cif
#   From: 2010.05.17/outbox.cif.g08.bks.cpg/sg14_35_cif.got.tgz:69221.got - 2010.06.03 17:49:19.
