data_PCOD9239996
_publ_section_title
;
Structure prediction by ZEFSAII (Michael W. Deem and Ramdas Pophale) SiO2 
 PCOD9239996
Probable space group: P 21/C
;
_chemical_formula_sum "Si O2"
_cell_formula_units_Z 28
_cell_length_a 5.201051
_cell_length_b 12.110644
_cell_length_c 19.527078
_cell_angle_alpha 90.000000
_cell_angle_beta 104.160451
_cell_angle_gamma 90.000000
_cell_volume 1192.599679
_symmetry_space_group_name_H-M "P 21/C"
_symmetry_group_IT_number 14
_symmetry_cell_setting 'monoclinic'
loop_
_space_group_symop_operation_xyz
x,y,z
-x,1/2+y,1/2-z
-x,-y,-z
x,1/2-y,1/2+z
loop_
_atom_site_type_symbol
_atom_site_label
_atom_site_fract_x
_atom_site_fract_y
_atom_site_fract_z
Si Si1 0.001214 0.649637 0.203921
Si Si2 0.559143 0.654386 0.939774
Si Si3 0.773215 0.859047 0.036350
Si Si4 0.244465 0.661883 0.794158
Si Si5 0.677739 0.044797 0.914305
Si Si6 0.442877 0.450316 0.735402
Si Si7 0.967646 0.465172 0.100154
O O1 0.107620 0.771944 0.224511
O O2 0.254687 0.585163 0.252081
O O3 0.735619 0.633165 0.231128
O O4 0.965358 0.591121 0.127637
O O5 0.437369 0.717325 0.863884
O O6 0.311280 0.579562 0.947335
O O7 0.794355 0.573759 0.931456
O O8 0.664079 0.745383 0.998555
O O9 0.600628 0.894233 0.090773
O O10 0.086286 0.866222 0.068110
O O11 0.719924 0.955286 0.976941
O O12 0.416331 0.562890 0.775805
O O13 0.024743 0.606629 0.828837
O O14 0.684955 0.976446 0.845325
#
# Coordination Sequence:
#
# PCOD9239996 Si02
#       7
#     4   4   4   4   4   4   4
#     4  11  20  33  53  75 109 143 165 217 267 315
#     4  10  18  34  50  72 104 132 176 217 249 312
#     4  10  20  33  51  74 101 143 178 207 258 320
#     4   9  22  31  55  75 107 137 176 207 278 311
#     4  10  21  33  49  77 106 136 180 210 258 318
#     4  11  22  36  51  80 114 137 175 219 260 329
#     4   9  19  32  45  78 101 126 183 206 252 322
#
# _framework density 23.478119
#
# number of rings (size 3 to 8) (size 9 to 14) (size 15 to 20)
#    0.857    1.143    1.429    2.571    4.000    1.143 
#    0.000    0.000    0.000    0.000    0.000    6.000 
#    0.000    0.000    0.000    0.000    0.000    0.000 
#
# Total GULP energy -156260.992216 kJ/mol
# GULP energy per Si atom -5580.749722 kJ/mol
# Density = 2.342468 g / cm^3
# Si number density = 23.478119 Si / 1000 Ang^3
#
#
#
# Elastic Constant Matrix: (Units=GPa)
#
#
# Indices 1 2 3 4 5 6 
#
# 1 120.8964 9.8475 20.0924 0.0000 7.6424 0.0000
# 2 9.8475 46.5041 30.3848 0.0000 7.1590 0.0000
# 3 20.0924 30.3848 33.6164 0.0000 2.5508 0.0000
# 4 0.0000 0.0000 0.0000 27.0548 0.0000 17.2812
# 5 7.6424 7.1590 2.5508 0.0000 28.3643 0.0000
# 6 0.0000 0.0000 0.0000 17.2812 0.0000 2.7291
#
#
#
# Elastic Compliance Matrix: (Units=1/GPa)
#
#
# Indices 1 2 3 4 5 6 
#
# 1 0.009733 0.005009 -0.010119 0.000000 -0.002977 0.000000
# 2 0.005009 0.057510 -0.054141 0.000000 -0.010996 0.000000
# 3 -0.010119 -0.054141 0.084062 0.000000 0.008832 0.000000
# 4 0.000000 0.000000 0.000000 -0.012140 0.000000 0.076872
# 5 -0.002977 -0.010996 0.008832 0.000000 0.038039 0.000000
# 6 0.000000 0.000000 0.000000 0.076872 0.000000 -0.120348
#
#
# Mechanical properties :
#
#
# Convention : Reuss Voigt Hill
#
# Bulk Modulus (GPa) = 30.48524 35.74071 33.11297
# Shear Modulus (GPa) = 26.83944 21.00912 23.92428
#
# Velocity S-wave (km/s) = 3.38475 2.99463 3.19565
# Velocity P-wave (km/s) = 5.31865 5.21662 5.26788
#
# Compressibility (1/GPa) = 0.03280276
#
# Stress axis : x y z
#
# Youngs Moduli (GPa) = 102.73827 17.38822 11.89602
#
# Poissons Ratio (x) = -0.08709 0.12038
# Poissons Ratio (y) = -0.51458 0.64406
# Poissons Ratio (z) = 1.03961 0.94142
#
# Static dielectric constant tensor:
#      x y z
#    x 1.867740 0.000000 -0.011780 
#    y 0.000000 1.954870 0.000000 
#    z -0.011780 0.000000 1.965060 
# 
# From -- ./inp_files/63713.got.cif
#   From: 2010.05.17/outbox.cif.g08.bks.cpg/sg14_32_cif.got.tgz:63713.got - 2010.06.03 17:49:19.
