data_PCOD9239060
_publ_section_title
;
Structure prediction by ZEFSAII (Michael W. Deem and Ramdas Pophale) SiO2 
 PCOD9239060
Probable space group: P 2/C
;
_chemical_formula_sum "Si O2"
_cell_formula_units_Z 26
_cell_length_a 15.000000
_cell_length_b 15.000000
_cell_length_c 9.000000
_cell_angle_alpha 90.000000
_cell_angle_beta 40.000000
_cell_angle_gamma 90.000000
_cell_volume 1301.644910
_symmetry_space_group_name_H-M "P 2/C"
_symmetry_group_IT_number 13
_symmetry_cell_setting 'monoclinic'
loop_
_space_group_symop_operation_xyz
x,y,z
-x,y,1/2-z
-x,-y,-z
x,-y,1/2+z
loop_
_atom_site_type_symbol
_atom_site_label
_atom_site_fract_x
_atom_site_fract_y
_atom_site_fract_z
Si Si1 0.872369 0.272462 0.299410
Si Si2 0.500000 0.234684 0.250000
Si Si3 0.066881 0.257797 0.804697
Si Si4 0.304271 0.384420 0.373309
Si Si5 0.159930 0.933780 0.603544
Si Si6 0.744380 0.105289 0.827294
Si Si7 0.660471 0.578519 0.019363
O O1 0.830383 0.167443 0.342239
O O2 0.753607 0.345279 0.481468
O O3 0.000000 0.279380 0.250000
O O4 0.942323 0.299326 0.055204
O O5 0.421675 0.306297 0.243012
O O6 0.387882 0.165092 0.459141
O O7 0.171233 0.332643 0.611298
O O8 0.137784 0.181704 0.812111
O O9 0.000000 0.208901 0.750000
O O10 0.321255 0.476975 0.443888
O O11 0.306125 0.413820 0.198938
O O12 0.259980 0.929264 0.333911
O O13 0.000000 0.946118 0.750000
O O14 0.209221 0.018665 0.636794
O O15 0.500000 0.600973 0.250000
#
# Coordination Sequence:
#
# PCOD9239060 Si02
#       7
#     4   2   4   4   4   4   4
#     4  11  25  44  68 102 139 178 225 273 337 391
#     4  10  26  46  66  94 132 180 218 282 334 404
#     4  11  22  43  65  98 133 173 221 280 329 395
#     4  11  26  44  71  95 133 176 229 272 347 389
#     4  11  23  40  66  98 129 176 219 276 333 392
#     4  11  24  41  68  92 135 170 226 272 333 399
#     4  12  27  44  70  99 136 181 223 279 333 415
#
# _framework density 19.974726
#
# number of rings (size 3 to 8) (size 9 to 14) (size 15 to 20)
#    0.000    0.923    5.385    1.385    6.462    1.846 
#    1.385    0.000    0.000    0.000    0.000    0.000 
#    0.000    0.000    0.000    0.000    0.000    0.000 
#
# Total GULP energy -144928.339082 kJ/mol
# GULP energy per Si atom -5574.166888 kJ/mol
# Density = 1.992926 g / cm^3
# Si number density = 19.974726 Si / 1000 Ang^3
#
#
#
# Elastic Constant Matrix: (Units=GPa)
#
#
# Indices 1 2 3 4 5 6 
#
# 1 59.5764 57.6048 45.9873 0.0000 3.2248 0.0000
# 2 57.6048 176.9376 69.2822 0.0000 -13.5274 0.0000
# 3 45.9873 69.2822 92.6800 0.0000 0.9110 0.0000
# 4 0.0000 0.0000 0.0000 40.3026 0.0000 3.4450
# 5 3.2248 -13.5274 0.9110 0.0000 29.4773 0.0000
# 6 0.0000 0.0000 0.0000 3.4450 0.0000 38.6505
#
#
#
# Elastic Compliance Matrix: (Units=1/GPa)
#
#
# Indices 1 2 3 4 5 6 
#
# 1 0.031851 -0.006614 -0.010799 0.000000 -0.006186 0.000000
# 2 -0.006614 0.009827 -0.004117 0.000000 0.005360 0.000000
# 3 -0.010799 -0.004117 0.019239 0.000000 -0.001302 0.000000
# 4 0.000000 0.000000 0.000000 0.025003 0.000000 -0.002229
# 5 -0.006186 0.005360 -0.001302 0.000000 0.037101 0.000000
# 6 0.000000 0.000000 0.000000 -0.002229 0.000000 0.026072
#
#
# Mechanical properties :
#
#
# Convention : Reuss Voigt Hill
#
# Bulk Modulus (GPa) = 56.00238 74.99362 65.49800
# Shear Modulus (GPa) = 25.23918 32.10739 28.67329
#
# Velocity S-wave (km/s) = 3.55851 4.01359 3.79288
# Velocity P-wave (km/s) = 6.70682 7.68793 7.21408
#
# Compressibility (1/GPa) = 0.01785639
#
# Stress axis : x y z
#
# Youngs Moduli (GPa) = 31.39607 101.76242 51.97860
#
# Poissons Ratio (x) = 0.67305 0.56133
# Poissons Ratio (y) = 0.20765 0.21399
# Poissons Ratio (z) = 0.33906 0.41894
#
# Static dielectric constant tensor:
#      x y z
#    x 0.978400 0.000000 -0.291510 
#    y 0.000000 1.653160 0.000000 
#    z -0.291510 0.000000 1.636590 
# 
# From -- ./inp_files/19820.got.cif
#   From: 2010.05.17/outbox.ucp.g08.bks.cvg/sg13_10_cif.got.tgz:19820.got - 2010.06.11 12:23:55.
