data_PCOD9239318
_publ_section_title
;
Structure prediction by ZEFSAII (Michael W. Deem and Ramdas Pophale) SiO2 
 PCOD9239318
Probable space group: P 21/C
;
_chemical_formula_sum "Si O2"
_cell_formula_units_Z 28
_cell_length_a 7.596078
_cell_length_b 28.992862
_cell_length_c 5.681761
_cell_angle_alpha 90.000000
_cell_angle_beta 57.671477
_cell_angle_gamma 90.000000
_cell_volume 1057.348061
_symmetry_space_group_name_H-M "P 21/C"
_symmetry_group_IT_number 14
_symmetry_cell_setting 'monoclinic'
loop_
_space_group_symop_operation_xyz
x,y,z
-x,1/2+y,1/2-z
-x,-y,-z
x,1/2-y,1/2+z
loop_
_atom_site_type_symbol
_atom_site_label
_atom_site_fract_x
_atom_site_fract_y
_atom_site_fract_z
Si Si1 0.188073 0.591756 0.571616
Si Si2 0.845111 0.132071 0.359259
Si Si3 0.226367 0.454907 0.144943
Si Si4 0.395810 0.543837 0.803930
Si Si5 0.716596 0.265492 0.000700
Si Si6 0.197756 0.267860 0.101893
Si Si7 0.170980 0.132624 0.404696
O O1 0.197791 0.634678 0.396160
O O2 0.012532 0.554907 0.618186
O O3 0.371373 0.562810 0.558127
O O4 0.075089 0.616516 0.880857
O O5 0.709794 0.083838 0.466373
O O6 0.742077 0.179878 0.518733
O O7 0.109687 0.134288 0.174617
O O8 0.263792 0.498058 0.947695
O O9 0.373337 0.462187 0.263368
O O10 0.282069 0.408384 0.959524
O O11 0.624184 0.255446 0.807633
O O12 0.950558 0.244298 0.805852
O O13 0.267442 0.262841 0.324666
O O14 0.222018 0.319430 0.981754
#
# Coordination Sequence:
#
# PCOD9239318 Si02
#       7
#     4   4   4   4   4   4   4
#     4   9  20  35  58  85 115 152 198 249 297 367
#     4  11  20  33  61  89 118 156 209 254 306 373
#     4   9  21  41  59  80 128 159 199 255 317 372
#     4  10  21  41  57  87 121 162 199 257 313 375
#     4  10  19  31  56  92 124 161 206 256 314 380
#     4  10  17  28  52  85 116 152 201 248 301 370
#     4   9  19  33  54  83 114 153 195 244 299 363
#
# _framework density 26.481347
#
# number of rings (size 3 to 8) (size 9 to 14) (size 15 to 20)
#    0.857    1.429    2.857    2.143    2.000    0.571 
#    2.571    1.429    0.000    1.714    0.000    0.000 
#    0.000    0.000    0.000    0.000    0.000    0.000 
#
# Total GULP energy -156013.643273 kJ/mol
# GULP energy per Si atom -5571.915831 kJ/mol
# Density = 2.642107 g / cm^3
# Si number density = 26.481347 Si / 1000 Ang^3
#
#
#
# Elastic Constant Matrix: (Units=GPa)
#
#
# Indices 1 2 3 4 5 6 
#
# 1 81.2205 8.4729 35.0252 0.0000 36.1725 0.0000
# 2 8.4729 133.6326 9.0961 0.0000 10.8757 0.0000
# 3 35.0252 9.0961 92.9237 0.0000 5.8967 0.0000
# 4 0.0000 0.0000 0.0000 35.6393 0.0000 20.4307
# 5 36.1725 10.8757 5.8967 0.0000 44.9613 0.0000
# 6 0.0000 0.0000 0.0000 20.4307 0.0000 22.1135
#
#
#
# Elastic Compliance Matrix: (Units=1/GPa)
#
#
# Indices 1 2 3 4 5 6 
#
# 1 0.023748 0.000510 -0.007846 0.000000 -0.018200 0.000000
# 2 0.000510 0.007682 -0.000807 0.000000 -0.002162 0.000000
# 3 -0.007846 -0.000807 0.013497 0.000000 0.004737 0.000000
# 4 0.000000 0.000000 0.000000 0.059654 0.000000 -0.055114
# 5 -0.018200 -0.002162 0.004737 0.000000 0.036786 0.000000
# 6 0.000000 0.000000 0.000000 -0.055114 0.000000 0.096141
#
#
# Mechanical properties :
#
#
# Convention : Reuss Voigt Hill
#
# Bulk Modulus (GPa) = 34.91566 45.88501 40.40034
# Shear Modulus (GPa) = 18.98675 37.55500 28.27088
#
# Velocity S-wave (km/s) = 2.68056 3.76994 3.27092
# Velocity P-wave (km/s) = 4.77433 6.02618 5.43641
#
# Compressibility (1/GPa) = 0.02864044
#
# Stress axis : x y z
#
# Youngs Moduli (GPa) = 42.10827 130.17800 74.08896
#
# Poissons Ratio (x) = -0.06633 0.58132
# Poissons Ratio (y) = -0.02146 0.05978
# Poissons Ratio (z) = 0.33039 0.10503
#
# Static dielectric constant tensor:
#      x y z
#    x 2.214880 0.000000 -0.011910 
#    y 0.000000 1.930860 0.000000 
#    z -0.011910 0.000000 2.400990 
# 
# From -- ./inp_files/1881.got.cif
#   From: 2010.05.17/outbox.cif.g08.bks.cpg/sg14_1_cif.got.tgz:1881.got - 2010.06.03 17:49:19.
