data_PCOD9239950
_publ_section_title
;
Structure prediction by ZEFSAII (Michael W. Deem and Ramdas Pophale) SiO2 
 PCOD9239950
Probable space group: P 21/C
;
_chemical_formula_sum "Si O2"
_cell_formula_units_Z 24
_cell_length_a 11.824785
_cell_length_b 12.004507
_cell_length_c 24.424157
_cell_angle_alpha 90.000000
_cell_angle_beta 160.390427
_cell_angle_gamma 90.000000
_cell_volume 1163.565184
_symmetry_space_group_name_H-M "P 21/C"
_symmetry_group_IT_number 14
_symmetry_cell_setting 'monoclinic'
loop_
_space_group_symop_operation_xyz
x,y,z
-x,1/2+y,1/2-z
-x,-y,-z
x,1/2-y,1/2+z
loop_
_atom_site_type_symbol
_atom_site_label
_atom_site_fract_x
_atom_site_fract_y
_atom_site_fract_z
Si Si1 0.392099 0.465054 0.682235
Si Si2 0.474344 0.076341 0.435031
Si Si3 0.444618 0.667982 0.643653
Si Si4 0.548120 0.923800 0.361924
Si Si5 0.044948 0.789253 0.860994
Si Si6 0.808961 0.235067 0.359786
O O1 0.583829 0.555232 0.732671
O O2 0.532625 0.484837 0.806748
O O3 0.478775 0.343319 0.701797
O O4 0.000000 0.500000 0.500000
O O5 0.115977 0.138690 0.260949
O O6 0.744182 0.178755 0.559028
O O7 0.500000 0.000000 0.500000
O O8 0.523626 0.991920 0.406587
O O9 0.735100 0.748971 0.756946
O O10 0.228454 0.723473 0.594098
O O11 0.255668 0.640332 0.501066
O O12 0.244537 0.838801 0.205831
O O13 0.880433 0.846992 0.509523
#
# Coordination Sequence:
#
# PCOD9239950 Si02
#       6
#     4   4   4   4   4   4
#     4  11  19  31  53  86 124 164 199 241 301 374
#     4  11  25  45  65  87 116 158 213 262 302 346
#     4  10  18  33  56  85 119 159 195 231 298 379
#     4  11  23  37  57  88 125 165 206 253 304 364
#     4  10  21  40  63  85 115 156 198 245 300 369
#     4  11  21  34  56  91 131 162 197 250 308 368
#
# _framework density 20.626263000000002
#
# number of rings (size 3 to 8) (size 9 to 14) (size 15 to 20)
#    0.000    1.333    0.000    9.500    0.000    1.333 
#    0.000    3.333    0.000    0.000    0.000    0.000 
#    0.000    0.000    0.000    0.000    0.000    0.000 
#
# Total GULP energy -133934.850339 kJ/mol
# GULP energy per Si atom -5580.618764 kJ/mol
# Density = 2.057932 g / cm^3
# Si number density = 20.626263 Si / 1000 Ang^3
#
#
#
# Elastic Constant Matrix: (Units=GPa)
#
#
# Indices 1 2 3 4 5 6 
#
# 1 92.3409 54.8271 44.1526 0.0000 -39.8303 0.0000
# 2 54.8271 128.8593 34.8360 0.0000 -26.2474 0.0000
# 3 44.1526 34.8360 85.4546 0.0000 -19.0282 0.0000
# 4 0.0000 0.0000 0.0000 49.3880 0.0000 -7.2237
# 5 -39.8303 -26.2474 -19.0282 0.0000 31.3798 0.0000
# 6 0.0000 0.0000 0.0000 -7.2237 0.0000 38.5734
#
#
#
# Elastic Compliance Matrix: (Units=1/GPa)
#
#
# Indices 1 2 3 4 5 6 
#
# 1 0.029638 -0.004760 -0.006801 0.000000 0.029514 0.000000
# 2 -0.004760 0.010562 -0.001416 0.000000 0.001934 0.000000
# 3 -0.006801 -0.001416 0.015731 0.000000 -0.000277 0.000000
# 4 0.000000 0.000000 0.000000 0.020818 0.000000 0.003899
# 5 0.029514 0.001934 -0.000277 0.000000 0.070780 0.000000
# 6 0.000000 0.000000 0.000000 0.003899 0.000000 0.026655
#
#
# Mechanical properties :
#
#
# Convention : Reuss Voigt Hill
#
# Bulk Modulus (GPa) = 33.35716 63.80957 48.58336
# Shear Modulus (GPa) = 23.79459 35.39083 29.59271
#
# Velocity S-wave (km/s) = 3.40016 4.14673 3.79187
# Velocity P-wave (km/s) = 5.62335 7.34373 6.54036
#
# Compressibility (1/GPa) = 0.02997857
#
# Stress axis : x y z
#
# Youngs Moduli (GPa) = 33.73998 94.67467 63.56709
#
# Poissons Ratio (x) = 0.45067 0.43233
# Poissons Ratio (y) = 0.16061 0.08999
# Poissons Ratio (z) = 0.22947 0.13402
#
# Static dielectric constant tensor:
#      x y z
#    x 1.696390 0.000000 0.013450 
#    y 0.000000 1.805990 0.000000 
#    z 0.013450 0.000000 1.870700 
# 
# From -- ./inp_files/12375.got.cif
#   From: 2010.05.17/outbox.cif.g08.bks.cpg/sg14_7_cif.got.tgz:12375.got - 2010.06.03 17:49:19.
