data_PCOD9239593
_publ_section_title
;
Structure prediction by ZEFSAII (Michael W. Deem and Ramdas Pophale) SiO2 
 PCOD9239593
Probable space group: P 21/C
;
_chemical_formula_sum "Si O2"
_cell_formula_units_Z 24
_cell_length_a 14.581255
_cell_length_b 4.881790
_cell_length_c 31.405771
_cell_angle_alpha 90.000000
_cell_angle_beta 25.592429
_cell_angle_gamma 90.000000
_cell_volume 965.680816
_symmetry_space_group_name_H-M "P 21/C"
_symmetry_group_IT_number 14
_symmetry_cell_setting 'monoclinic'
loop_
_space_group_symop_operation_xyz
x,y,z
-x,1/2+y,1/2-z
-x,-y,-z
x,1/2-y,1/2+z
loop_
_atom_site_type_symbol
_atom_site_label
_atom_site_fract_x
_atom_site_fract_y
_atom_site_fract_z
Si Si1 0.164345 0.515779 0.287804
Si Si2 0.824665 0.718890 0.099372
Si Si3 0.739020 0.194258 0.557453
Si Si4 0.115086 0.010485 0.590123
Si Si5 0.427566 0.589560 0.729452
Si Si6 0.996754 0.799571 0.279793
O O1 0.081621 0.206301 0.322483
O O2 0.359332 0.636683 0.233074
O O3 0.966572 0.691037 0.389459
O O4 0.167477 0.645618 0.239001
O O5 0.771824 0.513085 0.160002
O O6 0.618197 0.907788 0.184218
O O7 0.043585 0.860075 0.021049
O O8 0.793910 0.552006 0.068068
O O9 0.534909 0.378403 0.651709
O O10 0.740390 0.099867 0.508085
O O11 0.172472 0.071685 0.615489
O O12 0.916650 0.554330 0.283447
#
# Coordination Sequence:
#
# PCOD9239593 Si02
#       6
#     4   4   4   4   4   4
#     4  10  23  38  64  97 131 164 220 270 327 388
#     4  11  24  41  60  93 127 181 237 267 326 383
#     4  11  25  41  61  92 132 178 227 276 328 380
#     4  10  22  39  64  95 131 164 219 267 325 394
#     4  12  24  38  64  90 135 180 224 281 319 383
#     4  10  17  37  67 101 125 166 211 264 333 408
#
# _framework density 24.852931999999999
#
# number of rings (size 3 to 8) (size 9 to 14) (size 15 to 20)
#    1.000    0.333    5.000    0.500    7.000    0.000 
#    0.000    0.000    0.000    2.000    0.000    0.000 
#    0.000    0.000    0.000    0.000    0.000    0.000 
#
# Total GULP energy -133703.702514 kJ/mol
# GULP energy per Si atom -5570.987605 kJ/mol
# Density = 2.479637 g / cm^3
# Si number density = 24.852932 Si / 1000 Ang^3
#
#
#
# Elastic Constant Matrix: (Units=GPa)
#
#
# Indices 1 2 3 4 5 6 
#
# 1 94.2741 27.7173 34.9089 0.0000 47.1229 0.0000
# 2 27.7173 105.9084 21.0659 0.0000 16.4299 0.0000
# 3 34.9089 21.0659 65.8143 0.0000 22.4395 0.0000
# 4 0.0000 0.0000 0.0000 22.9073 0.0000 18.0006
# 5 47.1229 16.4299 22.4395 0.0000 45.7938 0.0000
# 6 0.0000 0.0000 0.0000 18.0006 0.0000 47.9437
#
#
#
# Elastic Compliance Matrix: (Units=1/GPa)
#
#
# Indices 1 2 3 4 5 6 
#
# 1 0.023488 -0.001940 -0.004603 0.000000 -0.021218 0.000000
# 2 -0.001940 0.010478 -0.002069 0.000000 -0.000749 0.000000
# 3 -0.004603 -0.002069 0.019726 0.000000 -0.004187 0.000000
# 4 0.000000 0.000000 0.000000 0.061923 0.000000 -0.023249
# 5 -0.021218 -0.000749 -0.004187 0.000000 0.045991 0.000000
# 6 0.000000 0.000000 0.000000 -0.023249 0.000000 0.029587
#
#
# Mechanical properties :
#
#
# Convention : Reuss Voigt Hill
#
# Bulk Modulus (GPa) = 27.42233 48.15346 37.78789
# Shear Modulus (GPa) = 22.66819 35.48262 29.07540
#
# Velocity S-wave (km/s) = 3.02336 3.78260 3.42409
# Velocity P-wave (km/s) = 4.82135 6.20442 5.55609
#
# Compressibility (1/GPa) = 0.03646663
#
# Stress axis : x y z
#
# Youngs Moduli (GPa) = 42.57455 95.44164 50.69541
#
# Poissons Ratio (x) = 0.18514 0.23336
# Poissons Ratio (y) = 0.08259 0.10491
# Poissons Ratio (z) = 0.19598 0.19751
#
# Static dielectric constant tensor:
#      x y z
#    x 2.036130 0.000000 -0.035990 
#    y 0.000000 2.080690 0.000000 
#    z -0.035990 0.000000 2.169480 
# 
# From -- ./inp_files/80105.got.cif
#   From: 2010.05.17/outbox.cif.g08.bks.cpg/sg14_41_cif.got.tgz:80105.got - 2010.06.03 17:49:19.
