data_PCOD9239428
_publ_section_title
;
Structure prediction by ZEFSAII (Michael W. Deem and Ramdas Pophale) SiO2 
 PCOD9239428
Probable space group: P 21/C
;
_chemical_formula_sum "Si O2"
_cell_formula_units_Z 32
_cell_length_a 11.505028
_cell_length_b 21.607338
_cell_length_c 9.055626
_cell_angle_alpha 90.000000
_cell_angle_beta 48.727910
_cell_angle_gamma 90.000000
_cell_volume 1691.943445
_symmetry_space_group_name_H-M "P 21/C"
_symmetry_group_IT_number 14
_symmetry_cell_setting 'monoclinic'
loop_
_space_group_symop_operation_xyz
x,y,z
-x,1/2+y,1/2-z
-x,-y,-z
x,1/2-y,1/2+z
loop_
_atom_site_type_symbol
_atom_site_label
_atom_site_fract_x
_atom_site_fract_y
_atom_site_fract_z
Si Si1 0.283065 0.358363 0.931411
Si Si2 0.575202 0.877456 0.989555
Si Si3 0.643276 0.538736 0.692801
Si Si4 0.326826 0.704114 0.561748
Si Si5 0.367858 0.275683 0.306629
Si Si6 0.147013 0.132752 0.836319
Si Si7 0.815995 0.310064 0.636108
Si Si8 0.573561 0.090779 0.367789
O O1 0.302853 0.380901 0.747136
O O2 0.269893 0.284471 0.931356
O O3 0.445451 0.377147 0.872058
O O4 0.157554 0.382755 0.153164
O O5 0.589391 0.938191 0.077857
O O6 0.409830 0.856358 0.061304
O O7 0.611721 0.820468 0.070525
O O8 0.800232 0.573816 0.611108
O O9 0.648750 0.465908 0.715103
O O10 0.514649 0.564070 0.916171
O O11 0.471217 0.747754 0.388323
O O12 0.224650 0.743378 0.761858
O O13 0.227963 0.690099 0.499738
O O14 0.280017 0.316332 0.259098
O O15 0.987647 0.164602 0.012405
O O16 0.699557 0.359266 0.806723
#
# Coordination Sequence:
#
# PCOD9239428 Si02
#       8
#     4   4   4   4   4   4   4   4
#     4  10  18  33  54  81 106 147 185 232 278 324
#     4  10  17  32  59  81 107 137 191 236 271 317
#     4   9  21  38  60  86 105 149 200 234 270 338
#     4  11  21  36  55  84 111 151 180 233 283 332
#     4  10  18  35  56  77 111 148 188 225 279 341
#     4  10  23  35  53  82 116 151 183 225 285 345
#     4  12  23  37  55  86 119 148 180 233 291 343
#     4  10  19  38  62  82 109 148 196 236 278 326
#
# _framework density 18.913163000000001
#
# number of rings (size 3 to 8) (size 9 to 14) (size 15 to 20)
#    0.000    1.750    3.750    3.750    1.750    1.000 
#    0.000    0.000    0.000    0.750    0.000    0.000 
#    0.000    0.000    0.000    0.000    0.000    0.000 
#
# Total GULP energy -178469.256259 kJ/mol
# GULP energy per Si atom -5577.164258 kJ/mol
# Density = 1.887012 g / cm^3
# Si number density = 18.913163 Si / 1000 Ang^3
#
#
#
# Elastic Constant Matrix: (Units=GPa)
#
#
# Indices 1 2 3 4 5 6 
#
# 1 42.6630 -1.5236 14.9868 0.0000 6.3563 0.0000
# 2 -1.5236 38.4672 -12.1981 0.0000 0.6615 0.0000
# 3 14.9868 -12.1981 51.5360 0.0000 10.3741 0.0000
# 4 0.0000 0.0000 0.0000 16.6647 0.0000 -0.3364
# 5 6.3563 0.6615 10.3741 0.0000 29.0788 0.0000
# 6 0.0000 0.0000 0.0000 -0.3364 0.0000 11.7437
#
#
#
# Elastic Compliance Matrix: (Units=1/GPa)
#
#
# Indices 1 2 3 4 5 6 
#
# 1 0.026444 -0.001230 -0.007351 0.000000 -0.003130 0.000000
# 2 -0.001230 0.028450 0.007722 0.000000 -0.003133 0.000000
# 3 -0.007351 0.007722 0.024867 0.000000 -0.007440 0.000000
# 4 0.000000 0.000000 0.000000 0.060042 0.000000 0.001720
# 5 -0.003130 -0.003133 -0.007440 0.000000 0.037799 0.000000
# 6 0.000000 0.000000 0.000000 0.001720 0.000000 0.085202
#
#
# Mechanical properties :
#
#
# Convention : Reuss Voigt Hill
#
# Bulk Modulus (GPa) = 12.81326 15.02182 13.91754
# Shear Modulus (GPa) = 17.20956 20.25750 18.73353
#
# Velocity S-wave (km/s) = 3.01977 3.27629 3.15064
# Velocity P-wave (km/s) = 4.35295 4.71930 4.53982
#
# Compressibility (1/GPa) = 0.07804416
#
# Stress axis : x y z
#
# Youngs Moduli (GPa) = 37.81548 35.14925 40.21374
#
# Poissons Ratio (x) = 0.04323 0.29561
# Poissons Ratio (y) = 0.04651 -0.31054
# Poissons Ratio (z) = 0.27798 -0.27143
#
# Static dielectric constant tensor:
#      x y z
#    x 1.658560 0.000000 0.022210 
#    y 0.000000 1.668090 0.000000 
#    z 0.022210 0.000000 1.705130 
# 
# From -- ./inp_files/10673.got.cif
#   From: 2010.05.17/outbox.cif.g08.bks.cpg/sg14_6_cif.got.tgz:10673.got - 2010.06.03 17:49:19.
