data_PCOD9239300
_publ_section_title
;
Structure prediction by ZEFSAII (Michael W. Deem and Ramdas Pophale) SiO2 
 PCOD9239300
Probable space group: P 21/C
;
_chemical_formula_sum "Si O2"
_cell_formula_units_Z 28
_cell_length_a 8.620788
_cell_length_b 8.077568
_cell_length_c 22.662392
_cell_angle_alpha 90.000000
_cell_angle_beta 61.453157
_cell_angle_gamma 90.000000
_cell_volume 1386.241412
_symmetry_space_group_name_H-M "P 21/C"
_symmetry_group_IT_number 14
_symmetry_cell_setting 'monoclinic'
loop_
_space_group_symop_operation_xyz
x,y,z
-x,1/2+y,1/2-z
-x,-y,-z
x,1/2-y,1/2+z
loop_
_atom_site_type_symbol
_atom_site_label
_atom_site_fract_x
_atom_site_fract_y
_atom_site_fract_z
Si Si1 0.110569 0.111987 0.314922
Si Si2 0.050975 0.567255 0.718758
Si Si3 0.748044 0.930568 0.995520
Si Si4 0.751570 0.060400 0.198715
Si Si5 0.065045 0.320130 0.428168
Si Si6 0.458214 0.272574 0.208071
Si Si7 0.389396 0.407117 0.604651
O O1 0.067675 0.150754 0.390444
O O2 0.316493 0.149040 0.265323
O O3 0.016219 0.262665 0.296334
O O4 0.046376 0.954171 0.290035
O O5 0.247645 0.526011 0.662065
O O6 0.921086 0.435067 0.710036
O O7 0.853907 0.814229 0.021469
O O8 0.565987 0.992515 0.057215
O O9 0.699329 0.855011 0.940996
O O10 0.874795 0.090941 0.963775
O O11 0.652491 0.223290 0.194649
O O12 0.812939 0.950039 0.131359
O O13 0.610147 0.951051 0.260769
O O14 0.435743 0.235765 0.142848
#
# Coordination Sequence:
#
# PCOD9239300 Si02
#       7
#     4   4   4   4   4   4   4
#     4   9  18  33  48  73 103 128 163 208 244 301
#     4   9  18  32  49  73 105 126 162 203 251 293
#     4  10  17  27  51  70 106 126 161 210 246 281
#     4  10  18  34  47  76 101 134 160 209 247 295
#     4   9  17  31  45  72 104 126 160 207 250 284
#     4   9  19  31  49  70 108 123 169 203 245 297
#     4  10  17  28  46  77 100 128 161 204 251 289
#
# _framework density 20.198504
#
# number of rings (size 3 to 8) (size 9 to 14) (size 15 to 20)
#    0.000    2.857    4.286    0.000    0.000    2.286 
#    0.000    0.000    0.000    0.000    0.000   38.000 
#    0.000    0.000    0.000    0.000    0.000    0.000 
#
# Total GULP energy -155997.979288 kJ/mol
# GULP energy per Si atom -5571.356403 kJ/mol
# Density = 2.015253 g / cm^3
# Si number density = 20.198504 Si / 1000 Ang^3
#
#
#
# Elastic Constant Matrix: (Units=GPa)
#
#
# Indices 1 2 3 4 5 6 
#
# 1 92.5687 9.4347 56.4379 0.0000 17.0426 0.0000
# 2 9.4347 22.6579 24.6866 0.0000 8.5591 0.0000
# 3 56.4379 24.6866 35.5828 0.0000 -25.7513 0.0000
# 4 0.0000 0.0000 0.0000 14.3437 0.0000 -3.3845
# 5 17.0426 8.5591 -25.7513 0.0000 16.6049 0.0000
# 6 0.0000 0.0000 0.0000 -3.3845 0.0000 15.6475
#
#
#
# Elastic Compliance Matrix: (Units=1/GPa)
#
#
# Indices 1 2 3 4 5 6 
#
# 1 0.006460 -0.013378 0.006320 0.000000 0.010066 0.000000
# 2 -0.013378 0.030566 0.011880 0.000000 0.016399 0.000000
# 3 0.006320 0.011880 -0.005819 0.000000 -0.021634 0.000000
# 4 0.000000 0.000000 0.000000 0.073467 0.000000 0.015890
# 5 0.010066 0.016399 -0.021634 0.000000 0.007889 0.000000
# 6 0.000000 0.000000 0.000000 0.015890 0.000000 0.067345
#
#
# Mechanical properties :
#
#
# Convention : Reuss Voigt Hill
#
# Bulk Modulus (GPa) = 24.47861 36.88087 30.67974
# Shear Modulus (GPa) = 27.19145 13.33590 20.26368
#
# Velocity S-wave (km/s) = 3.67306 2.57231 3.17081
# Velocity P-wave (km/s) = 5.48942 5.20780 5.35047
#
# Compressibility (1/GPa) = 0.04085199
#
# Stress axis : x y z
#
# Youngs Moduli (GPa) = 154.79595 32.71578 -171.86218
#
# Poissons Ratio (x) = 0.43767 1.08609
# Poissons Ratio (y) = 2.07084 2.04179
# Poissons Ratio (z) = -0.97824 -0.38868
#
# Static dielectric constant tensor:
#      x y z
#    x 1.751440 0.000000 0.029460 
#    y 0.000000 1.741770 0.000000 
#    z 0.029460 0.000000 1.744210 
# 
# From -- ./inp_files/65204.got.cif
#   From: 2010.05.17/outbox.cif.g08.bks.cpg/sg14_33_cif.got.tgz:65204.got - 2010.06.03 17:49:19.
