data_PCOD9239443
_publ_section_title
;
Structure prediction by ZEFSAII (Michael W. Deem and Ramdas Pophale) SiO2 
 PCOD9239443
Probable space group: P 21/C
;
_chemical_formula_sum "Si O2"
_cell_formula_units_Z 32
_cell_length_a 19.823840
_cell_length_b 9.585110
_cell_length_c 13.315291
_cell_angle_alpha 90.000000
_cell_angle_beta 29.185689
_cell_angle_gamma 90.000000
_cell_volume 1233.775961
_symmetry_space_group_name_H-M "P 21/C"
_symmetry_group_IT_number 14
_symmetry_cell_setting 'monoclinic'
loop_
_space_group_symop_operation_xyz
x,y,z
-x,1/2+y,1/2-z
-x,-y,-z
x,1/2-y,1/2+z
loop_
_atom_site_type_symbol
_atom_site_label
_atom_site_fract_x
_atom_site_fract_y
_atom_site_fract_z
Si Si1 0.621558 0.740028 0.598697
Si Si2 0.876349 0.156186 0.254001
Si Si3 0.843580 0.702794 0.091806
Si Si4 0.789295 0.304823 0.572141
Si Si5 0.341082 0.964084 0.216136
Si Si6 0.608528 0.458038 0.126787
Si Si7 0.634612 0.584970 0.791063
Si Si8 0.915576 0.664111 0.761219
O O1 0.522140 0.632811 0.672870
O O2 0.560539 0.891738 0.652909
O O3 0.600987 0.681991 0.739062
O O4 0.787314 0.757311 0.373949
O O5 0.821215 0.247491 0.419545
O O6 0.723806 0.115220 0.406173
O O7 0.927165 0.999057 0.215062
O O8 0.015516 0.239156 0.041193
O O9 0.768729 0.553062 0.206149
O O10 0.717767 0.814095 0.258296
O O11 0.888607 0.690738 0.915209
O O12 0.743202 0.463151 0.623050
O O13 0.928685 0.283318 0.453688
O O14 0.679686 0.200706 0.764077
O O15 0.314803 0.997707 0.368473
O O16 0.500000 0.000000 0.000000
O O17 0.500000 0.500000 0.000000
#
# Coordination Sequence:
#
# PCOD9239443 Si02
#       8
#     4   4   4   4   4   4   4   4
#     4  10  22  37  57  80 118 147 186 232 281 336
#     4   9  17  31  54  78 110 135 184 238 274 318
#     4  10  17  33  52  79 109 141 177 240 283 311
#     4  10  19  29  55  83 104 140 186 227 285 322
#     4  11  21  36  55  82 117 147 182 233 280 331
#     4  10  21  39  54  84 112 151 185 230 284 335
#     4  11  21  34  55  83 110 144 186 229 278 336
#     4   9  16  33  52  79 110 137 181 237 277 315
#
# _framework density 25.936639
#
# number of rings (size 3 to 8) (size 9 to 14) (size 15 to 20)
#    0.000    2.000    6.250    0.750    3.500    0.000 
#    0.000    0.000    0.000    3.000    0.000    0.000 
#    0.000    0.000    0.000    0.000    0.000    0.000 
#
# Total GULP energy -178603.388385 kJ/mol
# GULP energy per Si atom -5581.355887 kJ/mol
# Density = 2.587761 g / cm^3
# Si number density = 25.936639 Si / 1000 Ang^3
#
#
#
# Elastic Constant Matrix: (Units=GPa)
#
#
# Indices 1 2 3 4 5 6 
#
# 1 72.8198 14.8105 9.0107 0.0000 -8.1289 0.0000
# 2 14.8105 116.8465 28.7968 0.0000 -9.2641 0.0000
# 3 9.0107 28.7968 142.9689 0.0000 -18.7571 0.0000
# 4 0.0000 0.0000 0.0000 54.4854 0.0000 -18.6289
# 5 -8.1289 -9.2641 -18.7571 0.0000 28.0014 0.0000
# 6 0.0000 0.0000 0.0000 -18.6289 0.0000 26.6813
#
#
#
# Elastic Compliance Matrix: (Units=1/GPa)
#
#
# Indices 1 2 3 4 5 6 
#
# 1 0.014460 -0.001514 -0.000133 0.000000 0.003608 0.000000
# 2 -0.001514 0.009260 -0.001563 0.000000 0.001577 0.000000
# 3 -0.000133 -0.001563 0.007943 0.000000 0.004765 0.000000
# 4 0.000000 0.000000 0.000000 0.024109 0.000000 0.016833
# 5 0.003608 0.001577 0.004765 0.000000 0.040473 0.000000
# 6 0.000000 0.000000 0.000000 0.016833 0.000000 0.049232
#
#
# Mechanical properties :
#
#
# Convention : Reuss Voigt Hill
#
# Bulk Modulus (GPa) = 39.61482 48.65235 44.13359
# Shear Modulus (GPa) = 31.18931 40.50143 35.84537
#
# Velocity S-wave (km/s) = 3.47150 3.95594 3.72161
# Velocity P-wave (km/s) = 5.60136 6.29800 5.95987
#
# Compressibility (1/GPa) = 0.02524308
#
# Stress axis : x y z
#
# Youngs Moduli (GPa) = 69.15800 107.98714 125.89940
#
# Poissons Ratio (x) = 0.16349 0.01675
# Poissons Ratio (y) = 0.10470 0.19676
# Poissons Ratio (z) = 0.00920 0.16877
#
# Static dielectric constant tensor:
#      x y z
#    x 2.144470 0.000000 0.073120 
#    y 0.000000 1.995110 0.000000 
#    z 0.073120 0.000000 2.153520 
# 
# From -- ./inp_files/70701.got.cif
#   From: 2010.05.17/outbox.cif.g08.bks.cpg/sg14_36_cif.got.tgz:70701.got - 2010.06.03 17:49:19.
