data_PCOD9239957
_publ_section_title
;
Structure prediction by ZEFSAII (Michael W. Deem and Ramdas Pophale) SiO2 
 PCOD9239957
Probable space group: P 21/C
;
_chemical_formula_sum "Si O2"
_cell_formula_units_Z 32
_cell_length_a 12.564565
_cell_length_b 7.030760
_cell_length_c 28.300721
_cell_angle_alpha 90.000000
_cell_angle_beta 30.103572
_cell_angle_gamma 90.000000
_cell_volume 1253.932533
_symmetry_space_group_name_H-M "P 21/C"
_symmetry_group_IT_number 14
_symmetry_cell_setting 'monoclinic'
loop_
_space_group_symop_operation_xyz
x,y,z
-x,1/2+y,1/2-z
-x,-y,-z
x,1/2-y,1/2+z
loop_
_atom_site_type_symbol
_atom_site_label
_atom_site_fract_x
_atom_site_fract_y
_atom_site_fract_z
Si Si1 0.680555 0.482049 0.503829
Si Si2 0.293203 0.218374 0.834058
Si Si3 0.069181 0.290639 0.833477
Si Si4 0.629705 0.017940 0.327840
Si Si5 0.731110 0.890645 0.886329
Si Si6 0.763675 0.294533 0.681642
Si Si7 0.857385 0.328410 0.825983
Si Si8 0.786094 0.798090 0.530023
O O1 0.473617 0.364368 0.567737
O O2 0.701816 0.637931 0.453164
O O3 0.671053 0.605556 0.554672
O O4 0.882968 0.345450 0.425131
O O5 0.209631 0.352351 0.823827
O O6 0.546654 0.215043 0.742801
O O7 0.192502 0.281166 0.922090
O O8 0.227253 0.006482 0.844621
O O9 0.947023 0.412870 0.840681
O O10 0.240430 0.166602 0.738049
O O11 0.721373 0.172631 0.254063
O O12 0.376866 0.030022 0.418009
O O13 0.688164 0.064033 0.359183
O O14 0.940977 0.802179 0.785319
O O15 0.772751 0.118592 0.868804
O O16 0.988022 0.202075 0.582412
#
# Coordination Sequence:
#
# PCOD9239957 Si02
#       8
#     4   4   4   4   4   4   4   4
#     4  10  18  33  57  84 109 150 193 234 268 345
#     4  10  22  38  59  86 113 154 191 235 293 331
#     4  10  21  38  55  80 127 143 185 245 285 326
#     4  10  19  35  58  87 109 153 190 227 291 334
#     4  10  21  32  57  87 113 147 193 232 289 338
#     4  10  21  39  59  86 115 146 193 246 271 345
#     4  11  18  35  56  83 114 151 184 231 288 339
#     4  11  19  34  66  83 110 152 203 224 281 353
#
# _framework density 25.519715000000001
#
# number of rings (size 3 to 8) (size 9 to 14) (size 15 to 20)
#    0.000    1.750    6.250    0.375    0.000    1.000 
#    0.000    5.625    0.000   14.250    0.000    0.000 
#    0.000    0.000    0.000    0.000    0.000    0.000 
#
# Total GULP energy -178964.627396 kJ/mol
# GULP energy per Si atom -5592.644606 kJ/mol
# Density = 2.546163 g / cm^3
# Si number density = 25.519715 Si / 1000 Ang^3
#
#
#
# Elastic Constant Matrix: (Units=GPa)
#
#
# Indices 1 2 3 4 5 6 
#
# 1 191.0365 21.5164 28.7464 0.0000 6.8234 0.0000
# 2 21.5164 48.4222 18.1983 0.0000 -5.2272 0.0000
# 3 28.7464 18.1983 115.1433 0.0000 -20.7733 0.0000
# 4 0.0000 0.0000 0.0000 21.4503 0.0000 2.3420
# 5 6.8234 -5.2272 -20.7733 0.0000 48.2641 0.0000
# 6 0.0000 0.0000 0.0000 2.3420 0.0000 11.9136
#
#
#
# Elastic Compliance Matrix: (Units=1/GPa)
#
#
# Indices 1 2 3 4 5 6 
#
# 1 0.005751 -0.002213 -0.001383 0.000000 -0.001648 0.000000
# 2 -0.002213 0.022849 -0.002771 0.000000 0.001595 0.000000
# 3 -0.001383 -0.002771 0.010245 0.000000 0.004305 0.000000
# 4 0.000000 0.000000 0.000000 0.047642 0.000000 -0.009366
# 5 -0.001648 0.001595 0.004305 0.000000 0.022978 0.000000
# 6 0.000000 0.000000 0.000000 -0.009366 0.000000 0.085779
#
#
# Mechanical properties :
#
#
# Convention : Reuss Voigt Hill
#
# Bulk Modulus (GPa) = 38.30062 54.61379 46.45720
# Shear Modulus (GPa) = 23.07533 35.40166 29.23849
#
# Velocity S-wave (km/s) = 3.01028 3.72859 3.38852
# Velocity P-wave (km/s) = 5.20799 6.32326 5.79253
#
# Compressibility (1/GPa) = 0.02610924
#
# Stress axis : x y z
#
# Youngs Moduli (GPa) = 173.88523 43.76606 97.61076
#
# Poissons Ratio (x) = 0.09687 0.13502
# Poissons Ratio (y) = 0.38489 0.27047
# Poissons Ratio (z) = 0.24053 0.12127
#
# Static dielectric constant tensor:
#      x y z
#    x 2.048680 0.000000 0.003510 
#    y 0.000000 2.060590 0.000000 
#    z 0.003510 0.000000 1.970180 
# 
# From -- ./inp_files/77211.got.cif
#   From: 2010.05.17/outbox.cif.g08.bks.cpg/sg14_39_cif.got.tgz:77211.got - 2010.06.03 17:49:19.
