data_PCOD9239152
_publ_section_title
;
Structure prediction by ZEFSAII (Michael W. Deem and Ramdas Pophale) SiO2 
 PCOD9239152
Probable space group: P 21/C
;
_chemical_formula_sum "Si O2"
_cell_formula_units_Z 24
_cell_length_a 11.268275
_cell_length_b 9.143844
_cell_length_c 11.217106
_cell_angle_alpha 90.000000
_cell_angle_beta 56.750464
_cell_angle_gamma 90.000000
_cell_volume 966.549905
_symmetry_space_group_name_H-M "P 21/C"
_symmetry_group_IT_number 14
_symmetry_cell_setting 'monoclinic'
loop_
_space_group_symop_operation_xyz
x,y,z
-x,1/2+y,1/2-z
-x,-y,-z
x,1/2-y,1/2+z
loop_
_atom_site_type_symbol
_atom_site_label
_atom_site_fract_x
_atom_site_fract_y
_atom_site_fract_z
Si Si1 0.857450 0.443429 0.512243
Si Si2 0.631429 0.296497 0.221923
Si Si3 0.344012 0.514045 0.032403
Si Si4 0.300325 0.244751 0.929446
Si Si5 0.079536 0.853874 0.620719
Si Si6 0.818151 0.517007 0.180737
O O1 0.731280 0.343820 0.644061
O O2 0.771648 0.588982 0.525209
O O3 0.918972 0.319181 0.389658
O O4 0.000000 0.500000 0.500000
O O5 0.470066 0.257387 0.332819
O O6 0.624214 0.398879 0.108020
O O7 0.693902 0.406678 0.287821
O O8 0.276605 0.353767 0.052625
O O9 0.500000 0.500000 0.000000
O O10 0.201386 0.601736 0.146635
O O11 0.240736 0.336707 0.849667
O O12 0.115050 0.918556 0.465997
O O13 0.929490 0.931415 0.717185
#
# Coordination Sequence:
#
# PCOD9239152 Si02
#       6
#     4   4   4   4   4   4
#     4  10  16  25  46  76  98 118 162 224 250 276
#     4   9  19  29  47  75 103 125 170 210 256 294
#     4   9  19  33  51  68  99 139 164 193 253 319
#     4  10  17  29  49  77  97 128 166 213 260 286
#     4   8  15  27  43  69  94 123 168 201 241 288
#     4   8  14  26  44  65  97 125 158 205 242 291
#
# _framework density 24.830584999999999
#
# number of rings (size 3 to 8) (size 9 to 14) (size 15 to 20)
#    0.000    3.667    1.667    2.000    2.333    0.000 
#    0.000    3.333    0.000    2.000    0.000    0.000 
#    0.000    0.000    0.000    0.000    0.000    0.000 
#
# Total GULP energy -133623.339615 kJ/mol
# GULP energy per Si atom -5567.639151 kJ/mol
# Density = 2.477407 g / cm^3
# Si number density = 24.830585 Si / 1000 Ang^3
#
#
#
# Elastic Constant Matrix: (Units=GPa)
#
#
# Indices 1 2 3 4 5 6 
#
# 1 169.9798 107.9563 35.1126 0.0000 -50.4248 0.0000
# 2 107.9563 246.6393 51.6569 0.0000 -29.5632 0.0000
# 3 35.1126 51.6569 59.8108 0.0000 -21.8654 0.0000
# 4 0.0000 0.0000 0.0000 25.0503 0.0000 -14.1159
# 5 -50.4248 -29.5632 -21.8654 0.0000 36.6176 0.0000
# 6 0.0000 0.0000 0.0000 -14.1159 0.0000 41.4210
#
#
#
# Elastic Compliance Matrix: (Units=1/GPa)
#
#
# Indices 1 2 3 4 5 6 
#
# 1 0.012566 -0.004036 0.001591 0.000000 0.014996 0.000000
# 2 -0.004036 0.006346 -0.004183 0.000000 -0.002933 0.000000
# 3 0.001591 -0.004183 0.024261 0.000000 0.013300 0.000000
# 4 0.000000 0.000000 0.000000 0.049408 0.000000 0.016838
# 5 0.014996 -0.002933 0.013300 0.000000 0.053534 0.000000
# 6 0.000000 0.000000 0.000000 0.016838 0.000000 0.029881
#
#
# Mechanical properties :
#
#
# Convention : Reuss Voigt Hill
#
# Bulk Modulus (GPa) = 33.42734 96.20903 64.81818
# Shear Modulus (GPa) = 25.09732 39.39805 32.24768
#
# Velocity S-wave (km/s) = 3.18267 3.98763 3.60767
# Velocity P-wave (km/s) = 5.19588 7.74802 6.59656
#
# Compressibility (1/GPa) = 0.02991563
#
# Stress axis : x y z
#
# Youngs Moduli (GPa) = 79.57667 157.58419 41.21902
#
# Poissons Ratio (x) = 0.63603 -0.06557
# Poissons Ratio (y) = 0.32118 0.17243
# Poissons Ratio (z) = -0.12660 0.65923
#
# Static dielectric constant tensor:
#      x y z
#    x 2.048250 0.000000 -0.022350 
#    y 0.000000 2.010900 0.000000 
#    z -0.022350 0.000000 2.208670 
# 
# From -- ./inp_files/66641.got.cif
#   From: 2010.05.17/outbox.cif.g08.bks.cpg/sg14_34_cif.got.tgz:66641.got - 2010.06.03 17:49:19.
