data_PCOD9239045
_publ_section_title
;
Structure prediction by ZEFSAII (Michael W. Deem and Ramdas Pophale) SiO2 
 PCOD9239045
Probable space group: P 2/C
;
_chemical_formula_sum "Si O2"
_cell_formula_units_Z 20
_cell_length_a 9.000000
_cell_length_b 12.000000
_cell_length_c 9.000000
_cell_angle_alpha 90.000000
_cell_angle_beta 90.000000
_cell_angle_gamma 90.000000
_cell_volume 972.000000
_symmetry_space_group_name_H-M "P 2/C"
_symmetry_group_IT_number 13
_symmetry_cell_setting 'monoclinic'
loop_
_space_group_symop_operation_xyz
x,y,z
-x,y,1/2-z
-x,-y,-z
x,-y,1/2+z
loop_
_atom_site_type_symbol
_atom_site_label
_atom_site_fract_x
_atom_site_fract_y
_atom_site_fract_z
Si Si1 0.811194 0.862398 0.541420
Si Si2 0.338243 0.627896 0.926295
Si Si3 0.105375 0.210090 0.896491
Si Si4 0.680983 0.970455 0.255534
Si Si5 0.690763 0.611450 0.928479
O O1 0.745644 0.738496 0.521813
O O2 0.732559 0.942378 0.421525
O O3 0.986484 0.851361 0.505644
O O4 0.755449 0.914947 0.696574
O O5 0.516022 0.643268 0.953540
O O6 0.299096 0.614552 0.751046
O O7 0.292907 0.515065 0.011715
O O8 0.234957 0.127029 0.838436
O O9 0.000000 0.239363 0.750000
O O10 0.191856 0.309344 0.984110
O O11 0.500000 0.972021 0.250000
#
# Coordination Sequence:
#
# PCOD9239045 Si02
#       5
#     4   4   4   4   4
#     4  11  25  43  65 103 137 179 226 279 343 404
#     4  10  24  43  72 101 131 178 234 277 340 398
#     4  10  24  44  67 101 141 182 221 279 347 407
#     4  11  24  42  70  94 136 182 234 278 328 401
#     4  10  23  45  70  99 138 175 227 287 333 405
#
# _framework density 20.576132000000001
#
# number of rings (size 3 to 8) (size 9 to 14) (size 15 to 20)
#    0.000    1.600    0.000    2.400   11.200    1.600 
#    0.000    0.000    0.000    0.000    0.000    0.000 
#    0.000    0.000    0.000    0.000    0.000    0.000 
#
# Total GULP energy -111790.268623 kJ/mol
# GULP energy per Si atom -5589.513431 kJ/mol
# Density = 2.052930 g / cm^3
# Si number density = 20.576132 Si / 1000 Ang^3
#
#
#
# Elastic Constant Matrix: (Units=GPa)
#
#
# Indices 1 2 3 4 5 6 
#
# 1 146.5002 54.9552 53.2461 0.0000 4.3973 0.0000
# 2 54.9552 98.8623 42.4493 0.0000 10.3236 0.0000
# 3 53.2461 42.4493 82.8614 0.0000 8.9685 0.0000
# 4 0.0000 0.0000 0.0000 42.7808 0.0000 -0.8241
# 5 4.3973 10.3236 8.9685 0.0000 37.6461 0.0000
# 6 0.0000 0.0000 0.0000 -0.8241 0.0000 39.4146
#
#
#
# Elastic Compliance Matrix: (Units=1/GPa)
#
#
# Indices 1 2 3 4 5 6 
#
# 1 0.009801 -0.003586 -0.004561 0.000000 0.000925 0.000000
# 2 -0.003586 0.014432 -0.004830 0.000000 -0.002388 0.000000
# 3 -0.004561 -0.004830 0.017730 0.000000 -0.002366 0.000000
# 4 0.000000 0.000000 0.000000 0.023384 0.000000 0.000489
# 5 0.000925 -0.002388 -0.002366 0.000000 0.027674 0.000000
# 6 0.000000 0.000000 0.000000 0.000489 0.000000 0.025382
#
#
# Mechanical properties :
#
#
# Convention : Reuss Voigt Hill
#
# Bulk Modulus (GPa) = 62.47047 69.94722 66.20884
# Shear Modulus (GPa) = 33.40135 35.80653 34.60394
#
# Velocity S-wave (km/s) = 4.03340 4.17609 4.10537
# Velocity P-wave (km/s) = 7.21925 7.57107 7.39726
#
# Compressibility (1/GPa) = 0.01600756
#
# Stress axis : x y z
#
# Youngs Moduli (GPa) = 102.02783 69.28975 56.40187
#
# Poissons Ratio (x) = 0.24851 0.25725
# Poissons Ratio (y) = 0.36592 0.27244
# Poissons Ratio (z) = 0.46535 0.33469
#
# Static dielectric constant tensor:
#      x y z
#    x 1.706810 0.000000 -0.022930 
#    y 0.000000 1.723390 0.000000 
#    z -0.022930 0.000000 1.777780 
# 
# From -- ./inp_files/11747.got.cif
#   From: 2010.05.17/outbox.ucp.g08.bks.cvg/sg13_6_cif.got.tgz:11747.got - 2010.06.11 12:23:55.
