data_PCOD9239382
_publ_section_title
;
Structure prediction by ZEFSAII (Michael W. Deem and Ramdas Pophale) SiO2 
 PCOD9239382
Probable space group: P 21/C
;
_chemical_formula_sum "Si O2"
_cell_formula_units_Z 32
_cell_length_a 17.702449
_cell_length_b 18.765646
_cell_length_c 9.204318
_cell_angle_alpha 90.000000
_cell_angle_beta 141.250251
_cell_angle_gamma 90.000000
_cell_volume 1913.847607
_symmetry_space_group_name_H-M "P 21/C"
_symmetry_group_IT_number 14
_symmetry_cell_setting 'monoclinic'
loop_
_space_group_symop_operation_xyz
x,y,z
-x,1/2+y,1/2-z
-x,-y,-z
x,1/2-y,1/2+z
loop_
_atom_site_type_symbol
_atom_site_label
_atom_site_fract_x
_atom_site_fract_y
_atom_site_fract_z
Si Si1 0.571387 0.249992 0.107144
Si Si2 0.872071 0.471977 0.064147
Si Si3 0.740324 0.262859 0.110534
Si Si4 0.532126 0.849088 0.298131
Si Si5 0.951994 0.138663 0.927988
Si Si6 0.127973 0.528008 0.448016
Si Si7 0.205396 0.416444 0.808109
Si Si8 0.283785 0.591277 0.425668
O O1 0.663627 0.288910 0.134760
O O2 0.663618 0.211072 0.356232
O O3 0.494302 0.300699 0.097779
O O4 0.494301 0.199290 0.885256
O O5 0.909799 0.407407 0.226449
O O6 0.816757 0.533050 0.085178
O O7 0.000026 0.499995 0.193090
O O8 0.778068 0.444981 0.805227
O O9 0.875753 0.289874 0.313665
O O10 0.739806 0.176849 0.109732
O O11 0.664823 0.880712 0.497180
O O12 0.429012 0.910085 0.143475
O O13 0.909770 0.092561 0.002848
O O14 0.096169 0.140642 0.144269
O O15 0.183290 0.466926 0.634963
O O16 0.221970 0.555026 0.471099
#
# Coordination Sequence:
#
# PCOD9239382 Si02
#       8
#     4   4   4   4   4   4   4   4
#     4   8  18  32  50  70  98 124 150 206 248 274
#     4   9  18  33  50  70  98 129 160 200 243 278
#     4  10  17  31  53  77  93 117 164 204 243 283
#     4  10  19  35  50  71  99 129 164 194 241 294
#     4   9  16  32  53  70  93 127 161 197 242 286
#     4   9  18  33  50  70  98 129 160 200 243 278
#     4   9  20  34  49  68 100 138 163 186 233 300
#     4  10  19  30  51  76  99 123 158 209 243 277
#
# _framework density 16.720244999999998
#
# number of rings (size 3 to 8) (size 9 to 14) (size 15 to 20)
#    0.000    3.000    0.000    4.875    0.000    1.000 
#    0.000    8.750    0.000    0.000    0.000    0.000 
#    0.000    0.000    0.000    0.000    0.000    0.000 
#
# Total GULP energy -178162.545480 kJ/mol
# GULP energy per Si atom -5567.579546 kJ/mol
# Density = 1.668219 g / cm^3
# Si number density = 16.720245 Si / 1000 Ang^3
#
#
#
# Elastic Constant Matrix: (Units=GPa)
#
#
# Indices 1 2 3 4 5 6 
#
# 1 99.8611 33.4604 94.1783 0.0000 6.5919 0.0000
# 2 33.4604 49.6406 46.7193 0.0000 17.0164 0.0000
# 3 94.1783 46.7193 129.4850 0.0000 31.2331 0.0000
# 4 0.0000 0.0000 0.0000 26.1285 0.0000 12.4315
# 5 6.5919 17.0164 31.2331 0.0000 37.1794 0.0000
# 6 0.0000 0.0000 0.0000 12.4315 0.0000 16.4803
#
#
#
# Elastic Compliance Matrix: (Units=1/GPa)
#
#
# Indices 1 2 3 4 5 6 
#
# 1 0.044688 -0.003677 -0.037211 0.000000 0.025020 0.000000
# 2 -0.003677 0.031879 -0.006854 0.000000 -0.008180 0.000000
# 3 -0.037211 -0.006854 0.043785 0.000000 -0.027047 0.000000
# 4 0.000000 0.000000 0.000000 0.059698 0.000000 -0.045031
# 5 0.025020 -0.008180 -0.027047 0.000000 0.048926 0.000000
# 6 0.000000 0.000000 0.000000 -0.045031 0.000000 0.094647
#
#
# Mechanical properties :
#
#
# Convention : Reuss Voigt Hill
#
# Bulk Modulus (GPa) = 40.21549 69.74474 54.98012
# Shear Modulus (GPa) = 11.69877 22.93290 17.31583
#
# Velocity S-wave (km/s) = 2.64801 3.70748 3.22160
# Velocity P-wave (km/s) = 5.78390 7.75439 6.84047
#
# Compressibility (1/GPa) = 0.02486604
#
# Stress axis : x y z
#
# Youngs Moduli (GPa) = 22.37745 31.36909 22.83905
#
# Poissons Ratio (x) = 0.11536 0.84986
# Poissons Ratio (y) = 0.08229 0.15654
# Poissons Ratio (z) = 0.83269 0.21501
#
# Static dielectric constant tensor:
#      x y z
#    x 1.580670 0.000000 -0.010650 
#    y 0.000000 1.561920 0.000000 
#    z -0.010650 0.000000 1.572420 
# 
# From -- ./inp_files/16850.got.cif
#   From: 2010.05.17/outbox.cif.g08.bks.cpg/sg14_9_cif.got.tgz:16850.got - 2010.06.03 17:49:19.
