data_PCOD9239783
_publ_section_title
;
Structure prediction by ZEFSAII (Michael W. Deem and Ramdas Pophale) SiO2 
 PCOD9239783
Probable space group: P 21/C
;
_chemical_formula_sum "Si O2"
_cell_formula_units_Z 32
_cell_length_a 11.516375
_cell_length_b 17.247304
_cell_length_c 16.958007
_cell_angle_alpha 90.000000
_cell_angle_beta 147.960296
_cell_angle_gamma 90.000000
_cell_volume 1786.910438
_symmetry_space_group_name_H-M "P 21/C"
_symmetry_group_IT_number 14
_symmetry_cell_setting 'monoclinic'
loop_
_space_group_symop_operation_xyz
x,y,z
-x,1/2+y,1/2-z
-x,-y,-z
x,1/2-y,1/2+z
loop_
_atom_site_type_symbol
_atom_site_label
_atom_site_fract_x
_atom_site_fract_y
_atom_site_fract_z
Si Si1 0.834808 0.146189 0.210401
Si Si2 0.400828 0.526795 0.527436
Si Si3 0.144373 0.995462 0.661525
Si Si4 0.741092 0.322299 0.163630
Si Si5 0.279964 0.107344 0.396351
Si Si6 0.062373 0.072641 0.935880
Si Si7 0.715348 0.562368 0.274943
Si Si8 0.234303 0.944225 0.451157
O O1 0.821435 0.090055 0.279598
O O2 0.734795 0.230368 0.163330
O O3 0.088341 0.149815 0.332298
O O4 0.722184 0.104094 0.070506
O O5 0.500000 0.500000 0.500000
O O6 0.614416 0.532218 0.705524
O O7 0.225855 0.470031 0.468278
O O8 0.000000 0.000000 0.500000
O O9 0.993011 0.040449 0.636997
O O10 0.770576 0.361834 0.094735
O O11 0.944227 0.354102 0.330195
O O12 0.511766 0.360051 0.057728
O O13 0.259193 0.113657 0.289753
O O14 0.261232 0.015421 0.404822
O O15 0.194165 0.093704 0.090697
O O16 0.865735 0.013230 0.845295
O O17 0.454171 0.548466 0.129747
#
# Coordination Sequence:
#
# PCOD9239783 Si02
#       8
#     4   4   4   4   4   4   4   4
#     4  10  22  36  54  83 109 147 188 233 278 332
#     4  10  20  37  57  79 112 150 194 222 264 345
#     4  10  21  38  60  79 110 153 194 224 271 347
#     4  11  20  34  56  81 112 143 183 239 285 320
#     4  10  18  37  55  79 109 146 187 226 277 349
#     4  11  19  32  56  87 107 141 184 233 280 326
#     4  10  18  31  59  83 107 132 188 233 273 323
#     4  10  18  36  57  80 105 149 191 224 274 342
#
# _framework density 17.908004999999999
#
# number of rings (size 3 to 8) (size 9 to 14) (size 15 to 20)
#    0.000    1.750    3.750    3.000    0.000    3.000 
#    0.000    3.750    0.000    0.000    0.000    0.000 
#    0.000    0.000    0.000    0.000    0.000    0.000 
#
# Total GULP energy -178282.416395 kJ/mol
# GULP energy per Si atom -5571.325512 kJ/mol
# Density = 1.786725 g / cm^3
# Si number density = 17.908005 Si / 1000 Ang^3
#
#
#
# Elastic Constant Matrix: (Units=GPa)
#
#
# Indices 1 2 3 4 5 6 
#
# 1 39.3389 21.6749 30.3792 0.0000 -0.0646 0.0000
# 2 21.6749 59.3001 31.4030 0.0000 -3.4180 0.0000
# 3 30.3792 31.4030 140.2598 0.0000 -10.1270 0.0000
# 4 0.0000 0.0000 0.0000 12.0807 0.0000 0.6979
# 5 -0.0646 -3.4180 -10.1270 0.0000 37.4585 0.0000
# 6 0.0000 0.0000 0.0000 0.6979 0.0000 6.7061
#
#
#
# Elastic Compliance Matrix: (Units=1/GPa)
#
#
# Indices 1 2 3 4 5 6 
#
# 1 0.035258 -0.010085 -0.005549 0.000000 -0.002360 0.000000
# 2 -0.010085 0.022029 -0.002656 0.000000 0.001275 0.000000
# 3 -0.005549 -0.002656 0.009085 0.000000 0.002204 0.000000
# 4 0.000000 0.000000 0.000000 0.083278 0.000000 -0.008667
# 5 -0.002360 0.001275 0.002204 0.000000 0.027404 0.000000
# 6 0.000000 0.000000 0.000000 -0.008667 0.000000 0.150021
#
#
# Mechanical properties :
#
#
# Convention : Reuss Voigt Hill
#
# Bulk Modulus (GPa) = 33.56453 45.09033 39.32743
# Shear Modulus (GPa) = 13.38381 21.61182 17.49781
#
# Velocity S-wave (km/s) = 2.73676 3.47771 3.12924
# Velocity P-wave (km/s) = 5.36376 6.43113 5.92154
#
# Compressibility (1/GPa) = 0.02979336
#
# Stress axis : x y z
#
# Youngs Moduli (GPa) = 28.36235 45.39390 110.06780
#
# Poissons Ratio (x) = 0.45778 0.61078
# Poissons Ratio (y) = 0.28603 0.29233
# Poissons Ratio (z) = 0.15739 0.12056
#
# Static dielectric constant tensor:
#      x y z
#    x 1.651380 0.000000 -0.005390 
#    y 0.000000 1.599370 0.000000 
#    z -0.005390 0.000000 1.658180 
# 
# From -- ./inp_files/58112.got.cif
#   From: 2010.05.17/outbox.cif.g08.bks.cpg/sg14_30_cif.got.tgz:58112.got - 2010.06.03 17:49:19.
