data_PCOD9239684
_publ_section_title
;
Structure prediction by ZEFSAII (Michael W. Deem and Ramdas Pophale) SiO2 
 PCOD9239684
Probable space group: P 21/C
;
_chemical_formula_sum "Si O2"
_cell_formula_units_Z 24
_cell_length_a 11.398060
_cell_length_b 8.829373
_cell_length_c 8.680598
_cell_angle_alpha 90.000000
_cell_angle_beta 76.396178
_cell_angle_gamma 90.000000
_cell_volume 849.087167
_symmetry_space_group_name_H-M "P 21/C"
_symmetry_group_IT_number 14
_symmetry_cell_setting 'monoclinic'
loop_
_space_group_symop_operation_xyz
x,y,z
-x,1/2+y,1/2-z
-x,-y,-z
x,1/2-y,1/2+z
loop_
_atom_site_type_symbol
_atom_site_label
_atom_site_fract_x
_atom_site_fract_y
_atom_site_fract_z
Si Si1 0.674956 0.121957 0.409418
Si Si2 0.523866 0.444224 0.229055
Si Si3 0.042067 0.185715 0.830425
Si Si4 0.187823 0.605768 0.418565
Si Si5 0.645134 0.611614 0.451456
Si Si6 0.166661 0.130762 0.508231
O O1 0.585121 0.016502 0.334999
O O2 0.776746 0.027533 0.469641
O O3 0.590843 0.160441 0.583064
O O4 0.751899 0.193059 0.244261
O O5 0.605422 0.573405 0.289049
O O6 0.467945 0.364462 0.397025
O O7 0.048548 0.165573 0.647499
O O8 0.119425 0.042771 0.870812
O O9 0.120269 0.332339 0.853609
O O10 0.912901 0.183779 0.947025
O O11 0.287773 0.537669 0.503298
O O12 0.733060 0.751158 0.458787
#
# Coordination Sequence:
#
# PCOD9239684 Si02
#       6
#     4   4   4   4   4   4
#     4   9  17  30  50  74  98 127 164 199 235 286
#     4   9  17  29  48  72  99 131 163 192 240 293
#     4   9  17  30  49  73  95 122 156 201 245 275
#     4   8  16  31  49  68  98 129 155 191 241 291
#     4   9  17  30  50  74  98 127 164 199 235 286
#     4  10  18  30  52  76  94 120 166 208 234 276
#
# _framework density 28.265649
#
# number of rings (size 3 to 8) (size 9 to 14) (size 15 to 20)
#    0.000    3.000    0.000    2.000    0.000    0.000 
#    0.000    1.667    0.000   38.000    0.000    0.000 
#    0.000    0.000    0.000    0.000    0.000    0.000 
#
# Total GULP energy -134235.464020 kJ/mol
# GULP energy per Si atom -5593.144334 kJ/mol
# Density = 2.820132 g / cm^3
# Si number density = 28.265649 Si / 1000 Ang^3
#
#
#
# Elastic Constant Matrix: (Units=GPa)
#
#
# Indices 1 2 3 4 5 6 
#
# 1 89.2351 39.5386 61.8194 0.0000 -11.7975 0.0000
# 2 39.5386 44.7176 11.8270 0.0000 11.3414 0.0000
# 3 61.8194 11.8270 163.0106 0.0000 -25.0323 0.0000
# 4 0.0000 0.0000 0.0000 31.5060 0.0000 13.3625
# 5 -11.7975 11.3414 -25.0323 0.0000 58.6624 0.0000
# 6 0.0000 0.0000 0.0000 13.3625 0.0000 45.0631
#
#
#
# Elastic Compliance Matrix: (Units=1/GPa)
#
#
# Indices 1 2 3 4 5 6 
#
# 1 0.028948 -0.025324 -0.008020 0.000000 0.007295 0.000000
# 2 -0.025324 0.046723 0.004328 0.000000 -0.012279 0.000000
# 3 -0.008020 0.004328 0.009081 0.000000 0.001425 0.000000
# 4 0.000000 0.000000 0.000000 0.036306 0.000000 -0.010766
# 5 0.007295 -0.012279 0.001425 0.000000 0.021496 0.000000
# 6 0.000000 0.000000 0.000000 -0.010766 0.000000 0.025383
#
#
# Mechanical properties :
#
#
# Convention : Reuss Voigt Hill
#
# Bulk Modulus (GPa) = 37.42578 58.14814 47.78696
# Shear Modulus (GPa) = 21.28771 39.29820 30.29295
#
# Velocity S-wave (km/s) = 2.74730 3.73274 3.27727
# Velocity P-wave (km/s) = 4.83043 6.26055 5.59140
#
# Compressibility (1/GPa) = 0.02671955
#
# Stress axis : x y z
#
# Youngs Moduli (GPa) = 34.54479 21.40252 110.11959
#
# Poissons Ratio (x) = 0.54200 0.88321
# Poissons Ratio (y) = 0.87482 -0.47663
# Poissons Ratio (z) = 0.27706 -0.09264
#
# Static dielectric constant tensor:
#      x y z
#    x 2.170770 0.000000 -0.070260 
#    y 0.000000 2.244690 0.000000 
#    z -0.070260 0.000000 2.149410 
# 
# From -- ./inp_files/12515.got.cif
#   From: 2010.05.17/outbox.cif.g08.bks.cpg/sg14_7_cif.got.tgz:12515.got - 2010.06.03 17:49:19.
