data_PCOD9239252
_publ_section_title
;
Structure prediction by ZEFSAII (Michael W. Deem and Ramdas Pophale) SiO2 
 PCOD9239252
Probable space group: P 21/C
;
_chemical_formula_sum "Si O2"
_cell_formula_units_Z 26
_cell_length_a 10.619647
_cell_length_b 12.495971
_cell_length_c 17.393696
_cell_angle_alpha 90.000000
_cell_angle_beta 154.329995
_cell_angle_gamma 90.000000
_cell_volume 999.879540
_symmetry_space_group_name_H-M "P 21/C"
_symmetry_group_IT_number 14
_symmetry_cell_setting 'monoclinic'
loop_
_space_group_symop_operation_xyz
x,y,z
-x,1/2+y,1/2-z
-x,-y,-z
x,1/2-y,1/2+z
loop_
_atom_site_type_symbol
_atom_site_label
_atom_site_fract_x
_atom_site_fract_y
_atom_site_fract_z
Si Si1 0.901042 0.934131 0.827999
Si Si2 0.292396 0.863107 0.355412
Si Si3 0.553910 0.942703 0.790199
Si Si4 0.336694 0.295487 0.517761
Si Si5 0.500000 0.500000 0.500000
Si Si6 0.729920 0.269326 0.989763
Si Si7 0.775132 0.604815 0.806722
O O1 0.784472 0.013273 0.698649
O O2 0.665297 0.923605 0.765583
O O3 0.033140 0.826428 0.866085
O O4 0.172489 0.995356 0.017240
O O5 0.553380 0.819827 0.447690
O O6 0.327204 0.828625 0.461886
O O7 0.010167 0.799585 0.168702
O O8 0.298777 0.027755 0.663165
O O9 0.531701 0.836785 0.829927
O O10 0.427412 0.384097 0.503554
O O11 0.676972 0.542146 0.675159
O O12 0.904669 0.347065 0.028612
O O13 0.447942 0.204088 0.809120
#
# Coordination Sequence:
#
# PCOD9239252 Si02
#       7
#     4   4   4   4   2   4   4
#     4   9  20  35  55  78 116 139 187 226 266 321
#     4  11  20  34  55  84 109 145 178 230 271 324
#     4   8  18  37  56  78 100 158 186 217 258 335
#     4  10  20  33  59  78 110 140 186 225 269 319
#     4  10  16  34  54  76 100 146 180 216 246 338
#     4  11  20  34  55  84 109 145 178 230 271 324
#     4  10  20  33  59  78 110 140 186 225 269 319
#
# _framework density 26.003133999999999
#
# number of rings (size 3 to 8) (size 9 to 14) (size 15 to 20)
#    0.000    2.154    3.077    0.923    0.000    1.231 
#    0.000    6.154    0.000    1.846    0.000    0.000 
#    0.000    0.000    0.000    0.000    0.000    0.000 
#
# Total GULP energy -145232.309790 kJ/mol
# GULP energy per Si atom -5585.858069 kJ/mol
# Density = 2.594395 g / cm^3
# Si number density = 26.003134 Si / 1000 Ang^3
#
#
#
# Elastic Constant Matrix: (Units=GPa)
#
#
# Indices 1 2 3 4 5 6 
#
# 1 119.6021 45.9535 21.6721 0.0000 -0.2809 0.0000
# 2 45.9535 109.4031 6.5874 0.0000 -11.8136 0.0000
# 3 21.6721 6.5874 72.5262 0.0000 13.9424 0.0000
# 4 0.0000 0.0000 0.0000 37.8376 0.0000 -0.7603
# 5 -0.2809 -11.8136 13.9424 0.0000 45.5838 0.0000
# 6 0.0000 0.0000 0.0000 -0.7603 0.0000 45.6456
#
#
#
# Elastic Compliance Matrix: (Units=1/GPa)
#
#
# Indices 1 2 3 4 5 6 
#
# 1 0.010490 -0.004266 -0.002706 0.000000 -0.000213 0.000000
# 2 -0.004266 0.011276 -0.000325 0.000000 0.002995 0.000000
# 3 -0.002706 -0.000325 0.015561 0.000000 -0.004860 0.000000
# 4 0.000000 0.000000 0.000000 0.026438 0.000000 0.000440
# 5 -0.000213 0.002995 -0.004860 0.000000 0.024199 0.000000
# 6 0.000000 0.000000 0.000000 0.000440 0.000000 0.021915
#
#
# Mechanical properties :
#
#
# Convention : Reuss Voigt Hill
#
# Bulk Modulus (GPa) = 43.99243 49.99526 46.99385
# Shear Modulus (GPa) = 37.86431 40.96797 39.41614
#
# Velocity S-wave (km/s) = 3.82009 3.97356 3.89758
# Velocity P-wave (km/s) = 6.03426 6.34985 6.19407
#
# Compressibility (1/GPa) = 0.02273118
#
# Stress axis : x y z
#
# Youngs Moduli (GPa) = 95.32779 88.68739 64.26477
#
# Poissons Ratio (x) = 0.37837 0.17391
# Poissons Ratio (y) = 0.40670 0.02089
# Poissons Ratio (z) = 0.25797 0.02883
#
# Static dielectric constant tensor:
#      x y z
#    x 1.977060 0.000000 0.037550 
#    y 0.000000 2.069560 0.000000 
#    z 0.037550 0.000000 2.132930 
# 
# From -- ./inp_files/67303.got.cif
#   From: 2010.05.17/outbox.cif.g08.bks.cpg/sg14_34_cif.got.tgz:67303.got - 2010.06.03 17:49:19.
