data_PCOD9239061
_publ_section_title
;
Structure prediction by ZEFSAII (Michael W. Deem and Ramdas Pophale) SiO2 
 PCOD9239061
Probable space group: P 2/C
;
_chemical_formula_sum "Si O2"
_cell_formula_units_Z 30
_cell_length_a 24.000000
_cell_length_b 6.000000
_cell_length_c 21.000000
_cell_angle_alpha 90.000000
_cell_angle_beta 150.000000
_cell_angle_gamma 90.000000
_cell_volume 1512.000000
_symmetry_space_group_name_H-M "P 2/C"
_symmetry_group_IT_number 13
_symmetry_cell_setting 'monoclinic'
loop_
_space_group_symop_operation_xyz
x,y,z
-x,y,1/2-z
-x,-y,-z
x,-y,1/2+z
loop_
_atom_site_type_symbol
_atom_site_label
_atom_site_fract_x
_atom_site_fract_y
_atom_site_fract_z
Si Si1 0.882503 0.116135 0.157298
Si Si2 0.202701 0.542250 0.625618
Si Si3 0.315465 0.779758 0.502389
Si Si4 0.231674 0.685306 0.287369
Si Si5 0.125304 0.909064 0.626975
Si Si6 0.300532 0.390649 0.593705
Si Si7 0.046106 0.415980 0.155203
Si Si8 0.500000 0.920703 0.250000
O O1 0.923823 0.307307 0.247691
O O2 0.000000 0.011839 0.250000
O O3 0.808080 0.240142 0.030334
O O4 0.794068 0.939668 0.098677
O O5 0.248953 0.459849 0.740008
O O6 0.165535 0.796198 0.601647
O O7 0.281871 0.498266 0.644472
O O8 0.083365 0.426037 0.491367
O O9 0.314757 0.682982 0.429615
O O10 0.307074 0.581127 0.545736
O O11 0.424155 0.925451 0.628589
O O12 0.110847 0.643194 0.202538
O O13 0.218442 0.924949 0.243091
O O14 0.109971 0.733597 0.667630
O O15 0.000000 0.000000 0.500000
O O16 0.410242 0.236959 0.696866
#
# Coordination Sequence:
#
# PCOD9239061 Si02
#       8
#     4   4   4   4   4   4   4   2
#     4  11  22  34  60  98 135 167 214 256 309 386
#     4  11  23  34  60  95 133 176 207 249 313 377
#     4  11  24  42  68  91 119 170 216 266 326 386
#     4  11  21  36  59  91 132 170 208 251 309 382
#     4  11  19  32  54  86 133 179 207 233 287 384
#     4  11  24  44  65  89 128 164 217 276 325 373
#     4  11  19  33  53  92 133 176 205 236 304 380
#     4  10  26  48  70  88 110 164 228 280 330 378
#
# _framework density 19.841270000000002
#
# number of rings (size 3 to 8) (size 9 to 14) (size 15 to 20)
#    0.000    1.067    6.667    1.200    0.000    4.800 
#    0.000    0.667    0.000    4.000    0.000    0.000 
#    0.000    0.000    0.000    0.000    0.000    0.000 
#
# Total GULP energy -167167.747157 kJ/mol
# GULP energy per Si atom -5572.258239 kJ/mol
# Density = 1.979611 g / cm^3
# Si number density = 19.841270 Si / 1000 Ang^3
#
#
#
# Elastic Constant Matrix: (Units=GPa)
#
#
# Indices 1 2 3 4 5 6 
#
# 1 89.4667 23.8047 57.6672 0.0000 -20.8607 0.0000
# 2 23.8047 53.4429 29.8082 0.0000 -6.9848 0.0000
# 3 57.6672 29.8082 109.8765 0.0000 -7.9625 0.0000
# 4 0.0000 0.0000 0.0000 33.8529 0.0000 -8.3612
# 5 -20.8607 -6.9848 -7.9625 0.0000 35.4681 0.0000
# 6 0.0000 0.0000 0.0000 -8.3612 0.0000 20.6603
#
#
#
# Elastic Compliance Matrix: (Units=1/GPa)
#
#
# Indices 1 2 3 4 5 6 
#
# 1 0.019818 -0.002596 -0.009036 0.000000 0.009116 0.000000
# 2 -0.002596 0.022717 -0.004663 0.000000 0.001900 0.000000
# 3 -0.009036 -0.004663 0.014899 0.000000 -0.002888 0.000000
# 4 0.000000 0.000000 0.000000 0.032820 0.000000 0.013282
# 5 0.009116 0.001900 -0.002888 0.000000 0.033282 0.000000
# 6 0.000000 0.000000 0.000000 0.013282 0.000000 0.053777
#
#
# Mechanical properties :
#
#
# Convention : Reuss Voigt Hill
#
# Bulk Modulus (GPa) = 40.25048 52.81624 46.53336
# Shear Modulus (GPa) = 22.91631 27.43002 25.17316
#
# Velocity S-wave (km/s) = 3.40219 3.72220 3.56578
# Velocity P-wave (km/s) = 5.98026 6.71939 6.36057
#
# Compressibility (1/GPa) = 0.02484442
#
# Stress axis : x y z
#
# Youngs Moduli (GPa) = 50.45858 44.02026 67.11673
#
# Poissons Ratio (x) = 0.11427 0.60650
# Poissons Ratio (y) = 0.13098 0.31294
# Poissons Ratio (z) = 0.45597 0.20525
#
# Static dielectric constant tensor:
#      x y z
#    x 1.710910 0.000000 -0.071690 
#    y 0.000000 2.029340 0.000000 
#    z -0.071690 0.000000 1.936160 
# 
# From -- ./inp_files/77526.got.cif
#   From: 2010.05.17/outbox.ucp.g08.bks.cvg/sg13_39_cif.got.tgz:77526.got - 2010.06.11 12:23:55.
