data_PCOD9239572
_publ_section_title
;
Structure prediction by ZEFSAII (Michael W. Deem and Ramdas Pophale) SiO2 
 PCOD9239572
Probable space group: P 21/C
;
_chemical_formula_sum "Si O2"
_cell_formula_units_Z 32
_cell_length_a 11.546151
_cell_length_b 14.440615
_cell_length_c 20.767394
_cell_angle_alpha 90.000000
_cell_angle_beta 155.297549
_cell_angle_gamma 90.000000
_cell_volume 1447.049763
_symmetry_space_group_name_H-M "P 21/C"
_symmetry_group_IT_number 14
_symmetry_cell_setting 'monoclinic'
loop_
_space_group_symop_operation_xyz
x,y,z
-x,1/2+y,1/2-z
-x,-y,-z
x,1/2-y,1/2+z
loop_
_atom_site_type_symbol
_atom_site_label
_atom_site_fract_x
_atom_site_fract_y
_atom_site_fract_z
Si Si1 0.193819 0.459680 0.655057
Si Si2 0.893749 0.771107 0.213071
Si Si3 0.894967 0.264357 0.538455
Si Si4 0.204561 0.587744 0.095849
Si Si5 0.967378 0.089326 0.808940
Si Si6 0.512570 0.376152 0.409899
Si Si7 0.004702 0.421100 0.752426
Si Si8 0.609652 0.423602 0.673717
O O1 0.510888 0.446336 0.794094
O O2 0.176941 0.535738 0.704562
O O3 0.000000 0.500000 0.500000
O O4 0.072786 0.356326 0.610286
O O5 0.646615 0.837936 0.108724
O O6 0.046209 0.768848 0.358913
O O7 0.795504 0.666542 0.149924
O O8 0.071601 0.809704 0.243244
O O9 0.913396 0.176489 0.501812
O O10 0.580465 0.302275 0.389206
O O11 0.293041 0.622008 0.211649
O O12 0.000000 0.500000 0.000000
O O13 0.895209 0.023792 0.710635
O O14 0.291899 0.097130 0.994667
O O15 0.797218 0.410232 0.586624
O O16 0.380282 0.465311 0.311527
O O17 0.821474 0.409855 0.722807
#
# Coordination Sequence:
#
# PCOD9239572 Si02
#       8
#     4   4   4   4   4   4   4   4
#     4  12  24  47  76 104 139 191 252 289 351 439
#     4  11  20  35  65  97 137 174 228 293 351 418
#     4  11  24  41  66 104 135 190 231 293 355 427
#     4  12  28  45  68 103 150 184 228 297 365 422
#     4  11  20  40  71 100 127 181 241 290 342 417
#     4  10  17  36  66  91 124 173 238 278 329 416
#     4  10  20  34  62 101 124 167 229 288 339 404
#     4  11  19  42  67  94 133 179 233 288 344 419
#
# _framework density 22.113959000000001
#
# number of rings (size 3 to 8) (size 9 to 14) (size 15 to 20)
#    0.000    1.000    7.500    2.250    0.000    2.000 
#    0.000    3.125    0.000    0.000    0.000    0.000 
#    0.000    0.000    0.000    0.000    0.000    0.000 
#
# Total GULP energy -178276.178043 kJ/mol
# GULP energy per Si atom -5571.130564 kJ/mol
# Density = 2.206363 g / cm^3
# Si number density = 22.113959 Si / 1000 Ang^3
#
#
#
# Elastic Constant Matrix: (Units=GPa)
#
#
# Indices 1 2 3 4 5 6 
#
# 1 118.8893 32.6293 38.0145 0.0000 -10.2067 0.0000
# 2 32.6293 109.6096 30.7976 0.0000 -10.5731 0.0000
# 3 38.0145 30.7976 49.9499 0.0000 -2.8743 0.0000
# 4 0.0000 0.0000 0.0000 17.8627 0.0000 -2.1430
# 5 -10.2067 -10.5731 -2.8743 0.0000 28.4703 0.0000
# 6 0.0000 0.0000 0.0000 -2.1430 0.0000 50.6103
#
#
#
# Elastic Compliance Matrix: (Units=1/GPa)
#
#
# Indices 1 2 3 4 5 6 
#
# 1 0.011471 -0.000874 -0.008020 0.000000 0.002978 0.000000
# 2 -0.000874 0.011445 -0.006201 0.000000 0.003311 0.000000
# 3 -0.008020 -0.006201 0.029822 0.000000 -0.002167 0.000000
# 4 0.000000 0.000000 0.000000 0.056268 0.000000 0.002383
# 5 0.002978 0.003311 -0.002167 0.000000 0.037203 0.000000
# 6 0.000000 0.000000 0.000000 0.002383 0.000000 0.019860
#
#
# Mechanical properties :
#
#
# Convention : Reuss Voigt Hill
#
# Bulk Modulus (GPa) = 44.34849 53.48130 48.91490
# Shear Modulus (GPa) = 24.53683 31.18916 27.86300
#
# Velocity S-wave (km/s) = 3.33462 3.75958 3.55346
# Velocity P-wave (km/s) = 5.90968 6.56375 6.24529
#
# Compressibility (1/GPa) = 0.02254868
#
# Stress axis : x y z
#
# Youngs Moduli (GPa) = 87.17589 87.37279 33.53219
#
# Poissons Ratio (x) = 0.07638 0.26892
# Poissons Ratio (y) = 0.07621 0.20793
# Poissons Ratio (z) = 0.69913 0.54179
#
# Static dielectric constant tensor:
#      x y z
#    x 1.841320 0.000000 0.034240 
#    y 0.000000 2.053750 0.000000 
#    z 0.034240 0.000000 1.929520 
# 
# From -- ./inp_files/67492.got.cif
#   From: 2010.05.17/outbox.cif.g08.bks.cpg/sg14_34_cif.got.tgz:67492.got - 2010.06.03 17:49:19.
