data_PCOD9239288
_publ_section_title
;
Structure prediction by ZEFSAII (Michael W. Deem and Ramdas Pophale) SiO2 
 PCOD9239288
Probable space group: P 21/C
;
_chemical_formula_sum "Si O2"
_cell_formula_units_Z 32
_cell_length_a 5.630376
_cell_length_b 7.119294
_cell_length_c 33.765866
_cell_angle_alpha 90.000000
_cell_angle_beta 109.700194
_cell_angle_gamma 90.000000
_cell_volume 1274.261112
_symmetry_space_group_name_H-M "P 21/C"
_symmetry_group_IT_number 14
_symmetry_cell_setting 'monoclinic'
loop_
_space_group_symop_operation_xyz
x,y,z
-x,1/2+y,1/2-z
-x,-y,-z
x,1/2-y,1/2+z
loop_
_atom_site_type_symbol
_atom_site_label
_atom_site_fract_x
_atom_site_fract_y
_atom_site_fract_z
Si Si1 0.279113 0.273720 0.538532
Si Si2 0.854482 0.496205 0.739230
Si Si3 0.828783 0.157189 0.063410
Si Si4 0.584544 0.773594 0.286548
Si Si5 0.300965 0.504351 0.824611
Si Si6 0.854216 0.610716 0.053046
Si Si7 0.056761 0.603433 0.341244
Si Si8 0.574781 0.109252 0.412393
O O1 0.533170 0.381532 0.540518
O O2 0.185552 0.158482 0.495142
O O3 0.050505 0.392507 0.544811
O O4 0.371975 0.113510 0.575207
O O5 0.686508 0.311153 0.735643
O O6 0.707372 0.659142 0.753410
O O7 0.872246 0.520581 0.693073
O O8 0.099128 0.459977 0.779582
O O9 0.848187 0.386659 0.061867
O O10 0.887625 0.072295 0.109936
O O11 0.554373 0.944189 0.315001
O O12 0.757997 0.624642 0.318273
O O13 0.184715 0.692776 0.838698
O O14 0.392725 0.370967 0.864441
O O15 0.603721 0.681487 0.062003
O O16 0.139415 0.680714 0.078554
#
# Coordination Sequence:
#
# PCOD9239288 Si02
#       8
#     4   4   4   4   4   4   4   4
#     4  10  17  26  40  65  96 135 170 210 267 331
#     4  10  22  34  54  76 104 140 190 242 276 338
#     4  10  17  26  42  63  92 133 172 213 254 332
#     4  10  20  36  54  74 103 142 181 238 286 326
#     4  10  19  32  48  71  97 135 189 219 278 327
#     4  10  17  26  40  65  96 135 170 210 267 331
#     4  10  19  32  48  71  97 135 189 219 278 327
#     4  10  17  26  42  63  92 133 172 213 254 332
#
# _framework density 25.112594000000001
#
# number of rings (size 3 to 8) (size 9 to 14) (size 15 to 20)
#    0.000    2.000    2.500    6.000    3.500    0.000 
#    0.000    0.000    0.000    0.000    0.000    0.000 
#    0.000    0.000    0.000   12.375    0.000    0.000 
#
# Total GULP energy -178650.956822 kJ/mol
# GULP energy per Si atom -5582.842401 kJ/mol
# Density = 2.505544 g / cm^3
# Si number density = 25.112594 Si / 1000 Ang^3
#
#
#
# Elastic Constant Matrix: (Units=GPa)
#
#
# Indices 1 2 3 4 5 6 
#
# 1 181.1787 1.0700 37.5174 0.0000 -8.2443 0.0000
# 2 1.0700 38.2739 20.9051 0.0000 2.4866 0.0000
# 3 37.5174 20.9051 117.8638 0.0000 -3.7439 0.0000
# 4 0.0000 0.0000 0.0000 16.8614 0.0000 1.1773
# 5 -8.2443 2.4866 -3.7439 0.0000 38.5376 0.0000
# 6 0.0000 0.0000 0.0000 1.1773 0.0000 3.2104
#
#
#
# Elastic Compliance Matrix: (Units=1/GPa)
#
#
# Indices 1 2 3 4 5 6 
#
# 1 0.005980 0.000873 -0.002026 0.000000 0.001026 0.000000
# 2 0.000873 0.029275 -0.005541 0.000000 -0.002241 0.000000
# 3 -0.002026 -0.005541 0.010141 0.000000 0.000909 0.000000
# 4 0.000000 0.000000 0.000000 0.060865 0.000000 -0.022320
# 5 0.001026 -0.002241 0.000909 0.000000 0.026401 0.000000
# 6 0.000000 0.000000 0.000000 -0.022320 0.000000 0.319671
#
#
# Mechanical properties :
#
#
# Convention : Reuss Voigt Hill
#
# Bulk Modulus (GPa) = 31.24262 50.70015 40.97138
# Shear Modulus (GPa) = 10.49555 30.24347 20.36951
#
# Velocity S-wave (km/s) = 2.04657 3.47409 2.85112
# Velocity P-wave (km/s) = 4.24884 6.02705 5.21431
#
# Compressibility (1/GPa) = 0.03200756
#
# Stress axis : x y z
#
# Youngs Moduli (GPa) = 167.21133 34.15842 98.60997
#
# Poissons Ratio (x) = -0.02981 0.19977
# Poissons Ratio (y) = -0.14591 0.54644
# Poissons Ratio (z) = 0.33874 0.18929
#
# Static dielectric constant tensor:
#      x y z
#    x 2.048390 0.000000 -0.005340 
#    y 0.000000 2.081970 0.000000 
#    z -0.005340 0.000000 1.985560 
# 
# From -- ./inp_files/75792.got.cif
#   From: 2010.05.17/outbox.cif.g08.bks.cpg/sg14_38_cif.got.tgz:75792.got - 2010.06.03 17:49:19.
