data_PCOD9239171
_publ_section_title
;
Structure prediction by ZEFSAII (Michael W. Deem and Ramdas Pophale) SiO2 
 PCOD9239171
Probable space group: P 21/C
;
_chemical_formula_sum "Si O2"
_cell_formula_units_Z 28
_cell_length_a 17.788597
_cell_length_b 9.574886
_cell_length_c 12.864586
_cell_angle_alpha 90.000000
_cell_angle_beta 149.318844
_cell_angle_gamma 90.000000
_cell_volume 1118.053865
_symmetry_space_group_name_H-M "P 21/C"
_symmetry_group_IT_number 14
_symmetry_cell_setting 'monoclinic'
loop_
_space_group_symop_operation_xyz
x,y,z
-x,1/2+y,1/2-z
-x,-y,-z
x,1/2-y,1/2+z
loop_
_atom_site_type_symbol
_atom_site_label
_atom_site_fract_x
_atom_site_fract_y
_atom_site_fract_z
Si Si1 0.628193 0.423234 0.266149
Si Si2 0.641009 0.964135 0.079348
Si Si3 0.670655 0.018164 0.398635
Si Si4 0.281469 0.719208 0.426350
Si Si5 0.888149 0.236084 0.591078
Si Si6 0.809641 0.735732 0.168439
Si Si7 0.331793 0.315605 0.802143
O O1 0.619202 0.368308 0.372802
O O2 0.771461 0.339068 0.397340
O O3 0.668711 0.584356 0.296728
O O4 0.481113 0.369732 0.036056
O O5 0.473761 0.952950 0.840700
O O6 0.696983 0.123511 0.148142
O O7 0.742811 0.885720 0.115924
O O8 0.656373 0.851999 0.191643
O O9 0.663244 0.122148 0.493116
O O10 0.813452 0.084105 0.510637
O O11 0.706372 0.864578 0.478450
O O12 0.123853 0.717625 0.299985
O O13 0.039210 0.247189 0.712050
O O14 0.802675 0.664679 0.275958
#
# Coordination Sequence:
#
# PCOD9239171 Si02
#       7
#     4   4   4   4   4   4   4
#     4   8  15  31  41  65  97 122 145 191 222 265
#     4  10  16  29  46  74  85 118 158 189 221 271
#     4   9  17  30  43  66  94 119 147 193 230 262
#     4   8  17  28  46  62  98 117 142 192 226 257
#     4   8  18  28  42  65  97 120 145 189 228 266
#     4  10  19  26  48  71  90 120 157 182 234 275
#     4   9  16  26  47  70  87 124 152 183 226 269
#
# _framework density 25.043514999999999
#
# number of rings (size 3 to 8) (size 9 to 14) (size 15 to 20)
#    2.571    0.286    2.857    1.714    2.000    0.571 
#    0.000    0.000    0.000    0.000    7.429    5.000 
#    0.000    0.000    0.000    0.000    0.000    0.000 
#
# Total GULP energy -155916.717201 kJ/mol
# GULP energy per Si atom -5568.454186 kJ/mol
# Density = 2.498651 g / cm^3
# Si number density = 25.043515 Si / 1000 Ang^3
#
#
#
# Elastic Constant Matrix: (Units=GPa)
#
#
# Indices 1 2 3 4 5 6 
#
# 1 89.0028 26.9091 42.8149 0.0000 33.9790 0.0000
# 2 26.9091 122.2594 19.4281 0.0000 5.6498 0.0000
# 3 42.8149 19.4281 45.2080 0.0000 32.6001 0.0000
# 4 0.0000 0.0000 0.0000 14.2188 0.0000 9.8716
# 5 33.9790 5.6498 32.6001 0.0000 51.9576 0.0000
# 6 0.0000 0.0000 0.0000 9.8716 0.0000 41.3677
#
#
#
# Elastic Compliance Matrix: (Units=1/GPa)
#
#
# Indices 1 2 3 4 5 6 
#
# 1 0.021133 -0.001786 -0.017205 0.000000 -0.002831 0.000000
# 2 -0.001786 0.009123 -0.004303 0.000000 0.002876 0.000000
# 3 -0.017205 -0.004303 0.058100 0.000000 -0.024734 0.000000
# 4 0.000000 0.000000 0.000000 0.084295 0.000000 -0.020116
# 5 -0.002831 0.002876 -0.024734 0.000000 0.036304 0.000000
# 6 0.000000 0.000000 0.000000 -0.020116 0.000000 0.028974
#
#
# Mechanical properties :
#
#
# Convention : Reuss Voigt Hill
#
# Bulk Modulus (GPa) = 23.94208 48.30827 36.12518
# Shear Modulus (GPa) = 16.75377 32.66334 24.70855
#
# Velocity S-wave (km/s) = 2.58928 3.61538 3.14447
# Velocity P-wave (km/s) = 4.30350 6.06296 5.25736
#
# Compressibility (1/GPa) = 0.04176747
#
# Stress axis : x y z
#
# Youngs Moduli (GPa) = 47.31908 109.60862 17.21184
#
# Poissons Ratio (x) = 0.19582 0.29613
# Poissons Ratio (y) = 0.08454 0.07406
# Poissons Ratio (z) = 0.81413 0.47161
#
# Static dielectric constant tensor:
#      x y z
#    x 2.206390 0.000000 -0.078250 
#    y 0.000000 1.994140 0.000000 
#    z -0.078250 0.000000 1.952680 
# 
# From -- ./inp_files/70551.got.cif
#   From: 2010.05.17/outbox.cif.g08.bks.cpg/sg14_36_cif.got.tgz:70551.got - 2010.06.03 17:49:19.
