data_PCOD9239005
_publ_section_title
;
Structure prediction by ZEFSAII (Michael W. Deem and Ramdas Pophale) SiO2 
 PCOD9239005
Probable space group: P 2/C
;
_chemical_formula_sum "Si O2"
_cell_formula_units_Z 26
_cell_length_a 9.000000
_cell_length_b 21.000000
_cell_length_c 9.000000
_cell_angle_alpha 90.000000
_cell_angle_beta 130.000000
_cell_angle_gamma 90.000000
_cell_volume 1303.041598
_symmetry_space_group_name_H-M "P 2/C"
_symmetry_group_IT_number 13
_symmetry_cell_setting 'monoclinic'
loop_
_space_group_symop_operation_xyz
x,y,z
-x,y,1/2-z
-x,-y,-z
x,-y,1/2+z
loop_
_atom_site_type_symbol
_atom_site_label
_atom_site_fract_x
_atom_site_fract_y
_atom_site_fract_z
Si Si1 0.930908 0.063994 0.365055
Si Si2 0.500000 0.653901 0.750000
Si Si3 0.244821 0.556963 0.776181
Si Si4 0.791068 0.575714 0.403585
Si Si5 0.522909 0.071031 0.951061
Si Si6 0.154916 0.158257 0.717261
Si Si7 0.788360 0.696173 0.188897
O O1 0.000000 0.043158 0.250000
O O2 0.050528 0.122662 0.512347
O O3 0.715044 0.088499 0.174548
O O4 0.000000 0.000000 0.500000
O O5 0.367951 0.606871 0.762189
O O6 0.367996 0.692349 0.546321
O O7 0.271445 0.483977 0.739628
O O8 0.021599 0.571222 0.586776
O O9 0.288428 0.567211 0.979349
O O10 0.751589 0.640931 0.288051
O O11 0.500000 0.068896 0.750000
O O12 0.347197 0.117990 0.878445
O O13 0.500000 0.000000 0.000000
O O14 0.205644 0.233122 0.734972
O O15 0.000000 0.153471 0.750000
O O16 0.000000 0.684333 0.250000
#
# Coordination Sequence:
#
# PCOD9239005 Si02
#       7
#     4   2   4   4   4   4   4
#     4  12  23  44  72 101 137 178 226 281 343 403
#     4  12  24  44  72 102 134 180 240 278 346 404
#     4  10  22  38  71 103 131 179 232 289 339 403
#     4  10  21  43  65  98 140 179 226 285 351 397
#     4  12  25  44  72 104 138 175 227 285 342 404
#     4  11  27  46  68 102 139 186 228 281 350 411
#     4  11  25  47  67  96 143 184 225 283 345 416
#
# _framework density 19.953315
#
# number of rings (size 3 to 8) (size 9 to 14) (size 15 to 20)
#    0.000    0.923    4.615    1.385    4.308    5.538 
#    5.538    0.000    0.000    0.000    0.000    0.000 
#    0.000    0.000    0.000    0.000    0.000    0.000 
#
# Total GULP energy -144930.138023 kJ/mol
# GULP energy per Si atom -5574.236078 kJ/mol
# Density = 1.990790 g / cm^3
# Si number density = 19.953315 Si / 1000 Ang^3
#
#
#
# Elastic Constant Matrix: (Units=GPa)
#
#
# Indices 1 2 3 4 5 6 
#
# 1 74.7573 42.6920 49.2508 0.0000 -5.3238 0.0000
# 2 42.6920 166.8544 90.0960 0.0000 -16.0804 0.0000
# 3 49.2508 90.0960 193.7415 0.0000 -2.0649 0.0000
# 4 0.0000 0.0000 0.0000 45.8304 0.0000 -4.5565
# 5 -5.3238 -16.0804 -2.0649 0.0000 51.8019 0.0000
# 6 0.0000 0.0000 0.0000 -4.5565 0.0000 25.5251
#
#
#
# Elastic Compliance Matrix: (Units=1/GPa)
#
#
# Indices 1 2 3 4 5 6 
#
# 1 0.016953 -0.002586 -0.003098 0.000000 0.000816 0.000000
# 2 -0.002586 0.008690 -0.003359 0.000000 0.002298 0.000000
# 3 -0.003098 -0.003359 0.007500 0.000000 -0.001062 0.000000
# 4 0.000000 0.000000 0.000000 0.022214 0.000000 0.003965
# 5 0.000816 0.002298 -0.001062 0.000000 0.020059 0.000000
# 6 0.000000 0.000000 0.000000 0.003965 0.000000 0.039885
#
#
# Mechanical properties :
#
#
# Convention : Reuss Voigt Hill
#
# Bulk Modulus (GPa) = 66.41978 88.82564 77.62271
# Shear Modulus (GPa) = 36.12534 41.51911 38.82223
#
# Velocity S-wave (km/s) = 4.25961 4.56654 4.41574
# Velocity P-wave (km/s) = 7.58631 8.50986 8.06133
#
# Compressibility (1/GPa) = 0.01505576
#
# Stress axis : x y z
#
# Youngs Moduli (GPa) = 58.98773 115.07014 133.33259
#
# Poissons Ratio (x) = 0.29757 0.41310
# Poissons Ratio (y) = 0.15254 0.44792
# Poissons Ratio (z) = 0.18276 0.38657
#
# Static dielectric constant tensor:
#      x y z
#    x 1.573970 0.000000 -0.374440 
#    y 0.000000 1.669010 0.000000 
#    z -0.374440 0.000000 0.954450 
# 
# From -- ./inp_files/13668.got.cif
#   From: 2010.05.17/outbox.ucp.g08.bks.cvg/sg13_7_cif.got.tgz:13668.got - 2010.06.11 12:23:55.
