data_PCOD9239865
_publ_section_title
;
Structure prediction by ZEFSAII (Michael W. Deem and Ramdas Pophale) SiO2 
 PCOD9239865
Probable space group: P 21/C
;
_chemical_formula_sum "Si O2"
_cell_formula_units_Z 32
_cell_length_a 12.139067
_cell_length_b 7.685683
_cell_length_c 18.832173
_cell_angle_alpha 90.000000
_cell_angle_beta 129.247341
_cell_angle_gamma 90.000000
_cell_volume 1360.648342
_symmetry_space_group_name_H-M "P 21/C"
_symmetry_group_IT_number 14
_symmetry_cell_setting 'monoclinic'
loop_
_space_group_symop_operation_xyz
x,y,z
-x,1/2+y,1/2-z
-x,-y,-z
x,1/2-y,1/2+z
loop_
_atom_site_type_symbol
_atom_site_label
_atom_site_fract_x
_atom_site_fract_y
_atom_site_fract_z
Si Si1 0.751806 0.845296 0.551833
Si Si2 0.347137 0.216164 0.830693
Si Si3 0.114781 0.093003 0.160238
Si Si4 0.938095 0.423388 0.216536
Si Si5 0.573052 0.025517 0.356971
Si Si6 0.323869 0.844653 0.170881
Si Si7 0.226705 0.578953 0.337114
Si Si8 0.194180 0.975993 0.981038
O O1 0.680388 0.791253 0.598952
O O2 0.828568 0.678122 0.548295
O O3 0.861350 0.997276 0.617296
O O4 0.647247 0.917111 0.449343
O O5 0.235322 0.261568 0.720330
O O6 0.481343 0.324112 0.858398
O O7 0.354288 0.007248 0.845668
O O8 0.073269 0.059678 0.224531
O O9 0.193243 0.922834 0.162618
O O10 0.958396 0.113125 0.062694
O O11 0.106598 0.428949 0.274756
O O12 0.853044 0.257607 0.210650
O O13 0.674541 0.140625 0.347353
O O14 0.467018 0.903395 0.269090
O O15 0.300658 0.949041 0.088160
O O16 0.257904 0.595343 0.433320
#
# Coordination Sequence:
#
# PCOD9239865 Si02
#       8
#     4   4   4   4   4   4   4   4
#     4  10  20  37  58  81 109 141 179 227 277 321
#     4   9  20  36  57  80 109 143 179 222 271 323
#     4   9  19  36  57  80 109 143 176 219 275 323
#     4  10  18  32  56  86 112 136 171 224 282 328
#     4  11  23  39  54  76 108 149 188 221 261 319
#     4  11  23  38  55  76 108 150 187 221 262 318
#     4  10  18  32  56  86 112 135 171 224 281 327
#     4  10  19  36  58  81 106 139 179 226 275 325
#
# _framework density 23.518198000000002
#
# number of rings (size 3 to 8) (size 9 to 14) (size 15 to 20)
#    0.000    2.000    0.000    6.000    0.000    1.000 
#    0.000    7.500    0.000    0.000    0.000    0.000 
#    0.000    0.000    0.000    0.000    0.000    0.000 
#
# Total GULP energy -178345.709454 kJ/mol
# GULP energy per Si atom -5573.303420 kJ/mol
# Density = 2.346467 g / cm^3
# Si number density = 23.518198 Si / 1000 Ang^3
#
#
#
# Elastic Constant Matrix: (Units=GPa)
#
#
# Indices 1 2 3 4 5 6 
#
# 1 29.6408 -8.1704 14.1932 0.0000 -7.5272 0.0000
# 2 -8.1704 63.8459 22.2320 0.0000 -7.0964 0.0000
# 3 14.1932 22.2320 164.1414 0.0000 -8.6200 0.0000
# 4 0.0000 0.0000 0.0000 20.8553 0.0000 -3.8346
# 5 -7.5272 -7.0964 -8.6200 0.0000 16.4399 0.0000
# 6 0.0000 0.0000 0.0000 -3.8346 0.0000 24.4218
#
#
#
# Elastic Compliance Matrix: (Units=1/GPa)
#
#
# Indices 1 2 3 4 5 6 
#
# 1 0.043810 0.009420 -0.003905 0.000000 0.022078 0.000000
# 2 0.009420 0.019080 -0.002817 0.000000 0.011072 0.000000
# 3 -0.003905 -0.002817 0.006842 0.000000 0.000584 0.000000
# 4 0.000000 0.000000 0.000000 0.049375 0.000000 0.007753
# 5 0.022078 0.011072 0.000584 0.000000 0.076021 0.000000
# 6 0.000000 0.000000 0.000000 0.007753 0.000000 0.042164
#
#
# Mechanical properties :
#
#
# Convention : Reuss Voigt Hill
#
# Bulk Modulus (GPa) = 13.31062 34.90419 24.10741
# Shear Modulus (GPa) = 19.45984 27.63497 23.54741
#
# Velocity S-wave (km/s) = 2.87964 3.43161 3.16767
# Velocity P-wave (km/s) = 4.09004 5.52945 4.86330
#
# Compressibility (1/GPa) = 0.07512796
#
# Stress axis : x y z
#
# Youngs Moduli (GPa) = 22.82579 52.41142 146.15212
#
# Poissons Ratio (x) = -0.49371 0.57067
# Poissons Ratio (y) = -0.21502 0.41176
# Poissons Ratio (z) = 0.08913 0.14766
#
# Static dielectric constant tensor:
#      x y z
#    x 2.015360 0.000000 0.073210 
#    y 0.000000 1.952040 0.000000 
#    z 0.073210 0.000000 1.912480 
# 
# From -- ./inp_files/68214.got.cif
#   From: 2010.05.17/outbox.cif.g08.bks.cpg/sg14_35_cif.got.tgz:68214.got - 2010.06.03 17:49:19.
