data_PCOD9239548
_publ_section_title
;
Structure prediction by ZEFSAII (Michael W. Deem and Ramdas Pophale) SiO2 
 PCOD9239548
Probable space group: P 21/C
;
_chemical_formula_sum "Si O2"
_cell_formula_units_Z 32
_cell_length_a 21.199597
_cell_length_b 5.482430
_cell_length_c 15.256960
_cell_angle_alpha 90.000000
_cell_angle_beta 44.737729
_cell_angle_gamma 90.000000
_cell_volume 1248.120748
_symmetry_space_group_name_H-M "P 21/C"
_symmetry_group_IT_number 14
_symmetry_cell_setting 'monoclinic'
loop_
_space_group_symop_operation_xyz
x,y,z
-x,1/2+y,1/2-z
-x,-y,-z
x,1/2-y,1/2+z
loop_
_atom_site_type_symbol
_atom_site_label
_atom_site_fract_x
_atom_site_fract_y
_atom_site_fract_z
Si Si1 0.520271 0.371922 0.284718
Si Si2 0.639337 0.756171 0.448174
Si Si3 0.294193 0.963335 0.446677
Si Si4 0.211567 0.845243 0.163595
Si Si5 0.905930 0.172990 0.957475
Si Si6 0.916188 0.713603 0.158058
Si Si7 0.116992 0.173781 0.611420
Si Si8 0.233660 0.036728 0.793532
O O1 0.489532 0.625553 0.266447
O O2 0.459579 0.338825 0.431413
O O3 0.626319 0.396952 0.196413
O O4 0.714662 0.552129 0.391336
O O5 0.655655 0.939927 0.514605
O O6 0.668117 0.849758 0.322396
O O7 0.232617 0.747276 0.545833
O O8 0.224020 0.164952 0.483613
O O9 0.228679 0.635070 0.214399
O O10 0.113225 0.944679 0.282117
O O11 0.919304 0.427013 0.894369
O O12 0.981681 0.214069 0.957643
O O13 0.921937 0.925359 0.887069
O O14 0.805800 0.136996 0.093327
O O15 0.891452 0.844549 0.275248
O O16 0.849033 0.775680 0.144564
#
# Coordination Sequence:
#
# PCOD9239548 Si02
#       8
#     4   4   4   4   4   4   4   4
#     4  10  19  30  57  97 127 148 201 267 310 363
#     4   9  18  34  60  89 123 157 203 258 309 362
#     4  10  19  35  59  92 125 163 200 254 321 372
#     4  10  17  35  65  86 120 157 203 252 319 355
#     4  12  29  41  60  93 124 165 213 255 312 376
#     4  11  23  41  65  87 119 163 215 263 308 365
#     4  12  25  42  62  88 128 165 202 261 314 372
#     4  10  23  40  64  87 124 166 206 261 310 372
#
# _framework density 25.638546000000002
#
# number of rings (size 3 to 8) (size 9 to 14) (size 15 to 20)
#    0.000    1.500    5.000    1.875    5.250    0.500 
#    0.000    0.000    0.000    1.500    0.000    0.000 
#    0.000    0.000    0.000    0.000    0.000    0.000 
#
# Total GULP energy -178494.768102 kJ/mol
# GULP energy per Si atom -5577.961503 kJ/mol
# Density = 2.558019 g / cm^3
# Si number density = 25.638546 Si / 1000 Ang^3
#
#
#
# Elastic Constant Matrix: (Units=GPa)
#
#
# Indices 1 2 3 4 5 6 
#
# 1 27.5886 5.0893 19.0351 0.0000 -7.3833 0.0000
# 2 5.0893 100.9451 12.9563 0.0000 -8.8564 0.0000
# 3 19.0351 12.9563 171.6787 0.0000 -29.7821 0.0000
# 4 0.0000 0.0000 0.0000 23.6336 0.0000 3.1051
# 5 -7.3833 -8.8564 -29.7821 0.0000 32.7050 0.0000
# 6 0.0000 0.0000 0.0000 3.1051 0.0000 17.9571
#
#
#
# Elastic Compliance Matrix: (Units=1/GPa)
#
#
# Indices 1 2 3 4 5 6 
#
# 1 0.040322 -0.001096 -0.003397 0.000000 0.005713 0.000000
# 2 -0.001096 0.010194 -0.000252 0.000000 0.002284 0.000000
# 3 -0.003397 -0.000252 0.007215 0.000000 0.005736 0.000000
# 4 0.000000 0.000000 0.000000 0.043296 0.000000 -0.007487
# 5 0.005713 0.002284 0.005736 0.000000 0.037707 0.000000
# 6 0.000000 0.000000 0.000000 -0.007487 0.000000 0.056983
#
#
# Mechanical properties :
#
#
# Convention : Reuss Voigt Hill
#
# Bulk Modulus (GPa) = 20.72850 41.59710 31.16280
# Shear Modulus (GPa) = 22.59502 32.40124 27.49813
#
# Velocity S-wave (km/s) = 2.97188 3.55881 3.27850
# Velocity P-wave (km/s) = 4.45853 5.75730 5.14903
#
# Compressibility (1/GPa) = 0.04824277
#
# Stress axis : x y z
#
# Youngs Moduli (GPa) = 24.80060 98.09395 138.59146
#
# Poissons Ratio (x) = 0.10748 0.47079
# Poissons Ratio (y) = 0.02717 0.03487
# Poissons Ratio (z) = 0.08425 0.02468
#
# Static dielectric constant tensor:
#      x y z
#    x 2.054060 0.000000 -0.033390 
#    y 0.000000 2.118230 0.000000 
#    z -0.033390 0.000000 2.123800 
# 
# From -- ./inp_files/61590.got.cif
#   From: 2010.05.17/outbox.cif.g08.bks.cpg/sg14_31_cif.got.tgz:61590.got - 2010.06.03 17:49:19.
