data_PCOD9239194
_publ_section_title
;
Structure prediction by ZEFSAII (Michael W. Deem and Ramdas Pophale) SiO2 
 PCOD9239194
Probable space group: P 21/C
;
_chemical_formula_sum "Si O2"
_cell_formula_units_Z 32
_cell_length_a 19.350426
_cell_length_b 13.758299
_cell_length_c 8.094210
_cell_angle_alpha 90.000000
_cell_angle_beta 138.151324
_cell_angle_gamma 90.000000
_cell_volume 1437.683726
_symmetry_space_group_name_H-M "P 21/C"
_symmetry_group_IT_number 14
_symmetry_cell_setting 'monoclinic'
loop_
_space_group_symop_operation_xyz
x,y,z
-x,1/2+y,1/2-z
-x,-y,-z
x,1/2-y,1/2+z
loop_
_atom_site_type_symbol
_atom_site_label
_atom_site_fract_x
_atom_site_fract_y
_atom_site_fract_z
Si Si1 0.931434 0.168262 0.459612
Si Si2 0.545762 0.376316 0.245185
Si Si3 0.230353 0.539957 0.453043
Si Si4 0.320117 0.131246 0.282015
Si Si5 0.762694 0.323934 0.230747
Si Si6 0.232770 0.314232 0.957429
Si Si7 0.077841 0.296001 0.940505
Si Si8 0.616965 0.313957 0.696006
O O1 0.854767 0.262349 0.311294
O O2 0.013074 0.206860 0.740492
O O3 0.997255 0.149273 0.412132
O O4 0.852644 0.077287 0.329131
O O5 0.653832 0.427013 0.391877
O O6 0.545995 0.373071 0.444669
O O7 0.555331 0.267032 0.188979
O O8 0.436642 0.409812 0.977852
O O9 0.241863 0.429572 0.528276
O O10 0.205200 0.597645 0.577829
O O11 0.291669 0.123369 0.425327
O O12 0.307889 0.241967 0.194219
O O13 0.695671 0.245660 0.216598
O O14 0.688413 0.366976 0.957292
O O15 0.146935 0.355270 0.932034
O O16 0.160194 0.250911 0.708846
#
# Coordination Sequence:
#
# PCOD9239194 Si02
#       8
#     4   4   4   4   4   4   4   4
#     4  11  16  32  60  87 116 145 168 227 317 345
#     4  10  19  33  55  86 119 156 192 232 282 334
#     4  11  22  33  56  96 123 141 190 242 286 351
#     4  11  22  41  61  77 113 163 200 242 277 327
#     4  10  16  30  52  84 123 148 170 223 294 356
#     4   9  21  42  59  74 107 154 208 234 273 337
#     4   9  19  34  63  84 103 151 189 233 283 360
#     4   9  16  29  51  81 113 157 192 219 266 354
#
# _framework density 22.258025
#
# number of rings (size 3 to 8) (size 9 to 14) (size 15 to 20)
#    0.000    2.000    5.000    1.125    0.000    0.000 
#    0.000    9.375    0.000    0.000    0.000    0.000 
#    0.000    0.000    0.000    0.000    0.000    0.000 
#
# Total GULP energy -178193.473899 kJ/mol
# GULP energy per Si atom -5568.546059 kJ/mol
# Density = 2.220736 g / cm^3
# Si number density = 22.258025 Si / 1000 Ang^3
#
#
#
# Elastic Constant Matrix: (Units=GPa)
#
#
# Indices 1 2 3 4 5 6 
#
# 1 60.6470 2.0074 30.8292 0.0000 17.1807 0.0000
# 2 2.0074 28.7919 0.0475 0.0000 5.2373 0.0000
# 3 30.8292 0.0475 98.0887 0.0000 4.2221 0.0000
# 4 0.0000 0.0000 0.0000 23.7992 0.0000 -1.7750
# 5 17.1807 5.2373 4.2221 0.0000 33.4790 0.0000
# 6 0.0000 0.0000 0.0000 -1.7750 0.0000 4.1248
#
#
#
# Elastic Compliance Matrix: (Units=1/GPa)
#
#
# Indices 1 2 3 4 5 6 
#
# 1 0.023041 0.000412 -0.006767 0.000000 -0.011035 0.000000
# 2 0.000412 0.035762 0.000104 0.000000 -0.005819 0.000000
# 3 -0.006767 0.000104 0.012239 0.000000 0.001913 0.000000
# 4 0.000000 0.000000 0.000000 0.043411 0.000000 0.018681
# 5 -0.011035 -0.005819 0.001913 0.000000 0.036202 0.000000
# 6 0.000000 0.000000 0.000000 0.018681 0.000000 0.250474
#
#
# Mechanical properties :
#
#
# Convention : Reuss Voigt Hill
#
# Bulk Modulus (GPa) = 17.08250 28.14400 22.61325
# Shear Modulus (GPa) = 11.54347 22.59017 17.06682
#
# Velocity S-wave (km/s) = 2.27979 3.18924 2.77207
# Velocity P-wave (km/s) = 3.82379 5.12187 4.51968
#
# Compressibility (1/GPa) = 0.05853943
#
# Stress axis : x y z
#
# Youngs Moduli (GPa) = 43.40006 27.96302 81.70359
#
# Poissons Ratio (x) = -0.01152 0.55290
# Poissons Ratio (y) = -0.01788 -0.00847
# Poissons Ratio (z) = 0.29369 -0.00290
#
# Static dielectric constant tensor:
#      x y z
#    x 1.891930 0.000000 0.014140 
#    y 0.000000 1.844760 0.000000 
#    z 0.014140 0.000000 1.854830 
# 
# From -- ./inp_files/16071.got.cif
#   From: 2010.05.17/outbox.cif.g08.bks.cpg/sg14_9_cif.got.tgz:16071.got - 2010.06.03 17:49:19.
