data_PCOD9239598
_publ_section_title
;
Structure prediction by ZEFSAII (Michael W. Deem and Ramdas Pophale) SiO2 
 PCOD9239598
Probable space group: P 21/C
;
_chemical_formula_sum "Si O2"
_cell_formula_units_Z 20
_cell_length_a 9.301035
_cell_length_b 12.739470
_cell_length_c 9.566139
_cell_angle_alpha 90.000000
_cell_angle_beta 131.286655
_cell_angle_gamma 90.000000
_cell_volume 851.727807
_symmetry_space_group_name_H-M "P 21/C"
_symmetry_group_IT_number 14
_symmetry_cell_setting 'monoclinic'
loop_
_space_group_symop_operation_xyz
x,y,z
-x,1/2+y,1/2-z
-x,-y,-z
x,1/2-y,1/2+z
loop_
_atom_site_type_symbol
_atom_site_label
_atom_site_fract_x
_atom_site_fract_y
_atom_site_fract_z
Si Si1 0.690132 0.873285 0.171070
Si Si2 0.026943 0.278115 0.752725
Si Si3 0.548514 0.062749 0.248044
Si Si4 0.567691 0.649752 0.047590
Si Si5 0.225247 0.723883 0.648446
O O1 0.900036 0.827799 0.278794
O O2 0.570999 0.766410 0.124057
O O3 0.657499 0.959739 0.266163
O O4 0.613278 0.916683 0.973321
O O5 0.938883 0.243462 0.841612
O O6 0.866852 0.326218 0.548879
O O7 0.219137 0.348351 0.881489
O O8 0.465884 0.067397 0.350970
O O9 0.688482 0.162245 0.329625
O O10 0.395385 0.658429 0.828455
#
# Coordination Sequence:
#
# PCOD9239598 Si02
#       5
#     4   4   4   4   4
#     4   8  20  33  61  85 114 154 196 233 291 347
#     4  10  21  35  58  85 113 150 195 233 290 341
#     4  10  17  38  61  84 114 156 195 236 290 345
#     4   9  20  36  58  83 118 148 192 242 282 339
#     4  11  20  34  59  85 111 155 194 233 291 339
#
# _framework density 23.481680999999998
#
# number of rings (size 3 to 8) (size 9 to 14) (size 15 to 20)
#    1.200    1.200    2.000    1.200    0.000    0.800 
#    0.000    0.000    4.400   10.800    0.000    0.000 
#    0.000    0.000    0.000    0.000    0.000    0.000 
#
# Total GULP energy -111740.549441 kJ/mol
# GULP energy per Si atom -5587.027472 kJ/mol
# Density = 2.342824 g / cm^3
# Si number density = 23.481681 Si / 1000 Ang^3
#
#
#
# Elastic Constant Matrix: (Units=GPa)
#
#
# Indices 1 2 3 4 5 6 
#
# 1 79.1201 29.8967 27.2917 0.0000 4.5057 0.0000
# 2 29.8967 72.2003 10.6259 0.0000 -8.1199 0.0000
# 3 27.2917 10.6259 112.1208 0.0000 -0.8267 0.0000
# 4 0.0000 0.0000 0.0000 1.4523 0.0000 -7.4101
# 5 4.5057 -8.1199 -0.8267 0.0000 33.8233 0.0000
# 6 0.0000 0.0000 0.0000 -7.4101 0.0000 20.3762
#
#
#
# Elastic Compliance Matrix: (Units=1/GPa)
#
#
# Indices 1 2 3 4 5 6 
#
# 1 0.016624 -0.006821 -0.003429 0.000000 -0.003936 0.000000
# 2 -0.006821 0.017233 0.000064 0.000000 0.005047 0.000000
# 3 -0.003429 0.000064 0.009753 0.000000 0.000711 0.000000
# 4 0.000000 0.000000 0.000000 -0.804851 0.000000 -0.292695
# 5 -0.003936 0.005047 0.000711 0.000000 0.031319 0.000000
# 6 0.000000 0.000000 0.000000 -0.292695 0.000000 -0.057366
#
#
# Mechanical properties :
#
#
# Convention : Reuss Voigt Hill
#
# Bulk Modulus (GPa) = 43.03390 44.34108 43.68749
# Shear Modulus (GPa) = -6.58614 24.17215 8.79301
#
# Velocity S-wave (km/s) = -1.67657 3.21191 1.93720
# Velocity P-wave (km/s) = 3.82342 5.71659 4.86302
#
# Compressibility (1/GPa) = 0.02323750
#
# Stress axis : x y z
#
# Youngs Moduli (GPa) = 60.15572 58.02766 102.53543
#
# Poissons Ratio (x) = 0.39583 0.35159
# Poissons Ratio (y) = 0.41035 -0.00661
# Poissons Ratio (z) = 0.20627 -0.00374
#
# Static dielectric constant tensor:
#      x y z
#    x 1.886840 0.000000 -0.001750 
#    y 0.000000 1.921430 0.000000 
#    z -0.001750 0.000000 1.890170 
# 
# From -- ./inp_files/32267.got.cif
#   From: 2010.05.17/outbox.cif.g08.bks.cpg/sg14_17_cif.got.tgz:32267.got - 2010.06.03 17:49:19.
