data_PCOD9239032
_publ_section_title
;
Structure prediction by ZEFSAII (Michael W. Deem and Ramdas Pophale) SiO2 
 PCOD9239032
Probable space group: P 2/C
;
_chemical_formula_sum "Si O2"
_cell_formula_units_Z 20
_cell_length_a 18.000000
_cell_length_b 9.000000
_cell_length_c 12.000000
_cell_angle_alpha 90.000000
_cell_angle_beta 150.000000
_cell_angle_gamma 90.000000
_cell_volume 972.000000
_symmetry_space_group_name_H-M "P 2/C"
_symmetry_group_IT_number 13
_symmetry_cell_setting 'monoclinic'
loop_
_space_group_symop_operation_xyz
x,y,z
-x,y,1/2-z
-x,-y,-z
x,-y,1/2+z
loop_
_atom_site_type_symbol
_atom_site_label
_atom_site_fract_x
_atom_site_fract_y
_atom_site_fract_z
Si Si1 0.437947 0.172586 0.437445
Si Si2 0.150837 0.304113 0.671214
Si Si3 0.809733 0.348688 0.247799
Si Si4 0.248496 0.782895 0.061749
Si Si5 0.337318 0.902976 0.580457
O O1 0.303342 0.230160 0.341206
O O2 0.584993 0.248642 0.676181
O O3 0.377902 0.205158 0.235923
O O4 0.500000 0.000000 0.500000
O O5 0.210801 0.475596 0.750038
O O6 0.149629 0.241968 0.543015
O O7 0.982067 0.310610 0.497740
O O8 0.250078 0.190067 0.873521
O O9 0.789297 0.324535 0.089040
O O10 0.250477 0.952319 0.015201
O O11 0.500000 0.957942 0.750000
#
# Coordination Sequence:
#
# PCOD9239032 Si02
#       5
#     4   4   4   4   4
#     4  10  22  44  71  99 134 183 229 293 349 410
#     4  11  27  46  67 105 142 187 235 285 361 419
#     4  11  26  46  69  99 148 182 232 297 351 421
#     4  11  23  45  72  97 138 184 233 290 347 421
#     4  11  23  44  72 102 140 177 234 290 346 418
#
# _framework density 20.576132000000001
#
# number of rings (size 3 to 8) (size 9 to 14) (size 15 to 20)
#    0.000    1.200    2.000    3.600    5.600    4.000 
#    7.200    0.000    0.000    0.000    0.000    0.000 
#    0.000    0.000    0.000    0.000    0.000    0.000 
#
# Total GULP energy -111619.947444 kJ/mol
# GULP energy per Si atom -5580.997372 kJ/mol
# Density = 2.052930 g / cm^3
# Si number density = 20.576132 Si / 1000 Ang^3
#
#
#
# Elastic Constant Matrix: (Units=GPa)
#
#
# Indices 1 2 3 4 5 6 
#
# 1 110.2835 44.4208 21.8078 0.0000 -6.0340 0.0000
# 2 44.4208 116.7225 32.2574 0.0000 2.9546 0.0000
# 3 21.8078 32.2574 58.9211 0.0000 -5.4436 0.0000
# 4 0.0000 0.0000 0.0000 34.2569 0.0000 -1.0905
# 5 -6.0340 2.9546 -5.4436 0.0000 53.6722 0.0000
# 6 0.0000 0.0000 0.0000 -1.0905 0.0000 36.2117
#
#
#
# Elastic Compliance Matrix: (Units=1/GPa)
#
#
# Indices 1 2 3 4 5 6 
#
# 1 0.011003 -0.003682 -0.001942 0.000000 0.001243 0.000000
# 2 -0.003682 0.011395 -0.005019 0.000000 -0.001550 0.000000
# 3 -0.001942 -0.005019 0.020637 0.000000 0.002151 0.000000
# 4 0.000000 0.000000 0.000000 0.029219 0.000000 0.000880
# 5 0.001243 -0.001550 0.002151 0.000000 0.019075 0.000000
# 6 0.000000 0.000000 0.000000 0.000880 0.000000 0.027642
#
#
# Mechanical properties :
#
#
# Convention : Reuss Voigt Hill
#
# Bulk Modulus (GPa) = 45.97838 53.65545 49.81691
# Shear Modulus (GPa) = 33.89720 37.32422 35.61071
#
# Velocity S-wave (km/s) = 4.06323 4.26368 4.16466
# Velocity P-wave (km/s) = 6.66386 7.09731 6.88400
#
# Compressibility (1/GPa) = 0.02174935
#
# Stress axis : x y z
#
# Youngs Moduli (GPa) = 90.88781 87.75918 48.45716
#
# Poissons Ratio (x) = 0.32314 0.09409
# Poissons Ratio (y) = 0.33466 0.24319
# Poissons Ratio (z) = 0.17647 0.44044
#
# Static dielectric constant tensor:
#      x y z
#    x 1.798290 0.000000 -0.007940 
#    y 0.000000 1.730010 0.000000 
#    z -0.007940 0.000000 1.745630 
# 
# From -- ./inp_files/38743.got.cif
#   From: 2010.05.17/outbox.ucp.g08.bks.cvg/sg13_20_cif.got.tgz:38743.got - 2010.06.11 12:23:55.
