data_PCOD9239484
_publ_section_title
;
Structure prediction by ZEFSAII (Michael W. Deem and Ramdas Pophale) SiO2 
 PCOD9239484
Probable space group: P 21/C
;
_chemical_formula_sum "Si O2"
_cell_formula_units_Z 24
_cell_length_a 23.185235
_cell_length_b 14.482988
_cell_length_c 9.554584
_cell_angle_alpha 90.000000
_cell_angle_beta 156.587056
_cell_angle_gamma 90.000000
_cell_volume 1274.853773
_symmetry_space_group_name_H-M "P 21/C"
_symmetry_group_IT_number 14
_symmetry_cell_setting 'monoclinic'
loop_
_space_group_symop_operation_xyz
x,y,z
-x,1/2+y,1/2-z
-x,-y,-z
x,1/2-y,1/2+z
loop_
_atom_site_type_symbol
_atom_site_label
_atom_site_fract_x
_atom_site_fract_y
_atom_site_fract_z
Si Si1 0.286833 0.678675 0.415985
Si Si2 0.896567 0.481045 0.633233
Si Si3 0.122775 0.152375 0.601680
Si Si4 0.376120 0.648326 0.924522
Si Si5 0.057188 0.318996 0.277767
Si Si6 0.386360 0.023378 0.124719
O O1 0.367215 0.683323 0.744780
O O2 0.339978 0.764299 0.441093
O O3 0.324613 0.576263 0.438937
O O4 0.113447 0.684040 0.060445
O O5 0.751440 0.428032 0.348093
O O6 0.878795 0.582254 0.533123
O O7 0.000000 0.500000 0.000000
O O8 0.990424 0.410642 0.751119
O O9 0.140622 0.237789 0.540139
O O10 0.078161 0.187101 0.656955
O O11 0.259087 0.084859 0.907342
O O12 0.524516 0.591266 0.279935
O O13 0.500000 0.000000 0.500000
#
# Coordination Sequence:
#
# PCOD9239484 Si02
#       6
#     4   4   4   4   4   4
#     4  11  19  38  59  84 112 151 191 235 284 333
#     4  10  17  34  57  80 106 150 192 220 265 344
#     4  11  21  35  59  86 113 148 197 233 275 336
#     4  11  22  36  61  84 113 152 191 231 284 342
#     4  11  19  35  60  85 113 149 192 239 277 327
#     4  10  22  38  59  85 113 156 192 226 278 353
#
# _framework density 18.825688
#
# number of rings (size 3 to 8) (size 9 to 14) (size 15 to 20)
#    0.000    1.333    6.667    3.000    0.000    4.000 
#    0.000    3.333    0.000    0.000    0.000    0.000 
#    0.000    0.000    0.000    0.000    0.000    0.000 
#
# Total GULP energy -133763.965453 kJ/mol
# GULP energy per Si atom -5573.498561 kJ/mol
# Density = 1.878284 g / cm^3
# Si number density = 18.825688 Si / 1000 Ang^3
#
#
#
# Elastic Constant Matrix: (Units=GPa)
#
#
# Indices 1 2 3 4 5 6 
#
# 1 96.6103 95.5057 35.5516 0.0000 22.5781 0.0000
# 2 95.5057 196.6444 42.5872 0.0000 12.7339 0.0000
# 3 35.5516 42.5872 62.0945 0.0000 26.7344 0.0000
# 4 0.0000 0.0000 0.0000 34.4014 0.0000 13.3244
# 5 22.5781 12.7339 26.7344 0.0000 25.5383 0.0000
# 6 0.0000 0.0000 0.0000 13.3244 0.0000 39.8821
#
#
#
# Elastic Compliance Matrix: (Units=1/GPa)
#
#
# Indices 1 2 3 4 5 6 
#
# 1 0.025436 -0.011398 0.000891 0.000000 -0.017737 0.000000
# 2 -0.011398 0.011161 -0.005591 0.000000 0.010365 0.000000
# 3 0.000891 -0.005591 0.033804 0.000000 -0.033386 0.000000
# 4 0.000000 0.000000 0.000000 0.033389 0.000000 -0.011155
# 5 -0.017737 0.010365 -0.033386 0.000000 0.084619 0.000000
# 6 0.000000 0.000000 0.000000 -0.011155 0.000000 0.028801
#
#
# Mechanical properties :
#
#
# Convention : Reuss Voigt Hill
#
# Bulk Modulus (GPa) = 26.17611 78.07092 52.12351
# Shear Modulus (GPa) = 19.07365 32.07800 25.57582
#
# Velocity S-wave (km/s) = 3.18649 4.13237 3.68986
# Velocity P-wave (km/s) = 5.24146 8.02054 6.77503
#
# Compressibility (1/GPa) = 0.03820278
#
# Stress axis : x y z
#
# Youngs Moduli (GPa) = 39.31454 89.59949 29.58246
#
# Poissons Ratio (x) = 1.02125 -0.02634
# Poissons Ratio (y) = 0.44810 0.16541
# Poissons Ratio (z) = -0.03501 0.50099
#
# Static dielectric constant tensor:
#      x y z
#    x 1.681490 0.000000 0.033280 
#    y 0.000000 1.716640 0.000000 
#    z 0.033280 0.000000 1.677290 
# 
# From -- ./inp_files/8603.got.cif
#   From: 2010.05.17/outbox.cif.g08.bks.cpg/sg14_5_cif.got.tgz:8603.got - 2010.06.03 17:49:19.
