data_PCOD9239042
_publ_section_title
;
Structure prediction by ZEFSAII (Michael W. Deem and Ramdas Pophale) SiO2 
 PCOD9239042
Probable space group: P 2/C
;
_chemical_formula_sum "Si O2"
_cell_formula_units_Z 24
_cell_length_a 9.000000
_cell_length_b 9.000000
_cell_length_c 15.000000
_cell_angle_alpha 90.000000
_cell_angle_beta 80.000000
_cell_angle_gamma 90.000000
_cell_volume 1196.541420
_symmetry_space_group_name_H-M "P 2/C"
_symmetry_group_IT_number 13
_symmetry_cell_setting 'monoclinic'
loop_
_space_group_symop_operation_xyz
x,y,z
-x,y,1/2-z
-x,-y,-z
x,-y,1/2+z
loop_
_atom_site_type_symbol
_atom_site_label
_atom_site_fract_x
_atom_site_fract_y
_atom_site_fract_z
Si Si1 0.110716 0.791848 0.662591
Si Si2 0.408338 0.848976 0.016841
Si Si3 0.442121 0.692321 0.656484
Si Si4 0.114272 0.636224 0.466675
Si Si5 0.058062 0.910187 0.079686
Si Si6 0.458648 0.621993 0.359124
O O1 0.283435 0.775651 0.674124
O O2 0.119838 0.714453 0.563932
O O3 0.000000 0.724515 0.750000
O O4 0.057266 0.961398 0.653864
O O5 0.232214 0.868390 0.049689
O O6 0.483121 0.757619 0.088739
O O7 0.439689 0.768669 0.920643
O O8 0.500000 0.000000 0.000000
O O9 0.500000 0.687800 0.750000
O O10 0.440930 0.521533 0.624826
O O11 0.280952 0.598493 0.407175
O O12 0.000000 0.500000 0.500000
O O13 0.039153 0.759045 0.408216
O O14 0.000000 0.000000 0.000000
O O15 0.500000 0.646751 0.250000
#
# Coordination Sequence:
#
# PCOD9239042 Si02
#       6
#     4   4   4   4   4   4
#     4  11  25  44  65 101 139 176 230 281 343 412
#     4  12  22  44  70  99 133 182 226 285 345 409
#     4  11  25  43  68 100 137 179 230 281 341 407
#     4  11  24  45  70 100 136 184 224 286 349 409
#     4  10  23  42  65  94 134 173 223 275 344 408
#     4  11  26  45  68 101 139 178 235 284 342 414
#
# _framework density 20.05781
#
# number of rings (size 3 to 8) (size 9 to 14) (size 15 to 20)
#    0.000    1.000    3.333    2.500   11.667    2.000 
#    0.000    0.833    0.000    0.000    0.000    0.000 
#    0.000    0.000    0.000    0.000    0.000    0.000 
#
# Total GULP energy -133820.179084 kJ/mol
# GULP energy per Si atom -5575.840795 kJ/mol
# Density = 2.001216 g / cm^3
# Si number density = 20.057810 Si / 1000 Ang^3
#
#
#
# Elastic Constant Matrix: (Units=GPa)
#
#
# Indices 1 2 3 4 5 6 
#
# 1 96.8489 11.7946 24.3445 0.0000 -4.9180 0.0000
# 2 11.7946 95.6056 28.4413 0.0000 18.3747 0.0000
# 3 24.3445 28.4413 116.2906 0.0000 -23.5702 0.0000
# 4 0.0000 0.0000 0.0000 28.9412 0.0000 -6.8731
# 5 -4.9180 18.3747 -23.5702 0.0000 29.2989 0.0000
# 6 0.0000 0.0000 0.0000 -6.8731 0.0000 29.7177
#
#
#
# Elastic Compliance Matrix: (Units=1/GPa)
#
#
# Indices 1 2 3 4 5 6 
#
# 1 0.010961 -0.000984 -0.001859 0.000000 0.000961 0.000000
# 2 -0.000984 0.015500 -0.006677 0.000000 -0.015257 0.000000
# 3 -0.001859 -0.006677 0.013629 0.000000 0.014840 0.000000
# 4 0.000000 0.000000 0.000000 0.036561 0.000000 0.008456
# 5 0.000961 -0.015257 0.014840 0.000000 0.055799 0.000000
# 6 0.000000 0.000000 0.000000 0.008456 0.000000 0.035606
#
#
# Mechanical properties :
#
#
# Convention : Reuss Voigt Hill
#
# Bulk Modulus (GPa) = 47.50687 48.65620 48.08154
# Shear Modulus (GPa) = 25.75815 33.86920 29.81367
#
# Velocity S-wave (km/s) = 3.58745 4.11369 3.85955
# Velocity P-wave (km/s) = 6.39501 6.84645 6.62458
#
# Compressibility (1/GPa) = 0.02104959
#
# Stress axis : x y z
#
# Youngs Moduli (GPa) = 91.22966 64.51718 73.37196
#
# Poissons Ratio (x) = 0.06348 0.13641
# Poissons Ratio (y) = 0.08977 0.48992
# Poissons Ratio (z) = 0.16961 0.43080
#
# Static dielectric constant tensor:
#      x y z
#    x 1.690990 0.000000 0.035310 
#    y 0.000000 1.671710 0.000000 
#    z 0.035310 0.000000 1.699030 
# 
# From -- ./inp_files/46013.got.cif
#   From: 2010.05.17/outbox.ucp.g08.bks.cvg/sg13_24_cif.got.tgz:46013.got - 2010.06.11 12:23:55.
