data_PCOD9239510
_publ_section_title
;
Structure prediction by ZEFSAII (Michael W. Deem and Ramdas Pophale) SiO2 
 PCOD9239510
Probable space group: P 21/C
;
_chemical_formula_sum "Si O2"
_cell_formula_units_Z 32
_cell_length_a 7.939963
_cell_length_b 11.328819
_cell_length_c 20.696788
_cell_angle_alpha 90.000000
_cell_angle_beta 43.777251
_cell_angle_gamma 90.000000
_cell_volume 1288.018567
_symmetry_space_group_name_H-M "P 21/C"
_symmetry_group_IT_number 14
_symmetry_cell_setting 'monoclinic'
loop_
_space_group_symop_operation_xyz
x,y,z
-x,1/2+y,1/2-z
-x,-y,-z
x,1/2-y,1/2+z
loop_
_atom_site_type_symbol
_atom_site_label
_atom_site_fract_x
_atom_site_fract_y
_atom_site_fract_z
Si Si1 0.161459 0.400835 0.370445
Si Si2 0.878113 0.980985 0.781078
Si Si3 0.956951 0.855333 0.961124
Si Si4 0.732538 0.177508 0.917495
Si Si5 0.925338 0.159765 0.656042
Si Si6 0.414844 0.950368 0.342423
Si Si7 0.473328 0.703540 0.385498
Si Si8 0.653845 0.165698 0.318251
O O1 0.976149 0.511297 0.431252
O O2 0.397539 0.447176 0.269575
O O3 0.208421 0.352362 0.429282
O O4 0.010117 0.311488 0.367712
O O5 0.733980 0.059966 0.873200
O O6 0.982443 0.070347 0.697849
O O7 0.695526 0.881328 0.804852
O O8 0.106832 0.917985 0.750136
O O9 0.899791 0.759599 0.922406
O O10 0.229920 0.829814 0.912846
O O11 0.663467 0.277317 0.885782
O O12 0.575463 0.181446 0.025543
O O13 0.839743 0.083286 0.618844
O O14 0.706344 0.239177 0.747653
O O15 0.501025 0.842912 0.364285
O O16 0.430962 0.078534 0.368510
#
# Coordination Sequence:
#
# PCOD9239510 Si02
#       8
#     4   4   4   4   4   4   4   4
#     4  10  17  34  62  85 117 157 194 249 292 349
#     4  11  21  36  64  89 118 155 202 245 302 349
#     4   9  18  34  58  90 120 149 199 248 294 343
#     4  10  21  38  56  89 123 151 198 254 292 354
#     4  10  22  37  60  91 120 151 198 254 291 360
#     4  11  21  38  62  83 116 162 197 243 298 354
#     4  10  22  35  60  88 118 161 202 241 298 353
#     4  11  23  40  61  89 120 157 199 245 303 362
#
# _framework density 24.844363000000001
#
# number of rings (size 3 to 8) (size 9 to 14) (size 15 to 20)
#    0.000    1.750    2.500    1.875    3.500    0.500 
#    0.000    2.500    2.750    3.000    0.000    0.000 
#    0.000    0.000    0.000    0.000    0.000    0.000 
#
# Total GULP energy -179089.195447 kJ/mol
# GULP energy per Si atom -5596.537358 kJ/mol
# Density = 2.478782 g / cm^3
# Si number density = 24.844363 Si / 1000 Ang^3
#
#
#
# Elastic Constant Matrix: (Units=GPa)
#
#
# Indices 1 2 3 4 5 6 
#
# 1 67.1193 28.9413 9.0453 0.0000 20.3466 0.0000
# 2 28.9413 107.3259 22.9903 0.0000 22.6902 0.0000
# 3 9.0453 22.9903 82.8952 0.0000 26.3233 0.0000
# 4 0.0000 0.0000 0.0000 33.2238 0.0000 12.4095
# 5 20.3466 22.6902 26.3233 0.0000 33.7061 0.0000
# 6 0.0000 0.0000 0.0000 12.4095 0.0000 47.5079
#
#
#
# Elastic Compliance Matrix: (Units=1/GPa)
#
#
# Indices 1 2 3 4 5 6 
#
# 1 0.019473 -0.003364 0.002423 0.000000 -0.011383 0.000000
# 2 -0.003364 0.011497 -0.001341 0.000000 -0.004662 0.000000
# 3 0.002423 -0.001341 0.016421 0.000000 -0.013384 0.000000
# 4 0.000000 0.000000 0.000000 0.033353 0.000000 -0.008712
# 5 -0.011383 -0.004662 -0.013384 0.000000 0.050130 0.000000
# 6 0.000000 0.000000 0.000000 -0.008712 0.000000 0.023325
#
#
# Mechanical properties :
#
#
# Convention : Reuss Voigt Hill
#
# Bulk Modulus (GPa) = 23.34979 42.14379 32.74679
# Shear Modulus (GPa) = 28.89510 35.97845 32.43677
#
# Velocity S-wave (km/s) = 3.41404 3.80959 3.61723
# Velocity P-wave (km/s) = 4.99597 6.02914 5.53671
#
# Compressibility (1/GPa) = 0.04282694
#
# Stress axis : x y z
#
# Youngs Moduli (GPa) = 51.35239 86.97674 60.89735
#
# Poissons Ratio (x) = 0.29256 -0.14753
# Poissons Ratio (y) = 0.17273 0.08168
# Poissons Ratio (z) = -0.12440 0.11666
#
# Static dielectric constant tensor:
#      x y z
#    x 1.979950 0.000000 -0.015480 
#    y 0.000000 2.008920 0.000000 
#    z -0.015480 0.000000 1.957530 
# 
# From -- ./inp_files/65599.got.cif
#   From: 2010.05.17/outbox.cif.g08.bks.cpg/sg14_33_cif.got.tgz:65599.got - 2010.06.03 17:49:19.
