data_PCOD9239844
_publ_section_title
;
Structure prediction by ZEFSAII (Michael W. Deem and Ramdas Pophale) SiO2 
 PCOD9239844
Probable space group: P 21/C
;
_chemical_formula_sum "Si O2"
_cell_formula_units_Z 32
_cell_length_a 7.965851
_cell_length_b 26.988241
_cell_length_c 7.292306
_cell_angle_alpha 90.000000
_cell_angle_beta 76.886673
_cell_angle_gamma 90.000000
_cell_volume 1526.849966
_symmetry_space_group_name_H-M "P 21/C"
_symmetry_group_IT_number 14
_symmetry_cell_setting 'monoclinic'
loop_
_space_group_symop_operation_xyz
x,y,z
-x,1/2+y,1/2-z
-x,-y,-z
x,1/2-y,1/2+z
loop_
_atom_site_type_symbol
_atom_site_label
_atom_site_fract_x
_atom_site_fract_y
_atom_site_fract_z
Si Si1 0.192547 0.311645 0.823585
Si Si2 0.284005 0.565843 0.403817
Si Si3 0.597120 0.432817 0.218742
Si Si4 0.868765 0.700104 0.764892
Si Si5 0.667671 0.959207 0.666740
Si Si6 0.396792 0.368508 0.033845
Si Si7 0.005464 0.634546 0.444823
Si Si8 0.210883 0.457403 0.457167
O O1 0.192334 0.256156 0.746899
O O2 0.110988 0.347358 0.694361
O O3 0.079035 0.308682 0.037593
O O4 0.372746 0.333461 0.859842
O O5 0.298268 0.575149 0.620177
O O6 0.475502 0.556667 0.280424
O O7 0.185017 0.513698 0.398161
O O8 0.189023 0.612842 0.342967
O O9 0.660634 0.483612 0.107644
O O10 0.570612 0.388626 0.082001
O O11 0.403394 0.443848 0.341321
O O12 0.702529 0.664023 0.789531
O O13 0.005405 0.680039 0.586444
O O14 0.707338 0.918145 0.504931
O O15 0.780700 0.958180 0.822385
O O16 0.917908 0.586353 0.560655
#
# Coordination Sequence:
#
# PCOD9239844 Si02
#       8
#     4   4   4   4   4   4   4   4
#     4  10  21  35  59  86  98 136 188 236 278 307
#     4   9  21  30  51  83 111 154 173 208 277 329
#     4   9  17  32  52  78 112 149 181 211 265 332
#     4  10  21  35  59  86  98 136 188 236 278 307
#     4   9  17  32  52  78 112 149 181 211 265 332
#     4  10  18  32  55  80 106 138 187 228 269 311
#     4  12  18  36  58  79 115 139 180 236 263 322
#     4   9  15  32  54  77 107 145 193 216 252 320
#
# _framework density 20.958182999999998
#
# number of rings (size 3 to 8) (size 9 to 14) (size 15 to 20)
#    0.750    1.500    3.750    2.250    0.000    0.000 
#    2.250    0.000    0.000    9.000    0.000    0.000 
#    0.000    0.000    0.000    0.000    0.000    0.000 
#
# Total GULP energy -178146.141136 kJ/mol
# GULP energy per Si atom -5567.066911 kJ/mol
# Density = 2.091048 g / cm^3
# Si number density = 20.958183 Si / 1000 Ang^3
#
#
#
# Elastic Constant Matrix: (Units=GPa)
#
#
# Indices 1 2 3 4 5 6 
#
# 1 28.1950 32.5989 5.6857 0.0000 1.6233 0.0000
# 2 32.5989 132.2023 22.5925 0.0000 5.2062 0.0000
# 3 5.6857 22.5925 73.2053 0.0000 10.6705 0.0000
# 4 0.0000 0.0000 0.0000 29.8581 0.0000 1.8797
# 5 1.6233 5.2062 10.6705 0.0000 10.6724 0.0000
# 6 0.0000 0.0000 0.0000 1.8797 0.0000 23.6964
#
#
#
# Elastic Compliance Matrix: (Units=1/GPa)
#
#
# Indices 1 2 3 4 5 6 
#
# 1 0.049640 -0.012199 0.000167 0.000000 -0.001766 0.000000
# 2 -0.012199 0.011009 -0.002268 0.000000 -0.001247 0.000000
# 3 0.000167 -0.002268 0.016610 0.000000 -0.015526 0.000000
# 4 0.000000 0.000000 0.000000 0.033660 0.000000 -0.002670
# 5 -0.001766 -0.001247 -0.015526 0.000000 0.110100 0.000000
# 6 0.000000 0.000000 0.000000 -0.002670 0.000000 0.042412
#
#
# Mechanical properties :
#
#
# Convention : Reuss Voigt Hill
#
# Bulk Modulus (GPa) = 20.55156 39.48407 30.01782
# Shear Modulus (GPa) = 16.22047 24.36042 20.29045
#
# Velocity S-wave (km/s) = 2.78500 3.41300 3.11487
# Velocity P-wave (km/s) = 4.49098 5.86616 5.22402
#
# Compressibility (1/GPa) = 0.04865811
#
# Stress axis : x y z
#
# Youngs Moduli (GPa) = 20.14499 90.83403 60.20317
#
# Poissons Ratio (x) = 1.10812 -0.01005
# Poissons Ratio (y) = 0.24576 0.13656
# Poissons Ratio (z) = -0.00336 0.20604
#
# Static dielectric constant tensor:
#      x y z
#    x 1.800480 0.000000 -0.028580 
#    y 0.000000 1.777990 0.000000 
#    z -0.028580 0.000000 1.827430 
# 
# From -- ./inp_files/10685.got.cif
#   From: 2010.05.17/outbox.cif.g08.bks.cpg/sg14_6_cif.got.tgz:10685.got - 2010.06.03 17:49:19.
