data_PCOD9239803
_publ_section_title
;
Structure prediction by ZEFSAII (Michael W. Deem and Ramdas Pophale) SiO2 
 PCOD9239803
Probable space group: P 21/C
;
_chemical_formula_sum "Si O2"
_cell_formula_units_Z 32
_cell_length_a 10.980057
_cell_length_b 16.963835
_cell_length_c 12.819419
_cell_angle_alpha 90.000000
_cell_angle_beta 141.661643
_cell_angle_gamma 90.000000
_cell_volume 1481.159215
_symmetry_space_group_name_H-M "P 21/C"
_symmetry_group_IT_number 14
_symmetry_cell_setting 'monoclinic'
loop_
_space_group_symop_operation_xyz
x,y,z
-x,1/2+y,1/2-z
-x,-y,-z
x,1/2-y,1/2+z
loop_
_atom_site_type_symbol
_atom_site_label
_atom_site_fract_x
_atom_site_fract_y
_atom_site_fract_z
Si Si1 0.052524 0.212802 0.158708
Si Si2 0.509374 0.687092 0.315224
Si Si3 0.374340 0.920103 0.912508
Si Si4 0.853167 0.798186 0.556594
Si Si5 0.193627 0.798138 0.192735
Si Si6 0.760317 0.147537 0.546042
Si Si7 0.039893 0.024122 0.645409
Si Si8 0.673164 0.842850 0.235588
O O1 0.119491 0.171110 0.309003
O O2 0.242067 0.258387 0.240461
O O3 0.903111 0.282250 0.097998
O O4 0.940818 0.167340 0.991042
O O5 0.434477 0.620666 0.344416
O O6 0.733435 0.714339 0.480256
O O7 0.387757 0.763849 0.270652
O O8 0.438735 0.661953 0.152991
O O9 0.152020 0.950064 0.770782
O O10 0.451318 0.860834 0.053769
O O11 0.500000 0.000000 0.000000
O O12 0.060256 0.776398 0.642138
O O13 0.729188 0.851239 0.393941
O O14 0.242898 0.844511 0.331279
O O15 0.855335 0.064136 0.576633
O O16 0.196353 0.095291 0.740777
O O17 0.000000 0.000000 0.500000
#
# Coordination Sequence:
#
# PCOD9239803 Si02
#       8
#     4   4   4   4   4   4   4   4
#     4   8  15  31  47  71 103 132 163 214 255 302
#     4  11  20  32  52  81 110 135 173 217 259 317
#     4  10  20  31  49  74 114 136 164 215 263 311
#     4  10  19  31  53  73 110 141 169 214 267 312
#     4   9  20  32  49  75 112 137 172 213 263 319
#     4   9  18  31  48  75 103 136 171 206 267 316
#     4  10  18  32  52  74 107 134 169 219 261 308
#     4   9  18  31  46  76 106 133 169 208 262 318
#
# _framework density 21.604700000000001
#
# number of rings (size 3 to 8) (size 9 to 14) (size 15 to 20)
#    0.000    2.500    2.500    0.750    3.500    0.000 
#    0.000    0.000    0.000    0.000    0.000    5.250 
#    0.000    0.000    0.000    0.000    0.000    0.000 
#
# Total GULP energy -178476.996966 kJ/mol
# GULP energy per Si atom -5577.406155 kJ/mol
# Density = 2.155553 g / cm^3
# Si number density = 21.604700 Si / 1000 Ang^3
#
#
#
# Elastic Constant Matrix: (Units=GPa)
#
#
# Indices 1 2 3 4 5 6 
#
# 1 46.7339 15.2171 26.0065 0.0000 -7.4261 0.0000
# 2 15.2171 34.5695 12.2952 0.0000 1.9890 0.0000
# 3 26.0065 12.2952 130.4827 0.0000 -40.9004 0.0000
# 4 0.0000 0.0000 0.0000 32.5152 0.0000 -0.2987
# 5 -7.4261 1.9890 -40.9004 0.0000 41.6354 0.0000
# 6 0.0000 0.0000 0.0000 -0.2987 0.0000 21.6390
#
#
#
# Elastic Compliance Matrix: (Units=1/GPa)
#
#
# Indices 1 2 3 4 5 6 
#
# 1 0.027329 -0.010702 -0.003974 0.000000 0.001482 0.000000
# 2 -0.010702 0.035221 -0.003340 0.000000 -0.006873 0.000000
# 3 -0.003974 -0.003340 0.012424 0.000000 0.011656 0.000000
# 4 0.000000 0.000000 0.000000 0.030759 0.000000 0.000425
# 5 0.001482 -0.006873 0.011656 0.000000 0.036060 0.000000
# 6 0.000000 0.000000 0.000000 0.000425 0.000000 0.046219
#
#
# Mechanical properties :
#
#
# Convention : Reuss Voigt Hill
#
# Bulk Modulus (GPa) = 25.67872 35.42487 30.55180
# Shear Modulus (GPa) = 21.09473 29.70908 25.40190
#
# Velocity S-wave (km/s) = 3.12812 3.71229 3.43265
# Velocity P-wave (km/s) = 4.99584 5.89976 5.46651
#
# Compressibility (1/GPa) = 0.03894275
#
# Stress axis : x y z
#
# Youngs Moduli (GPa) = 36.59069 28.39178 80.48826
#
# Poissons Ratio (x) = 0.30384 0.31987
# Poissons Ratio (y) = 0.39159 0.26884
# Poissons Ratio (z) = 0.14542 0.09483
#
# Static dielectric constant tensor:
#      x y z
#    x 1.783600 0.000000 0.005730 
#    y 0.000000 1.816470 0.000000 
#    z 0.005730 0.000000 1.894480 
# 
# From -- ./inp_files/26136.got.cif
#   From: 2010.05.17/outbox.cif.g08.bks.cpg/sg14_14_cif.got.tgz:26136.got - 2010.06.03 17:49:19.
