data_PCOD9239576
_publ_section_title
;
Structure prediction by ZEFSAII (Michael W. Deem and Ramdas Pophale) SiO2 
 PCOD9239576
Probable space group: P 21/C
;
_chemical_formula_sum "Si O2"
_cell_formula_units_Z 28
_cell_length_a 7.677430
_cell_length_b 5.738341
_cell_length_c 29.442981
_cell_angle_alpha 90.000000
_cell_angle_beta 72.510390
_cell_angle_gamma 90.000000
_cell_volume 1237.166984
_symmetry_space_group_name_H-M "P 21/C"
_symmetry_group_IT_number 14
_symmetry_cell_setting 'monoclinic'
loop_
_space_group_symop_operation_xyz
x,y,z
-x,1/2+y,1/2-z
-x,-y,-z
x,1/2-y,1/2+z
loop_
_atom_site_type_symbol
_atom_site_label
_atom_site_fract_x
_atom_site_fract_y
_atom_site_fract_z
Si Si1 0.216563 0.428370 0.855187
Si Si2 0.583948 0.139720 0.847353
Si Si3 0.236899 0.143384 0.991583
Si Si4 0.046222 0.738526 0.558051
Si Si5 0.387356 0.582785 0.753327
Si Si6 0.598418 0.122040 0.439833
Si Si7 0.362423 0.737513 0.410335
O O1 0.410740 0.304828 0.849557
O O2 0.234413 0.526441 0.803220
O O3 0.212235 0.636578 0.891719
O O4 0.063410 0.255164 0.886066
O O5 0.656450 0.234108 0.889716
O O6 0.689085 0.120110 0.791728
O O7 0.496444 0.892279 0.865373
O O8 0.440155 0.245387 0.980201
O O9 0.092283 0.287453 0.972617
O O10 0.271970 0.938602 0.951801
O O11 0.144549 0.009697 0.040521
O O12 0.216705 0.915932 0.547233
O O13 0.489890 0.835869 0.756639
O O14 0.490785 0.905721 0.428689
#
# Coordination Sequence:
#
# PCOD9239576 Si02
#       7
#     4   4   4   4   4   4   4
#     4  10  19  35  57  86 115 150 200 247 299 367
#     4   9  18  36  57  84 115 155 191 247 303 361
#     4  10  22  39  57  82 119 157 201 248 305 371
#     4  11  21  39  58  85 119 157 198 255 308 364
#     4  10  19  32  64  94 117 163 210 250 313 377
#     4  10  21  38  59  82 121 153 201 251 307 370
#     4  10  17  37  57  80 117 152 194 245 298 368
#
# _framework density 22.632352000000001
#
# number of rings (size 3 to 8) (size 9 to 14) (size 15 to 20)
#    0.000    2.000    5.714    0.429    0.000    1.143 
#    5.143    0.000    3.143    0.000    0.000    0.000 
#    0.000    0.000    0.000    0.000    0.000    0.000 
#
# Total GULP energy -156114.626107 kJ/mol
# GULP energy per Si atom -5575.522361 kJ/mol
# Density = 2.258084 g / cm^3
# Si number density = 22.632352 Si / 1000 Ang^3
#
#
#
# Elastic Constant Matrix: (Units=GPa)
#
#
# Indices 1 2 3 4 5 6 
#
# 1 86.6838 3.4920 47.1645 0.0000 0.5029 0.0000
# 2 3.4920 64.3565 33.8051 0.0000 -1.9027 0.0000
# 3 47.1645 33.8051 156.9887 0.0000 -2.1305 0.0000
# 4 0.0000 0.0000 0.0000 36.3880 0.0000 -5.0292
# 5 0.5029 -1.9027 -2.1305 0.0000 21.0052 0.0000
# 6 0.0000 0.0000 0.0000 -5.0292 0.0000 18.2299
#
#
#
# Elastic Compliance Matrix: (Units=1/GPa)
#
#
# Indices 1 2 3 4 5 6 
#
# 1 0.013949 0.001612 -0.004547 0.000000 -0.000649 0.000000
# 2 0.001612 0.017737 -0.004288 0.000000 0.001133 0.000000
# 3 -0.004547 -0.004288 0.008667 0.000000 0.000600 0.000000
# 4 0.000000 0.000000 0.000000 0.028571 0.000000 0.007882
# 5 -0.000649 0.001133 0.000600 0.000000 0.047786 0.000000
# 6 0.000000 0.000000 0.000000 0.007882 0.000000 0.057029
#
#
# Mechanical properties :
#
#
# Convention : Reuss Voigt Hill
#
# Bulk Modulus (GPa) = 38.59861 52.99465 45.79663
# Shear Modulus (GPa) = 25.40372 30.02911 27.71641
#
# Velocity S-wave (km/s) = 3.35394 3.64651 3.50328
# Velocity P-wave (km/s) = 5.66482 6.41838 6.05334
#
# Compressibility (1/GPa) = 0.02590767
#
# Stress axis : x y z
#
# Youngs Moduli (GPa) = 71.69061 56.37909 115.37458
#
# Poissons Ratio (x) = -0.09089 0.52457
# Poissons Ratio (y) = -0.11558 0.49477
# Poissons Ratio (z) = 0.32595 0.24178
#
# Static dielectric constant tensor:
#      x y z
#    x 1.824510 0.000000 0.009050 
#    y 0.000000 1.962390 0.000000 
#    z 0.009050 0.000000 1.877690 
# 
# From -- ./inp_files/79099.got.cif
#   From: 2010.05.17/outbox.cif.g08.bks.cpg/sg14_40_cif.got.tgz:79099.got - 2010.06.03 17:49:19.
