data_PCOD9239779
_publ_section_title
;
Structure prediction by ZEFSAII (Michael W. Deem and Ramdas Pophale) SiO2 
 PCOD9239779
Probable space group: P 21/C
;
_chemical_formula_sum "Si O2"
_cell_formula_units_Z 32
_cell_length_a 14.284615
_cell_length_b 13.991136
_cell_length_c 15.122015
_cell_angle_alpha 90.000000
_cell_angle_beta 142.280585
_cell_angle_gamma 90.000000
_cell_volume 1849.001178
_symmetry_space_group_name_H-M "P 21/C"
_symmetry_group_IT_number 14
_symmetry_cell_setting 'monoclinic'
loop_
_space_group_symop_operation_xyz
x,y,z
-x,1/2+y,1/2-z
-x,-y,-z
x,1/2-y,1/2+z
loop_
_atom_site_type_symbol
_atom_site_label
_atom_site_fract_x
_atom_site_fract_y
_atom_site_fract_z
Si Si1 0.663394 0.617244 0.566793
Si Si2 0.769130 0.234267 0.159426
Si Si3 0.459524 0.928334 0.078253
Si Si4 0.436496 0.776748 0.330013
Si Si5 0.051381 0.116525 0.429309
Si Si6 0.706683 0.152397 0.434331
Si Si7 0.041860 0.099348 0.623218
Si Si8 0.615232 0.935384 0.377631
O O1 0.621236 0.530783 0.470481
O O2 0.595785 0.574462 0.608247
O O3 0.569281 0.708940 0.468060
O O4 0.840051 0.637171 0.715903
O O5 0.697593 0.274656 0.197025
O O6 0.939734 0.196021 0.305602
O O7 0.666258 0.143614 0.053281
O O8 0.746629 0.304899 0.060139
O O9 0.537932 0.903177 0.228209
O O10 0.379385 0.725395 0.196479
O O11 0.511479 0.880311 0.370963
O O12 0.089510 0.133443 0.561143
O O13 0.208188 0.099970 0.493063
O O14 0.958796 0.015864 0.366736
O O15 0.868022 0.129784 0.508103
O O16 0.621491 0.050676 0.383282
#
# Coordination Sequence:
#
# PCOD9239779 Si02
#       8
#     4   4   4   4   4   4   4   4
#     4  10  19  31  53  87 113 138 181 241 297 327
#     4  11  22  38  56  83 115 158 193 229 289 348
#     4  10  18  31  57  81 112 141 183 238 289 332
#     4  11  23  37  58  84 112 152 197 239 282 347
#     4  10  20  33  57  84 115 142 182 240 290 336
#     4  11  23  37  58  84 116 155 194 235 289 346
#     4  10  19  33  55  86 114 140 179 241 298 333
#     4  11  22  38  54  87 119 149 193 238 287 343
#
# _framework density 17.306642
#
# number of rings (size 3 to 8) (size 9 to 14) (size 15 to 20)
#    0.000    1.500    6.250    0.000    1.750    0.500 
#    0.000    0.000    0.000    0.000    0.000    4.375 
#    0.000    0.000    0.000    0.000    0.000    0.000 
#
# Total GULP energy -178311.569719 kJ/mol
# GULP energy per Si atom -5572.236554 kJ/mol
# Density = 1.726725 g / cm^3
# Si number density = 17.306642 Si / 1000 Ang^3
#
#
#
# Elastic Constant Matrix: (Units=GPa)
#
#
# Indices 1 2 3 4 5 6 
#
# 1 31.5588 19.5100 12.1032 0.0000 -12.5264 0.0000
# 2 19.5100 41.2400 12.9801 0.0000 -4.7726 0.0000
# 3 12.1032 12.9801 89.0571 0.0000 -0.9131 0.0000
# 4 0.0000 0.0000 0.0000 25.1792 0.0000 -1.8308
# 5 -12.5264 -4.7726 -0.9131 0.0000 22.2516 0.0000
# 6 0.0000 0.0000 0.0000 -1.8308 0.0000 24.0194
#
#
#
# Elastic Compliance Matrix: (Units=1/GPa)
#
#
# Indices 1 2 3 4 5 6 
#
# 1 0.058785 -0.023218 -0.004319 0.000000 0.027936 0.000000
# 2 -0.023218 0.035225 -0.002036 0.000000 -0.005599 0.000000
# 3 -0.004319 -0.002036 0.012088 0.000000 -0.002372 0.000000
# 4 0.000000 0.000000 0.000000 0.039937 0.000000 0.003044
# 5 0.027936 -0.005599 -0.002372 0.000000 0.059369 0.000000
# 6 0.000000 0.000000 0.000000 0.003044 0.000000 0.041865
#
#
# Mechanical properties :
#
#
# Convention : Reuss Voigt Hill
#
# Bulk Modulus (GPa) = 21.29797 27.89361 24.59579
# Shear Modulus (GPa) = 15.52478 22.10754 18.81616
#
# Velocity S-wave (km/s) = 2.99831 3.57795 3.30088
# Velocity P-wave (km/s) = 4.93148 5.76379 5.36380
#
# Compressibility (1/GPa) = 0.04695282
#
# Stress axis : x y z
#
# Youngs Moduli (GPa) = 17.01110 28.38862 82.72588
#
# Poissons Ratio (x) = 0.65913 0.35727
# Poissons Ratio (y) = 0.39497 0.16843
# Poissons Ratio (z) = 0.07347 0.05780
#
# Static dielectric constant tensor:
#      x y z
#    x 1.598740 0.000000 0.001500 
#    y 0.000000 1.602380 0.000000 
#    z 0.001500 0.000000 1.592520 
# 
# From -- ./inp_files/40993.got.cif
#   From: 2010.05.17/outbox.cif.g08.bks.cpg/sg14_21_cif.got.tgz:40993.got - 2010.06.03 17:49:19.
