data_PCOD9239402
_publ_section_title
;
Structure prediction by ZEFSAII (Michael W. Deem and Ramdas Pophale) SiO2 
 PCOD9239402
Probable space group: P 21/C
;
_chemical_formula_sum "Si O2"
_cell_formula_units_Z 20
_cell_length_a 12.271496
_cell_length_b 13.477904
_cell_length_c 8.841658
_cell_angle_alpha 90.000000
_cell_angle_beta 149.298623
_cell_angle_gamma 90.000000
_cell_volume 746.626526
_symmetry_space_group_name_H-M "P 21/C"
_symmetry_group_IT_number 14
_symmetry_cell_setting 'monoclinic'
loop_
_space_group_symop_operation_xyz
x,y,z
-x,1/2+y,1/2-z
-x,-y,-z
x,1/2-y,1/2+z
loop_
_atom_site_type_symbol
_atom_site_label
_atom_site_fract_x
_atom_site_fract_y
_atom_site_fract_z
Si Si1 0.363292 0.288083 0.988759
Si Si2 0.100928 0.791671 0.461592
Si Si3 0.404086 0.394119 0.342540
Si Si4 0.895441 0.935198 0.009720
Si Si5 0.883791 0.393538 0.706913
O O1 0.469507 0.191500 0.040620
O O2 0.292853 0.366439 0.777147
O O3 0.142179 0.241313 0.787398
O O4 0.452583 0.351849 0.233404
O O5 0.169007 0.853255 0.689679
O O6 0.185584 0.686538 0.502949
O O7 0.079060 0.862946 0.291510
O O8 0.500000 0.500000 0.500000
O O9 0.144335 0.402173 0.026926
O O10 0.818548 0.001221 0.059467
O O11 0.000000 0.000000 0.000000
#
# Coordination Sequence:
#
# PCOD9239402 Si02
#       5
#     4   4   4   4   4
#     4  10  19  37  61  85 115 154 196 246 291 346
#     4  10  17  32  51  84 117 150 184 230 291 353
#     4  10  20  38  65  81 117 160 200 242 294 346
#     4  12  18  31  58  89 120 150 188 238 299 355
#     4  10  19  32  56  85 115 156 191 237 295 349
#
# _framework density 26.787151999999999
#
# number of rings (size 3 to 8) (size 9 to 14) (size 15 to 20)
#    0.000    1.600   10.000    0.600    0.000    0.000 
#    0.000    1.000    8.800    0.000    0.000    0.000 
#    0.000    0.000    0.000    0.000    0.000    0.000 
#
# Total GULP energy -112073.885135 kJ/mol
# GULP energy per Si atom -5603.694257 kJ/mol
# Density = 2.672618 g / cm^3
# Si number density = 26.787152 Si / 1000 Ang^3
#
#
#
# Elastic Constant Matrix: (Units=GPa)
#
#
# Indices 1 2 3 4 5 6 
#
# 1 129.2998 55.6680 23.0466 0.0000 -17.1740 0.0000
# 2 55.6680 230.5783 93.6343 0.0000 -29.0148 0.0000
# 3 23.0466 93.6343 170.6618 0.0000 -35.3813 0.0000
# 4 0.0000 0.0000 0.0000 86.2209 0.0000 -23.4473
# 5 -17.1740 -29.0148 -35.3813 0.0000 36.0449 0.0000
# 6 0.0000 0.0000 0.0000 -23.4473 0.0000 49.6031
#
#
#
# Elastic Compliance Matrix: (Units=1/GPa)
#
#
# Indices 1 2 3 4 5 6 
#
# 1 0.008909 -0.001968 0.000538 0.000000 0.003188 0.000000
# 2 -0.001968 0.006117 -0.002842 0.000000 0.001196 0.000000
# 3 0.000538 -0.002842 0.008694 0.000000 0.006503 0.000000
# 4 0.000000 0.000000 0.000000 0.013309 0.000000 0.006291
# 5 0.003188 0.001196 0.006503 0.000000 0.036608 0.000000
# 6 0.000000 0.000000 0.000000 0.006291 0.000000 0.023134
#
#
# Mechanical properties :
#
#
# Convention : Reuss Voigt Hill
#
# Bulk Modulus (GPa) = 65.89779 97.24865 81.57322
# Shear Modulus (GPa) = 45.30035 58.25318 51.77676
#
# Velocity S-wave (km/s) = 4.11679 4.66839 4.40124
# Velocity P-wave (km/s) = 6.87395 8.08960 7.50642
#
# Compressibility (1/GPa) = 0.01517502
#
# Stress axis : x y z
#
# Youngs Moduli (GPa) = 112.24723 163.48530 115.01578
#
# Poissons Ratio (x) = 0.32174 -0.06184
# Poissons Ratio (y) = 0.22090 0.32690
# Poissons Ratio (z) = -0.06035 0.46466
#
# Static dielectric constant tensor:
#      x y z
#    x 2.212560 0.000000 0.214820 
#    y 0.000000 2.020900 0.000000 
#    z 0.214820 0.000000 2.380960 
# 
# From -- ./inp_files/7843.got.cif
#   From: 2010.05.17/outbox.cif.g08.bks.cpg/sg14_4_cif.got.tgz:7843.got - 2010.06.03 17:49:19.
