data_PCOD9239514
_publ_section_title
;
Structure prediction by ZEFSAII (Michael W. Deem and Ramdas Pophale) SiO2 
 PCOD9239514
Probable space group: P 21/C
;
_chemical_formula_sum "Si O2"
_cell_formula_units_Z 28
_cell_length_a 15.916929
_cell_length_b 7.424558
_cell_length_c 21.379773
_cell_angle_alpha 90.000000
_cell_angle_beta 28.221987
_cell_angle_gamma 90.000000
_cell_volume 1194.791481
_symmetry_space_group_name_H-M "P 21/C"
_symmetry_group_IT_number 14
_symmetry_cell_setting 'monoclinic'
loop_
_space_group_symop_operation_xyz
x,y,z
-x,1/2+y,1/2-z
-x,-y,-z
x,1/2-y,1/2+z
loop_
_atom_site_type_symbol
_atom_site_label
_atom_site_fract_x
_atom_site_fract_y
_atom_site_fract_z
Si Si1 0.287688 0.906691 0.420849
Si Si2 0.104505 0.369385 0.858111
Si Si3 0.782899 0.485958 0.776013
Si Si4 0.063523 0.158667 0.006457
Si Si5 0.487345 0.461224 0.581602
Si Si6 0.618625 0.514089 0.622794
Si Si7 0.594507 0.459638 0.023146
O O1 0.315416 0.691449 0.411376
O O2 0.420104 0.965535 0.279423
O O3 0.353149 0.000938 0.441017
O O4 0.079903 0.938108 0.548288
O O5 0.281259 0.484985 0.734520
O O6 0.153203 0.182033 0.789671
O O7 0.075638 0.318508 0.949344
O O8 0.922126 0.348370 0.655157
O O9 0.586497 0.441844 0.878276
O O10 0.751213 0.490281 0.870807
O O11 0.251376 0.125003 0.916960
O O12 0.000000 0.000000 0.000000
O O13 0.500000 0.500000 0.500000
O O14 0.608433 0.556736 0.555250
O O15 0.540390 0.251069 0.554905
#
# Coordination Sequence:
#
# PCOD9239514 Si02
#       7
#     4   4   4   4   4   4   4
#     4  11  22  39  62  92 125 163 206 265 312 377
#     4  10  21  39  63  87 127 159 206 260 316 366
#     4   9  17  35  61  88 111 158 207 256 299 363
#     4  10  17  34  64  91 112 154 208 256 296 362
#     4  10  23  42  56  85 130 165 192 257 326 375
#     4  11  22  40  64  90 124 163 210 258 315 374
#     4   9  20  36  60  87 122 156 207 255 307 367
#
# _framework density 23.435051999999999
#
# number of rings (size 3 to 8) (size 9 to 14) (size 15 to 20)
#    0.000    2.000    2.857    3.429    0.000    2.857 
#    5.143    1.429    0.000    0.000    0.000    0.000 
#    0.000    0.000    0.000    0.000    0.000    0.000 
#
# Total GULP energy -156597.053083 kJ/mol
# GULP energy per Si atom -5592.751896 kJ/mol
# Density = 2.338171 g / cm^3
# Si number density = 23.435052 Si / 1000 Ang^3
#
#
#
# Elastic Constant Matrix: (Units=GPa)
#
#
# Indices 1 2 3 4 5 6 
#
# 1 156.6263 9.0656 41.7782 0.0000 6.0449 0.0000
# 2 9.0656 45.9308 -4.4567 0.0000 -9.3612 0.0000
# 3 41.7782 -4.4567 123.9397 0.0000 4.1582 0.0000
# 4 0.0000 0.0000 0.0000 32.9233 0.0000 0.6970
# 5 6.0449 -9.3612 4.1582 0.0000 38.0218 0.0000
# 6 0.0000 0.0000 0.0000 0.6970 0.0000 23.9468
#
#
#
# Elastic Compliance Matrix: (Units=1/GPa)
#
#
# Indices 1 2 3 4 5 6 
#
# 1 0.007203 -0.001935 -0.002452 0.000000 -0.001354 0.000000
# 2 -0.001935 0.023492 0.001298 0.000000 0.005950 0.000000
# 3 -0.002452 0.001298 0.008951 0.000000 -0.000270 0.000000
# 4 0.000000 0.000000 0.000000 0.030392 0.000000 -0.000885
# 5 -0.001354 0.005950 -0.000270 0.000000 0.028010 0.000000
# 6 0.000000 0.000000 0.000000 -0.000885 0.000000 0.041785
#
#
# Mechanical properties :
#
#
# Convention : Reuss Voigt Hill
#
# Bulk Modulus (GPa) = 29.88113 46.58565 38.23339
# Shear Modulus (GPa) = 31.81280 37.65235 34.73257
#
# Velocity S-wave (km/s) = 3.68841 4.01267 3.85395
# Velocity P-wave (km/s) = 5.56034 6.43355 6.01282
#
# Compressibility (1/GPa) = 0.03346594
#
# Stress axis : x y z
#
# Youngs Moduli (GPa) = 138.83133 42.56682 111.72257
#
# Poissons Ratio (x) = 0.08239 0.27397
# Poissons Ratio (y) = 0.26871 -0.14497
# Poissons Ratio (z) = 0.34044 -0.05523
#
# Static dielectric constant tensor:
#      x y z
#    x 1.901050 0.000000 -0.006790 
#    y 0.000000 2.018110 0.000000 
#    z -0.006790 0.000000 1.842700 
# 
# From -- ./inp_files/68316.got.cif
#   From: 2010.05.17/outbox.cif.g08.bks.cpg/sg14_35_cif.got.tgz:68316.got - 2010.06.03 17:49:19.
