data_PCOD9239552
_publ_section_title
;
Structure prediction by ZEFSAII (Michael W. Deem and Ramdas Pophale) SiO2 
 PCOD9239552
Probable space group: P 21/C
;
_chemical_formula_sum "Si O2"
_cell_formula_units_Z 28
_cell_length_a 5.316442
_cell_length_b 13.092354
_cell_length_c 16.032214
_cell_angle_alpha 90.000000
_cell_angle_beta 91.010217
_cell_angle_gamma 90.000000
_cell_volume 1115.744648
_symmetry_space_group_name_H-M "P 21/C"
_symmetry_group_IT_number 14
_symmetry_cell_setting 'monoclinic'
loop_
_space_group_symop_operation_xyz
x,y,z
-x,1/2+y,1/2-z
-x,-y,-z
x,1/2-y,1/2+z
loop_
_atom_site_type_symbol
_atom_site_label
_atom_site_fract_x
_atom_site_fract_y
_atom_site_fract_z
Si Si1 0.239016 0.957591 0.316593
Si Si2 0.727737 0.979380 0.265647
Si Si3 0.218175 0.721230 0.948273
Si Si4 0.900407 0.268257 0.877261
Si Si5 0.297462 0.159956 0.090246
Si Si6 0.384886 0.238784 0.271158
Si Si7 0.933965 0.039546 0.870861
O O1 0.490909 0.021656 0.313991
O O2 0.272684 0.862930 0.377972
O O3 0.211971 0.936045 0.216633
O O4 0.963052 0.001304 0.326955
O O5 0.686429 0.856284 0.256766
O O6 0.813125 0.007838 0.171338
O O7 0.465348 0.793693 0.957520
O O8 0.960470 0.776531 0.919860
O O9 0.161718 0.673922 0.038147
O O10 0.655517 0.266576 0.816829
O O11 0.958361 0.150644 0.909685
O O12 0.153401 0.292470 0.828923
O O13 0.376254 0.173295 0.187167
O O14 0.216616 0.042439 0.076630
#
# Coordination Sequence:
#
# PCOD9239552 Si02
#       7
#     4   4   4   4   4   4   4
#     4  10  17  36  56  77 103 151 198 226 259 334
#     4   9  16  32  57  73  99 143 190 231 252 324
#     4  12  23  37  56  90 115 151 184 241 281 342
#     4  11  23  37  59  80 122 149 188 227 294 338
#     4  12  23  35  60  86 117 142 196 236 283 332
#     4  11  18  39  57  80 103 154 200 235 257 336
#     4   9  22  34  57  83 115 151 186 231 284 335
#
# _framework density 25.095348000000001
#
# number of rings (size 3 to 8) (size 9 to 14) (size 15 to 20)
#    0.857    0.571    4.286    1.714    2.000    1.143 
#    0.000    0.000    0.000    1.714    0.000    0.000 
#    0.000    0.000    0.000    0.000    0.000    0.000 
#
# Total GULP energy -156304.667275 kJ/mol
# GULP energy per Si atom -5582.309546 kJ/mol
# Density = 2.503823 g / cm^3
# Si number density = 25.095348 Si / 1000 Ang^3
#
#
#
# Elastic Constant Matrix: (Units=GPa)
#
#
# Indices 1 2 3 4 5 6 
#
# 1 224.4512 22.9800 22.0327 0.0000 -23.9694 0.0000
# 2 22.9800 58.1882 4.4535 0.0000 -0.5797 0.0000
# 3 22.0327 4.4535 56.5493 0.0000 -17.7477 0.0000
# 4 0.0000 0.0000 0.0000 24.9856 0.0000 -4.3774
# 5 -23.9694 -0.5797 -17.7477 0.0000 33.5340 0.0000
# 6 0.0000 0.0000 0.0000 -4.3774 0.0000 26.5240
#
#
#
# Elastic Compliance Matrix: (Units=1/GPa)
#
#
# Indices 1 2 3 4 5 6 
#
# 1 0.005069 -0.001906 -0.000837 0.000000 0.003147 0.000000
# 2 -0.001906 0.018014 -0.001206 0.000000 -0.001690 0.000000
# 3 -0.000837 -0.001206 0.021478 0.000000 0.010748 0.000000
# 4 0.000000 0.000000 0.000000 0.041215 0.000000 0.006802
# 5 0.003147 -0.001690 0.010748 0.000000 0.037729 0.000000
# 6 0.000000 0.000000 0.000000 0.006802 0.000000 0.038824
#
#
# Mechanical properties :
#
#
# Convention : Reuss Voigt Hill
#
# Bulk Modulus (GPa) = 27.27659 48.68011 37.97835
# Shear Modulus (GPa) = 27.40503 36.32356 31.86430
#
# Velocity S-wave (km/s) = 3.30818 3.80863 3.56719
# Velocity P-wave (km/s) = 5.04825 6.22744 5.66859
#
# Compressibility (1/GPa) = 0.03666148
#
# Stress axis : x y z
#
# Youngs Moduli (GPa) = 197.28785 55.51244 46.55935
#
# Poissons Ratio (x) = 0.10583 0.03897
# Poissons Ratio (y) = 0.37610 0.05616
# Poissons Ratio (z) = 0.16514 0.06696
#
# Static dielectric constant tensor:
#      x y z
#    x 2.243880 0.000000 0.030040 
#    y 0.000000 2.062930 0.000000 
#    z 0.030040 0.000000 1.920820 
# 
# From -- ./inp_files/53190.got.cif
#   From: 2010.05.17/outbox.cif.g08.bks.cpg/sg14_27_cif.got.tgz:53190.got - 2010.06.03 17:49:19.
