data_PCOD9239162
_publ_section_title
;
Structure prediction by ZEFSAII (Michael W. Deem and Ramdas Pophale) SiO2 
 PCOD9239162
Probable space group: P 21/C
;
_chemical_formula_sum "Si O2"
_cell_formula_units_Z 32
_cell_length_a 5.563563
_cell_length_b 10.523063
_cell_length_c 22.902421
_cell_angle_alpha 90.000000
_cell_angle_beta 85.093616
_cell_angle_gamma 90.000000
_cell_volume 1335.925680
_symmetry_space_group_name_H-M "P 21/C"
_symmetry_group_IT_number 14
_symmetry_cell_setting 'monoclinic'
loop_
_space_group_symop_operation_xyz
x,y,z
-x,1/2+y,1/2-z
-x,-y,-z
x,1/2-y,1/2+z
loop_
_atom_site_type_symbol
_atom_site_label
_atom_site_fract_x
_atom_site_fract_y
_atom_site_fract_z
Si Si1 0.260647 0.587026 0.821876
Si Si2 0.403247 0.566176 0.434288
Si Si3 0.097606 0.196087 0.578314
Si Si4 0.263432 0.673006 0.999169
Si Si5 0.098431 0.493879 0.590499
Si Si6 0.020828 0.028214 0.222503
Si Si7 0.487134 0.979119 0.585968
Si Si8 0.469823 0.841523 0.798659
O O1 0.063539 0.559548 0.777245
O O2 0.389129 0.471303 0.853398
O O3 0.449135 0.689822 0.794275
O O4 0.127619 0.659217 0.876942
O O5 0.386200 0.701680 0.468596
O O6 0.636964 0.476954 0.441099
O O7 0.426311 0.606325 0.365402
O O8 0.147186 0.491027 0.441087
O O9 0.134202 0.341296 0.592987
O O10 0.015947 0.191306 0.512214
O O11 0.295732 0.094571 0.591116
O O12 0.326822 0.539904 0.964796
O O13 0.353596 0.643118 0.062188
O O14 0.053316 0.537676 0.657982
O O15 0.261621 0.115707 0.223225
O O16 0.763238 0.098324 0.229233
#
# Coordination Sequence:
#
# PCOD9239162 Si02
#       8
#     4   4   4   4   4   4   4   4
#     4  11  21  31  48  66  92 133 160 194 236 278
#     4   9  14  27  43  57  82 121 143 181 221 255
#     4  10  16  28  43  59  90 128 158 185 227 268
#     4   9  16  24  38  63  86 123 162 179 217 267
#     4   9  15  28  42  59  83 110 154 186 219 257
#     4  10  21  31  49  68  86 124 163 195 233 275
#     4  10  17  26  39  62  92 120 164 183 212 284
#     4  10  19  35  46  67  93 117 162 196 233 276
#
# _framework density 23.953427000000001
#
# number of rings (size 3 to 8) (size 9 to 14) (size 15 to 20)
#    0.000    2.250    6.250    1.125    1.750    0.000 
#    0.000    0.000    0.000    0.000    0.000    0.000 
#    0.000    0.000    0.000   42.750    4.000    0.000 
#
# Total GULP energy -178365.354613 kJ/mol
# GULP energy per Si atom -5573.917332 kJ/mol
# Density = 2.389891 g / cm^3
# Si number density = 23.953427 Si / 1000 Ang^3
#
#
#
# Elastic Constant Matrix: (Units=GPa)
#
#
# Indices 1 2 3 4 5 6 
#
# 1 125.6881 4.1860 23.4923 0.0000 25.1907 0.0000
# 2 4.1860 27.0167 34.0706 0.0000 13.6010 0.0000
# 3 23.4923 34.0706 68.7041 0.0000 25.3673 0.0000
# 4 0.0000 0.0000 0.0000 20.0107 0.0000 5.6635
# 5 25.1907 13.6010 25.3673 0.0000 32.2053 0.0000
# 6 0.0000 0.0000 0.0000 5.6635 0.0000 23.1197
#
#
#
# Elastic Compliance Matrix: (Units=1/GPa)
#
#
# Indices 1 2 3 4 5 6 
#
# 1 0.010098 0.008221 -0.004697 0.000000 -0.007670 0.000000
# 2 0.008221 0.105945 -0.051405 0.000000 -0.010682 0.000000
# 3 -0.004697 -0.051405 0.045519 0.000000 -0.010471 0.000000
# 4 0.000000 0.000000 0.000000 0.053696 0.000000 -0.013154
# 5 -0.007670 -0.010682 -0.010471 0.000000 0.049809 0.000000
# 6 0.000000 0.000000 0.000000 -0.013154 0.000000 0.046475
#
#
# Mechanical properties :
#
#
# Convention : Reuss Voigt Hill
#
# Bulk Modulus (GPa) = 15.19800 38.32296 26.76048
# Shear Modulus (GPa) = 11.64852 25.71114 18.67983
#
# Velocity S-wave (km/s) = 2.20761 3.27980 2.79559
# Velocity P-wave (km/s) = 3.58562 5.51149 4.64936
#
# Compressibility (1/GPa) = 0.06579814
#
# Stress axis : x y z
#
# Youngs Moduli (GPa) = 99.03300 9.43887 21.96863
#
# Poissons Ratio (x) = -0.07759 0.10320
# Poissons Ratio (y) = -0.81412 1.12930
# Poissons Ratio (z) = 0.46520 0.48521
#
# Static dielectric constant tensor:
#      x y z
#    x 2.109200 0.000000 0.012560 
#    y 0.000000 1.921290 0.000000 
#    z 0.012560 0.000000 2.099060 
# 
# From -- ./inp_files/71257.got.cif
#   From: 2010.05.17/outbox.cif.g08.bks.cpg/sg14_36_cif.got.tgz:71257.got - 2010.06.03 17:49:19.
