data_PCOD9239356
_publ_section_title
;
Structure prediction by ZEFSAII (Michael W. Deem and Ramdas Pophale) SiO2 
 PCOD9239356
Probable space group: P 21/C
;
_chemical_formula_sum "Si O2"
_cell_formula_units_Z 28
_cell_length_a 22.875625
_cell_length_b 6.870172
_cell_length_c 19.970427
_cell_angle_alpha 90.000000
_cell_angle_beta 159.176928
_cell_angle_gamma 90.000000
_cell_volume 1115.699452
_symmetry_space_group_name_H-M "P 21/C"
_symmetry_group_IT_number 14
_symmetry_cell_setting 'monoclinic'
loop_
_space_group_symop_operation_xyz
x,y,z
-x,1/2+y,1/2-z
-x,-y,-z
x,1/2-y,1/2+z
loop_
_atom_site_type_symbol
_atom_site_label
_atom_site_fract_x
_atom_site_fract_y
_atom_site_fract_z
Si Si1 0.275600 0.835737 0.070758
Si Si2 0.991931 0.662267 0.369822
Si Si3 0.036051 0.619493 0.199573
Si Si4 0.918228 0.290962 0.893750
Si Si5 0.626010 0.693204 0.962824
Si Si6 0.306367 0.132654 0.611463
Si Si7 0.437696 0.942631 0.006932
O O1 0.204833 0.869803 0.921020
O O2 0.134583 0.901150 0.971659
O O3 0.451943 0.915838 0.283015
O O4 0.303936 0.602483 0.101895
O O5 0.044761 0.657292 0.503484
O O6 0.982041 0.894435 0.340498
O O7 0.803385 0.592691 0.161251
O O8 0.019449 0.745643 0.114563
O O9 0.885106 0.680472 0.084758
O O10 0.723717 0.315725 0.676983
O O11 0.000000 0.500000 0.000000
O O12 0.627099 0.733760 0.883957
O O13 0.618155 0.870317 0.007782
O O14 0.417804 0.159079 0.796238
O O15 0.500000 0.000000 0.000000
#
# Coordination Sequence:
#
# PCOD9239356 Si02
#       7
#     4   4   4   4   4   4   4
#     4  10  21  34  53  80 110 146 188 220 278 351
#     4  10  20  35  52  85 107 144 183 236 288 327
#     4  10  18  34  53  76 111 143 185 233 277 332
#     4  10  17  30  52  78 106 138 180 234 285 317
#     4  11  20  34  54  79 118 146 179 240 291 329
#     4  10  22  34  53  86 113 147 189 228 296 342
#     4  11  20  34  56  87 112 145 199 242 284 343
#
# _framework density 25.096364999999999
#
# number of rings (size 3 to 8) (size 9 to 14) (size 15 to 20)
#    0.000    1.714    4.286    4.286    2.000    0.000 
#    0.000    0.000    0.000    0.857    3.714    6.000 
#    0.000    0.000    0.000    0.000    0.000    0.000 
#
# Total GULP energy -156616.490121 kJ/mol
# GULP energy per Si atom -5593.446076 kJ/mol
# Density = 2.503924 g / cm^3
# Si number density = 25.096365 Si / 1000 Ang^3
#
#
#
# Elastic Constant Matrix: (Units=GPa)
#
#
# Indices 1 2 3 4 5 6 
#
# 1 182.0987 18.5673 64.9416 0.0000 -2.7463 0.0000
# 2 18.5673 89.8306 11.4157 0.0000 -8.9796 0.0000
# 3 64.9416 11.4157 198.4016 0.0000 -0.3218 0.0000
# 4 0.0000 0.0000 0.0000 15.7382 0.0000 -9.7260
# 5 -2.7463 -8.9796 -0.3218 0.0000 53.7000 0.0000
# 6 0.0000 0.0000 0.0000 -9.7260 0.0000 27.2850
#
#
#
# Elastic Compliance Matrix: (Units=1/GPa)
#
#
# Indices 1 2 3 4 5 6 
#
# 1 0.006315 -0.001036 -0.002007 0.000000 0.000138 0.000000
# 2 -0.001036 0.011575 -0.000324 0.000000 0.001881 0.000000
# 3 -0.002007 -0.000324 0.005716 0.000000 -0.000123 0.000000
# 4 0.000000 0.000000 0.000000 0.081491 0.000000 0.029048
# 5 0.000138 0.001881 -0.000123 0.000000 0.018943 0.000000
# 6 0.000000 0.000000 0.000000 0.029048 0.000000 0.047005
#
#
# Mechanical properties :
#
#
# Convention : Reuss Voigt Hill
#
# Bulk Modulus (GPa) = 59.27173 73.35336 66.31255
# Shear Modulus (GPa) = 27.26229 44.37173 35.81701
#
# Velocity S-wave (km/s) = 3.29949 4.20939 3.78190
# Velocity P-wave (km/s) = 6.17936 7.27443 6.74914
#
# Compressibility (1/GPa) = 0.01687145
#
# Stress axis : x y z
#
# Youngs Moduli (GPa) = 158.35021 86.38990 174.95593
#
# Poissons Ratio (x) = 0.08954 0.35118
# Poissons Ratio (y) = 0.16412 0.05664
# Poissons Ratio (z) = 0.31785 0.02797
#
# Static dielectric constant tensor:
#      x y z
#    x 1.973800 0.000000 0.020530 
#    y 0.000000 2.067470 0.000000 
#    z 0.020530 0.000000 1.951400 
# 
# From -- ./inp_files/55142.got.cif
#   From: 2010.05.17/outbox.cif.g08.bks.cpg/sg14_28_cif.got.tgz:55142.got - 2010.06.03 17:49:19.
