data_PCOD9239722
_publ_section_title
;
Structure prediction by ZEFSAII (Michael W. Deem and Ramdas Pophale) SiO2 
 PCOD9239722
Probable space group: P 21/C
;
_chemical_formula_sum "Si O2"
_cell_formula_units_Z 32
_cell_length_a 21.841691
_cell_length_b 7.811482
_cell_length_c 18.768198
_cell_angle_alpha 90.000000
_cell_angle_beta 155.035147
_cell_angle_gamma 90.000000
_cell_volume 1351.508420
_symmetry_space_group_name_H-M "P 21/C"
_symmetry_group_IT_number 14
_symmetry_cell_setting 'monoclinic'
loop_
_space_group_symop_operation_xyz
x,y,z
-x,1/2+y,1/2-z
-x,-y,-z
x,1/2-y,1/2+z
loop_
_atom_site_type_symbol
_atom_site_label
_atom_site_fract_x
_atom_site_fract_y
_atom_site_fract_z
Si Si1 0.546742 0.159705 0.134646
Si Si2 0.836323 0.289490 0.095565
Si Si3 0.034159 0.715715 0.007616
Si Si4 0.563992 0.474793 0.806508
Si Si5 0.220294 0.929439 0.110317
Si Si6 0.296926 0.334925 0.582774
Si Si7 0.956707 0.972365 0.278714
Si Si8 0.250841 0.064873 0.744498
O O1 0.522893 0.128265 0.192246
O O2 0.664284 0.013891 0.234376
O O3 0.630229 0.337496 0.207342
O O4 0.389548 0.135195 0.933846
O O5 0.916803 0.170700 0.236307
O O6 0.922229 0.449473 0.154489
O O7 0.690058 0.361521 0.973967
O O8 0.819767 0.174816 0.005628
O O9 0.003676 0.606094 0.902595
O O10 0.883024 0.699597 0.890844
O O11 0.100283 0.889334 0.043941
O O12 0.166289 0.607987 0.182557
O O13 0.422691 0.476698 0.704793
O O14 0.627257 0.655158 0.849414
O O15 0.236648 0.121013 0.097574
O O16 0.178226 0.367354 0.396513
#
# Coordination Sequence:
#
# PCOD9239722 Si02
#       8
#     4   4   4   4   4   4   4   4
#     4   9  17  32  52  76 104 134 176 222 259 305
#     4   9  18  31  48  74 104 135 165 203 252 317
#     4   9  17  30  50  77 105 137 179 219 253 303
#     4  11  21  34  52  77 108 135 172 215 263 323
#     4   8  17  32  48  71 104 134 166 208 254 305
#     4  11  21  33  52  78 107 140 170 209 266 326
#     4  10  18  31  50  75 109 138 169 207 256 311
#     4   9  17  29  52  78  99 134 183 221 257 299
#
# _framework density 23.677247000000001
#
# number of rings (size 3 to 8) (size 9 to 14) (size 15 to 20)
#    0.000    2.500    0.000    4.500    0.000    0.000 
#    0.000    0.000    0.000    7.500    0.000   12.250 
#    0.000    3.000    0.000    0.000    0.000    0.000 
#
# Total GULP energy -178415.267411 kJ/mol
# GULP energy per Si atom -5575.477107 kJ/mol
# Density = 2.362336 g / cm^3
# Si number density = 23.677247 Si / 1000 Ang^3
#
#
#
# Elastic Constant Matrix: (Units=GPa)
#
#
# Indices 1 2 3 4 5 6 
#
# 1 74.2363 6.4672 20.2166 0.0000 28.3493 0.0000
# 2 6.4672 48.7473 6.1494 0.0000 -1.2561 0.0000
# 3 20.2166 6.1494 106.7462 0.0000 21.5630 0.0000
# 4 0.0000 0.0000 0.0000 16.0607 0.0000 9.6998
# 5 28.3493 -1.2561 21.5630 0.0000 33.4674 0.0000
# 6 0.0000 0.0000 0.0000 9.6998 0.0000 30.7776
#
#
#
# Elastic Compliance Matrix: (Units=1/GPa)
#
#
# Indices 1 2 3 4 5 6 
#
# 1 0.020388 -0.003125 -0.000194 0.000000 -0.017262 0.000000
# 2 -0.003125 0.021235 -0.001526 0.000000 0.004427 0.000000
# 3 -0.000194 -0.001526 0.010888 0.000000 -0.006908 0.000000
# 4 0.000000 0.000000 0.000000 0.076901 0.000000 -0.024236
# 5 -0.017262 0.004427 -0.006908 0.000000 0.049119 0.000000
# 6 0.000000 0.000000 0.000000 -0.024236 0.000000 0.040129
#
#
# Mechanical properties :
#
#
# Convention : Reuss Voigt Hill
#
# Bulk Modulus (GPa) = 23.35321 32.82179 28.08750
# Shear Modulus (GPa) = 20.60807 29.18759 24.89783
#
# Velocity S-wave (km/s) = 2.95341 3.51483 3.24628
# Velocity P-wave (km/s) = 4.63840 5.51038 5.09309
#
# Compressibility (1/GPa) = 0.04282067
#
# Stress axis : x y z
#
# Youngs Moduli (GPa) = 49.04946 47.09178 91.84328
#
# Poissons Ratio (x) = 0.14717 0.01784
# Poissons Ratio (y) = 0.15328 0.14013
# Poissons Ratio (z) = 0.00953 0.07185
#
# Static dielectric constant tensor:
#      x y z
#    x 1.884630 0.000000 0.012900 
#    y 0.000000 1.976090 0.000000 
#    z 0.012900 0.000000 1.942370 
# 
# From -- ./inp_files/75197.got.cif
#   From: 2010.05.17/outbox.cif.g08.bks.cpg/sg14_38_cif.got.tgz:75197.got - 2010.06.03 17:49:19.
