data_PCOD9239567
_publ_section_title
;
Structure prediction by ZEFSAII (Michael W. Deem and Ramdas Pophale) SiO2 
 PCOD9239567
Probable space group: P 21/C
;
_chemical_formula_sum "Si O2"
_cell_formula_units_Z 32
_cell_length_a 12.343274
_cell_length_b 11.846511
_cell_length_c 15.272723
_cell_angle_alpha 90.000000
_cell_angle_beta 147.087219
_cell_angle_gamma 90.000000
_cell_volume 1213.462485
_symmetry_space_group_name_H-M "P 21/C"
_symmetry_group_IT_number 14
_symmetry_cell_setting 'monoclinic'
loop_
_space_group_symop_operation_xyz
x,y,z
-x,1/2+y,1/2-z
-x,-y,-z
x,1/2-y,1/2+z
loop_
_atom_site_type_symbol
_atom_site_label
_atom_site_fract_x
_atom_site_fract_y
_atom_site_fract_z
Si Si1 0.588239 0.471016 0.234293
Si Si2 0.086423 0.266652 0.000355
Si Si3 0.509718 0.626875 0.662822
Si Si4 0.053338 0.595941 0.732559
Si Si5 0.283443 0.590988 0.247243
Si Si6 0.472385 0.699163 0.948333
Si Si7 0.263698 0.654421 0.027838
Si Si8 0.131623 0.384574 0.687332
O O1 0.603677 0.454309 0.346783
O O2 0.521904 0.356236 0.143533
O O3 0.412284 0.556895 0.096540
O O4 0.781799 0.524805 0.323274
O O5 0.307061 0.307911 0.167537
O O6 0.021419 0.203369 0.048119
O O7 0.081592 0.176977 0.918329
O O8 0.942569 0.372312 0.881017
O O9 0.633430 0.535549 0.689065
O O10 0.349242 0.728128 0.546165
O O11 0.275707 0.635536 0.851468
O O12 0.033312 0.464127 0.694366
O O13 0.056153 0.627016 0.837274
O O14 0.421377 0.670942 0.400221
O O15 0.281297 0.632958 0.143873
O O16 0.675477 0.674857 0.137528
#
# Coordination Sequence:
#
# PCOD9239567 Si02
#       8
#     4   4   4   4   4   4   4   4
#     4  10  18  34  65  91 114 148 214 255 303 337
#     4  11  23  41  59  91 133 167 200 248 330 372
#     4  11  22  39  65  85 128 169 206 248 307 379
#     4  10  20  35  61  91 125 160 203 264 309 360
#     4  10  24  39  60  93 130 165 207 254 313 380
#     4  10  17  36  63  93 114 154 212 259 302 355
#     4  11  19  40  62  91 121 168 211 261 297 358
#     4  11  19  37  68  95 120 157 213 269 300 360
#
# _framework density 26.370818
#
# number of rings (size 3 to 8) (size 9 to 14) (size 15 to 20)
#    0.000    1.500    5.000    1.500    0.000    0.000 
#    2.250    6.875    0.000    0.000    0.000    0.000 
#    0.000    0.000    0.000    0.000    0.000    0.000 
#
# Total GULP energy -178753.201844 kJ/mol
# GULP energy per Si atom -5586.037558 kJ/mol
# Density = 2.631080 g / cm^3
# Si number density = 26.370818 Si / 1000 Ang^3
#
#
#
# Elastic Constant Matrix: (Units=GPa)
#
#
# Indices 1 2 3 4 5 6 
#
# 1 27.6859 5.7644 10.3096 0.0000 -5.5400 0.0000
# 2 5.7644 70.4236 50.9745 0.0000 1.1331 0.0000
# 3 10.3096 50.9745 112.7648 0.0000 -3.9595 0.0000
# 4 0.0000 0.0000 0.0000 44.5205 0.0000 -3.9734
# 5 -5.5400 1.1331 -3.9595 0.0000 15.1318 0.0000
# 6 0.0000 0.0000 0.0000 -3.9734 0.0000 28.5179
#
#
#
# Elastic Compliance Matrix: (Units=1/GPa)
#
#
# Indices 1 2 3 4 5 6 
#
# 1 0.040226 -0.001816 -0.002356 0.000000 0.014247 0.000000
# 2 -0.001816 0.021444 -0.009697 0.000000 -0.004808 0.000000
# 3 -0.002356 -0.009697 0.013587 0.000000 0.003419 0.000000
# 4 0.000000 0.000000 0.000000 0.022744 0.000000 0.003169
# 5 0.014247 -0.004808 0.003419 0.000000 0.072556 0.000000
# 6 0.000000 0.000000 0.000000 0.003169 0.000000 0.035507
#
#
# Mechanical properties :
#
#
# Convention : Reuss Voigt Hill
#
# Bulk Modulus (GPa) = 21.04432 38.33012 29.68722
# Shear Modulus (GPa) = 20.02860 27.22243 23.62552
#
# Velocity S-wave (km/s) = 2.75889 3.21642 2.99640
# Velocity P-wave (km/s) = 4.25983 5.32545 4.82216
#
# Compressibility (1/GPa) = 0.04751876
#
# Stress axis : x y z
#
# Youngs Moduli (GPa) = 24.85958 46.63212 73.60109
#
# Poissons Ratio (x) = 0.08469 0.17344
# Poissons Ratio (y) = 0.04515 0.71368
# Poissons Ratio (z) = 0.05858 0.45217
#
# Static dielectric constant tensor:
#      x y z
#    x 2.210510 0.000000 -0.047160 
#    y 0.000000 2.101290 0.000000 
#    z -0.047160 0.000000 2.059170 
# 
# From -- ./inp_files/59500.got.cif
#   From: 2010.05.17/outbox.cif.g08.bks.cpg/sg14_30_cif.got.tgz:59500.got - 2010.06.03 17:49:19.
