data_PCOD9239200
_publ_section_title
;
Structure prediction by ZEFSAII (Michael W. Deem and Ramdas Pophale) SiO2 
 PCOD9239200
Probable space group: P 21/C
;
_chemical_formula_sum "Si O2"
_cell_formula_units_Z 24
_cell_length_a 11.334548
_cell_length_b 16.902358
_cell_length_c 7.233727
_cell_angle_alpha 90.000000
_cell_angle_beta 140.920050
_cell_angle_gamma 90.000000
_cell_volume 873.640411
_symmetry_space_group_name_H-M "P 21/C"
_symmetry_group_IT_number 14
_symmetry_cell_setting 'monoclinic'
loop_
_space_group_symop_operation_xyz
x,y,z
-x,1/2+y,1/2-z
-x,-y,-z
x,1/2-y,1/2+z
loop_
_atom_site_type_symbol
_atom_site_label
_atom_site_fract_x
_atom_site_fract_y
_atom_site_fract_z
Si Si1 0.020465 0.450724 0.834460
Si Si2 0.429685 0.355546 0.111958
Si Si3 0.584873 0.016736 0.305403
Si Si4 0.030428 0.186267 0.626440
Si Si5 0.541476 0.814410 0.918675
Si Si6 0.986801 0.357781 0.474348
O O1 0.204418 0.489406 0.972421
O O2 0.018760 0.364410 0.926958
O O3 0.908698 0.427557 0.510278
O O4 0.000000 0.500000 0.000000
O O5 0.503146 0.445722 0.177346
O O6 0.435294 0.340312 0.340339
O O7 0.531276 0.276017 0.164400
O O8 0.215233 0.357489 0.777513
O O9 0.549833 0.109900 0.296380
O O10 0.500000 0.000000 0.000000
O O11 0.934627 0.269984 0.477953
O O12 0.253615 0.195005 0.923181
O O13 0.955376 0.142934 0.716723
#
# Coordination Sequence:
#
# PCOD9239200 Si02
#       6
#     4   4   4   4   4   4
#     4  11  22  37  56  82 114 144 180 236 276 325
#     4   9  16  28  48  82 103 137 182 220 268 320
#     4   9  17  34  56  76 110 149 178 218 287 322
#     4  11  17  32  59  82 104 141 187 232 266 323
#     4  10  16  30  55  77 113 141 176 237 275 317
#     4  10  18  32  56  86 102 140 193 228 267 322
#
# _framework density 27.471256
#
# number of rings (size 3 to 8) (size 9 to 14) (size 15 to 20)
#    0.000    2.000    6.667    3.000    0.000    0.667 
#    0.000    7.500    7.333    0.000    0.000    0.000 
#    0.000    0.000    0.000    0.000    0.000    0.000 
#
# Total GULP energy -133815.368833 kJ/mol
# GULP energy per Si atom -5575.640368 kJ/mol
# Density = 2.740873 g / cm^3
# Si number density = 27.471256 Si / 1000 Ang^3
#
#
#
# Elastic Constant Matrix: (Units=GPa)
#
#
# Indices 1 2 3 4 5 6 
#
# 1 104.9723 46.3852 36.7189 0.0000 -8.1105 0.0000
# 2 46.3852 219.1392 41.1375 0.0000 -13.6557 0.0000
# 3 36.7189 41.1375 56.7401 0.0000 -36.8254 0.0000
# 4 0.0000 0.0000 0.0000 50.3786 0.0000 -27.6964
# 5 -8.1105 -13.6557 -36.8254 0.0000 39.4167 0.0000
# 6 0.0000 0.0000 0.0000 -27.6964 0.0000 47.2161
#
#
#
# Elastic Compliance Matrix: (Units=1/GPa)
#
#
# Indices 1 2 3 4 5 6 
#
# 1 0.015375 -0.000564 -0.019343 0.000000 -0.015103 0.000000
# 2 -0.000564 0.005628 -0.006414 0.000000 -0.004159 0.000000
# 3 -0.019343 -0.006414 0.078158 0.000000 0.066818 0.000000
# 4 0.000000 0.000000 0.000000 0.029298 0.000000 0.017186
# 5 -0.015103 -0.004159 0.066818 0.000000 0.083247 0.000000
# 6 0.000000 0.000000 0.000000 0.017186 0.000000 0.031260
#
#
# Mechanical properties :
#
#
# Convention : Reuss Voigt Hill
#
# Bulk Modulus (GPa) = 21.49691 69.92611 45.71151
# Shear Modulus (GPa) = 16.07129 44.50959 30.29044
#
# Velocity S-wave (km/s) = 2.42135 4.02957 3.32418
# Velocity P-wave (km/s) = 3.95720 6.86727 5.60441
#
# Compressibility (1/GPa) = 0.04651831
#
# Stress axis : x y z
#
# Youngs Moduli (GPa) = 65.04149 177.69240 12.79459
#
# Poissons Ratio (x) = 0.10030 0.24748
# Poissons Ratio (y) = 0.03671 0.08207
# Poissons Ratio (z) = 1.25807 1.13973
#
# Static dielectric constant tensor:
#      x y z
#    x 1.913940 0.000000 -0.166610 
#    y 0.000000 2.365550 0.000000 
#    z -0.166610 0.000000 1.920480 
# 
# From -- ./inp_files/13614.got.cif
#   From: 2010.05.17/outbox.cif.g08.bks.cpg/sg14_7_cif.got.tgz:13614.got - 2010.06.03 17:49:19.
