data_PCOD9239441
_publ_section_title
;
Structure prediction by ZEFSAII (Michael W. Deem and Ramdas Pophale) SiO2 
 PCOD9239441
Probable space group: P 21/C
;
_chemical_formula_sum "Si O2"
_cell_formula_units_Z 28
_cell_length_a 9.060759
_cell_length_b 14.074424
_cell_length_c 16.273596
_cell_angle_alpha 90.000000
_cell_angle_beta 33.615327
_cell_angle_gamma 90.000000
_cell_volume 1148.910164
_symmetry_space_group_name_H-M "P 21/C"
_symmetry_group_IT_number 14
_symmetry_cell_setting 'monoclinic'
loop_
_space_group_symop_operation_xyz
x,y,z
-x,1/2+y,1/2-z
-x,-y,-z
x,1/2-y,1/2+z
loop_
_atom_site_type_symbol
_atom_site_label
_atom_site_fract_x
_atom_site_fract_y
_atom_site_fract_z
Si Si1 0.565780 0.318560 0.162826
Si Si2 0.898068 0.088345 0.315226
Si Si3 0.047928 0.357681 0.030711
Si Si4 0.346969 0.721717 0.542760
Si Si5 0.511822 0.488481 0.865193
Si Si6 0.686933 0.049742 0.837351
Si Si7 0.333746 0.193490 0.946994
O O1 0.406766 0.416199 0.220433
O O2 0.476173 0.284471 0.293842
O O3 0.542667 0.245148 0.098709
O O4 0.876028 0.351045 0.028166
O O5 0.881152 0.199961 0.338134
O O6 0.689189 0.034236 0.472882
O O7 0.765078 0.061044 0.289753
O O8 0.195629 0.051519 0.194658
O O9 0.326604 0.414679 0.900457
O O10 0.065547 0.249913 0.056337
O O11 0.871839 0.413820 0.178139
O O12 0.546807 0.742800 0.526405
O O13 0.258003 0.616069 0.608227
O O14 0.398121 0.083411 0.937617
#
# Coordination Sequence:
#
# PCOD9239441 Si02
#       7
#     4   4   4   4   4   4   4
#     4  10  20  30  50  81 102 129 174 211 254 308
#     4   9  15  28  53  76  99 135 170 207 263 298
#     4  10  17  33  51  74 106 132 162 215 266 301
#     4   9  18  35  51  74 106 134 171 211 251 305
#     4   9  16  27  49  78 102 122 166 221 266 301
#     4   8  18  30  52  76  98 133 169 208 251 303
#     4   9  19  35  49  73 107 137 164 206 260 306
#
# _framework density 24.370923000000001
#
# number of rings (size 3 to 8) (size 9 to 14) (size 15 to 20)
#    0.857    2.000    1.429    0.429    2.000    2.286 
#    0.000    0.000    0.000    3.429    0.000    0.000 
#    0.000    0.000    0.000    0.000    0.000    0.000 
#
# Total GULP energy -155883.359683 kJ/mol
# GULP energy per Si atom -5567.262846 kJ/mol
# Density = 2.431545 g / cm^3
# Si number density = 24.370923 Si / 1000 Ang^3
#
#
#
# Elastic Constant Matrix: (Units=GPa)
#
#
# Indices 1 2 3 4 5 6 
#
# 1 85.8802 -11.7305 57.7450 0.0000 18.4761 0.0000
# 2 -11.7305 -0.7462 66.9341 0.0000 -15.3269 0.0000
# 3 57.7450 66.9341 -53.0005 0.0000 61.9097 0.0000
# 4 0.0000 0.0000 0.0000 32.1107 0.0000 2.2651
# 5 18.4761 -15.3269 61.9097 0.0000 26.5912 0.0000
# 6 0.0000 0.0000 0.0000 2.2651 0.0000 9.6831
#
#
#
# Elastic Compliance Matrix: (Units=1/GPa)
#
#
# Indices 1 2 3 4 5 6 
#
# 1 0.013670 -0.002054 -0.000048 0.000000 -0.010571 0.000000
# 2 -0.002054 0.023121 0.011882 0.000000 -0.012910 0.000000
# 3 -0.000048 0.011882 0.001109 0.000000 0.004300 0.000000
# 4 0.000000 0.000000 0.000000 0.031665 0.000000 -0.007407
# 5 -0.010571 -0.012910 0.004300 0.000000 0.027498 0.000000
# 6 0.000000 0.000000 0.000000 -0.007407 0.000000 0.105005
#
#
# Mechanical properties :
#
#
# Convention : Reuss Voigt Hill
#
# Bulk Modulus (GPa) = 17.40342 28.67011 23.03676
# Shear Modulus (GPa) = 24.79419 8.28934 16.54177
#
# Velocity S-wave (km/s) = 3.19308 1.84627 2.60811
# Velocity P-wave (km/s) = 4.55532 4.04160 4.30613
#
# Compressibility (1/GPa) = 0.05745999
#
# Stress axis : x y z
#
# Youngs Moduli (GPa) = 73.15369 43.25118 901.89581
#
# Poissons Ratio (x) = 0.08883 0.04304
# Poissons Ratio (y) = 0.15024 -10.71612
# Poissons Ratio (z) = 0.00349 -0.51390
#
# Static dielectric constant tensor:
#      x y z
#    x 1.928610 0.000000 -0.010290 
#    y 0.000000 2.047080 0.000000 
#    z -0.010290 0.000000 2.013900 
# 
# From -- ./inp_files/41561.got.cif
#   From: 2010.05.17/outbox.cif.g08.bks.cpg/sg14_21_cif.got.tgz:41561.got - 2010.06.03 17:49:19.
