data_PCOD9239185
_publ_section_title
;
Structure prediction by ZEFSAII (Michael W. Deem and Ramdas Pophale) SiO2 
 PCOD9239185
Probable space group: P 21/C
;
_chemical_formula_sum "Si O2"
_cell_formula_units_Z 32
_cell_length_a 15.413418
_cell_length_b 18.791846
_cell_length_c 5.482038
_cell_angle_alpha 90.000000
_cell_angle_beta 110.834349
_cell_angle_gamma 90.000000
_cell_volume 1484.027962
_symmetry_space_group_name_H-M "P 21/C"
_symmetry_group_IT_number 14
_symmetry_cell_setting 'monoclinic'
loop_
_space_group_symop_operation_xyz
x,y,z
-x,1/2+y,1/2-z
-x,-y,-z
x,1/2-y,1/2+z
loop_
_atom_site_type_symbol
_atom_site_label
_atom_site_fract_x
_atom_site_fract_y
_atom_site_fract_z
Si Si1 0.085455 0.975695 0.835455
Si Si2 0.521672 0.837610 0.771688
Si Si3 0.090065 0.354364 0.340065
Si Si4 0.596221 0.674862 0.846236
Si Si5 0.322133 0.795930 0.572137
Si Si6 0.808310 0.651831 0.058311
Si Si7 0.869524 0.002758 0.619524
Si Si8 0.885382 0.204186 0.635377
O O1 0.130554 0.952434 0.628747
O O2 0.100647 0.060469 0.850648
O O3 0.130554 0.952434 0.132361
O O4 0.974241 0.966090 0.724240
O O5 0.545953 0.752212 0.795973
O O6 0.566250 0.863750 0.564834
O O7 0.411336 0.846631 0.661341
O O8 0.566244 0.863750 0.067698
O O9 0.981616 0.338154 0.231613
O O10 0.137692 0.329365 0.638722
O O11 0.137693 0.329365 0.136664
O O12 0.706471 0.684746 0.956475
O O13 0.330657 0.750000 0.330662
O O14 0.218861 0.827233 0.468865
O O15 0.801649 0.564715 0.051650
O O16 0.889362 0.249999 0.389356
#
# Coordination Sequence:
#
# PCOD9239185 Si02
#       8
#     4   4   4   4   4   4   4   4
#     4   8  14  25  44  58  78 106 140 172 203 235
#     4  10  17  30  43  59  77 101 141 177 210 240
#     4  10  19  33  42  60  89 118 143 171 199 245
#     4  10  18  28  41  61  79 109 138 170 200 246
#     4  10  16  30  49  60  74  99 134 189 223 236
#     4  10  19  30  43  60  92 116 140 171 198 245
#     4   8  14  25  41  62  77 106 139 170 206 233
#     4  10  21  33  45  62  82 113 145 176 211 248
#
# _framework density 21.562933999999998
#
# number of rings (size 3 to 8) (size 9 to 14) (size 15 to 20)
#    0.000    2.500    2.500    1.500    0.000    0.000 
#   13.500    0.000    0.000    0.000    0.000    0.000 
#    0.000    2.000    0.000    0.000    0.000    8.000 
#
# Total GULP energy -178522.737813 kJ/mol
# GULP energy per Si atom -5578.835557 kJ/mol
# Density = 2.151386 g / cm^3
# Si number density = 21.562934 Si / 1000 Ang^3
#
#
#
# Elastic Constant Matrix: (Units=GPa)
#
#
# Indices 1 2 3 4 5 6 
#
# 1 150.1259 23.0628 75.0479 0.0000 -0.1884 0.0000
# 2 23.0628 22.8564 20.1077 0.0000 1.6412 0.0000
# 3 75.0479 20.1077 205.2873 0.0000 -30.4722 0.0000
# 4 0.0000 0.0000 0.0000 -14.0165 0.0000 7.6487
# 5 -0.1884 1.6412 -30.4722 0.0000 54.5337 0.0000
# 6 0.0000 0.0000 0.0000 7.6487 0.0000 -0.2523
#
#
#
# Elastic Compliance Matrix: (Units=1/GPa)
#
#
# Indices 1 2 3 4 5 6 
#
# 1 0.009113 -0.006547 -0.002897 0.000000 -0.001390 0.000000
# 2 -0.006547 0.053582 -0.003378 0.000000 -0.003523 0.000000
# 3 -0.002897 -0.003378 0.006842 0.000000 0.003915 0.000000
# 4 0.000000 0.000000 0.000000 0.004589 0.000000 0.139150
# 5 -0.001390 -0.003523 0.003915 0.000000 0.020626 0.000000
# 6 0.000000 0.000000 0.000000 0.139150 0.000000 0.254996
#
#
# Mechanical properties :
#
#
# Convention : Reuss Voigt Hill
#
# Bulk Modulus (GPa) = 22.78196 68.30069 45.54132
# Shear Modulus (GPa) = 12.81973 25.38975 19.10474
#
# Velocity S-wave (km/s) = 2.44094 3.43515 2.97980
# Velocity P-wave (km/s) = 4.30494 6.89039 5.74500
#
# Compressibility (1/GPa) = 0.04389438
#
# Stress axis : x y z
#
# Youngs Moduli (GPa) = 109.73160 18.66285 146.15454
#
# Poissons Ratio (x) = 0.12219 0.42334
# Poissons Ratio (y) = 0.71846 0.49366
# Poissons Ratio (z) = 0.31784 0.06304
#
# Static dielectric constant tensor:
#      x y z
#    x 1.763860 0.000000 -0.070840 
#    y 0.000000 1.925240 0.000000 
#    z -0.070840 0.000000 1.891340 
# 
# From -- ./inp_files/3343.got.cif
#   From: 2010.05.17/outbox.cif.g08.bks.cpg/sg14_2_cif.got.tgz:3343.got - 2010.06.03 17:49:19.
