data_PCOD9239733
_publ_section_title
;
Structure prediction by ZEFSAII (Michael W. Deem and Ramdas Pophale) SiO2 
 PCOD9239733
Probable space group: P 21/C
;
_chemical_formula_sum "Si O2"
_cell_formula_units_Z 30
_cell_length_a 9.949327
_cell_length_b 7.292885
_cell_length_c 29.728041
_cell_angle_alpha 90.000000
_cell_angle_beta 29.727320
_cell_angle_gamma 90.000000
_cell_volume 1069.620320
_symmetry_space_group_name_H-M "P 21/C"
_symmetry_group_IT_number 14
_symmetry_cell_setting 'monoclinic'
loop_
_space_group_symop_operation_xyz
x,y,z
-x,1/2+y,1/2-z
-x,-y,-z
x,1/2-y,1/2+z
loop_
_atom_site_type_symbol
_atom_site_label
_atom_site_fract_x
_atom_site_fract_y
_atom_site_fract_z
Si Si1 0.366183 0.585069 0.712404
Si Si2 0.012677 0.499748 0.598519
Si Si3 0.000000 0.500000 0.000000
Si Si4 0.560205 0.380206 0.407816
Si Si5 0.217307 0.606502 0.024508
Si Si6 0.249800 0.866121 0.338860
Si Si7 0.116419 0.194205 0.773132
Si Si8 0.218243 0.291177 0.145567
O O1 0.459656 0.638372 0.735899
O O2 0.305878 0.367956 0.727815
O O3 0.080774 0.687302 0.786286
O O4 0.528883 0.633956 0.618978
O O5 0.303401 0.394685 0.515034
O O6 0.091734 0.690857 0.551748
O O7 0.832776 0.343429 0.628469
O O8 0.894613 0.564667 0.680412
O O9 0.243483 0.538427 0.889188
O O10 0.218805 0.508404 0.976164
O O11 0.799314 0.249041 0.356203
O O12 0.708334 0.578052 0.368142
O O13 0.516048 0.631527 0.955857
O O14 0.994046 0.485334 0.113966
O O15 0.204383 0.120927 0.699353
#
# Coordination Sequence:
#
# PCOD9239733 Si02
#       8
#     4   4   2   4   4   4   4   4
#     4  10  19  34  54  80 117 148 177 223 270 316
#     4  11  20  35  57  81 108 145 183 222 271 319
#     4   8  20  40  56  82 104 140 182 232 274 320
#     4   9  20  33  49  81 117 148 182 217 262 329
#     4   9  20  39  55  80 108 138 180 231 261 331
#     4  10  21  37  58  80 104 144 178 227 272 325
#     4  10  18  31  51  80 116 149 180 219 261 327
#     4   9  19  33  53  78 114 150 177 218 275 315
#
# _framework density 28.047336000000001
#
# number of rings (size 3 to 8) (size 9 to 14) (size 15 to 20)
#    0.800    1.600    1.333    1.200    1.867    3.200 
#    0.000    0.000    0.000   12.800    0.000    0.000 
#    0.000    0.000    0.000    0.000    0.000    0.000 
#
# Total GULP energy -167085.165961 kJ/mol
# GULP energy per Si atom -5569.505532 kJ/mol
# Density = 2.798350 g / cm^3
# Si number density = 28.047336 Si / 1000 Ang^3
#
#
#
# Elastic Constant Matrix: (Units=GPa)
#
#
# Indices 1 2 3 4 5 6 
#
# 1 60.2968 10.7920 41.8603 0.0000 15.3755 0.0000
# 2 10.7920 95.9208 35.4306 0.0000 -9.8055 0.0000
# 3 41.8603 35.4306 71.9991 0.0000 28.5371 0.0000
# 4 0.0000 0.0000 0.0000 42.0877 0.0000 -9.0405
# 5 15.3755 -9.8055 28.5371 0.0000 64.7083 0.0000
# 6 0.0000 0.0000 0.0000 -9.0405 0.0000 13.9176
#
#
#
# Elastic Compliance Matrix: (Units=1/GPa)
#
#
# Indices 1 2 3 4 5 6 
#
# 1 0.029110 0.004442 -0.020160 0.000000 0.002647 0.000000
# 2 0.004442 0.015420 -0.012940 0.000000 0.006988 0.000000
# 3 -0.020160 -0.012940 0.037392 0.000000 -0.013661 0.000000
# 4 0.000000 0.000000 0.000000 0.027613 0.000000 0.017937
# 5 0.002647 0.006988 -0.013661 0.000000 0.021909 0.000000
# 6 0.000000 0.000000 0.000000 0.017937 0.000000 0.083502
#
#
# Mechanical properties :
#
#
# Convention : Reuss Voigt Hill
#
# Bulk Modulus (GPa) = 40.63983 44.93140 42.78561
# Shear Modulus (GPa) = 17.82761 33.48497 25.65629
#
# Velocity S-wave (km/s) = 2.52390 3.45900 3.02776
# Velocity P-wave (km/s) = 4.79735 5.65752 5.24510
#
# Compressibility (1/GPa) = 0.02460640
#
# Stress axis : x y z
#
# Youngs Moduli (GPa) = 34.35216 64.85252 26.74346
#
# Poissons Ratio (x) = -0.28806 0.53914
# Poissons Ratio (y) = -0.15259 0.34606
# Poissons Ratio (z) = 0.69252 0.83920
#
# Static dielectric constant tensor:
#      x y z
#    x 2.434910 0.000000 0.096650 
#    y 0.000000 2.176570 0.000000 
#    z 0.096650 0.000000 2.424940 
# 
# From -- ./inp_files/77032.got.cif
#   From: 2010.05.17/outbox.cif.g08.bks.cpg/sg14_39_cif.got.tgz:77032.got - 2010.06.03 17:49:19.
