data_PCOD9239608
_publ_section_title
;
Structure prediction by ZEFSAII (Michael W. Deem and Ramdas Pophale) SiO2 
 PCOD9239608
Probable space group: P 21/C
;
_chemical_formula_sum "Si O2"
_cell_formula_units_Z 32
_cell_length_a 28.721040
_cell_length_b 8.873555
_cell_length_c 12.202960
_cell_angle_alpha 90.000000
_cell_angle_beta 150.627773
_cell_angle_gamma 90.000000
_cell_volume 1525.406283
_symmetry_space_group_name_H-M "P 21/C"
_symmetry_group_IT_number 14
_symmetry_cell_setting 'monoclinic'
loop_
_space_group_symop_operation_xyz
x,y,z
-x,1/2+y,1/2-z
-x,-y,-z
x,1/2-y,1/2+z
loop_
_atom_site_type_symbol
_atom_site_label
_atom_site_fract_x
_atom_site_fract_y
_atom_site_fract_z
Si Si1 0.073147 0.864231 0.878972
Si Si2 0.673108 0.994619 0.142751
Si Si3 0.187754 0.888472 0.894842
Si Si4 0.124865 0.984202 0.534868
Si Si5 0.235693 0.591236 0.860741
Si Si6 0.349929 0.832838 0.380125
Si Si7 0.457940 0.086916 0.310516
Si Si8 0.403964 0.398942 0.308740
O O1 0.109387 0.892450 0.829638
O O2 0.093095 0.688558 0.946091
O O3 0.140107 0.958349 0.100776
O O4 0.964557 0.909648 0.667843
O O5 0.785199 0.978860 0.356744
O O6 0.648855 0.156280 0.146204
O O7 0.624299 0.873710 0.122085
O O8 0.625878 0.992509 0.926549
O O9 0.159253 0.987428 0.732064
O O10 0.202784 0.720021 0.877444
O O11 0.286092 0.920689 0.160139
O O12 0.297731 0.661662 0.889097
O O13 0.308236 0.474401 0.063084
O O14 0.454926 0.895312 0.595198
O O15 0.425000 0.248365 0.285785
O O16 0.500000 0.000000 0.500000
O O17 0.500000 0.500000 0.500000
#
# Coordination Sequence:
#
# PCOD9239608 Si02
#       8
#     4   4   4   4   4   4   4   4
#     4  10  22  38  65  94 129 172 219 274 334 392
#     4  12  24  43  70  94 135 176 222 275 328 400
#     4  10  17  39  67  97 117 175 218 267 328 396
#     4  11  22  42  65  95 133 172 225 274 337 393
#     4  10  20  38  67  95 125 171 229 263 327 402
#     4  11  21  40  69  92 132 174 220 264 332 401
#     4  12  29  41  64 103 133 172 221 273 331 398
#     4  12  24  42  69  95 132 177 220 267 337 397
#
# _framework density 20.978016
#
# number of rings (size 3 to 8) (size 9 to 14) (size 15 to 20)
#    0.000    1.000    6.250    1.875    3.500    1.000 
#    0.000   10.625    0.000    0.000    0.000    0.000 
#    0.000    0.000    0.000    0.000    0.000    0.000 
#
# Total GULP energy -178740.553608 kJ/mol
# GULP energy per Si atom -5585.642300 kJ/mol
# Density = 2.093027 g / cm^3
# Si number density = 20.978016 Si / 1000 Ang^3
#
#
#
# Elastic Constant Matrix: (Units=GPa)
#
#
# Indices 1 2 3 4 5 6 
#
# 1 74.8305 2.7310 54.6384 0.0000 17.2520 0.0000
# 2 2.7310 20.1499 31.3181 0.0000 8.0748 0.0000
# 3 54.6384 31.3181 133.6911 0.0000 20.5561 0.0000
# 4 0.0000 0.0000 0.0000 30.1942 0.0000 3.9590
# 5 17.2520 8.0748 20.5561 0.0000 44.0464 0.0000
# 6 0.0000 0.0000 0.0000 3.9590 0.0000 25.0629
#
#
#
# Elastic Compliance Matrix: (Units=1/GPa)
#
#
# Indices 1 2 3 4 5 6 
#
# 1 0.024191 0.020762 -0.013691 0.000000 -0.006892 0.000000
# 2 0.020762 0.097477 -0.029434 0.000000 -0.012265 0.000000
# 3 -0.013691 -0.029434 0.019732 0.000000 0.001550 0.000000
# 4 0.000000 0.000000 0.000000 0.033819 0.000000 -0.005342
# 5 -0.006892 -0.012265 0.001550 0.000000 0.026928 0.000000
# 6 0.000000 0.000000 0.000000 -0.005342 0.000000 0.040743
#
#
# Mechanical properties :
#
#
# Convention : Reuss Voigt Hill
#
# Bulk Modulus (GPa) = 10.34395 45.11628 27.73012
# Shear Modulus (GPa) = 15.63272 29.19298 22.41285
#
# Velocity S-wave (km/s) = 2.73279 3.73446 3.27218
# Velocity P-wave (km/s) = 3.85993 6.33625 5.24629
#
# Compressibility (1/GPa) = 0.09667482
#
# Stress axis : x y z
#
# Youngs Moduli (GPa) = 41.33750 10.25880 50.67903
#
# Poissons Ratio (x) = -0.21299 0.69383
# Poissons Ratio (y) = -0.85824 1.49169
# Poissons Ratio (z) = 0.56594 0.30196
#
# Static dielectric constant tensor:
#      x y z
#    x 1.756380 0.000000 -0.039270 
#    y 0.000000 1.852570 0.000000 
#    z -0.039270 0.000000 1.779120 
# 
# From -- ./inp_files/36449.got.cif
#   From: 2010.05.17/outbox.cif.g08.bks.cpg/sg14_19_cif.got.tgz:36449.got - 2010.06.03 17:49:19.
