data_PCOD9239294
_publ_section_title
;
Structure prediction by ZEFSAII (Michael W. Deem and Ramdas Pophale) SiO2 
 PCOD9239294
Probable space group: P 21/C
;
_chemical_formula_sum "Si O2"
_cell_formula_units_Z 32
_cell_length_a 17.633577
_cell_length_b 5.450281
_cell_length_c 30.773623
_cell_angle_alpha 90.000000
_cell_angle_beta 154.644251
_cell_angle_gamma 90.000000
_cell_volume 1266.550383
_symmetry_space_group_name_H-M "P 21/C"
_symmetry_group_IT_number 14
_symmetry_cell_setting 'monoclinic'
loop_
_space_group_symop_operation_xyz
x,y,z
-x,1/2+y,1/2-z
-x,-y,-z
x,1/2-y,1/2+z
loop_
_atom_site_type_symbol
_atom_site_label
_atom_site_fract_x
_atom_site_fract_y
_atom_site_fract_z
Si Si1 0.057756 0.397921 0.757991
Si Si2 0.277156 0.614451 0.046692
Si Si3 0.301497 0.388730 0.584344
Si Si4 0.711942 0.382494 0.777798
Si Si5 0.808038 0.882595 0.242329
Si Si6 0.340403 0.380910 0.706895
Si Si7 0.458306 0.617645 0.051248
Si Si8 0.628991 0.246822 0.585809
O O1 0.037458 0.282016 0.699118
O O2 0.258032 0.495201 0.860978
O O3 0.968529 0.661014 0.724153
O O4 0.197537 0.357684 0.019424
O O5 0.461625 0.620405 0.170194
O O6 0.320758 0.613896 0.018533
O O7 0.192352 0.871229 0.015075
O O8 0.493541 0.381138 0.658368
O O9 0.349199 0.398918 0.659720
O O10 0.815552 0.438418 0.787058
O O11 0.744353 0.621151 0.824287
O O12 0.750291 0.123100 0.820116
O O13 0.643172 0.704498 0.168102
O O14 0.744786 0.053578 0.169711
O O15 0.482865 0.347285 0.043829
O O16 0.416112 0.794615 0.987907
#
# Coordination Sequence:
#
# PCOD9239294 Si02
#       8
#     4   4   4   4   4   4   4   4
#     4  11  23  41  58  75  97 136 186 227 277 316
#     4  10  17  28  41  62  96 135 175 203 236 290
#     4  10  17  27  42  61  96 142 178 197 241 298
#     4  10  18  26  44  66  95 128 176 203 249 294
#     4  11  20  34  56  76 108 140 182 220 265 318
#     4  10  17  27  41  64  95 142 174 202 240 302
#     4  10  20  32  49  82 109 141 180 215 258 320
#     4  10  21  35  55  77 105 142 176 223 266 316
#
# _framework density 25.265476
#
# number of rings (size 3 to 8) (size 9 to 14) (size 15 to 20)
#    0.000    1.750    3.750    5.625    1.750    0.000 
#    0.000    0.000    0.000    0.000    0.000    0.000 
#    0.000    0.000    0.000   38.250    0.000    0.000 
#
# Total GULP energy -178575.230397 kJ/mol
# GULP energy per Si atom -5580.475950 kJ/mol
# Density = 2.520797 g / cm^3
# Si number density = 25.265476 Si / 1000 Ang^3
#
#
#
# Elastic Constant Matrix: (Units=GPa)
#
#
# Indices 1 2 3 4 5 6 
#
# 1 84.1870 39.3304 37.0626 0.0000 -29.3721 0.0000
# 2 39.3304 199.8565 19.9483 0.0000 -6.0285 0.0000
# 3 37.0626 19.9483 52.5618 0.0000 -14.7144 0.0000
# 4 0.0000 0.0000 0.0000 45.0575 0.0000 -21.3062
# 5 -29.3721 -6.0285 -14.7144 0.0000 19.2299 0.0000
# 6 0.0000 0.0000 0.0000 -21.3062 0.0000 51.3667
#
#
#
# Elastic Compliance Matrix: (Units=1/GPa)
#
#
# Indices 1 2 3 4 5 6 
#
# 1 0.032261 -0.004145 -0.009855 0.000000 0.040436 0.000000
# 2 -0.004145 0.005734 -0.000665 0.000000 -0.005043 0.000000
# 3 -0.009855 -0.000665 0.027939 0.000000 0.006117 0.000000
# 4 0.000000 0.000000 0.000000 0.027609 0.000000 0.011452
# 5 0.040436 -0.005043 0.006117 0.000000 0.116864 0.000000
# 6 0.000000 0.000000 0.000000 0.011452 0.000000 0.024218
#
#
# Mechanical properties :
#
#
# Convention : Reuss Voigt Hill
#
# Bulk Modulus (GPa) = 27.31996 58.80978 43.06487
# Shear Modulus (GPa) = 18.10563 39.14841 28.62702
#
# Velocity S-wave (km/s) = 2.67987 3.94062 3.36973
# Velocity P-wave (km/s) = 4.51799 6.63565 5.67645
#
# Compressibility (1/GPa) = 0.03660328
#
# Stress axis : x y z
#
# Youngs Moduli (GPa) = 30.99680 174.40998 35.79216
#
# Poissons Ratio (x) = 0.72300 0.35274
# Poissons Ratio (y) = 0.12850 0.02379
# Poissons Ratio (z) = 0.30548 0.11594
#
# Static dielectric constant tensor:
#      x y z
#    x 2.105770 0.000000 0.083640 
#    y 0.000000 2.102750 0.000000 
#    z 0.083640 0.000000 2.073470 
# 
# From -- ./inp_files/80233.got.cif
#   From: 2010.05.17/outbox.cif.g08.bks.cpg/sg14_41_cif.got.tgz:80233.got - 2010.06.03 17:49:19.
