data_PCOD9239679
_publ_section_title
;
Structure prediction by ZEFSAII (Michael W. Deem and Ramdas Pophale) SiO2 
 PCOD9239679
Probable space group: P 21/C
;
_chemical_formula_sum "Si O2"
_cell_formula_units_Z 28
_cell_length_a 12.823686
_cell_length_b 15.502506
_cell_length_c 5.591727
_cell_angle_alpha 90.000000
_cell_angle_beta 76.729529
_cell_angle_gamma 90.000000
_cell_volume 1081.947692
_symmetry_space_group_name_H-M "P 21/C"
_symmetry_group_IT_number 14
_symmetry_cell_setting 'monoclinic'
loop_
_space_group_symop_operation_xyz
x,y,z
-x,1/2+y,1/2-z
-x,-y,-z
x,1/2-y,1/2+z
loop_
_atom_site_type_symbol
_atom_site_label
_atom_site_fract_x
_atom_site_fract_y
_atom_site_fract_z
Si Si1 0.762834 0.939552 0.599790
Si Si2 0.633081 0.765960 0.667900
Si Si3 0.926184 0.299955 0.575671
Si Si4 0.356407 0.872855 0.332121
Si Si5 0.452602 0.468899 0.275329
Si Si6 0.279452 0.891827 0.870027
Si Si7 0.835392 0.630022 0.562443
O O1 0.671099 0.865723 0.645131
O O2 0.827714 0.919906 0.321305
O O3 0.708207 0.033049 0.628890
O O4 0.825677 0.920841 0.814321
O O5 0.579335 0.748312 0.447015
O O6 0.738282 0.701295 0.614441
O O7 0.905028 0.258738 0.849934
O O8 0.847757 0.382129 0.585026
O O9 0.050768 0.323310 0.501619
O O10 0.485288 0.878758 0.256073
O O11 0.316243 0.845034 0.093556
O O12 0.335377 0.987652 0.841434
O O13 0.325773 0.843479 0.612998
O O14 0.500000 0.500000 0.500000
O O15 0.500000 0.500000 0.000000
#
# Coordination Sequence:
#
# PCOD9239679 Si02
#       7
#     4   4   4   4   4   4   4
#     4  10  18  30  51  76 105 136 173 217 258 308
#     4   8  14  25  42  62  88 122 166 207 234 278
#     4  12  23  38  59  79 101 142 188 230 272 313
#     4  10  19  35  56  82 110 144 175 214 273 332
#     4   8  16  32  56  77 101 135 170 205 252 316
#     4  10  21  37  55  81 109 136 182 229 266 325
#     4  10  19  33  50  73 102 141 186 220 254 312
#
# _framework density 25.879252999999999
#
# number of rings (size 3 to 8) (size 9 to 14) (size 15 to 20)
#    0.000    2.286    0.000    5.143    0.000    0.000 
#    0.000    4.286    0.000    5.143    0.000    0.000 
#    0.000    0.000    0.000    0.000    0.000    0.000 
#
# Total GULP energy -156119.373716 kJ/mol
# GULP energy per Si atom -5575.691918 kJ/mol
# Density = 2.582035 g / cm^3
# Si number density = 25.879253 Si / 1000 Ang^3
#
#
#
# Elastic Constant Matrix: (Units=GPa)
#
#
# Indices 1 2 3 4 5 6 
#
# 1 81.9973 28.3151 23.3494 0.0000 18.8734 0.0000
# 2 28.3151 75.6895 15.6952 0.0000 10.4774 0.0000
# 3 23.3494 15.6952 225.6189 0.0000 48.1902 0.0000
# 4 0.0000 0.0000 0.0000 -10.0047 0.0000 2.5344
# 5 18.8734 10.4774 48.1902 0.0000 32.0756 0.0000
# 6 0.0000 0.0000 0.0000 2.5344 0.0000 34.7322
#
#
#
# Elastic Compliance Matrix: (Units=1/GPa)
#
#
# Indices 1 2 3 4 5 6 
#
# 1 0.015640 -0.004793 0.000510 0.000000 -0.008402 0.000000
# 2 -0.004793 0.015307 -0.000152 0.000000 -0.001951 0.000000
# 3 0.000510 -0.000152 0.006543 0.000000 -0.010081 0.000000
# 4 0.000000 0.000000 0.000000 -0.098139 0.000000 0.007161
# 5 -0.008402 -0.001951 -0.010081 0.000000 0.051903 0.000000
# 6 0.000000 0.000000 0.000000 0.007161 0.000000 0.028269
#
#
# Mechanical properties :
#
#
# Convention : Reuss Voigt Hill
#
# Bulk Modulus (GPa) = 34.94309 57.55831 46.25070
# Shear Modulus (GPa) = 131.81132 32.42370 82.11751
#
# Velocity S-wave (km/s) = 7.14449 3.54345 5.63914
# Velocity P-wave (km/s) = 9.03272 6.24746 7.76598
#
# Compressibility (1/GPa) = 0.02861796
#
# Stress axis : x y z
#
# Youngs Moduli (GPa) = 63.94045 65.33123 152.82935
#
# Poissons Ratio (x) = 0.31315 -0.07787
# Poissons Ratio (y) = 0.30648 0.02323
# Poissons Ratio (z) = -0.03258 0.00993
#
# Static dielectric constant tensor:
#      x y z
#    x 2.031580 0.000000 0.001090 
#    y 0.000000 2.206570 0.000000 
#    z 0.001090 0.000000 2.065440 
# 
# From -- ./inp_files/3839.got.cif
#   From: 2010.05.17/outbox.cif.g08.bks.cpg/sg14_2_cif.got.tgz:3839.got - 2010.06.03 17:49:19.
