data_PCOD9239134
_publ_section_title
;
Structure prediction by ZEFSAII (Michael W. Deem and Ramdas Pophale) SiO2 
 PCOD9239134
Probable space group: P 21/C
;
_chemical_formula_sum "Si O2"
_cell_formula_units_Z 32
_cell_length_a 9.550859
_cell_length_b 14.231710
_cell_length_c 11.591381
_cell_angle_alpha 90.000000
_cell_angle_beta 110.136179
_cell_angle_gamma 90.000000
_cell_volume 1479.256307
_symmetry_space_group_name_H-M "P 21/C"
_symmetry_group_IT_number 14
_symmetry_cell_setting 'monoclinic'
loop_
_space_group_symop_operation_xyz
x,y,z
-x,1/2+y,1/2-z
-x,-y,-z
x,1/2-y,1/2+z
loop_
_atom_site_type_symbol
_atom_site_label
_atom_site_fract_x
_atom_site_fract_y
_atom_site_fract_z
Si Si1 0.677228 0.342069 0.816315
Si Si2 0.279591 0.827730 0.914796
Si Si3 0.401553 0.212458 0.650491
Si Si4 0.881530 0.330697 0.416787
Si Si5 0.568291 0.908508 0.132791
Si Si6 0.372710 0.613347 0.944002
Si Si7 0.328475 0.992273 0.223763
Si Si8 0.786194 0.624066 0.495656
O O1 0.720918 0.383234 0.704985
O O2 0.531005 0.280976 0.739285
O O3 0.818117 0.273995 0.883399
O O4 0.636319 0.397092 0.920769
O O5 0.139368 0.852267 0.953583
O O6 0.282275 0.713710 0.900118
O O7 0.431758 0.854262 0.027380
O O8 0.351187 0.156523 0.749322
O O9 0.475801 0.144504 0.577310
O O10 0.283889 0.274840 0.550686
O O11 0.758295 0.395365 0.323161
O O12 0.043698 0.359606 0.422291
O O13 0.479971 0.982772 0.189825
O O14 0.685799 0.927855 0.064246
O O15 0.337096 0.517187 0.864241
O O16 0.233953 0.070416 0.131739
#
# Coordination Sequence:
#
# PCOD9239134 Si02
#       8
#     4   4   4   4   4   4   4   4
#     4  10  15  32  59  72  96 142 188 211 254 325
#     4   9  15  31  57  73  93 139 184 209 252 316
#     4  10  17  32  53  77 105 133 176 227 257 304
#     4  10  20  32  51  79 106 141 169 221 271 316
#     4  10  18  35  56  77 105 142 178 215 261 316
#     4   9  15  31  57  73  96 141 184 210 250 321
#     4  10  20  36  52  77 115 144 171 213 276 331
#     4  12  22  31  52  89 110 132 175 231 273 303
#
# _framework density 21.632491000000002
#
# number of rings (size 3 to 8) (size 9 to 14) (size 15 to 20)
#    0.000    2.000    8.750    0.750    0.000    1.000 
#    0.000    0.625    0.000    0.750    0.000    0.000 
#    0.000    0.000    0.000    0.000    0.000    0.000 
#
# Total GULP energy -178158.161823 kJ/mol
# GULP energy per Si atom -5567.442557 kJ/mol
# Density = 2.158325 g / cm^3
# Si number density = 21.632491 Si / 1000 Ang^3
#
#
#
# Elastic Constant Matrix: (Units=GPa)
#
#
# Indices 1 2 3 4 5 6 
#
# 1 90.4369 5.0160 35.6409 0.0000 -4.3356 0.0000
# 2 5.0160 24.6927 12.7818 0.0000 -0.7738 0.0000
# 3 35.6409 12.7818 113.0383 0.0000 -38.0050 0.0000
# 4 0.0000 0.0000 0.0000 38.1004 0.0000 -7.6946
# 5 -4.3356 -0.7738 -38.0050 0.0000 23.8367 0.0000
# 6 0.0000 0.0000 0.0000 -7.6946 0.0000 14.7657
#
#
#
# Elastic Compliance Matrix: (Units=1/GPa)
#
#
# Indices 1 2 3 4 5 6 
#
# 1 0.013547 0.000888 -0.007617 0.000000 -0.009651 0.000000
# 2 0.000888 0.045257 -0.010452 0.000000 -0.015034 0.000000
# 3 -0.007617 -0.010452 0.025542 0.000000 0.038999 0.000000
# 4 0.000000 0.000000 0.000000 0.029334 0.000000 0.015286
# 5 -0.009651 -0.015034 0.038999 0.000000 0.101888 0.000000
# 6 0.000000 0.000000 0.000000 0.015286 0.000000 0.075690
#
#
# Mechanical properties :
#
#
# Convention : Reuss Voigt Hill
#
# Bulk Modulus (GPa) = 20.00604 37.22724 28.61664
# Shear Modulus (GPa) = 14.60790 26.98917 20.79854
#
# Velocity S-wave (km/s) = 2.60143 3.53600 3.10409
# Velocity P-wave (km/s) = 4.27685 5.82386 5.10925
#
# Compressibility (1/GPa) = 0.04998490
#
# Stress axis : x y z
#
# Youngs Moduli (GPa) = 73.81604 22.09618 39.15121
#
# Poissons Ratio (x) = -0.01963 0.29820
# Poissons Ratio (y) = -0.06557 0.40921
# Poissons Ratio (z) = 0.56223 0.23095
#
# Static dielectric constant tensor:
#      x y z
#    x 1.768510 0.000000 -0.043920 
#    y 0.000000 1.862520 0.000000 
#    z -0.043920 0.000000 1.894370 
# 
# From -- ./inp_files/26125.got.cif
#   From: 2010.05.17/outbox.cif.g08.bks.cpg/sg14_14_cif.got.tgz:26125.got - 2010.06.03 17:49:19.
