data_PCOD9239790
_publ_section_title
;
Structure prediction by ZEFSAII (Michael W. Deem and Ramdas Pophale) SiO2 
 PCOD9239790
Probable space group: P 21/C
;
_chemical_formula_sum "Si O2"
_cell_formula_units_Z 28
_cell_length_a 16.031993
_cell_length_b 14.286206
_cell_length_c 5.523058
_cell_angle_alpha 90.000000
_cell_angle_beta 100.301937
_cell_angle_gamma 90.000000
_cell_volume 1244.588301
_symmetry_space_group_name_H-M "P 21/C"
_symmetry_group_IT_number 14
_symmetry_cell_setting 'monoclinic'
loop_
_space_group_symop_operation_xyz
x,y,z
-x,1/2+y,1/2-z
-x,-y,-z
x,1/2-y,1/2+z
loop_
_atom_site_type_symbol
_atom_site_label
_atom_site_fract_x
_atom_site_fract_y
_atom_site_fract_z
Si Si1 0.519757 0.599927 0.884926
Si Si2 0.147057 0.052324 0.575450
Si Si3 0.900540 0.467340 0.448319
Si Si4 0.306145 0.189594 0.643922
Si Si5 0.579026 0.229986 0.962354
Si Si6 0.166312 0.761457 0.104032
Si Si7 0.988192 0.699018 0.003653
O O1 0.615535 0.616986 0.848508
O O2 0.459172 0.628484 0.625753
O O3 0.500000 0.500000 0.000000
O O4 0.494957 0.689711 0.043490
O O5 0.218992 0.131722 0.603821
O O6 0.055531 0.100559 0.527844
O O7 0.147831 0.000884 0.318551
O O8 0.147943 0.001144 0.834514
O O9 0.888492 0.356361 0.433536
O O10 0.000000 0.500000 0.500000
O O11 0.310236 0.254982 0.403602
O O12 0.623091 0.265243 0.742309
O O13 0.213258 0.748853 0.878804
O O14 0.089005 0.687940 0.059084
O O15 0.962466 0.751922 0.742833
#
# Coordination Sequence:
#
# PCOD9239790 Si02
#       7
#     4   4   4   4   4   4   4
#     4  10  20  37  64  95 131 175 214 264 315 379
#     4  12  24  37  58  87 122 160 199 258 326 379
#     4  12  23  38  57  86 119 151 210 270 305 374
#     4  12  23  43  63  94 139 176 204 261 323 405
#     4   8  16  34  50  88 128 152 212 248 308 366
#     4  10  19  33  53  75  98 139 185 240 303 352
#     4  10  18  32  48  73 103 137 184 221 291 363
#
# _framework density 22.497399999999999
#
# number of rings (size 3 to 8) (size 9 to 14) (size 15 to 20)
#    0.857    0.571    1.429    7.286    0.000    0.571 
#    0.000    0.000    0.000    0.000   11.143    0.000 
#    0.000    0.000    0.000    0.000    0.000    0.000 
#
# Total GULP energy -156043.942660 kJ/mol
# GULP energy per Si atom -5572.997952 kJ/mol
# Density = 2.244619 g / cm^3
# Si number density = 22.497400 Si / 1000 Ang^3
#
#
#
# Elastic Constant Matrix: (Units=GPa)
#
#
# Indices 1 2 3 4 5 6 
#
# 1 87.7665 20.4148 30.4372 0.0000 -13.1761 0.0000
# 2 20.4148 66.6130 41.3379 0.0000 -12.0772 0.0000
# 3 30.4372 41.3379 233.3537 0.0000 -27.8167 0.0000
# 4 0.0000 0.0000 0.0000 35.8781 0.0000 -18.9007
# 5 -13.1761 -12.0772 -27.8167 0.0000 24.2363 0.0000
# 6 0.0000 0.0000 0.0000 -18.9007 0.0000 18.4331
#
#
#
# Elastic Compliance Matrix: (Units=1/GPa)
#
#
# Indices 1 2 3 4 5 6 
#
# 1 0.012986 -0.002686 -0.000621 0.000000 0.005009 0.000000
# 2 -0.002686 0.018147 -0.002271 0.000000 0.004976 0.000000
# 3 -0.000621 -0.002271 0.005322 0.000000 0.004638 0.000000
# 4 0.000000 0.000000 0.000000 0.060613 0.000000 0.062151
# 5 0.005009 0.004976 0.004638 0.000000 0.051786 0.000000
# 6 0.000000 0.000000 0.000000 0.062151 0.000000 0.117977
#
#
# Mechanical properties :
#
#
# Convention : Reuss Voigt Hill
#
# Bulk Modulus (GPa) = 39.52956 63.56813 51.54885
# Shear Modulus (GPa) = 17.45681 35.41238 26.43460
#
# Velocity S-wave (km/s) = 2.78861 3.97175 3.43156
# Velocity P-wave (km/s) = 5.28936 7.02497 6.21802
#
# Compressibility (1/GPa) = 0.02529752
#
# Stress axis : x y z
#
# Youngs Moduli (GPa) = 77.00607 55.10586 187.91445
#
# Poissons Ratio (x) = 0.14804 0.11667
# Poissons Ratio (y) = 0.20687 0.42678
# Poissons Ratio (z) = 0.04781 0.12515
#
# Static dielectric constant tensor:
#      x y z
#    x 1.794840 0.000000 -0.032240 
#    y 0.000000 1.892420 0.000000 
#    z -0.032240 0.000000 1.970030 
# 
# From -- ./inp_files/4114.got.cif
#   From: 2010.05.17/outbox.cif.g08.bks.cpg/sg14_3_cif.got.tgz:4114.got - 2010.06.03 17:49:19.
