data_PCOD9239911
_publ_section_title
;
Structure prediction by ZEFSAII (Michael W. Deem and Ramdas Pophale) SiO2 
 PCOD9239911
Probable space group: P 21/C
;
_chemical_formula_sum "Si O2"
_cell_formula_units_Z 28
_cell_length_a 7.537083
_cell_length_b 17.530476
_cell_length_c 12.729115
_cell_angle_alpha 90.000000
_cell_angle_beta 125.252370
_cell_angle_gamma 90.000000
_cell_volume 1373.453611
_symmetry_space_group_name_H-M "P 21/C"
_symmetry_group_IT_number 14
_symmetry_cell_setting 'monoclinic'
loop_
_space_group_symop_operation_xyz
x,y,z
-x,1/2+y,1/2-z
-x,-y,-z
x,1/2-y,1/2+z
loop_
_atom_site_type_symbol
_atom_site_label
_atom_site_fract_x
_atom_site_fract_y
_atom_site_fract_z
Si Si1 0.963474 0.984490 0.806133
Si Si2 0.477268 0.735052 0.785388
Si Si3 0.696896 0.238516 0.979501
Si Si4 0.282283 0.621018 0.330682
Si Si5 0.849814 0.350019 0.207718
Si Si6 0.702007 0.544214 0.414076
Si Si7 0.891336 0.710764 0.528778
O O1 0.043351 0.915206 0.760268
O O2 0.756919 0.974034 0.812059
O O3 0.069465 0.936450 0.267291
O O4 0.162233 0.992287 0.958695
O O5 0.502962 0.742440 0.669687
O O6 0.335189 0.810479 0.767798
O O7 0.341706 0.660465 0.771400
O O8 0.693205 0.735817 0.928527
O O9 0.667434 0.165711 0.044112
O O10 0.752008 0.310958 0.071090
O O11 0.906107 0.227647 0.976916
O O12 0.451493 0.554034 0.359408
O O13 0.037118 0.297494 0.325626
O O14 0.805325 0.627287 0.468746
#
# Coordination Sequence:
#
# PCOD9239911 Si02
#       7
#     4   4   4   4   4   4   4
#     4  10  18  33  52  79 113 141 178 233 271 317
#     4   9  20  34  54  80 112 141 186 220 272 335
#     4  10  19  35  55  81 110 145 183 229 265 330
#     4  10  19  34  55  77 108 149 180 219 284 324
#     4   9  20  34  52  82 111 139 183 231 269 315
#     4   9  18  30  52  80 106 137 180 224 273 321
#     4   9  17  34  53  77 106 142 177 225 273 317
#
# _framework density 20.386562999999999
#
# number of rings (size 3 to 8) (size 9 to 14) (size 15 to 20)
#    0.000    2.571    1.429    0.429    2.000    4.571 
#    2.571    0.714    0.000    3.429    0.000    0.000 
#    0.000    0.000    0.000    0.000    0.000    0.000 
#
# Total GULP energy -155886.733478 kJ/mol
# GULP energy per Si atom -5567.383339 kJ/mol
# Density = 2.034016 g / cm^3
# Si number density = 20.386563 Si / 1000 Ang^3
#
#
#
# Elastic Constant Matrix: (Units=GPa)
#
#
# Indices 1 2 3 4 5 6 
#
# 1 74.9675 13.1285 3.7100 0.0000 -8.3441 0.0000
# 2 13.1285 33.0579 -7.2207 0.0000 -2.2255 0.0000
# 3 3.7100 -7.2207 40.8124 0.0000 -4.0546 0.0000
# 4 0.0000 0.0000 0.0000 12.7710 0.0000 5.3884
# 5 -8.3441 -2.2255 -4.0546 0.0000 21.3139 0.0000
# 6 0.0000 0.0000 0.0000 5.3884 0.0000 10.6331
#
#
#
# Elastic Compliance Matrix: (Units=1/GPa)
#
#
# Indices 1 2 3 4 5 6 
#
# 1 0.015043 -0.006073 -0.001957 0.000000 0.004883 0.000000
# 2 -0.006073 0.034333 0.006876 0.000000 0.002516 0.000000
# 3 -0.001957 0.006876 0.026391 0.000000 0.004972 0.000000
# 4 0.000000 0.000000 0.000000 0.099598 0.000000 -0.050473
# 5 0.004883 0.002516 0.004972 0.000000 0.050038 0.000000
# 6 0.000000 0.000000 0.000000 -0.050473 0.000000 0.119624
#
#
# Mechanical properties :
#
#
# Convention : Reuss Voigt Hill
#
# Bulk Modulus (GPa) = 13.61282 18.67481 16.14381
# Shear Modulus (GPa) = 13.44738 18.22494 15.83616
#
# Velocity S-wave (km/s) = 2.57109 2.99317 2.79013
# Velocity P-wave (km/s) = 3.93775 4.59627 4.27969
#
# Compressibility (1/GPa) = 0.07346017
#
# Stress axis : x y z
#
# Youngs Moduli (GPa) = 66.47661 29.12653 37.89195
#
# Poissons Ratio (x) = 0.17688 0.07415
# Poissons Ratio (y) = 0.40370 -0.26056
# Poissons Ratio (z) = 0.13008 -0.20028
#
# Static dielectric constant tensor:
#      x y z
#    x 1.790210 0.000000 0.022410 
#    y 0.000000 1.725950 0.000000 
#    z 0.022410 0.000000 1.802800 
# 
# From -- ./inp_files/26925.got.cif
#   From: 2010.05.17/outbox.cif.g08.bks.cpg/sg14_14_cif.got.tgz:26925.got - 2010.06.03 17:49:19.
