data_PCOD9239820
_publ_section_title
;
Structure prediction by ZEFSAII (Michael W. Deem and Ramdas Pophale) SiO2 
 PCOD9239820
Probable space group: P 21/C
;
_chemical_formula_sum "Si O2"
_cell_formula_units_Z 24
_cell_length_a 12.571259
_cell_length_b 13.931957
_cell_length_c 12.636954
_cell_angle_alpha 90.000000
_cell_angle_beta 150.774095
_cell_angle_gamma 90.000000
_cell_volume 1080.635833
_symmetry_space_group_name_H-M "P 21/C"
_symmetry_group_IT_number 14
_symmetry_cell_setting 'monoclinic'
loop_
_space_group_symop_operation_xyz
x,y,z
-x,1/2+y,1/2-z
-x,-y,-z
x,1/2-y,1/2+z
loop_
_atom_site_type_symbol
_atom_site_label
_atom_site_fract_x
_atom_site_fract_y
_atom_site_fract_z
Si Si1 0.964806 0.300344 0.410127
Si Si2 0.095398 0.397842 0.949048
Si Si3 0.134530 0.665809 0.904048
Si Si4 0.449826 0.690400 0.350073
Si Si5 0.152637 0.338357 0.787517
Si Si6 0.230637 0.039900 0.789435
O O1 0.119564 0.213258 0.504670
O O2 0.890702 0.356875 0.241471
O O3 0.758130 0.242156 0.277492
O O4 0.084779 0.358411 0.607864
O O5 0.846270 0.436228 0.736758
O O6 0.183353 0.415316 0.907510
O O7 0.207234 0.452688 0.143058
O O8 0.050890 0.775447 0.845319
O O9 0.963396 0.604959 0.825396
O O10 0.369875 0.663798 0.162414
O O11 0.640209 0.768685 0.526415
O O12 0.550652 0.593279 0.486455
#
# Coordination Sequence:
#
# PCOD9239820 Si02
#       6
#     4   4   4   4   4   4
#     4  10  19  35  55  78 104 133 177 223 252 298
#     4  10  19  36  53  76 110 138 165 217 264 311
#     4   9  19  34  50  75 108 133 173 218 254 304
#     4  10  18  32  53  81  98 136 175 211 261 306
#     4   9  19  34  52  77 103 137 176 212 256 307
#     4  10  20  35  51  79 111 135 168 211 270 311
#
# _framework density 22.209144999999999
#
# number of rings (size 3 to 8) (size 9 to 14) (size 15 to 20)
#    0.000    2.333    5.000    0.000    2.333    2.000 
#    0.000    0.833    0.000    2.000    0.000    0.000 
#    0.000    0.000    0.000    0.000    0.000    0.000 
#
# Total GULP energy -133690.022966 kJ/mol
# GULP energy per Si atom -5570.417624 kJ/mol
# Density = 2.215860 g / cm^3
# Si number density = 22.209145 Si / 1000 Ang^3
#
#
#
# Elastic Constant Matrix: (Units=GPa)
#
#
# Indices 1 2 3 4 5 6 
#
# 1 93.3513 21.1175 72.0150 0.0000 -49.8333 0.0000
# 2 21.1175 33.4314 10.8766 0.0000 -9.2963 0.0000
# 3 72.0150 10.8766 135.2061 0.0000 -36.9846 0.0000
# 4 0.0000 0.0000 0.0000 20.7986 0.0000 1.4873
# 5 -49.8333 -9.2963 -36.9846 0.0000 47.1561 0.0000
# 6 0.0000 0.0000 0.0000 1.4873 0.0000 26.1298
#
#
#
# Elastic Compliance Matrix: (Units=1/GPa)
#
#
# Indices 1 2 3 4 5 6 
#
# 1 0.036786 -0.011899 -0.011005 0.000000 0.027897 0.000000
# 2 -0.011899 0.035617 0.002487 0.000000 -0.003602 0.000000
# 3 -0.011005 0.002487 0.012745 0.000000 -0.001144 0.000000
# 4 0.000000 0.000000 0.000000 0.048277 0.000000 -0.002748
# 5 0.027897 -0.003602 -0.001144 0.000000 0.049080 0.000000
# 6 0.000000 0.000000 0.000000 -0.002748 0.000000 0.038427
#
#
# Mechanical properties :
#
#
# Convention : Reuss Voigt Hill
#
# Bulk Modulus (GPa) = 22.56587 52.22301 37.39444
# Shear Modulus (GPa) = 18.08079 29.34887 23.71483
#
# Velocity S-wave (km/s) = 2.85636 3.63916 3.27126
# Velocity P-wave (km/s) = 4.58924 6.42053 5.58051
#
# Compressibility (1/GPa) = 0.04431470
#
# Stress axis : x y z
#
# Youngs Moduli (GPa) = 27.18430 28.07635 78.46337
#
# Poissons Ratio (x) = 0.33407 0.86349
# Poissons Ratio (y) = 0.32346 -0.19514
# Poissons Ratio (z) = 0.29916 -0.06983
#
# Static dielectric constant tensor:
#      x y z
#    x 1.903810 0.000000 -0.025790 
#    y 0.000000 1.878680 0.000000 
#    z -0.025790 0.000000 1.881790 
# 
# From -- ./inp_files/21145.got.cif
#   From: 2010.05.17/outbox.cif.g08.bks.cpg/sg14_11_cif.got.tgz:21145.got - 2010.06.03 17:49:19.
