data_PCOD9239760
_publ_section_title
;
Structure prediction by ZEFSAII (Michael W. Deem and Ramdas Pophale) SiO2 
 PCOD9239760
Probable space group: P 21/C
;
_chemical_formula_sum "Si O2"
_cell_formula_units_Z 32
_cell_length_a 10.882260
_cell_length_b 13.429195
_cell_length_c 8.101642
_cell_angle_alpha 90.000000
_cell_angle_beta 92.397942
_cell_angle_gamma 90.000000
_cell_volume 1182.937127
_symmetry_space_group_name_H-M "P 21/C"
_symmetry_group_IT_number 14
_symmetry_cell_setting 'monoclinic'
loop_
_space_group_symop_operation_xyz
x,y,z
-x,1/2+y,1/2-z
-x,-y,-z
x,1/2-y,1/2+z
loop_
_atom_site_type_symbol
_atom_site_label
_atom_site_fract_x
_atom_site_fract_y
_atom_site_fract_z
Si Si1 0.185697 0.186934 0.200315
Si Si2 0.318508 0.628143 0.091702
Si Si3 0.085805 0.671847 0.280717
Si Si4 0.175630 0.101580 0.830797
Si Si5 0.463721 0.773005 0.889939
Si Si6 0.331121 0.483889 0.806972
Si Si7 0.902816 0.105765 0.837178
Si Si8 0.560042 0.595780 0.690016
O O1 0.186923 0.305227 0.208757
O O2 0.056414 0.155331 0.274973
O O3 0.298880 0.131944 0.294278
O O4 0.179702 0.150104 0.012783
O O5 0.182651 0.627248 0.158169
O O6 0.411781 0.660533 0.239813
O O7 0.345055 0.719269 0.965925
O O8 0.346325 0.528733 0.990262
O O9 0.105892 0.634527 0.469419
O O10 0.101126 0.791371 0.264230
O O11 0.305659 0.046706 0.818495
O O12 0.038234 0.058592 0.811044
O O13 0.544009 0.680052 0.830585
O O14 0.533314 0.840086 0.024914
O O15 0.210411 0.537718 0.722729
O O16 0.447599 0.521280 0.711388
#
# Coordination Sequence:
#
# PCOD9239760 Si02
#       8
#     4   4   4   4   4   4   4   4
#     4  10  24  42  62  90 124 163 207 255 307 369
#     4  10  18  31  54  89 127 159 200 254 308 360
#     4  10  18  33  57  84 125 173 205 239 303 374
#     4  10  22  42  65  85 120 170 209 240 305 385
#     4   9  18  32  57  92 122 160 208 251 303 372
#     4  11  23  38  61  96 130 154 201 268 309 346
#     4  10  20  35  59  92 126 161 209 256 300 362
#     4  10  19  36  65  91 120 162 207 255 305 363
#
# _framework density 27.051310000000001
#
# number of rings (size 3 to 8) (size 9 to 14) (size 15 to 20)
#    0.000    2.000    0.000    5.250    0.000    4.000 
#    0.000    2.500    0.000   20.250    0.000    0.000 
#    0.000    0.000    0.000    0.000    0.000    0.000 
#
# Total GULP energy -179614.018393 kJ/mol
# GULP energy per Si atom -5612.938075 kJ/mol
# Density = 2.698974 g / cm^3
# Si number density = 27.051310 Si / 1000 Ang^3
#
#
#
# Elastic Constant Matrix: (Units=GPa)
#
#
# Indices 1 2 3 4 5 6 
#
# 1 220.7212 32.7950 40.2880 0.0000 -29.8161 0.0000
# 2 32.7950 80.8710 21.3827 0.0000 3.8601 0.0000
# 3 40.2880 21.3827 101.4738 0.0000 1.4558 0.0000
# 4 0.0000 0.0000 0.0000 31.6945 0.0000 4.1842
# 5 -29.8161 3.8601 1.4558 0.0000 30.5319 0.0000
# 6 0.0000 0.0000 0.0000 4.1842 0.0000 50.1327
#
#
#
# Elastic Compliance Matrix: (Units=1/GPa)
#
#
# Indices 1 2 3 4 5 6 
#
# 1 0.006089 -0.002232 -0.002038 0.000000 0.006325 0.000000
# 2 -0.002232 0.013985 -0.002005 0.000000 -0.003852 0.000000
# 3 -0.002038 -0.002005 0.011119 0.000000 -0.002267 0.000000
# 4 0.000000 0.000000 0.000000 0.031903 0.000000 -0.002663
# 5 0.006325 -0.003852 -0.002267 0.000000 0.039525 0.000000
# 6 0.000000 0.000000 0.000000 -0.002663 0.000000 0.020169
#
#
# Mechanical properties :
#
#
# Convention : Reuss Voigt Hill
#
# Bulk Modulus (GPa) = 53.64341 65.77749 59.71045
# Shear Modulus (GPa) = 35.32233 43.04518 39.18376
#
# Velocity S-wave (km/s) = 3.61744 3.99336 3.81004
# Velocity P-wave (km/s) = 6.10910 6.75509 6.44020
#
# Compressibility (1/GPa) = 0.01864162
#
# Stress axis : x y z
#
# Youngs Moduli (GPa) = 164.23961 71.50680 89.93702
#
# Poissons Ratio (x) = 0.15962 0.18327
# Poissons Ratio (y) = 0.36662 0.18036
# Poissons Ratio (z) = 0.33468 0.14340
#
# Static dielectric constant tensor:
#      x y z
#    x 2.093810 0.000000 -0.003310 
#    y 0.000000 2.121300 0.000000 
#    z -0.003310 0.000000 2.098570 
# 
# From -- ./inp_files/13111.got.cif
#   From: 2010.05.17/outbox.cif.g08.bks.cpg/sg14_7_cif.got.tgz:13111.got - 2010.06.03 17:49:19.
