data_PCOD9239502
_publ_section_title
;
Structure prediction by ZEFSAII (Michael W. Deem and Ramdas Pophale) SiO2 
 PCOD9239502
Probable space group: P 21/C
;
_chemical_formula_sum "Si O2"
_cell_formula_units_Z 32
_cell_length_a 11.476901
_cell_length_b 9.846301
_cell_length_c 17.686634
_cell_angle_alpha 90.000000
_cell_angle_beta 36.768331
_cell_angle_gamma 90.000000
_cell_volume 1196.370792
_symmetry_space_group_name_H-M "P 21/C"
_symmetry_group_IT_number 14
_symmetry_cell_setting 'monoclinic'
loop_
_space_group_symop_operation_xyz
x,y,z
-x,1/2+y,1/2-z
-x,-y,-z
x,1/2-y,1/2+z
loop_
_atom_site_type_symbol
_atom_site_label
_atom_site_fract_x
_atom_site_fract_y
_atom_site_fract_z
Si Si1 0.082818 0.675787 0.475311
Si Si2 0.389041 0.437344 0.646415
Si Si3 0.426352 0.219078 0.916111
Si Si4 0.324717 0.749910 0.087390
Si Si5 0.035289 0.058106 0.112414
Si Si6 0.727759 0.420445 0.036866
Si Si7 0.001649 0.948526 0.292058
Si Si8 0.625417 0.707277 0.722383
O O1 0.107313 0.629829 0.375128
O O2 0.849766 0.672625 0.602932
O O3 0.139453 0.563860 0.509283
O O4 0.158447 0.822491 0.463032
O O5 0.438779 0.583902 0.653102
O O6 0.553614 0.381660 0.504174
O O7 0.170348 0.444591 0.728357
O O8 0.396650 0.325413 0.706575
O O9 0.526830 0.310491 0.927923
O O10 0.434621 0.267611 0.826772
O O11 0.212467 0.158033 0.042418
O O12 0.288231 0.658842 0.034420
O O13 0.119773 0.807532 0.223114
O O14 0.942676 0.992102 0.236651
O O15 0.849202 0.547860 0.941292
O O16 0.511639 0.417980 0.182927
#
# Coordination Sequence:
#
# PCOD9239502 Si02
#       8
#     4   4   4   4   4   4   4   4
#     4  10  20  36  57  85 115 142 192 237 281 331
#     4  10  17  34  60  84 108 145 195 234 278 328
#     4  10  18  34  60  87 110 142 191 238 278 335
#     4  10  19  35  59  85 108 145 200 242 271 329
#     4  10  18  33  61  86 107 142 189 244 275 325
#     4  11  22  36  57  82 118 155 182 234 294 339
#     4  11  18  33  59  86 107 144 197 233 277 330
#     4  10  22  36  56  83 120 151 179 234 298 339
#
# _framework density 26.747563
#
# number of rings (size 3 to 8) (size 9 to 14) (size 15 to 20)
#    0.000    1.750    5.000    1.500    0.000    1.000 
#    0.000    3.125    5.500    0.000    0.000    0.000 
#    0.000    0.000    0.000    0.000    0.000    0.000 
#
# Total GULP energy -179075.527302 kJ/mol
# GULP energy per Si atom -5596.110228 kJ/mol
# Density = 2.668668 g / cm^3
# Si number density = 26.747563 Si / 1000 Ang^3
#
#
#
# Elastic Constant Matrix: (Units=GPa)
#
#
# Indices 1 2 3 4 5 6 
#
# 1 137.5950 17.2647 44.5240 0.0000 12.1660 0.0000
# 2 17.2647 53.8776 3.5486 0.0000 1.6669 0.0000
# 3 44.5240 3.5486 113.2410 0.0000 4.1520 0.0000
# 4 0.0000 0.0000 0.0000 32.4570 0.0000 0.9863
# 5 12.1660 1.6669 4.1520 0.0000 45.1040 0.0000
# 6 0.0000 0.0000 0.0000 0.9863 0.0000 20.4680
#
#
#
# Elastic Compliance Matrix: (Units=1/GPa)
#
#
# Indices 1 2 3 4 5 6 
#
# 1 0.008838 -0.002552 -0.003322 0.000000 -0.001984 0.000000
# 2 -0.002552 0.019354 0.000399 0.000000 -0.000064 0.000000
# 3 -0.003322 0.000399 0.010126 0.000000 -0.000051 0.000000
# 4 0.000000 0.000000 0.000000 0.030855 0.000000 -0.001487
# 5 -0.001984 -0.000064 -0.000051 0.000000 0.022713 0.000000
# 6 0.000000 0.000000 0.000000 -0.001487 0.000000 0.048928
#
#
# Mechanical properties :
#
#
# Convention : Reuss Voigt Hill
#
# Bulk Modulus (GPa) = 36.53830 48.37646 42.45738
# Shear Modulus (GPa) = 31.07742 35.56423 33.32082
#
# Velocity S-wave (km/s) = 3.41233 3.65036 3.53335
# Velocity P-wave (km/s) = 5.40513 5.99103 5.70560
#
# Compressibility (1/GPa) = 0.02736854
#
# Stress axis : x y z
#
# Youngs Moduli (GPa) = 113.14266 51.66882 98.75212
#
# Poissons Ratio (x) = 0.13186 0.32809
# Poissons Ratio (y) = 0.28874 -0.03943
# Poissons Ratio (z) = 0.37590 -0.02063
#
# Static dielectric constant tensor:
#      x y z
#    x 2.123470 0.000000 -0.000510 
#    y 0.000000 2.202570 0.000000 
#    z -0.000510 0.000000 2.149090 
# 
# From -- ./inp_files/45085.got.cif
#   From: 2010.05.17/outbox.cif.g08.bks.cpg/sg14_23_cif.got.tgz:45085.got - 2010.06.03 17:49:19.
