data_PCOD9239387
_publ_section_title
;
Structure prediction by ZEFSAII (Michael W. Deem and Ramdas Pophale) SiO2 
 PCOD9239387
Probable space group: P 21/C
;
_chemical_formula_sum "Si O2"
_cell_formula_units_Z 20
_cell_length_a 5.567746
_cell_length_b 7.112673
_cell_length_c 22.027353
_cell_angle_alpha 90.000000
_cell_angle_beta 116.518602
_cell_angle_gamma 90.000000
_cell_volume 780.540466
_symmetry_space_group_name_H-M "P 21/C"
_symmetry_group_IT_number 14
_symmetry_cell_setting 'monoclinic'
loop_
_space_group_symop_operation_xyz
x,y,z
-x,1/2+y,1/2-z
-x,-y,-z
x,1/2-y,1/2+z
loop_
_atom_site_type_symbol
_atom_site_label
_atom_site_fract_x
_atom_site_fract_y
_atom_site_fract_z
Si Si1 0.493463 0.273766 0.919538
Si Si2 0.565249 0.710041 0.956784
Si Si3 0.657763 0.375011 0.680814
Si Si4 0.033185 0.816888 0.599943
Si Si5 0.803501 0.661537 0.799182
O O1 0.482523 0.504936 0.922045
O O2 0.689971 0.225409 0.887863
O O3 0.182099 0.214387 0.881212
O O4 0.590524 0.230007 0.999099
O O5 0.519121 0.864285 0.900903
O O6 0.861956 0.678521 0.017954
O O7 0.732452 0.548980 0.730822
O O8 0.465092 0.256738 0.705028
O O9 0.941377 0.288325 0.689907
O O10 0.102431 0.014117 0.638397
#
# Coordination Sequence:
#
# PCOD9239387 Si02
#       5
#     4   4   4   4   4
#     4   9  16  25  52  82 111 132 183 263 284 320
#     4   9  18  29  56  85 110 143 194 257 283 334
#     4  12  25  40  63  88 127 157 204 238 308 353
#     4  10  17  31  54  86 112 138 198 254 294 312
#     4  12  24  42  60  92 122 165 193 251 293 370
#
# _framework density 25.623270999999999
#
# number of rings (size 3 to 8) (size 9 to 14) (size 15 to 20)
#    1.200    0.400    4.000    1.800    2.800    0.000 
#    0.000    0.000    0.000    2.400    0.000    0.000 
#    0.000    0.000    0.000    0.000    0.000    0.000 
#
# Total GULP energy -111652.622181 kJ/mol
# GULP energy per Si atom -5582.631109 kJ/mol
# Density = 2.556495 g / cm^3
# Si number density = 25.623271 Si / 1000 Ang^3
#
#
#
# Elastic Constant Matrix: (Units=GPa)
#
#
# Indices 1 2 3 4 5 6 
#
# 1 220.2732 29.6076 26.1327 0.0000 -10.4456 0.0000
# 2 29.6076 53.5479 37.7868 0.0000 2.3792 0.0000
# 3 26.1327 37.7868 81.2151 0.0000 -2.2246 0.0000
# 4 0.0000 0.0000 0.0000 29.3833 0.0000 -2.7540
# 5 -10.4456 2.3792 -2.2246 0.0000 28.7486 0.0000
# 6 0.0000 0.0000 0.0000 -2.7540 0.0000 33.7079
#
#
#
# Elastic Compliance Matrix: (Units=1/GPa)
#
#
# Indices 1 2 3 4 5 6 
#
# 1 0.005029 -0.002632 -0.000339 0.000000 0.002019 0.000000
# 2 -0.002632 0.029498 -0.012998 0.000000 -0.004403 0.000000
# 3 -0.000339 -0.012998 0.018535 0.000000 0.002387 0.000000
# 4 0.000000 0.000000 0.000000 0.034296 0.000000 0.002802
# 5 0.002019 -0.004403 0.002387 0.000000 0.036067 0.000000
# 6 0.000000 0.000000 0.000000 0.002802 0.000000 0.029896
#
#
# Mechanical properties :
#
#
# Convention : Reuss Voigt Hill
#
# Bulk Modulus (GPa) = 47.33646 60.23227 53.78437
# Shear Modulus (GPa) = 26.00108 35.80189 30.90149
#
# Velocity S-wave (km/s) = 3.18896 3.74202 3.47651
# Velocity P-wave (km/s) = 5.66334 6.49832 6.09515
#
# Compressibility (1/GPa) = 0.02112536
#
# Stress axis : x y z
#
# Youngs Moduli (GPa) = 198.82842 33.90055 53.95192
#
# Poissons Ratio (x) = 0.08921 0.01827
# Poissons Ratio (y) = 0.52325 0.70128
# Poissons Ratio (z) = 0.06733 0.44065
#
# Static dielectric constant tensor:
#      x y z
#    x 2.063850 0.000000 0.002120 
#    y 0.000000 2.067320 0.000000 
#    z 0.002120 0.000000 1.973240 
# 
# From -- ./inp_files/75729.got.cif
#   From: 2010.05.17/outbox.cif.g08.bks.cpg/sg14_38_cif.got.tgz:75729.got - 2010.06.03 17:49:19.
