data_PCOD9239274
_publ_section_title
;
Structure prediction by ZEFSAII (Michael W. Deem and Ramdas Pophale) SiO2 
 PCOD9239274
Probable space group: P 21/C
;
_chemical_formula_sum "Si O2"
_cell_formula_units_Z 30
_cell_length_a 19.084038
_cell_length_b 5.192733
_cell_length_c 17.564161
_cell_angle_alpha 90.000000
_cell_angle_beta 117.389912
_cell_angle_gamma 90.000000
_cell_volume 1545.453594
_symmetry_space_group_name_H-M "P 21/C"
_symmetry_group_IT_number 14
_symmetry_cell_setting 'monoclinic'
loop_
_space_group_symop_operation_xyz
x,y,z
-x,1/2+y,1/2-z
-x,-y,-z
x,1/2-y,1/2+z
loop_
_atom_site_type_symbol
_atom_site_label
_atom_site_fract_x
_atom_site_fract_y
_atom_site_fract_z
Si Si1 0.616395 0.158760 0.135923
Si Si2 0.383495 0.159238 0.019646
Si Si3 0.906116 0.244848 0.402815
Si Si4 0.798021 0.254813 0.701349
Si Si5 0.500000 0.500000 0.000000
Si Si6 0.906163 0.744688 0.503409
Si Si7 0.499867 0.951909 0.199758
Si Si8 0.798066 0.752673 0.096820
O O1 0.709079 0.201877 0.187777
O O2 0.575627 0.008416 0.184295
O O3 0.568814 0.419394 0.096523
O O4 0.598702 0.999975 0.049218
O O5 0.423888 0.008710 0.108763
O O6 0.431405 0.419284 0.028050
O O7 0.290834 0.203350 0.978541
O O8 0.857261 0.268122 0.301170
O O9 0.888019 0.480360 0.450418
O O10 0.999969 0.250527 0.433433
O O11 0.888239 0.980351 0.437809
O O12 0.817792 0.501518 0.659153
O O13 0.798858 0.001523 0.649294
O O14 0.857372 0.768762 0.556261
O O15 0.500072 0.170469 0.264652
#
# Coordination Sequence:
#
# PCOD9239274 Si02
#       8
#     4   4   4   4   2   4   4   4
#     4  10  23  38  62  82 116 163 204 241 307 367
#     4  10  23  38  62  82 116 163 204 241 307 367
#     4  10  22  41  64  90 126 169 200 239 311 379
#     4  11  23  39  62  95 121 155 209 260 301 354
#     4  10  16  36  60  74 108 154 200 232 282 372
#     4  10  22  41  64  90 126 169 200 239 311 379
#     4  11  26  37  56  86 116 147 198 253 299 345
#     4  11  23  39  62  95 121 155 209 260 301 354
#
# _framework density 19.411778000000002
#
# number of rings (size 3 to 8) (size 9 to 14) (size 15 to 20)
#    0.000    1.600    1.333    3.200    7.467    3.200 
#    0.000    0.000    0.000    0.000    0.000    0.000 
#    0.000    0.000    0.000    0.000    0.000    0.000 
#
# Total GULP energy -167169.947332 kJ/mol
# GULP energy per Si atom -5572.331578 kJ/mol
# Density = 1.936760 g / cm^3
# Si number density = 19.411778 Si / 1000 Ang^3
#
#
#
# Elastic Constant Matrix: (Units=GPa)
#
#
# Indices 1 2 3 4 5 6 
#
# 1 93.4191 19.1824 63.5712 0.0000 -9.4421 0.0000
# 2 19.1824 81.8614 27.9892 0.0000 -2.8453 0.0000
# 3 63.5712 27.9892 111.9793 0.0000 3.7798 0.0000
# 4 0.0000 0.0000 0.0000 31.1116 0.0000 -11.0134
# 5 -9.4421 -2.8453 3.7798 0.0000 18.9552 0.0000
# 6 0.0000 0.0000 0.0000 -11.0134 0.0000 8.0119
#
#
#
# Elastic Compliance Matrix: (Units=1/GPa)
#
#
# Indices 1 2 3 4 5 6 
#
# 1 0.019926 -0.000258 -0.011660 0.000000 0.012212 0.000000
# 2 -0.000258 0.013498 -0.003314 0.000000 0.002558 0.000000
# 3 -0.011660 -0.003314 0.016703 0.000000 -0.009636 0.000000
# 4 0.000000 0.000000 0.000000 0.062608 0.000000 0.086063
# 5 0.012212 0.002558 -0.009636 0.000000 0.061145 0.000000
# 6 0.000000 0.000000 0.000000 0.086063 0.000000 0.243120
#
#
# Mechanical properties :
#
#
# Convention : Reuss Voigt Hill
#
# Bulk Modulus (GPa) = 50.85417 56.52725 53.69071
# Shear Modulus (GPa) = 11.01275 23.38354 17.19815
#
# Velocity S-wave (km/s) = 2.38444 3.47451 2.97974
# Velocity P-wave (km/s) = 5.81680 6.72901 6.28947
#
# Compressibility (1/GPa) = 0.01966407
#
# Stress axis : x y z
#
# Youngs Moduli (GPa) = 50.18492 74.08422 59.86898
#
# Poissons Ratio (x) = 0.01913 0.69807
# Poissons Ratio (y) = 0.01296 0.19838
# Poissons Ratio (z) = 0.58515 0.24549
#
# Static dielectric constant tensor:
#      x y z
#    x 1.649620 0.000000 -0.000530 
#    y 0.000000 1.757330 0.000000 
#    z -0.000530 0.000000 1.650790 
# 
# From -- ./inp_files/47975.got.cif
#   From: 2010.05.17/outbox.cif.g08.bks.cpg/sg14_24_cif.got.tgz:47975.got - 2010.06.03 17:49:19.
