data_PCOD9239492
_publ_section_title
;
Structure prediction by ZEFSAII (Michael W. Deem and Ramdas Pophale) SiO2 
 PCOD9239492
Probable space group: P 21/C
;
_chemical_formula_sum "Si O2"
_cell_formula_units_Z 28
_cell_length_a 15.544781
_cell_length_b 12.229849
_cell_length_c 7.781117
_cell_angle_alpha 90.000000
_cell_angle_beta 134.279880
_cell_angle_gamma 90.000000
_cell_volume 1059.066009
_symmetry_space_group_name_H-M "P 21/C"
_symmetry_group_IT_number 14
_symmetry_cell_setting 'monoclinic'
loop_
_space_group_symop_operation_xyz
x,y,z
-x,1/2+y,1/2-z
-x,-y,-z
x,1/2-y,1/2+z
loop_
_atom_site_type_symbol
_atom_site_label
_atom_site_fract_x
_atom_site_fract_y
_atom_site_fract_z
Si Si1 0.974186 0.122061 0.028470
Si Si2 0.638099 0.851088 0.476713
Si Si3 0.269627 0.363836 0.531105
Si Si4 0.964893 0.849701 0.491136
Si Si5 0.481880 0.553202 0.166363
Si Si6 0.785720 0.311260 0.751493
Si Si7 0.385533 0.787428 0.283000
O O1 0.843842 0.185857 0.833389
O O2 0.047414 0.216846 0.030368
O O3 0.013543 0.122141 0.282092
O O4 0.000000 0.000000 0.000000
O O5 0.705521 0.766605 0.450802
O O6 0.584762 0.960782 0.319929
O O7 0.519018 0.791174 0.391433
O O8 0.718578 0.888306 0.750944
O O9 0.384169 0.416779 0.595255
O O10 0.148291 0.393865 0.268291
O O11 0.089032 0.874992 0.562853
O O12 0.687955 0.320209 0.765266
O O13 0.500000 0.500000 0.000000
O O14 0.710266 0.342875 0.477541
O O15 0.594729 0.156859 0.501720
#
# Coordination Sequence:
#
# PCOD9239492 Si02
#       7
#     4   4   4   4   4   4   4
#     4  10  22  42  61  89 129 169 211 255 316 377
#     4  10  21  37  61  91 117 159 208 255 310 374
#     4  10  19  38  61  84 123 161 198 253 313 363
#     4  10  21  40  61  91 129 164 211 260 312 385
#     4   8  19  36  56  86 117 154 201 247 304 370
#     4  10  19  35  59  86 122 157 202 250 308 366
#     4  10  17  34  59  82 118 156 191 252 303 354
#
# _framework density 26.438390999999999
#
# number of rings (size 3 to 8) (size 9 to 14) (size 15 to 20)
#    0.857    1.714    1.429    2.571    0.000    1.143 
#    0.000   14.286    0.000    0.000    0.000    1.000 
#    0.000    0.000    0.000    0.000    0.000    0.000 
#
# Total GULP energy -156156.640934 kJ/mol
# GULP energy per Si atom -5577.022890 kJ/mol
# Density = 2.637822 g / cm^3
# Si number density = 26.438391 Si / 1000 Ang^3
#
#
#
# Elastic Constant Matrix: (Units=GPa)
#
#
# Indices 1 2 3 4 5 6 
#
# 1 52.0032 15.1148 44.4315 0.0000 23.7566 0.0000
# 2 15.1148 104.0426 15.0872 0.0000 -0.9494 0.0000
# 3 44.4315 15.0872 186.6404 0.0000 31.6603 0.0000
# 4 0.0000 0.0000 0.0000 25.9122 0.0000 -4.5638
# 5 23.7566 -0.9494 31.6603 0.0000 39.7754 0.0000
# 6 0.0000 0.0000 0.0000 -4.5638 0.0000 31.1786
#
#
#
# Elastic Compliance Matrix: (Units=1/GPa)
#
#
# Indices 1 2 3 4 5 6 
#
# 1 0.031167 -0.004008 -0.004534 0.000000 -0.015102 0.000000
# 2 -0.004008 0.010275 -0.000375 0.000000 0.002937 0.000000
# 3 -0.004534 -0.000375 0.006948 0.000000 -0.002831 0.000000
# 4 0.000000 0.000000 0.000000 0.039613 0.000000 0.005798
# 5 -0.015102 0.002937 -0.002831 0.000000 0.036485 0.000000
# 6 0.000000 0.000000 0.000000 0.005798 0.000000 0.032922
#
#
# Mechanical properties :
#
#
# Convention : Reuss Voigt Hill
#
# Bulk Modulus (GPa) = 32.72620 54.66148 43.69384
# Shear Modulus (GPa) = 26.96450 37.24344 32.10397
#
# Velocity S-wave (km/s) = 3.19705 3.75732 3.48845
# Velocity P-wave (km/s) = 5.10229 6.28834 5.72610
#
# Compressibility (1/GPa) = 0.03055656
#
# Stress axis : x y z
#
# Youngs Moduli (GPa) = 32.08479 97.32475 143.93054
#
# Poissons Ratio (x) = 0.39010 0.65256
# Poissons Ratio (y) = 0.12860 0.05393
# Poissons Ratio (z) = 0.14547 0.03647
#
# Static dielectric constant tensor:
#      x y z
#    x 2.203650 0.000000 0.018350 
#    y 0.000000 2.405340 0.000000 
#    z 0.018350 0.000000 2.034210 
# 
# From -- ./inp_files/18010.got.cif
#   From: 2010.05.17/outbox.cif.g08.bks.cpg/sg14_10_cif.got.tgz:18010.got - 2010.06.03 17:49:19.
