data_PCOD9239035
_publ_section_title
;
Structure prediction by ZEFSAII (Michael W. Deem and Ramdas Pophale) SiO2 
 PCOD9239035
Probable space group: P 2/C
;
_chemical_formula_sum "Si O2"
_cell_formula_units_Z 30
_cell_length_a 21.000000
_cell_length_b 12.000000
_cell_length_c 12.000000
_cell_angle_alpha 90.000000
_cell_angle_beta 30.000000
_cell_angle_gamma 90.000000
_cell_volume 1512.000000
_symmetry_space_group_name_H-M "P 2/C"
_symmetry_group_IT_number 13
_symmetry_cell_setting 'monoclinic'
loop_
_space_group_symop_operation_xyz
x,y,z
-x,y,1/2-z
-x,-y,-z
x,-y,1/2+z
loop_
_atom_site_type_symbol
_atom_site_label
_atom_site_fract_x
_atom_site_fract_y
_atom_site_fract_z
Si Si1 0.804910 0.403371 0.159308
Si Si2 0.790857 0.122200 0.869735
Si Si3 0.354719 0.583470 0.976251
Si Si4 0.351575 0.193782 0.623286
Si Si5 0.000000 0.450056 0.250000
Si Si6 0.132219 0.899487 0.622248
Si Si7 0.984760 0.286188 0.059199
Si Si8 0.636081 0.264484 0.256126
O O1 0.741352 0.486825 0.345231
O O2 0.918166 0.340796 0.053186
O O3 0.692809 0.324952 0.279201
O O4 0.874972 0.472176 0.953811
O O5 0.678048 0.122888 0.946235
O O6 0.895506 0.209143 0.660861
O O7 0.845653 0.004877 0.829381
O O8 0.733224 0.169694 0.071233
O O9 0.500000 0.540654 0.750000
O O10 0.345999 0.645668 0.871201
O O11 0.334389 0.679591 0.101507
O O12 0.493834 0.209514 0.461551
O O13 0.248871 0.140069 0.864556
O O14 0.007390 0.375160 0.125651
O O15 0.112012 0.797674 0.736044
O O16 0.000000 0.912976 0.750000
#
# Coordination Sequence:
#
# PCOD9239035 Si02
#       8
#     4   4   4   4   2   4   4   4
#     4  12  24  36  64 101 132 172 217 266 317 393
#     4  11  23  42  67  91 127 168 224 263 332 389
#     4   9  20  40  63  88 128 173 214 251 322 389
#     4  10  22  45  66  90 128 170 216 267 325 391
#     4  12  22  42  64  96 144 178 214 264 334 384
#     4  12  25  41  69  95 121 172 218 276 336 389
#     4  12  24  41  63  98 134 168 217 275 324 380
#     4  10  23  42  64  93 130 174 213 270 324 384
#
# _framework density 19.841270000000002
#
# number of rings (size 3 to 8) (size 9 to 14) (size 15 to 20)
#    0.000    1.067    2.000    6.000    1.867    3.733 
#    0.000    1.333    0.000    0.000    0.000    0.000 
#    0.000    0.000    0.000    0.000    0.000    0.000 
#
# Total GULP energy -167200.554779 kJ/mol
# GULP energy per Si atom -5573.351826 kJ/mol
# Density = 1.979611 g / cm^3
# Si number density = 19.841270 Si / 1000 Ang^3
#
#
#
# Elastic Constant Matrix: (Units=GPa)
#
#
# Indices 1 2 3 4 5 6 
#
# 1 91.0935 38.3950 31.1922 0.0000 -6.0028 0.0000
# 2 38.3950 75.2690 40.0192 0.0000 -8.0498 0.0000
# 3 31.1922 40.0192 114.2415 0.0000 -5.7579 0.0000
# 4 0.0000 0.0000 0.0000 23.9261 0.0000 -4.8260
# 5 -6.0028 -8.0498 -5.7579 0.0000 21.1092 0.0000
# 6 0.0000 0.0000 0.0000 -4.8260 0.0000 30.4547
#
#
#
# Elastic Compliance Matrix: (Units=1/GPa)
#
#
# Indices 1 2 3 4 5 6 
#
# 1 0.014263 -0.006277 -0.001634 0.000000 0.001217 0.000000
# 2 -0.006277 0.019568 -0.004923 0.000000 0.004335 0.000000
# 3 -0.001634 -0.004923 0.010957 0.000000 0.000647 0.000000
# 4 0.000000 0.000000 0.000000 0.043175 0.000000 0.006842
# 5 0.001217 0.004335 0.000647 0.000000 0.049548 0.000000
# 6 0.000000 0.000000 0.000000 0.006842 0.000000 0.033920
#
#
# Mechanical properties :
#
#
# Convention : Reuss Voigt Hill
#
# Bulk Modulus (GPa) = 52.29883 55.53519 53.91701
# Shear Modulus (GPa) = 24.57345 26.49785 25.53565
#
# Velocity S-wave (km/s) = 3.52305 3.65840 3.59137
# Velocity P-wave (km/s) = 6.55477 6.77464 6.66561
#
# Compressibility (1/GPa) = 0.01912089
#
# Stress axis : x y z
#
# Youngs Moduli (GPa) = 70.11129 51.10323 91.26904
#
# Poissons Ratio (x) = 0.32075 0.14916
# Poissons Ratio (y) = 0.44006 0.44928
# Poissons Ratio (z) = 0.11458 0.25156
#
# Static dielectric constant tensor:
#      x y z
#    x 1.726230 0.000000 -0.026080 
#    y 0.000000 1.732780 0.000000 
#    z -0.026080 0.000000 1.717040 
# 
# From -- ./inp_files/40868.got.cif
#   From: 2010.05.17/outbox.ucp.g08.bks.cvg/sg13_21_cif.got.tgz:40868.got - 2010.06.11 12:23:55.
