data_PCOD9239170
_publ_section_title
;
Structure prediction by ZEFSAII (Michael W. Deem and Ramdas Pophale) SiO2 
 PCOD9239170
Probable space group: P 21/C
;
_chemical_formula_sum "Si O2"
_cell_formula_units_Z 32
_cell_length_a 12.071367
_cell_length_b 21.928403
_cell_length_c 5.582448
_cell_angle_alpha 90.000000
_cell_angle_beta 108.024838
_cell_angle_gamma 90.000000
_cell_volume 1405.184182
_symmetry_space_group_name_H-M "P 21/C"
_symmetry_group_IT_number 14
_symmetry_cell_setting 'monoclinic'
loop_
_space_group_symop_operation_xyz
x,y,z
-x,1/2+y,1/2-z
-x,-y,-z
x,1/2-y,1/2+z
loop_
_atom_site_type_symbol
_atom_site_label
_atom_site_fract_x
_atom_site_fract_y
_atom_site_fract_z
Si Si1 0.203450 0.121655 0.582068
Si Si2 0.577915 0.937069 0.255526
Si Si3 0.765275 0.170939 0.945739
Si Si4 0.966583 0.713247 0.843080
Si Si5 0.113863 0.486350 0.322235
Si Si6 0.001315 0.098624 0.127011
Si Si7 0.357658 0.503246 0.701798
Si Si8 0.228135 0.681170 0.048324
O O1 0.342026 0.122670 0.655445
O O2 0.146024 0.170219 0.719793
O O3 0.175399 0.053854 0.662391
O O4 0.123642 0.126579 0.293411
O O5 0.620964 0.978840 0.513502
O O6 0.440017 0.938625 0.209041
O O7 0.599426 0.959495 0.993487
O O8 0.898511 0.146847 0.034547
O O9 0.720501 0.153336 0.176464
O O10 0.760486 0.244993 0.943245
O O11 0.718682 0.153568 0.655461
O O12 0.965750 0.747731 0.588999
O O13 0.087403 0.675468 0.946255
O O14 0.045501 0.547771 0.215461
O O15 0.220182 0.509218 0.564489
O O16 0.029951 0.441032 0.412484
#
# Coordination Sequence:
#
# PCOD9239170 Si02
#       8
#     4   4   4   4   4   4   4   4
#     4  11  21  33  51  70 106 135 171 203 259 308
#     4   9  18  31  54  70  93 127 163 206 245 279
#     4  10  18  28  44  61  89 122 162 197 235 290
#     4  12  21  31  48  71  98 127 162 206 253 309
#     4  10  22  32  48  69 105 142 172 203 247 307
#     4  11  20  32  44  71 103 144 167 199 252 307
#     4   9  17  34  49  72  94 125 171 206 233 279
#     4  10  16  29  44  62  83 125 158 203 244 273
#
# _framework density 22.772814
#
# number of rings (size 3 to 8) (size 9 to 14) (size 15 to 20)
#    0.000    1.750    5.000    1.125    1.750    0.000 
#    0.000    0.000    0.000    0.000    0.000    0.000 
#    7.500    0.000    0.000    0.000    1.500    0.000 
#
# Total GULP energy -178275.542750 kJ/mol
# GULP energy per Si atom -5571.110711 kJ/mol
# Density = 2.272098 g / cm^3
# Si number density = 22.772814 Si / 1000 Ang^3
#
#
#
# Elastic Constant Matrix: (Units=GPa)
#
#
# Indices 1 2 3 4 5 6 
#
# 1 45.5706 24.9512 25.5023 0.0000 -15.2109 0.0000
# 2 24.9512 48.1671 30.9403 0.0000 -6.8443 0.0000
# 3 25.5023 30.9403 156.8512 0.0000 -36.8053 0.0000
# 4 0.0000 0.0000 0.0000 28.8010 0.0000 -6.2526
# 5 -15.2109 -6.8443 -36.8053 0.0000 38.4556 0.0000
# 6 0.0000 0.0000 0.0000 -6.2526 0.0000 7.6004
#
#
#
# Elastic Compliance Matrix: (Units=1/GPa)
#
#
# Indices 1 2 3 4 5 6 
#
# 1 0.034469 -0.016432 0.000193 0.000000 0.010895 0.000000
# 2 -0.016432 0.031610 -0.004860 0.000000 -0.005525 0.000000
# 3 0.000193 -0.004860 0.009179 0.000000 0.007997 0.000000
# 4 0.000000 0.000000 0.000000 0.042270 0.000000 0.034774
# 5 0.010895 -0.005525 0.007997 0.000000 0.036984 0.000000
# 6 0.000000 0.000000 0.000000 0.034774 0.000000 0.160179
#
#
# Mechanical properties :
#
#
# Convention : Reuss Voigt Hill
#
# Bulk Modulus (GPa) = 30.24693 45.93073 38.08883
# Shear Modulus (GPa) = 13.59036 26.25108 19.92072
#
# Velocity S-wave (km/s) = 2.44556 3.39888 2.96084
# Velocity P-wave (km/s) = 4.61359 5.96792 5.33392
#
# Compressibility (1/GPa) = 0.03306121
#
# Stress axis : x y z
#
# Youngs Moduli (GPa) = 29.01156 31.63585 108.94222
#
# Poissons Ratio (x) = 0.51983 -0.02107
# Poissons Ratio (y) = 0.47671 0.52948
# Poissons Ratio (z) = -0.00561 0.15376
#
# Static dielectric constant tensor:
#      x y z
#    x 1.864400 0.000000 -0.015600 
#    y 0.000000 1.925320 0.000000 
#    z -0.015600 0.000000 1.960910 
# 
# From -- ./inp_files/3223.got.cif
#   From: 2010.05.17/outbox.cif.g08.bks.cpg/sg14_2_cif.got.tgz:3223.got - 2010.06.03 17:49:19.
