data_PCOD9239787
_publ_section_title
;
Structure prediction by ZEFSAII (Michael W. Deem and Ramdas Pophale) SiO2 
 PCOD9239787
Probable space group: P 21/C
;
_chemical_formula_sum "Si O2"
_cell_formula_units_Z 28
_cell_length_a 13.939014
_cell_length_b 13.970358
_cell_length_c 11.946947
_cell_angle_alpha 90.000000
_cell_angle_beta 30.111355
_cell_angle_gamma 90.000000
_cell_volume 1167.146053
_symmetry_space_group_name_H-M "P 21/C"
_symmetry_group_IT_number 14
_symmetry_cell_setting 'monoclinic'
loop_
_space_group_symop_operation_xyz
x,y,z
-x,1/2+y,1/2-z
-x,-y,-z
x,1/2-y,1/2+z
loop_
_atom_site_type_symbol
_atom_site_label
_atom_site_fract_x
_atom_site_fract_y
_atom_site_fract_z
Si Si1 0.161899 0.174733 0.126016
Si Si2 0.906019 0.150203 0.588814
Si Si3 0.948329 0.602477 0.821000
Si Si4 0.697841 0.507988 0.917585
Si Si5 0.698443 0.402704 0.700846
Si Si6 0.497459 0.793957 0.060525
Si Si7 0.828901 0.678606 0.626069
O O1 0.125274 0.288474 0.133953
O O2 0.363631 0.162847 0.985554
O O3 0.004648 0.133961 0.369518
O O4 0.154840 0.131677 0.010669
O O5 0.990479 0.096153 0.611243
O O6 0.987064 0.258003 0.530607
O O7 0.677153 0.145292 0.812505
O O8 0.792607 0.524124 0.941419
O O9 0.130299 0.588322 0.557539
O O10 0.741384 0.421617 0.789484
O O11 0.783649 0.597730 0.761167
O O12 0.472075 0.523089 0.153061
O O13 0.608040 0.297770 0.779878
O O14 0.646972 0.751363 0.818417
#
# Coordination Sequence:
#
# PCOD9239787 Si02
#       7
#     4   4   4   4   4   4   4
#     4  10  19  32  49  73 106 133 161 211 254 304
#     4  10  20  30  49  73 102 134 167 202 253 309
#     4  11  19  31  49  74 104 132 164 206 255 303
#     4  10  19  35  49  78 104 130 170 210 256 299
#     4  10  19  30  54  73 104 132 167 214 253 301
#     4  10  18  32  47  79 101 128 168 205 259 300
#     4   9  19  32  49  71 104 133 165 205 255 302
#
# _framework density 23.990143
#
# number of rings (size 3 to 8) (size 9 to 14) (size 15 to 20)
#    0.000    2.000    5.714    0.429    2.000    1.143 
#    0.000    0.000    0.000    0.857    0.000   10.000 
#    0.000    0.000    0.000    0.000    0.000    0.000 
#
# Total GULP energy -156514.060989 kJ/mol
# GULP energy per Si atom -5589.787892 kJ/mol
# Density = 2.393554 g / cm^3
# Si number density = 23.990143 Si / 1000 Ang^3
#
#
#
# Elastic Constant Matrix: (Units=GPa)
#
#
# Indices 1 2 3 4 5 6 
#
# 1 153.7109 14.0202 58.2213 0.0000 1.0286 0.0000
# 2 14.0202 37.8958 -3.9507 0.0000 -4.7766 0.0000
# 3 58.2213 -3.9507 81.4728 0.0000 -9.7613 0.0000
# 4 0.0000 0.0000 0.0000 16.7320 0.0000 -2.7015
# 5 1.0286 -4.7766 -9.7613 0.0000 35.3499 0.0000
# 6 0.0000 0.0000 0.0000 -2.7015 0.0000 29.0623
#
#
#
# Elastic Compliance Matrix: (Units=1/GPa)
#
#
# Indices 1 2 3 4 5 6 
#
# 1 0.009864 -0.004831 -0.007649 0.000000 -0.003052 0.000000
# 2 -0.004831 0.029468 0.005559 0.000000 0.005658 0.000000
# 3 -0.007649 0.005559 0.018746 0.000000 0.006150 0.000000
# 4 0.000000 0.000000 0.000000 0.060676 0.000000 0.005640
# 5 -0.003052 0.005658 0.006150 0.000000 0.030840 0.000000
# 6 0.000000 0.000000 0.000000 0.005640 0.000000 0.034933
#
#
# Mechanical properties :
#
#
# Convention : Reuss Voigt Hill
#
# Bulk Modulus (GPa) = 22.60555 45.51790 34.06172
# Shear Modulus (GPa) = 23.46143 29.88143 26.67143
#
# Velocity S-wave (km/s) = 3.13063 3.53309 3.33793
# Velocity P-wave (km/s) = 4.74459 5.97147 5.39303
#
# Compressibility (1/GPa) = 0.04423693
#
# Stress axis : x y z
#
# Youngs Moduli (GPa) = 101.37880 33.93475 53.34351
#
# Poissons Ratio (x) = 0.16395 0.40802
# Poissons Ratio (y) = 0.48981 -0.29656
# Poissons Ratio (z) = 0.77543 -0.18866
#
# Static dielectric constant tensor:
#      x y z
#    x 1.989400 0.000000 -0.008620 
#    y 0.000000 1.975140 0.000000 
#    z -0.008620 0.000000 1.892850 
# 
# From -- ./inp_files/32911.got.cif
#   From: 2010.05.17/outbox.cif.g08.bks.cpg/sg14_17_cif.got.tgz:32911.got - 2010.06.03 17:49:19.
