data_PCOD9239716
_publ_section_title
;
Structure prediction by ZEFSAII (Michael W. Deem and Ramdas Pophale) SiO2 
 PCOD9239716
Probable space group: P 21/C
;
_chemical_formula_sum "Si O2"
_cell_formula_units_Z 32
_cell_length_a 24.025067
_cell_length_b 10.832868
_cell_length_c 9.064219
_cell_angle_alpha 90.000000
_cell_angle_beta 40.313079
_cell_angle_gamma 90.000000
_cell_volume 1526.224668
_symmetry_space_group_name_H-M "P 21/C"
_symmetry_group_IT_number 14
_symmetry_cell_setting 'monoclinic'
loop_
_space_group_symop_operation_xyz
x,y,z
-x,1/2+y,1/2-z
-x,-y,-z
x,1/2-y,1/2+z
loop_
_atom_site_type_symbol
_atom_site_label
_atom_site_fract_x
_atom_site_fract_y
_atom_site_fract_z
Si Si1 0.430040 0.848414 0.383662
Si Si2 0.544314 0.704818 0.915055
Si Si3 0.357201 0.387844 0.002120
Si Si4 0.737737 0.196428 0.121272
Si Si5 0.920946 0.555830 0.066522
Si Si6 0.035573 0.924951 0.068608
Si Si7 0.840874 0.296959 0.155013
Si Si8 0.181204 0.066463 0.958890
O O1 0.498258 0.874464 0.378935
O O2 0.354302 0.777787 0.624739
O O3 0.387097 0.972531 0.408204
O O4 0.475561 0.772647 0.161630
O O5 0.598782 0.802505 0.709174
O O6 0.605567 0.638081 0.908920
O O7 0.254822 0.363993 0.219651
O O8 0.815111 0.269484 0.041791
O O9 0.764869 0.054422 0.095521
O O10 0.751983 0.224882 0.922676
O O11 0.869774 0.435616 0.116683
O O12 0.861811 0.624694 0.307172
O O13 0.000000 0.500000 0.000000
O O14 0.962031 0.612371 0.836636
O O15 0.086969 0.798401 0.936172
O O16 0.104567 0.014606 0.011445
O O17 0.000000 0.000000 0.000000
#
# Coordination Sequence:
#
# PCOD9239716 Si02
#       8
#     4   4   4   4   4   4   4   4
#     4  10  19  35  56  83 110 140 181 230 276 326
#     4  10  21  34  56  84 109 147 186 217 272 333
#     4  10  20  38  56  77 112 146 182 230 271 324
#     4   9  17  29  51  73  97 128 163 212 267 302
#     4   9  18  34  52  71  99 138 173 205 260 321
#     4  10  19  32  52  79 102 128 172 222 264 307
#     4  10  18  31  49  74 101 129 166 215 257 307
#     4   8  18  35  51  67  98 138 170 207 262 312
#
# _framework density 20.966767999999998
#
# number of rings (size 3 to 8) (size 9 to 14) (size 15 to 20)
#    0.000    2.500    0.000    3.000    0.000    0.000 
#    0.000    7.500    0.000    3.000    0.000    0.000 
#    0.000    0.000    0.000    0.000    0.000    0.000 
#
# Total GULP energy -178283.966301 kJ/mol
# GULP energy per Si atom -5571.373947 kJ/mol
# Density = 2.091905 g / cm^3
# Si number density = 20.966768 Si / 1000 Ang^3
#
#
#
# Elastic Constant Matrix: (Units=GPa)
#
#
# Indices 1 2 3 4 5 6 
#
# 1 54.7636 -4.1317 19.6002 0.0000 5.2551 0.0000
# 2 -4.1317 16.7407 11.7364 0.0000 -2.2596 0.0000
# 3 19.6002 11.7364 167.1115 0.0000 -0.8486 0.0000
# 4 0.0000 0.0000 0.0000 15.8202 0.0000 -5.3538
# 5 5.2551 -2.2596 -0.8486 0.0000 28.4066 0.0000
# 6 0.0000 0.0000 0.0000 -5.3538 0.0000 14.4240
#
#
#
# Elastic Compliance Matrix: (Units=1/GPa)
#
#
# Indices 1 2 3 4 5 6 
#
# 1 0.020077 0.006495 -0.002828 0.000000 -0.003282 0.000000
# 2 0.006495 0.065609 -0.005350 0.000000 0.003858 0.000000
# 3 -0.002828 -0.005350 0.006693 0.000000 0.000297 0.000000
# 4 0.000000 0.000000 0.000000 0.072291 0.000000 0.026833
# 5 -0.003282 0.003858 0.000297 0.000000 0.036126 0.000000
# 6 0.000000 0.000000 0.000000 0.026833 0.000000 0.079288
#
#
# Mechanical properties :
#
#
# Convention : Reuss Voigt Hill
#
# Bulk Modulus (GPa) = 11.23431 32.55840 21.89636
# Shear Modulus (GPa) = 15.96824 25.82421 20.89623
#
# Velocity S-wave (km/s) = 2.76270 3.51333 3.16038
# Velocity P-wave (km/s) = 3.94290 5.65864 4.87682
#
# Compressibility (1/GPa) = 0.08901300
#
# Stress axis : x y z
#
# Youngs Moduli (GPa) = 49.80761 15.24185 149.41176
#
# Poissons Ratio (x) = -0.09899 0.42248
# Poissons Ratio (y) = -0.32348 0.79934
# Poissons Ratio (z) = 0.14084 0.08154
#
# Static dielectric constant tensor:
#      x y z
#    x 1.726010 0.000000 -0.034960 
#    y 0.000000 1.748840 0.000000 
#    z -0.034960 0.000000 1.797890 
# 
# From -- ./inp_files/17843.got.cif
#   From: 2010.05.17/outbox.cif.g08.bks.cpg/sg14_9_cif.got.tgz:17843.got - 2010.06.03 17:49:19.
