data_PCOD9239802
_publ_section_title
;
Structure prediction by ZEFSAII (Michael W. Deem and Ramdas Pophale) SiO2 
 PCOD9239802
Probable space group: P 21/C
;
_chemical_formula_sum "Si O2"
_cell_formula_units_Z 24
_cell_length_a 12.798493
_cell_length_b 12.264073
_cell_length_c 8.977308
_cell_angle_alpha 90.000000
_cell_angle_beta 53.924973
_cell_angle_gamma 90.000000
_cell_volume 1138.894727
_symmetry_space_group_name_H-M "P 21/C"
_symmetry_group_IT_number 14
_symmetry_cell_setting 'monoclinic'
loop_
_space_group_symop_operation_xyz
x,y,z
-x,1/2+y,1/2-z
-x,-y,-z
x,1/2-y,1/2+z
loop_
_atom_site_type_symbol
_atom_site_label
_atom_site_fract_x
_atom_site_fract_y
_atom_site_fract_z
Si Si1 0.780354 0.781956 0.583362
Si Si2 0.071194 0.363086 0.303541
Si Si3 0.627425 0.920157 0.153321
Si Si4 0.182889 0.576271 0.339436
Si Si5 0.522191 0.890735 0.832749
Si Si6 0.555141 0.322166 0.940301
O O1 0.897899 0.827580 0.388771
O O2 0.836651 0.711993 0.671479
O O3 0.696603 0.693428 0.558254
O O4 0.677177 0.875564 0.711161
O O5 0.113275 0.489028 0.290716
O O6 0.926140 0.354477 0.485859
O O7 0.538307 0.890896 0.371539
O O8 0.741938 0.001400 0.104174
O O9 0.538582 0.988679 0.116181
O O10 0.296109 0.643018 0.165334
O O11 0.483111 0.848178 0.697699
O O12 0.463595 0.802270 0.994924
#
# Coordination Sequence:
#
# PCOD9239802 Si02
#       6
#     4   4   4   4   4   4
#     4  10  19  34  52  78 104 135 174 209 255 303
#     4  10  20  33  54  74 102 139 171 206 248 313
#     4   9  18  33  55  76 103 134 170 215 255 303
#     4   9  18  34  53  74  99 139 177 199 249 315
#     4  10  18  32  52  74 100 132 168 214 259 297
#     4  10  19  32  54  78 102 130 170 219 255 296
#
# _framework density 21.073062
#
# number of rings (size 3 to 8) (size 9 to 14) (size 15 to 20)
#    0.000    2.333    0.000    6.000    0.000    2.667 
#    0.000    9.167    0.000   10.000    0.000    0.000 
#    0.000    0.000    0.000    0.000    0.000    0.000 
#
# Total GULP energy -133956.199073 kJ/mol
# GULP energy per Si atom -5581.508295 kJ/mol
# Density = 2.102510 g / cm^3
# Si number density = 21.073062 Si / 1000 Ang^3
#
#
#
# Elastic Constant Matrix: (Units=GPa)
#
#
# Indices 1 2 3 4 5 6 
#
# 1 44.1871 10.5518 16.2092 0.0000 -18.7003 0.0000
# 2 10.5518 59.0895 17.5092 0.0000 -10.8924 0.0000
# 3 16.2092 17.5092 98.1280 0.0000 -30.8438 0.0000
# 4 0.0000 0.0000 0.0000 39.5868 0.0000 -10.4331
# 5 -18.7003 -10.8924 -30.8438 0.0000 34.8668 0.0000
# 6 0.0000 0.0000 0.0000 -10.4331 0.0000 24.2516
#
#
#
# Elastic Compliance Matrix: (Units=1/GPa)
#
#
# Indices 1 2 3 4 5 6 
#
# 1 0.029634 -0.002566 0.000425 0.000000 0.015468 0.000000
# 2 -0.002566 0.018467 -0.002064 0.000000 0.002566 0.000000
# 3 0.000425 -0.002064 0.014347 0.000000 0.012275 0.000000
# 4 0.000000 0.000000 0.000000 0.028491 0.000000 0.012257
# 5 0.015468 0.002566 0.012275 0.000000 0.048636 0.000000
# 6 0.000000 0.000000 0.000000 0.012257 0.000000 0.046507
#
#
# Mechanical properties :
#
#
# Convention : Reuss Voigt Hill
#
# Bulk Modulus (GPa) = 18.50633 32.21611 25.36122
# Shear Modulus (GPa) = 23.52858 30.21666 26.87262
#
# Velocity S-wave (km/s) = 3.34507 3.79079 3.57488
# Velocity P-wave (km/s) = 4.87036 5.87207 5.39451
#
# Compressibility (1/GPa) = 0.05403555
#
# Stress axis : x y z
#
# Youngs Moduli (GPa) = 33.74474 54.15193 69.70029
#
# Poissons Ratio (x) = 0.13898 -0.02960
# Poissons Ratio (y) = 0.08660 0.14389
# Poissons Ratio (z) = -0.01433 0.11180
#
# Static dielectric constant tensor:
#      x y z
#    x 1.795520 0.000000 0.032960 
#    y 0.000000 1.788790 0.000000 
#    z 0.032960 0.000000 1.754760 
# 
# From -- ./inp_files/16142.got.cif
#   From: 2010.05.17/outbox.cif.g08.bks.cpg/sg14_9_cif.got.tgz:16142.got - 2010.06.03 17:49:19.
