data_PCOD9239937
_publ_section_title
;
Structure prediction by ZEFSAII (Michael W. Deem and Ramdas Pophale) SiO2 
 PCOD9239937
Probable space group: P 21/C
;
_chemical_formula_sum "Si O2"
_cell_formula_units_Z 28
_cell_length_a 8.534688
_cell_length_b 8.449333
_cell_length_c 25.184408
_cell_angle_alpha 90.000000
_cell_angle_beta 138.572917
_cell_angle_gamma 90.000000
_cell_volume 1201.657987
_symmetry_space_group_name_H-M "P 21/C"
_symmetry_group_IT_number 14
_symmetry_cell_setting 'monoclinic'
loop_
_space_group_symop_operation_xyz
x,y,z
-x,1/2+y,1/2-z
-x,-y,-z
x,1/2-y,1/2+z
loop_
_atom_site_type_symbol
_atom_site_label
_atom_site_fract_x
_atom_site_fract_y
_atom_site_fract_z
Si Si1 0.332604 0.922305 0.103560
Si Si2 0.834436 0.617767 0.535523
Si Si3 0.088431 0.545896 0.337108
Si Si4 0.442757 0.845736 0.408932
Si Si5 0.319858 0.265351 0.246137
Si Si6 0.980328 0.968762 0.687780
Si Si7 0.400105 0.736549 0.286427
O O1 0.529466 0.788204 0.161923
O O2 0.093702 0.875495 0.073964
O O3 0.453733 0.077115 0.160976
O O4 0.283587 0.979602 0.031397
O O5 0.820385 0.563012 0.592544
O O6 0.693844 0.782865 0.493130
O O7 0.265945 0.696098 0.375569
O O8 0.042717 0.489884 0.265326
O O9 0.834141 0.608621 0.292723
O O10 0.458256 0.853684 0.349022
O O11 0.296537 0.998511 0.391224
O O12 0.127621 0.404395 0.191429
O O13 0.503409 0.283178 0.245543
O O14 0.121778 0.806763 0.714239
#
# Coordination Sequence:
#
# PCOD9239937 Si02
#       7
#     4   4   4   4   4   4   4
#     4   9  19  32  51  86 110 135 181 230 267 322
#     4  10  18  33  55  83 115 136 177 233 274 318
#     4  10  19  34  56  84 108 141 180 230 273 320
#     4   9  19  31  50  80 111 138 176 224 283 322
#     4  10  19  33  55  82 106 146 184 224 276 318
#     4   9  20  33  50  84 109 138 184 230 272 324
#     4   9  17  32  51  75 107 140 185 226 262 325
#
# _framework density 23.30114
#
# number of rings (size 3 to 8) (size 9 to 14) (size 15 to 20)
#    0.000    2.571    1.429    1.286    2.000    0.000 
#    0.000    0.000    0.000    1.714    0.000    0.000 
#    0.000    0.000    0.000    0.000    0.000    0.000 
#
# Total GULP energy -156291.009905 kJ/mol
# GULP energy per Si atom -5581.821782 kJ/mol
# Density = 2.324811 g / cm^3
# Si number density = 23.301140 Si / 1000 Ang^3
#
#
#
# Elastic Constant Matrix: (Units=GPa)
#
#
# Indices 1 2 3 4 5 6 
#
# 1 110.7885 10.4124 13.2475 0.0000 -2.9605 0.0000
# 2 10.4124 15.7551 6.7018 0.0000 -3.1088 0.0000
# 3 13.2475 6.7018 57.4672 0.0000 4.0656 0.0000
# 4 0.0000 0.0000 0.0000 35.9236 0.0000 4.8895
# 5 -2.9605 -3.1088 4.0656 0.0000 37.6186 0.0000
# 6 0.0000 0.0000 0.0000 4.8895 0.0000 21.1021
#
#
#
# Elastic Compliance Matrix: (Units=1/GPa)
#
#
# Indices 1 2 3 4 5 6 
#
# 1 0.009766 -0.005670 -0.001624 0.000000 0.000475 0.000000
# 2 -0.005670 0.071646 -0.007493 0.000000 0.006285 0.000000
# 3 -0.001624 -0.007493 0.018846 0.000000 -0.002784 0.000000
# 4 0.000000 0.000000 0.000000 0.028743 0.000000 -0.006660
# 5 0.000475 0.006285 -0.002784 0.000000 0.027440 0.000000
# 6 0.000000 0.000000 0.000000 -0.006660 0.000000 0.048932
#
#
# Mechanical properties :
#
#
# Convention : Reuss Voigt Hill
#
# Bulk Modulus (GPa) = 14.14719 27.19269 20.66994
# Shear Modulus (GPa) = 19.34175 29.17211 24.25693
#
# Velocity S-wave (km/s) = 2.88423 3.54214 3.22998
# Velocity P-wave (km/s) = 4.14444 5.33146 4.77498
#
# Compressibility (1/GPa) = 0.07068542
#
# Stress axis : x y z
#
# Youngs Moduli (GPa) = 102.39686 13.95753 53.06074
#
# Poissons Ratio (x) = 0.07913 0.08616
# Poissons Ratio (y) = 0.58056 0.39758
# Poissons Ratio (z) = 0.16626 0.10458
#
# Static dielectric constant tensor:
#      x y z
#    x 1.863530 0.000000 0.032110 
#    y 0.000000 1.924270 0.000000 
#    z 0.032110 0.000000 1.910400 
# 
# From -- ./inp_files/55188.got.cif
#   From: 2010.05.17/outbox.cif.g08.bks.cpg/sg14_28_cif.got.tgz:55188.got - 2010.06.03 17:49:19.
