data_PCOD9239453
_publ_section_title
;
Structure prediction by ZEFSAII (Michael W. Deem and Ramdas Pophale) SiO2 
 PCOD9239453
Probable space group: P 21/C
;
_chemical_formula_sum "Si O2"
_cell_formula_units_Z 24
_cell_length_a 7.776471
_cell_length_b 13.849395
_cell_length_c 9.879734
_cell_angle_alpha 90.000000
_cell_angle_beta 129.411147
_cell_angle_gamma 90.000000
_cell_volume 822.089262
_symmetry_space_group_name_H-M "P 21/C"
_symmetry_group_IT_number 14
_symmetry_cell_setting 'monoclinic'
loop_
_space_group_symop_operation_xyz
x,y,z
-x,1/2+y,1/2-z
-x,-y,-z
x,1/2-y,1/2+z
loop_
_atom_site_type_symbol
_atom_site_label
_atom_site_fract_x
_atom_site_fract_y
_atom_site_fract_z
Si Si1 0.662971 0.949471 0.973781
Si Si2 0.937706 0.053106 0.613291
Si Si3 0.184302 0.359390 0.908936
Si Si4 0.734108 0.365501 0.359833
Si Si5 0.123413 0.244910 0.632554
Si Si6 0.337672 0.705670 0.379076
O O1 0.881406 0.943439 0.175736
O O2 0.519970 0.853019 0.880323
O O3 0.500000 0.000000 0.000000
O O4 0.695926 0.021325 0.864567
O O5 0.931196 0.166832 0.578968
O O6 0.765640 0.972166 0.578978
O O7 0.000000 0.000000 0.500000
O O8 0.254450 0.288912 0.823612
O O9 0.912422 0.340549 0.769387
O O10 0.250002 0.319107 0.087265
O O11 0.996665 0.336011 0.504683
O O12 0.669927 0.312961 0.188646
O O13 0.634049 0.318893 0.448205
#
# Coordination Sequence:
#
# PCOD9239453 Si02
#       6
#     4   4   4   4   4   4
#     4  10  17  33  56  79 101 138 179 215 253 313
#     4  10  18  30  52  81 102 135 178 214 250 314
#     4   9  16  32  50  76  98 135 170 209 254 306
#     4   9  17  32  55  76 103 138 175 207 266 314
#     4   9  17  29  51  72 102 134 169 206 253 310
#     4   9  17  31  56  79  97 138 175 212 254 311
#
# _framework density 29.193911
#
# number of rings (size 3 to 8) (size 9 to 14) (size 15 to 20)
#    0.000    2.667    5.000    0.000    0.000    0.000 
#    0.000    8.333    0.000    0.000    0.000    0.000 
#    0.000    0.000    0.000    0.000    0.000    0.000 
#
# Total GULP energy -134129.790188 kJ/mol
# GULP energy per Si atom -5588.741258 kJ/mol
# Density = 2.912746 g / cm^3
# Si number density = 29.193911 Si / 1000 Ang^3
#
#
#
# Elastic Constant Matrix: (Units=GPa)
#
#
# Indices 1 2 3 4 5 6 
#
# 1 74.8498 8.3323 32.3977 0.0000 -11.0879 0.0000
# 2 8.3323 158.6602 31.7680 0.0000 -12.9497 0.0000
# 3 32.3977 31.7680 181.6503 0.0000 -30.5836 0.0000
# 4 0.0000 0.0000 0.0000 50.2301 0.0000 -14.7476
# 5 -11.0879 -12.9497 -30.5836 0.0000 46.7924 0.0000
# 6 0.0000 0.0000 0.0000 -14.7476 0.0000 46.2992
#
#
#
# Elastic Compliance Matrix: (Units=1/GPa)
#
#
# Indices 1 2 3 4 5 6 
#
# 1 0.014643 -0.000158 -0.002255 0.000000 0.001952 0.000000
# 2 -0.000158 0.006593 -0.000926 0.000000 0.001182 0.000000
# 3 -0.002255 -0.000926 0.006670 0.000000 0.003569 0.000000
# 4 0.000000 0.000000 0.000000 0.021962 0.000000 0.006996
# 5 0.001952 0.001182 0.003569 0.000000 0.024493 0.000000
# 6 0.000000 0.000000 0.000000 0.006996 0.000000 0.023827
#
#
# Mechanical properties :
#
#
# Convention : Reuss Voigt Hill
#
# Bulk Modulus (GPa) = 47.10843 62.23957 54.67400
# Shear Modulus (GPa) = 44.66560 51.50851 48.08706
#
# Velocity S-wave (km/s) = 3.91572 4.20498 4.06293
# Velocity P-wave (km/s) = 6.05105 6.70384 6.38579
#
# Compressibility (1/GPa) = 0.02122762
#
# Stress axis : x y z
#
# Youngs Moduli (GPa) = 68.29191 151.67772 149.92230
#
# Poissons Ratio (x) = 0.02398 0.33812
# Poissons Ratio (y) = 0.01080 0.13880
# Poissons Ratio (z) = 0.15402 0.14042
#
# Static dielectric constant tensor:
#      x y z
#    x 2.434890 0.000000 0.045100 
#    y 0.000000 2.349380 0.000000 
#    z 0.045100 0.000000 2.236480 
# 
# From -- ./inp_files/29602.got.cif
#   From: 2010.05.17/outbox.cif.g08.bks.cpg/sg14_15_cif.got.tgz:29602.got - 2010.06.03 17:49:19.
