data_PCOD9239167
_publ_section_title
;
Structure prediction by ZEFSAII (Michael W. Deem and Ramdas Pophale) SiO2 
 PCOD9239167
Probable space group: P 21/C
;
_chemical_formula_sum "Si O2"
_cell_formula_units_Z 30
_cell_length_a 11.901323
_cell_length_b 10.206542
_cell_length_c 12.206318
_cell_angle_alpha 90.000000
_cell_angle_beta 129.350150
_cell_angle_gamma 90.000000
_cell_volume 1146.564340
_symmetry_space_group_name_H-M "P 21/C"
_symmetry_group_IT_number 14
_symmetry_cell_setting 'monoclinic'
loop_
_space_group_symop_operation_xyz
x,y,z
-x,1/2+y,1/2-z
-x,-y,-z
x,1/2-y,1/2+z
loop_
_atom_site_type_symbol
_atom_site_label
_atom_site_fract_x
_atom_site_fract_y
_atom_site_fract_z
Si Si1 0.567811 0.822093 0.761489
Si Si2 0.699038 0.334899 0.482407
Si Si3 0.651758 0.133830 0.200146
Si Si4 0.134664 0.932485 0.492715
Si Si5 0.117220 0.243232 0.607230
Si Si6 0.838559 0.104771 0.863410
Si Si7 0.500000 0.500000 0.000000
Si Si8 0.205554 0.392543 0.852878
O O1 0.458448 0.706466 0.657545
O O2 0.506488 0.864649 0.842379
O O3 0.730717 0.768529 0.857666
O O4 0.537845 0.929008 0.645936
O O5 0.675681 0.391339 0.588058
O O6 0.794254 0.196380 0.531002
O O7 0.878386 0.944748 0.594753
O O8 0.746594 0.045770 0.339828
O O9 0.728682 0.277766 0.260129
O O10 0.222810 0.569329 0.554573
O O11 0.985407 0.881693 0.449246
O O12 0.153720 0.265164 0.759272
O O13 0.000528 0.344471 0.482438
O O14 0.826372 0.000840 0.761120
O O15 0.376028 0.407359 0.978967
#
# Coordination Sequence:
#
# PCOD9239167 Si02
#       8
#     4   4   4   4   4   4   2   4
#     4   9  17  29  46  81 104 134 178 229 257 322
#     4   9  16  31  52  77 101 145 180 214 275 326
#     4   9  15  30  51  75 103 140 183 217 272 329
#     4   9  18  32  51  81 104 144 181 227 273 326
#     4   9  20  31  50  84 110 137 190 216 270 332
#     4   9  18  31  52  78 108 141 180 219 271 331
#     4  10  16  28  54  80 102 126 184 228 264 304
#     4  11  17  33  57  81 110 140 183 233 270 319
#
# _framework density 26.165126999999998
#
# number of rings (size 3 to 8) (size 9 to 14) (size 15 to 20)
#    0.000    3.200    4.000    0.400    0.000    0.000 
#    2.400    0.000    0.000    6.400   27.733    0.933 
#    0.000    0.000    0.000    0.000    0.000    0.000 
#
# Total GULP energy -167256.473397 kJ/mol
# GULP energy per Si atom -5575.215780 kJ/mol
# Density = 2.610557 g / cm^3
# Si number density = 26.165127 Si / 1000 Ang^3
#
#
#
# Elastic Constant Matrix: (Units=GPa)
#
#
# Indices 1 2 3 4 5 6 
#
# 1 233.6913 29.5868 90.6291 0.0000 -0.1714 0.0000
# 2 29.5868 58.9542 38.8623 0.0000 7.3932 0.0000
# 3 90.6291 38.8623 91.1248 0.0000 7.0718 0.0000
# 4 0.0000 0.0000 0.0000 29.3294 0.0000 -0.2047
# 5 -0.1714 7.3932 7.0718 0.0000 66.7117 0.0000
# 6 0.0000 0.0000 0.0000 -0.2047 0.0000 29.3453
#
#
#
# Elastic Compliance Matrix: (Units=1/GPa)
#
#
# Indices 1 2 3 4 5 6 
#
# 1 0.007091 0.001447 -0.007722 0.000000 0.000676 0.000000
# 2 0.001447 0.024053 -0.011586 0.000000 -0.001434 0.000000
# 3 -0.007722 -0.011586 0.023692 0.000000 -0.001247 0.000000
# 4 0.000000 0.000000 0.000000 0.034097 0.000000 0.000238
# 5 0.000676 -0.001434 -0.001247 0.000000 0.015283 0.000000
# 6 0.000000 0.000000 0.000000 0.000238 0.000000 0.034079
#
#
# Mechanical properties :
#
#
# Convention : Reuss Voigt Hill
#
# Bulk Modulus (GPa) = 52.31706 77.99186 65.15446
# Shear Modulus (GPa) = 27.71791 40.05674 33.88732
#
# Velocity S-wave (km/s) = 3.25829 3.91694 3.60270
# Velocity P-wave (km/s) = 5.84753 7.09428 6.50087
#
# Compressibility (1/GPa) = 0.01911422
#
# Stress axis : x y z
#
# Youngs Moduli (GPa) = 141.01870 41.57433 42.20846
#
# Poissons Ratio (x) = -0.06015 0.32594
# Poissons Ratio (y) = -0.20402 0.48902
# Poissons Ratio (z) = 1.08897 0.48167
#
# Static dielectric constant tensor:
#      x y z
#    x 2.069900 0.000000 -0.023820 
#    y 0.000000 2.233500 0.000000 
#    z -0.023820 0.000000 2.076000 
# 
# From -- ./inp_files/45230.got.cif
#   From: 2010.05.17/outbox.cif.g08.bks.cpg/sg14_23_cif.got.tgz:45230.got - 2010.06.03 17:49:19.
