data_PCOD9239889
_publ_section_title
;
Structure prediction by ZEFSAII (Michael W. Deem and Ramdas Pophale) SiO2 
 PCOD9239889
Probable space group: P 21/C
;
_chemical_formula_sum "Si O2"
_cell_formula_units_Z 22
_cell_length_a 5.581579
_cell_length_b 16.554562
_cell_length_c 8.697844
_cell_angle_alpha 90.000000
_cell_angle_beta 82.817915
_cell_angle_gamma 90.000000
_cell_volume 797.380119
_symmetry_space_group_name_H-M "P 21/C"
_symmetry_group_IT_number 14
_symmetry_cell_setting 'monoclinic'
loop_
_space_group_symop_operation_xyz
x,y,z
-x,1/2+y,1/2-z
-x,-y,-z
x,1/2-y,1/2+z
loop_
_atom_site_type_symbol
_atom_site_label
_atom_site_fract_x
_atom_site_fract_y
_atom_site_fract_z
Si Si1 0.916848 0.803073 0.066432
Si Si2 0.149086 0.593749 0.325972
Si Si3 0.592918 0.259290 0.844495
Si Si4 0.500000 0.000000 0.000000
Si Si5 0.415640 0.906415 0.337672
Si Si6 0.905190 0.567242 0.847218
O O1 0.682681 0.746500 0.074293
O O2 0.902791 0.863523 0.213349
O O3 0.177372 0.761176 0.064154
O O4 0.920858 0.856974 0.911783
O O5 0.331863 0.656344 0.234682
O O6 0.282472 0.557435 0.462751
O O7 0.065140 0.519377 0.233257
O O8 0.588965 0.185278 0.723469
O O9 0.527596 0.037182 0.816113
O O10 0.636905 0.923345 0.434524
O O11 0.148129 0.920636 0.421930
#
# Coordination Sequence:
#
# PCOD9239889 Si02
#       6
#     4   4   4   2   4   4
#     4  10  21  38  52  80 125 147 192 240 288 362
#     4  11  21  34  62  88 120 155 188 250 300 340
#     4  10  22  35  51  86 122 153 188 234 306 346
#     4  10  18  32  60  84 110 144 192 244 294 324
#     4   9  18  31  49  77 114 137 181 231 282 348
#     4   9  18  30  53  79 102 142 180 233 289 329
#
# _framework density 27.590354000000001
#
# number of rings (size 3 to 8) (size 9 to 14) (size 15 to 20)
#    0.000    2.182    3.636    0.545    5.091    4.364 
#    0.000    0.000    0.000    0.000    0.000   48.364 
#    0.000    0.000    0.000    0.000    0.000    0.000 
#
# Total GULP energy -122807.460710 kJ/mol
# GULP energy per Si atom -5582.157305 kJ/mol
# Density = 2.752756 g / cm^3
# Si number density = 27.590354 Si / 1000 Ang^3
#
#
#
# Elastic Constant Matrix: (Units=GPa)
#
#
# Indices 1 2 3 4 5 6 
#
# 1 228.4112 50.8262 34.2159 0.0000 -29.6477 0.0000
# 2 50.8262 74.5084 30.9485 0.0000 -5.7284 0.0000
# 3 34.2159 30.9485 74.2653 0.0000 -8.4725 0.0000
# 4 0.0000 0.0000 0.0000 38.6185 0.0000 -5.8287
# 5 -29.6477 -5.7284 -8.4725 0.0000 25.4430 0.0000
# 6 0.0000 0.0000 0.0000 -5.8287 0.0000 18.3855
#
#
#
# Elastic Compliance Matrix: (Units=1/GPa)
#
#
# Indices 1 2 3 4 5 6 
#
# 1 0.006007 -0.003351 -0.000685 0.000000 0.006018 0.000000
# 2 -0.003351 0.018152 -0.006237 0.000000 -0.001895 0.000000
# 3 -0.000685 -0.006237 0.016766 0.000000 0.003381 0.000000
# 4 0.000000 0.000000 0.000000 0.027196 0.000000 0.008622
# 5 0.006018 -0.001895 0.003381 0.000000 0.047015 0.000000
# 6 0.000000 0.000000 0.000000 0.008622 0.000000 0.057124
#
#
# Mechanical properties :
#
#
# Convention : Reuss Voigt Hill
#
# Bulk Modulus (GPa) = 49.06788 67.68512 58.37650
# Shear Modulus (GPa) = 25.05040 33.90236 29.47638
#
# Velocity S-wave (km/s) = 3.01647 3.50919 3.27212
# Velocity P-wave (km/s) = 5.47313 6.40349 5.95650
#
# Compressibility (1/GPa) = 0.02037993
#
# Stress axis : x y z
#
# Youngs Moduli (GPa) = 166.46188 55.09024 59.64626
#
# Poissons Ratio (x) = 0.18460 0.04085
# Poissons Ratio (y) = 0.55779 0.37200
# Poissons Ratio (z) = 0.11400 0.34359
#
# Static dielectric constant tensor:
#      x y z
#    x 2.221300 0.000000 -0.084340 
#    y 0.000000 2.231530 0.000000 
#    z -0.084340 0.000000 2.163510 
# 
# From -- ./inp_files/21186.got.cif
#   From: 2010.05.17/outbox.cif.g08.bks.cpg/sg14_11_cif.got.tgz:21186.got - 2010.06.03 17:49:19.
