data_PCOD9239740
_publ_section_title
;
Structure prediction by ZEFSAII (Michael W. Deem and Ramdas Pophale) SiO2 
 PCOD9239740
Probable space group: P 21/C
;
_chemical_formula_sum "Si O2"
_cell_formula_units_Z 30
_cell_length_a 16.294652
_cell_length_b 6.740674
_cell_length_c 13.849178
_cell_angle_alpha 90.000000
_cell_angle_beta 130.672982
_cell_angle_gamma 90.000000
_cell_volume 1153.704650
_symmetry_space_group_name_H-M "P 21/C"
_symmetry_group_IT_number 14
_symmetry_cell_setting 'monoclinic'
loop_
_space_group_symop_operation_xyz
x,y,z
-x,1/2+y,1/2-z
-x,-y,-z
x,1/2-y,1/2+z
loop_
_atom_site_type_symbol
_atom_site_label
_atom_site_fract_x
_atom_site_fract_y
_atom_site_fract_z
Si Si1 0.920157 0.787392 0.484708
Si Si2 0.350276 0.499580 0.109512
Si Si3 0.578854 0.927395 0.849010
Si Si4 0.848289 0.638390 0.139859
Si Si5 0.219644 0.895125 0.908254
Si Si6 0.952635 0.354521 0.574179
Si Si7 0.500000 0.500000 0.500000
Si Si8 0.730165 0.475632 0.753467
O O1 0.913158 0.873195 0.587287
O O2 0.905256 0.552559 0.491201
O O3 0.822335 0.869057 0.347452
O O4 0.025555 0.797325 0.496415
O O5 0.356369 0.262211 0.138635
O O6 0.478354 0.541864 0.198795
O O7 0.299299 0.606672 0.163690
O O8 0.262848 0.488904 0.956215
O O9 0.522335 0.896581 0.909657
O O10 0.665103 0.098891 0.945830
O O11 0.814753 0.870678 0.124962
O O12 0.932948 0.591316 0.288362
O O13 0.234512 0.835703 0.808097
O O14 0.125378 0.796946 0.898117
O O15 0.619897 0.567823 0.627853
#
# Coordination Sequence:
#
# PCOD9239740 Si02
#       8
#     4   4   4   4   4   4   2   4
#     4   9  18  30  52  78 107 146 191 240 291 350
#     4   9  18  31  55  81 110 147 195 241 305 360
#     4   9  17  33  54  81 108 148 190 243 301 364
#     4   9  17  32  52  77 104 146 191 240 288 352
#     4   9  17  30  54  76 103 147 187 236 290 351
#     4  10  18  31  52  81 107 145 199 238 285 353
#     4   8  16  28  58  84 106 138 192 250 288 364
#     4   9  15  31  53  83 104 143 195 238 298 357
#
# _framework density 26.003187
#
# number of rings (size 3 to 8) (size 9 to 14) (size 15 to 20)
#    0.000    2.933    1.333    0.800    0.000    0.000 
#    0.000    5.333    8.800   12.800    0.000    0.000 
#    0.000    0.000    0.000    0.000    0.000    0.000 
#
# Total GULP energy -167037.900788 kJ/mol
# GULP energy per Si atom -5567.930026 kJ/mol
# Density = 2.594400 g / cm^3
# Si number density = 26.003187 Si / 1000 Ang^3
#
#
#
# Elastic Constant Matrix: (Units=GPa)
#
#
# Indices 1 2 3 4 5 6 
#
# 1 130.9894 32.6480 40.0887 0.0000 -21.8492 0.0000
# 2 32.6480 50.7630 51.8960 0.0000 -6.5896 0.0000
# 3 40.0887 51.8960 194.8647 0.0000 16.1073 0.0000
# 4 0.0000 0.0000 0.0000 39.8641 0.0000 5.2924
# 5 -21.8492 -6.5896 16.1073 0.0000 46.4896 0.0000
# 6 0.0000 0.0000 0.0000 5.2924 0.0000 33.8496
#
#
#
# Elastic Compliance Matrix: (Units=1/GPa)
#
#
# Indices 1 2 3 4 5 6 
#
# 1 0.009867 -0.004574 -0.001175 0.000000 0.004396 0.000000
# 2 -0.004574 0.031257 -0.007795 0.000000 0.004982 0.000000
# 3 -0.001175 -0.007795 0.007810 0.000000 -0.004363 0.000000
# 4 0.000000 0.000000 0.000000 0.025617 0.000000 -0.004005
# 5 0.004396 0.004982 -0.004363 0.000000 0.025794 0.000000
# 6 0.000000 0.000000 0.000000 -0.004005 0.000000 0.030169
#
#
# Mechanical properties :
#
#
# Convention : Reuss Voigt Hill
#
# Bulk Modulus (GPa) = 45.77543 69.54250 57.65896
# Shear Modulus (GPa) = 30.32432 40.83962 35.58197
#
# Velocity S-wave (km/s) = 3.41864 3.96733 3.70316
# Velocity P-wave (km/s) = 5.76409 6.91290 6.36447
#
# Compressibility (1/GPa) = 0.02184578
#
# Stress axis : x y z
#
# Youngs Moduli (GPa) = 101.34605 31.99306 128.03842
#
# Poissons Ratio (x) = 0.14633 0.15047
# Poissons Ratio (y) = 0.46355 0.99807
# Poissons Ratio (z) = 0.11910 0.24939
#
# Static dielectric constant tensor:
#      x y z
#    x 2.118850 0.000000 0.044270 
#    y 0.000000 2.151440 0.000000 
#    z 0.044270 0.000000 1.992300 
# 
# From -- ./inp_files/48721.got.cif
#   From: 2010.05.17/outbox.cif.g08.bks.cpg/sg14_25_cif.got.tgz:48721.got - 2010.06.03 17:49:19.
