data_PCOD9239849
_publ_section_title
;
Structure prediction by ZEFSAII (Michael W. Deem and Ramdas Pophale) SiO2 
 PCOD9239849
Probable space group: P 21/C
;
_chemical_formula_sum "Si O2"
_cell_formula_units_Z 32
_cell_length_a 8.405420
_cell_length_b 19.367113
_cell_length_c 8.245165
_cell_angle_alpha 90.000000
_cell_angle_beta 73.765790
_cell_angle_gamma 90.000000
_cell_volume 1288.701429
_symmetry_space_group_name_H-M "P 21/C"
_symmetry_group_IT_number 14
_symmetry_cell_setting 'monoclinic'
loop_
_space_group_symop_operation_xyz
x,y,z
-x,1/2+y,1/2-z
-x,-y,-z
x,1/2-y,1/2+z
loop_
_atom_site_type_symbol
_atom_site_label
_atom_site_fract_x
_atom_site_fract_y
_atom_site_fract_z
Si Si1 0.717207 0.953303 0.797852
Si Si2 0.598410 0.279251 0.218395
Si Si3 0.205503 0.889225 0.168740
Si Si4 0.301590 0.338354 0.146875
Si Si5 0.917841 0.576826 0.546883
Si Si6 0.057675 0.361091 0.973929
Si Si7 0.219117 0.666327 0.152052
Si Si8 0.459878 0.934954 0.621926
O O1 0.835379 0.926581 0.617357
O O2 0.533419 0.940422 0.780839
O O3 0.725959 0.033696 0.838060
O O4 0.797012 0.914698 0.927983
O O5 0.651304 0.333284 0.344420
O O6 0.404287 0.285855 0.230772
O O7 0.684664 0.208078 0.238983
O O8 0.696592 0.304136 0.033513
O O9 0.083480 0.879948 0.048998
O O10 0.084398 0.884446 0.360690
O O11 0.206887 0.398886 0.273493
O O12 0.170435 0.311144 0.052270
O O13 0.439667 0.374749 0.997117
O O14 0.000000 0.500000 0.500000
O O15 0.972549 0.327963 0.839648
O O16 0.268699 0.586504 0.164918
O O17 0.500000 0.000000 0.500000
#
# Coordination Sequence:
#
# PCOD9239849 Si02
#       8
#     4   4   4   4   4   4   4   4
#     4  10  18  32  55  84 110 140 189 235 272 334
#     4  10  21  39  57  78 113 151 190 228 279 346
#     4   9  18  35  55  79 114 150 178 228 291 336
#     4   9  19  37  57  79 113 152 178 226 292 334
#     4   9  19  33  51  82 116 144 183 232 286 335
#     4   9  18  34  57  81 106 144 193 232 273 326
#     4  10  22  38  56  84 114 150 189 234 285 338
#     4  10  20  36  58  83 110 145 194 241 282 331
#
# _framework density 24.831197
#
# number of rings (size 3 to 8) (size 9 to 14) (size 15 to 20)
#    0.000    2.500    0.000    2.625    0.000    6.000 
#    0.000   19.375    0.000    0.000    0.000    0.000 
#    0.000    0.000    0.000    0.000    0.000    0.000 
#
# Total GULP energy -178351.242047 kJ/mol
# GULP energy per Si atom -5573.476314 kJ/mol
# Density = 2.477468 g / cm^3
# Si number density = 24.831197 Si / 1000 Ang^3
#
#
#
# Elastic Constant Matrix: (Units=GPa)
#
#
# Indices 1 2 3 4 5 6 
#
# 1 137.2137 43.3601 36.0825 0.0000 48.1319 0.0000
# 2 43.3601 60.1459 9.5028 0.0000 15.1159 0.0000
# 3 36.0825 9.5028 63.7283 0.0000 17.1592 0.0000
# 4 0.0000 0.0000 0.0000 23.9687 0.0000 5.1970
# 5 48.1319 15.1159 17.1592 0.0000 50.2146 0.0000
# 6 0.0000 0.0000 0.0000 5.1970 0.0000 28.4901
#
#
#
# Elastic Compliance Matrix: (Units=1/GPa)
#
#
# Indices 1 2 3 4 5 6 
#
# 1 0.014118 -0.006999 -0.004266 0.000000 -0.009968 0.000000
# 2 -0.006999 0.021562 0.000759 0.000000 -0.000042 0.000000
# 3 -0.004266 0.000759 0.018672 0.000000 -0.002520 0.000000
# 4 0.000000 0.000000 0.000000 0.043439 0.000000 -0.007924
# 5 -0.009968 -0.000042 -0.002520 0.000000 0.030342 0.000000
# 6 0.000000 0.000000 0.000000 -0.007924 0.000000 0.036545
#
#
# Mechanical properties :
#
#
# Convention : Reuss Voigt Hill
#
# Bulk Modulus (GPa) = 29.99361 48.77540 39.38450
# Shear Modulus (GPa) = 25.40588 32.01085 28.70837
#
# Velocity S-wave (km/s) = 3.20213 3.59435 3.40390
# Velocity P-wave (km/s) = 5.07708 6.07546 5.59857
#
# Compressibility (1/GPa) = 0.03334044
#
# Stress axis : x y z
#
# Youngs Moduli (GPa) = 70.83278 46.37728 53.55505
#
# Poissons Ratio (x) = 0.32458 0.22846
# Poissons Ratio (y) = 0.49573 -0.04062
# Poissons Ratio (z) = 0.30217 -0.03518
#
# Static dielectric constant tensor:
#      x y z
#    x 2.075420 0.000000 0.040880 
#    y 0.000000 2.007100 0.000000 
#    z 0.040880 0.000000 2.024920 
# 
# From -- ./inp_files/10221.got.cif
#   From: 2010.05.17/outbox.cif.g08.bks.cpg/sg14_6_cif.got.tgz:10221.got - 2010.06.03 17:49:19.
