data_PCOD9239158
_publ_section_title
;
Structure prediction by ZEFSAII (Michael W. Deem and Ramdas Pophale) SiO2 
 PCOD9239158
Probable space group: P 21/C
;
_chemical_formula_sum "Si O2"
_cell_formula_units_Z 32
_cell_length_a 12.865728
_cell_length_b 14.919724
_cell_length_c 9.059455
_cell_angle_alpha 90.000000
_cell_angle_beta 105.134932
_cell_angle_gamma 90.000000
_cell_volume 1678.671295
_symmetry_space_group_name_H-M "P 21/C"
_symmetry_group_IT_number 14
_symmetry_cell_setting 'monoclinic'
loop_
_space_group_symop_operation_xyz
x,y,z
-x,1/2+y,1/2-z
-x,-y,-z
x,1/2-y,1/2+z
loop_
_atom_site_type_symbol
_atom_site_label
_atom_site_fract_x
_atom_site_fract_y
_atom_site_fract_z
Si Si1 0.862577 0.052886 0.358902
Si Si2 0.471666 0.361977 0.512196
Si Si3 0.024840 0.588120 0.805723
Si Si4 0.682546 0.022497 0.090509
Si Si5 0.156526 0.577184 0.592360
Si Si6 0.537248 0.292212 0.835409
Si Si7 0.317688 0.817950 0.343862
Si Si8 0.100901 0.715278 0.333882
O O1 0.884920 0.066768 0.537842
O O2 0.916533 0.137856 0.294286
O O3 0.739233 0.048718 0.264381
O O4 0.919870 0.961461 0.326910
O O5 0.378403 0.429097 0.431107
O O6 0.588754 0.406046 0.520246
O O7 0.472040 0.348918 0.689908
O O8 0.466307 0.272340 0.413384
O O9 0.062564 0.544428 0.665386
O O10 0.026371 0.696607 0.795501
O O11 0.782041 0.023633 0.012424
O O12 0.253486 0.604272 0.737845
O O13 0.106363 0.664604 0.492336
O O14 0.610032 0.231335 0.752582
O O15 0.612565 0.340186 0.985433
O O16 0.222718 0.750489 0.356488
#
# Coordination Sequence:
#
# PCOD9239158 Si02
#       8
#     4   4   4   4   4   4   4   4
#     4  10  21  38  56  80 117 146 175 239 278 326
#     4  10  21  35  56  79 109 146 188 223 270 329
#     4  10  21  33  57  87 110 139 188 228 276 332
#     4  10  21  38  53  78 114 149 175 225 286 324
#     4  10  18  31  53  81 107 139 180 229 272 329
#     4  10  17  30  53  77 105 138 180 225 263 321
#     4  10  16  27  48  83 105 132 171 229 274 311
#     4  10  19  31  54  82 114 138 180 225 286 324
#
# _framework density 19.062695999999999
#
# number of rings (size 3 to 8) (size 9 to 14) (size 15 to 20)
#    0.000    2.000    2.500    3.750    5.250    2.000 
#    0.000    3.125   11.000    0.000    0.000    0.000 
#    0.000    0.000    0.000    0.000    0.000    0.000 
#
# Total GULP energy -178309.600179 kJ/mol
# GULP energy per Si atom -5572.175006 kJ/mol
# Density = 1.901931 g / cm^3
# Si number density = 19.062696 Si / 1000 Ang^3
#
#
#
# Elastic Constant Matrix: (Units=GPa)
#
#
# Indices 1 2 3 4 5 6 
#
# 1 23.3000 8.3329 4.0943 0.0000 -4.3982 0.0000
# 2 8.3329 53.1554 7.8014 0.0000 0.0586 0.0000
# 3 4.0943 7.8014 104.6730 0.0000 -9.8213 0.0000
# 4 0.0000 0.0000 0.0000 18.4853 0.0000 -0.5976
# 5 -4.3982 0.0586 -9.8213 0.0000 15.7435 0.0000
# 6 0.0000 0.0000 0.0000 -0.5976 0.0000 16.6776
#
#
#
# Elastic Compliance Matrix: (Units=1/GPa)
#
#
# Indices 1 2 3 4 5 6 
#
# 1 0.048170 -0.007558 -0.000059 0.000000 0.013448 0.000000
# 2 -0.007558 0.020222 -0.001505 0.000000 -0.003125 0.000000
# 3 -0.000059 -0.001505 0.010268 0.000000 0.006395 0.000000
# 4 0.000000 0.000000 0.000000 0.054160 0.000000 0.001941
# 5 0.013448 -0.003125 0.006395 0.000000 0.071276 0.000000
# 6 0.000000 0.000000 0.000000 0.001941 0.000000 0.060030
#
#
# Mechanical properties :
#
#
# Convention : Reuss Voigt Hill
#
# Bulk Modulus (GPa) = 16.55157 24.62064 20.58610
# Shear Modulus (GPa) = 16.52846 20.90791 18.71819
#
# Velocity S-wave (km/s) = 2.94778 3.31539 3.13697
# Velocity P-wave (km/s) = 4.50416 5.25351 4.89320
#
# Compressibility (1/GPa) = 0.06041724
#
# Stress axis : x y z
#
# Youngs Moduli (GPa) = 20.75964 49.45149 97.38972
#
# Poissons Ratio (x) = 0.37374 0.00575
# Poissons Ratio (y) = 0.15689 0.14655
# Poissons Ratio (z) = 0.00123 0.07441
#
# Static dielectric constant tensor:
#      x y z
#    x 1.656540 0.000000 -0.015580 
#    y 0.000000 1.689350 0.000000 
#    z -0.015580 0.000000 1.712260 
# 
# From -- ./inp_files/16096.got.cif
#   From: 2010.05.17/outbox.cif.g08.bks.cpg/sg14_9_cif.got.tgz:16096.got - 2010.06.03 17:49:19.
