data_PCOD9239698
_publ_section_title
;
Structure prediction by ZEFSAII (Michael W. Deem and Ramdas Pophale) SiO2 
 PCOD9239698
Probable space group: P 21/C
;
_chemical_formula_sum "Si O2"
_cell_formula_units_Z 30
_cell_length_a 16.392007
_cell_length_b 8.038283
_cell_length_c 16.273272
_cell_angle_alpha 90.000000
_cell_angle_beta 30.836182
_cell_angle_gamma 90.000000
_cell_volume 1099.097859
_symmetry_space_group_name_H-M "P 21/C"
_symmetry_group_IT_number 14
_symmetry_cell_setting 'monoclinic'
loop_
_space_group_symop_operation_xyz
x,y,z
-x,1/2+y,1/2-z
-x,-y,-z
x,1/2-y,1/2+z
loop_
_atom_site_type_symbol
_atom_site_label
_atom_site_fract_x
_atom_site_fract_y
_atom_site_fract_z
Si Si1 0.091238 0.153264 0.703571
Si Si2 0.456959 0.524249 0.348859
Si Si3 0.500000 0.000000 0.500000
Si Si4 0.321371 0.325346 0.622702
Si Si5 0.947200 0.245714 0.605176
Si Si6 0.169847 0.443123 0.507973
Si Si7 0.300539 0.643524 0.040141
Si Si8 0.796239 0.030139 0.618485
O O1 0.171008 0.223575 0.717571
O O2 0.123099 0.289604 0.607749
O O3 0.172981 0.978932 0.607850
O O4 0.912055 0.103402 0.879832
O O5 0.390580 0.424501 0.485422
O O6 0.357270 0.463281 0.355793
O O7 0.399256 0.713040 0.410932
O O8 0.644644 0.489919 0.190421
O O9 0.448523 0.198033 0.549370
O O10 0.581803 0.012948 0.518930
O O11 0.268278 0.445940 0.741301
O O12 0.081648 0.390343 0.499999
O O13 0.048773 0.079142 0.537456
O O14 0.808691 0.282306 0.790582
O O15 0.857598 0.210363 0.596416
#
# Coordination Sequence:
#
# PCOD9239698 Si02
#       8
#     4   4   2   4   4   4   4   4
#     4   9  20  31  57  86 118 150 199 250 303 337
#     4  11  20  36  66  84 115 153 211 249 305 341
#     4  10  18  30  54  90 124 136 192 252 292 330
#     4  10  19  33  58  90 115 148 197 252 294 354
#     4  10  22  37  59  84 126 156 196 242 304 369
#     4  10  20  38  56  87 119 157 199 251 295 363
#     4  10  18  35  56  92 116 158 193 260 287 357
#     4  11  21  37  60  90 117 163 193 244 305 375
#
# _framework density 27.295112
#
# number of rings (size 3 to 8) (size 9 to 14) (size 15 to 20)
#    0.000    1.867    2.667    2.800    1.867    0.000 
#    0.000    7.333    2.933    0.000    0.000    0.000 
#    0.000    0.000    0.000    0.000    0.000    0.000 
#
# Total GULP energy -167490.211609 kJ/mol
# GULP energy per Si atom -5583.007054 kJ/mol
# Density = 2.723299 g / cm^3
# Si number density = 27.295112 Si / 1000 Ang^3
#
#
#
# Elastic Constant Matrix: (Units=GPa)
#
#
# Indices 1 2 3 4 5 6 
#
# 1 83.9665 20.2203 66.5560 0.0000 -39.3528 0.0000
# 2 20.2203 94.4768 37.7970 0.0000 -5.0442 0.0000
# 3 66.5560 37.7970 137.6535 0.0000 -10.6002 0.0000
# 4 0.0000 0.0000 0.0000 26.9978 0.0000 -17.4797
# 5 -39.3528 -5.0442 -10.6002 0.0000 54.6289 0.0000
# 6 0.0000 0.0000 0.0000 -17.4797 0.0000 52.2862
#
#
#
# Elastic Compliance Matrix: (Units=1/GPa)
#
#
# Indices 1 2 3 4 5 6 
#
# 1 0.033320 -0.000233 -0.014415 0.000000 0.021184 0.000000
# 2 -0.000233 0.011904 -0.003131 0.000000 0.000324 0.000000
# 3 -0.014415 -0.003131 0.014489 0.000000 -0.007862 0.000000
# 4 0.000000 0.000000 0.000000 0.047272 0.000000 0.015803
# 5 0.021184 0.000324 -0.007862 0.000000 0.032070 0.000000
# 6 0.000000 0.000000 0.000000 0.015803 0.000000 0.024409
#
#
# Mechanical properties :
#
#
# Convention : Reuss Voigt Hill
#
# Bulk Modulus (GPa) = 41.40017 62.80484 52.10251
# Shear Modulus (GPa) = 24.14596 39.55081 31.84839
#
# Velocity S-wave (km/s) = 2.97749 3.81071 3.41958
# Velocity P-wave (km/s) = 5.19819 6.51318 5.89248
#
# Compressibility (1/GPa) = 0.02415449
#
# Stress axis : x y z
#
# Youngs Moduli (GPa) = 30.01190 84.00240 69.01957
#
# Poissons Ratio (x) = 0.01960 0.99492
# Poissons Ratio (y) = 0.00700 0.21610
# Poissons Ratio (z) = 0.43262 0.26301
#
# Static dielectric constant tensor:
#      x y z
#    x 2.204030 0.000000 -0.083140 
#    y 0.000000 2.110630 0.000000 
#    z -0.083140 0.000000 2.113320 
# 
# From -- ./inp_files/69127.got.cif
#   From: 2010.05.17/outbox.cif.g08.bks.cpg/sg14_35_cif.got.tgz:69127.got - 2010.06.03 17:49:19.
