data_PCOD9239522
_publ_section_title
;
Structure prediction by ZEFSAII (Michael W. Deem and Ramdas Pophale) SiO2 
 PCOD9239522
Probable space group: P 21/C
;
_chemical_formula_sum "Si O2"
_cell_formula_units_Z 24
_cell_length_a 6.730799
_cell_length_b 16.357677
_cell_length_c 10.783326
_cell_angle_alpha 90.000000
_cell_angle_beta 57.343597
_cell_angle_gamma 90.000000
_cell_volume 999.568688
_symmetry_space_group_name_H-M "P 21/C"
_symmetry_group_IT_number 14
_symmetry_cell_setting 'monoclinic'
loop_
_space_group_symop_operation_xyz
x,y,z
-x,1/2+y,1/2-z
-x,-y,-z
x,1/2-y,1/2+z
loop_
_atom_site_type_symbol
_atom_site_label
_atom_site_fract_x
_atom_site_fract_y
_atom_site_fract_z
Si Si1 0.460063 0.680343 0.129985
Si Si2 0.103194 0.415098 0.409668
Si Si3 0.745487 0.951467 0.420222
Si Si4 0.713197 0.682641 0.437099
Si Si5 0.974488 0.389126 0.856369
Si Si6 0.154786 0.740987 0.427676
O O1 0.226956 0.627228 0.182032
O O2 0.401998 0.727695 0.275451
O O3 0.679596 0.619474 0.039828
O O4 0.503163 0.752973 0.016256
O O5 0.200465 0.422648 0.237962
O O6 0.292557 0.382009 0.447323
O O7 0.000000 0.500000 0.500000
O O8 0.910879 0.341464 0.474052
O O9 0.500000 0.000000 0.500000
O O10 0.947824 0.015233 0.389424
O O11 0.780620 0.636648 0.289162
O O12 0.945994 0.736674 0.393504
O O13 0.885745 0.325312 0.988323
#
# Coordination Sequence:
#
# PCOD9239522 Si02
#       6
#     4   4   4   4   4   4
#     4  10  20  34  53  82 105 141 183 218 262 323
#     4  10  17  35  55  79 106 140 179 222 258 319
#     4  10  19  31  54  81 106 139 183 219 258 317
#     4   9  20  33  54  79 105 138 179 213 272 308
#     4  10  19  36  53  82 107 138 175 224 264 318
#     4   9  21  34  54  80 110 138 179 220 269 313
#
# _framework density 24.010356999999999
#
# number of rings (size 3 to 8) (size 9 to 14) (size 15 to 20)
#    1.000    1.333    1.667    2.000    4.667    0.000 
#    0.000    0.833    0.000    1.000    0.000    0.000 
#    0.000    0.000    0.000    0.000    0.000    0.000 
#
# Total GULP energy -133756.045931 kJ/mol
# GULP energy per Si atom -5573.168580 kJ/mol
# Density = 2.395571 g / cm^3
# Si number density = 24.010357 Si / 1000 Ang^3
#
#
#
# Elastic Constant Matrix: (Units=GPa)
#
#
# Indices 1 2 3 4 5 6 
#
# 1 29.3779 3.4467 7.9420 0.0000 4.1344 0.0000
# 2 3.4467 84.6010 61.9024 0.0000 -2.6509 0.0000
# 3 7.9420 61.9024 202.7586 0.0000 14.0147 0.0000
# 4 0.0000 0.0000 0.0000 49.3314 0.0000 3.7460
# 5 4.1344 -2.6509 14.0147 0.0000 28.7920 0.0000
# 6 0.0000 0.0000 0.0000 3.7460 0.0000 36.3399
#
#
#
# Elastic Compliance Matrix: (Units=1/GPa)
#
#
# Indices 1 2 3 4 5 6 
#
# 1 0.035029 -0.001049 -0.000722 0.000000 -0.004775 0.000000
# 2 -0.001049 0.015662 -0.005020 0.000000 0.004036 0.000000
# 3 -0.000722 -0.005020 0.006744 0.000000 -0.003641 0.000000
# 4 0.000000 0.000000 0.000000 0.020431 0.000000 -0.002106
# 5 -0.004775 0.004036 -0.003641 0.000000 0.037562 0.000000
# 6 0.000000 0.000000 0.000000 -0.002106 0.000000 0.027735
#
#
# Mechanical properties :
#
#
# Convention : Reuss Voigt Hill
#
# Bulk Modulus (GPa) = 22.80193 51.47997 37.14095
# Shear Modulus (GPa) = 29.17794 39.12242 34.15018
#
# Velocity S-wave (km/s) = 3.48979 4.04096 3.77544
# Velocity P-wave (km/s) = 5.07498 6.57721 5.87432
#
# Compressibility (1/GPa) = 0.04385594
#
# Stress axis : x y z
#
# Youngs Moduli (GPa) = 28.54748 63.84801 148.27062
#
# Poissons Ratio (x) = 0.06695 0.10704
# Poissons Ratio (y) = 0.02993 0.74426
# Poissons Ratio (z) = 0.02061 0.32049
#
# Static dielectric constant tensor:
#      x y z
#    x 2.019710 0.000000 0.023710 
#    y 0.000000 2.002300 0.000000 
#    z 0.023710 0.000000 1.917210 
# 
# From -- ./inp_files/40791.got.cif
#   From: 2010.05.17/outbox.cif.g08.bks.cpg/sg14_21_cif.got.tgz:40791.got - 2010.06.03 17:49:19.
