data_PCOD9239815
_publ_section_title
;
Structure prediction by ZEFSAII (Michael W. Deem and Ramdas Pophale) SiO2 
 PCOD9239815
Probable space group: P 21/C
;
_chemical_formula_sum "Si O2"
_cell_formula_units_Z 32
_cell_length_a 13.927456
_cell_length_b 18.611115
_cell_length_c 7.910405
_cell_angle_alpha 90.000000
_cell_angle_beta 130.770614
_cell_angle_gamma 90.000000
_cell_volume 1552.845029
_symmetry_space_group_name_H-M "P 21/C"
_symmetry_group_IT_number 14
_symmetry_cell_setting 'monoclinic'
loop_
_space_group_symop_operation_xyz
x,y,z
-x,1/2+y,1/2-z
-x,-y,-z
x,1/2-y,1/2+z
loop_
_atom_site_type_symbol
_atom_site_label
_atom_site_fract_x
_atom_site_fract_y
_atom_site_fract_z
Si Si1 0.106688 0.491028 0.872256
Si Si2 0.134495 0.077098 0.775757
Si Si3 0.724673 0.291586 0.755079
Si Si4 0.636996 0.067897 0.296252
Si Si5 0.387781 0.997113 0.113814
Si Si6 0.007137 0.288133 0.238187
Si Si7 0.998013 0.359331 0.594000
Si Si8 0.286056 0.858081 0.132017
O O1 0.082517 0.429819 0.706852
O O2 0.983036 0.539378 0.762563
O O3 0.126578 0.449624 0.073304
O O4 0.228915 0.539692 0.979676
O O5 0.108122 0.161454 0.760661
O O6 0.267760 0.049261 0.000276
O O7 0.644463 0.346978 0.775723
O O8 0.724516 0.322270 0.566175
O O9 0.678628 0.209540 0.710914
O O10 0.868903 0.293899 0.990951
O O11 0.519644 0.038987 0.268195
O O12 0.625149 0.034240 0.093180
O O13 0.373942 0.927514 0.217090
O O14 0.997791 0.320061 0.414472
O O15 0.039199 0.204063 0.269377
O O16 0.855485 0.381568 0.479914
#
# Coordination Sequence:
#
# PCOD9239815 Si02
#       8
#     4   4   4   4   4   4   4   4
#     4  10  18  33  55  79 106 138 175 215 261 311
#     4  10  18  33  55  79 106 138 175 215 261 311
#     4  10  18  32  53  78 105 136 177 217 265 315
#     4   9  18  33  54  78 106 142 179 213 257 319
#     4   9  18  33  54  78 106 142 179 213 257 319
#     4  11  21  33  52  79 109 139 177 221 271 314
#     4  11  21  33  52  79 109 139 177 221 271 314
#     4  10  18  32  53  78 105 136 177 217 265 315
#
# _framework density 20.607334999999999
#
# number of rings (size 3 to 8) (size 9 to 14) (size 15 to 20)
#    0.000    2.000    2.500    4.500    0.000    0.500 
#    0.000    1.250    0.000    9.750    0.000    0.000 
#    0.000    0.000    0.000    0.000    0.000    0.000 
#
# Total GULP energy -178822.550230 kJ/mol
# GULP energy per Si atom -5588.204695 kJ/mol
# Density = 2.056043 g / cm^3
# Si number density = 20.607335 Si / 1000 Ang^3
#
#
#
# Elastic Constant Matrix: (Units=GPa)
#
#
# Indices 1 2 3 4 5 6 
#
# 1 71.0536 21.5127 33.7665 0.0000 18.0909 0.0000
# 2 21.5127 62.4356 6.9890 0.0000 16.1261 0.0000
# 3 33.7665 6.9890 40.4289 0.0000 -3.3277 0.0000
# 4 0.0000 0.0000 0.0000 19.3631 0.0000 -2.9338
# 5 18.0909 16.1261 -3.3277 0.0000 40.1976 0.0000
# 6 0.0000 0.0000 0.0000 -2.9338 0.0000 37.8692
#
#
#
# Elastic Compliance Matrix: (Units=1/GPa)
#
#
# Indices 1 2 3 4 5 6 
#
# 1 0.032204 -0.004123 -0.027428 0.000000 -0.015110 0.000000
# 2 -0.004123 0.018964 -0.000310 0.000000 -0.005778 0.000000
# 3 -0.027428 -0.000310 0.049057 0.000000 0.016529 0.000000
# 4 0.000000 0.000000 0.000000 0.052258 0.000000 0.004049
# 5 -0.015110 -0.005778 0.016529 0.000000 0.035364 0.000000
# 6 0.000000 0.000000 0.000000 0.004049 0.000000 0.026720
#
#
# Mechanical properties :
#
#
# Convention : Reuss Voigt Hill
#
# Bulk Modulus (GPa) = 27.39540 33.16163 30.27852
# Shear Modulus (GPa) = 17.21431 26.92929 22.07180
#
# Velocity S-wave (km/s) = 2.89338 3.61887 3.27626
# Velocity P-wave (km/s) = 4.94823 5.79557 5.38858
#
# Compressibility (1/GPa) = 0.03650248
#
# Stress axis : x y z
#
# Youngs Moduli (GPa) = 31.05239 52.73078 20.38459
#
# Poissons Ratio (x) = 0.21742 0.55910
# Poissons Ratio (y) = 0.12804 0.00632
# Poissons Ratio (z) = 0.85169 0.01636
#
# Static dielectric constant tensor:
#      x y z
#    x 1.751380 0.000000 -0.059310 
#    y 0.000000 1.755230 0.000000 
#    z -0.059310 0.000000 1.749530 
# 
# From -- ./inp_files/14342.got.cif
#   From: 2010.05.17/outbox.cif.g08.bks.cpg/sg14_8_cif.got.tgz:14342.got - 2010.06.03 17:49:19.
