data_PCOD9239825
_publ_section_title
;
Structure prediction by ZEFSAII (Michael W. Deem and Ramdas Pophale) SiO2 
 PCOD9239825
Probable space group: P 21/C
;
_chemical_formula_sum "Si O2"
_cell_formula_units_Z 24
_cell_length_a 8.270537
_cell_length_b 14.168341
_cell_length_c 9.942722
_cell_angle_alpha 90.000000
_cell_angle_beta 42.240044
_cell_angle_gamma 90.000000
_cell_volume 783.215325
_symmetry_space_group_name_H-M "P 21/C"
_symmetry_group_IT_number 14
_symmetry_cell_setting 'monoclinic'
loop_
_space_group_symop_operation_xyz
x,y,z
-x,1/2+y,1/2-z
-x,-y,-z
x,1/2-y,1/2+z
loop_
_atom_site_type_symbol
_atom_site_label
_atom_site_fract_x
_atom_site_fract_y
_atom_site_fract_z
Si Si1 0.648962 0.074935 0.221079
Si Si2 0.685986 0.782633 0.558821
Si Si3 0.845187 0.912795 0.236915
Si Si4 0.596205 0.381638 0.348232
Si Si5 0.096129 0.048132 0.289279
Si Si6 0.148281 0.712504 0.193632
O O1 0.411610 0.124475 0.306205
O O2 0.678352 0.140242 0.334705
O O3 0.650888 0.966444 0.263717
O O4 0.900744 0.087918 0.993620
O O5 0.766263 0.817648 0.358351
O O6 0.490860 0.700808 0.698047
O O7 0.937912 0.734479 0.433858
O O8 0.910118 0.985290 0.316922
O O9 0.791896 0.461110 0.187165
O O10 0.345269 0.429171 0.550605
O O11 0.713613 0.313248 0.391764
O O12 0.968221 0.151799 0.356703
#
# Coordination Sequence:
#
# PCOD9239825 Si02
#       6
#     4   4   4   4   4   4
#     4   9  20  33  50  78 108 136 177 226 264 312
#     4  10  18  32  54  77 102 140 182 212 265 324
#     4  10  18  34  54  76 104 142 177 219 272 318
#     4   9  17  31  51  80 107 138 181 221 264 314
#     4   9  17  30  54  76 106 144 173 220 271 317
#     4   9  17  32  52  78 107 139 177 218 268 317
#
# _framework density 30.642914000000001
#
# number of rings (size 3 to 8) (size 9 to 14) (size 15 to 20)
#    0.000    2.667    1.667    0.500    0.000    0.000 
#    3.000    0.000    0.000    1.000    0.000    0.000 
#    0.000    0.000    0.000    0.000    0.000    0.000 
#
# Total GULP energy -133835.221126 kJ/mol
# GULP energy per Si atom -5576.467547 kJ/mol
# Density = 3.057317 g / cm^3
# Si number density = 30.642914 Si / 1000 Ang^3
#
#
#
# Elastic Constant Matrix: (Units=GPa)
#
#
# Indices 1 2 3 4 5 6 
#
# 1 54.2869 68.9694 15.5154 0.0000 -0.2469 0.0000
# 2 68.9694 227.0632 29.0813 0.0000 2.6999 0.0000
# 3 15.5154 29.0813 116.4274 0.0000 -15.3151 0.0000
# 4 0.0000 0.0000 0.0000 69.7830 0.0000 -19.6720
# 5 -0.2469 2.6999 -15.3151 0.0000 37.7329 0.0000
# 6 0.0000 0.0000 0.0000 -19.6720 0.0000 77.9953
#
#
#
# Elastic Compliance Matrix: (Units=1/GPa)
#
#
# Indices 1 2 3 4 5 6 
#
# 1 0.030357 -0.008994 -0.001783 0.000000 0.000118 0.000000
# 2 -0.008994 0.007239 -0.000724 0.000000 -0.000871 0.000000
# 3 -0.001783 -0.000724 0.009521 0.000000 0.003905 0.000000
# 4 0.000000 0.000000 0.000000 0.015427 0.000000 0.003891
# 5 0.000118 -0.000871 0.003905 0.000000 0.028150 0.000000
# 6 0.000000 0.000000 0.000000 0.003891 0.000000 0.013803
#
#
# Mechanical properties :
#
#
# Convention : Reuss Voigt Hill
#
# Bulk Modulus (GPa) = 41.46874 69.43444 55.45159
# Shear Modulus (GPa) = 36.88995 56.04964 46.46980
#
# Velocity S-wave (km/s) = 3.47344 4.28146 3.89844
# Velocity P-wave (km/s) = 5.44506 6.86656 6.19671
#
# Compressibility (1/GPa) = 0.02411455
#
# Stress axis : x y z
#
# Youngs Moduli (GPa) = 32.94106 138.14045 105.02871
#
# Poissons Ratio (x) = 1.24242 0.18731
# Poissons Ratio (y) = 0.29627 0.07606
# Poissons Ratio (z) = 0.05875 0.10003
#
# Static dielectric constant tensor:
#      x y z
#    x 2.592540 0.000000 0.020090 
#    y 0.000000 2.519740 0.000000 
#    z 0.020090 0.000000 2.410830 
# 
# From -- ./inp_files/24520.got.cif
#   From: 2010.05.17/outbox.cif.g08.bks.cpg/sg14_13_cif.got.tgz:24520.got - 2010.06.03 17:49:19.
