data_PCOD9239240
_publ_section_title
;
Structure prediction by ZEFSAII (Michael W. Deem and Ramdas Pophale) SiO2 
 PCOD9239240
Probable space group: P 21/C
;
_chemical_formula_sum "Si O2"
_cell_formula_units_Z 20
_cell_length_a 6.763336
_cell_length_b 5.238204
_cell_length_c 32.073547
_cell_angle_alpha 90.000000
_cell_angle_beta 52.312765
_cell_angle_gamma 90.000000
_cell_volume 899.216616
_symmetry_space_group_name_H-M "P 21/C"
_symmetry_group_IT_number 14
_symmetry_cell_setting 'monoclinic'
loop_
_space_group_symop_operation_xyz
x,y,z
-x,1/2+y,1/2-z
-x,-y,-z
x,1/2-y,1/2+z
loop_
_atom_site_type_symbol
_atom_site_label
_atom_site_fract_x
_atom_site_fract_y
_atom_site_fract_z
Si Si1 0.669788 0.893569 0.323911
Si Si2 0.194171 0.211805 0.377737
Si Si3 0.639099 0.394221 0.366869
Si Si4 0.660336 0.762964 0.732723
Si Si5 0.624543 0.250368 0.964322
O O1 0.370511 0.962048 0.361201
O O2 0.746842 0.675674 0.346714
O O3 0.744092 0.814245 0.268112
O O4 0.773771 0.167290 0.324357
O O5 0.372625 0.414711 0.377372
O O6 0.178034 0.261243 0.330280
O O7 0.921820 0.218222 0.432140
O O8 0.593387 0.290684 0.418779
O O9 0.440364 0.553228 0.752436
O O10 0.500000 0.500000 0.000000
O O11 0.500000 0.000000 0.000000
#
# Coordination Sequence:
#
# PCOD9239240 Si02
#       5
#     4   4   4   4   4
#     4   9  18  37  63  91 121 151 189 240 295 368
#     4   9  23  38  66  84 124 157 194 239 306 347
#     4  10  21  40  61  86 121 150 201 244 298 352
#     4  10  16  32  62  93 117 152 189 229 292 364
#     4  12  28  43  59  86 118 157 210 256 293 347
#
# _framework density 22.241582000000001
#
# number of rings (size 3 to 8) (size 9 to 14) (size 15 to 20)
#    1.200    0.800    2.000    1.200    2.800    1.600 
#    0.000    2.000    0.000    0.000    0.000    0.000 
#    0.000    0.000    0.000    0.000    0.000    0.000 
#
# Total GULP energy -111478.858681 kJ/mol
# GULP energy per Si atom -5573.942934 kJ/mol
# Density = 2.219096 g / cm^3
# Si number density = 22.241582 Si / 1000 Ang^3
#
#
#
# Elastic Constant Matrix: (Units=GPa)
#
#
# Indices 1 2 3 4 5 6 
#
# 1 50.4668 19.0200 15.8684 0.0000 -0.1846 0.0000
# 2 19.0200 146.5392 40.7789 0.0000 -9.8125 0.0000
# 3 15.8684 40.7789 89.8003 0.0000 -7.9091 0.0000
# 4 0.0000 0.0000 0.0000 35.8809 0.0000 8.8196
# 5 -0.1846 -9.8125 -7.9091 0.0000 44.8019 0.0000
# 6 0.0000 0.0000 0.0000 8.8196 0.0000 17.7785
#
#
#
# Elastic Compliance Matrix: (Units=1/GPa)
#
#
# Indices 1 2 3 4 5 6 
#
# 1 0.021506 -0.002027 -0.002957 0.000000 -0.000877 0.000000
# 2 -0.002027 0.008056 -0.003195 0.000000 0.001192 0.000000
# 3 -0.002957 -0.003195 0.013253 0.000000 0.001628 0.000000
# 4 0.000000 0.000000 0.000000 0.031740 0.000000 -0.015746
# 5 -0.000877 0.001192 0.001628 0.000000 0.022865 0.000000
# 6 0.000000 0.000000 0.000000 -0.015746 0.000000 0.064059
#
#
# Mechanical properties :
#
#
# Convention : Reuss Voigt Hill
#
# Bulk Modulus (GPa) = 37.79885 48.68232 43.24058
# Shear Modulus (GPa) = 26.78722 33.76818 30.27770
#
# Velocity S-wave (km/s) = 3.47418 3.90069 3.69360
# Velocity P-wave (km/s) = 5.75541 6.49790 6.13789
#
# Compressibility (1/GPa) = 0.02645583
#
# Stress axis : x y z
#
# Youngs Moduli (GPa) = 46.49960 124.12796 75.45677
#
# Poissons Ratio (x) = 0.25163 0.22312
# Poissons Ratio (y) = 0.09426 0.24110
# Poissons Ratio (z) = 0.13749 0.39661
#
# Static dielectric constant tensor:
#      x y z
#    x 1.905800 0.000000 -0.026890 
#    y 0.000000 1.882340 0.000000 
#    z -0.026890 0.000000 1.786220 
# 
# From -- ./inp_files/78999.got.cif
#   From: 2010.05.17/outbox.cif.g08.bks.cpg/sg14_40_cif.got.tgz:78999.got - 2010.06.03 17:49:19.
