data_PCOD9239527
_publ_section_title
;
Structure prediction by ZEFSAII (Michael W. Deem and Ramdas Pophale) SiO2 
 PCOD9239527
Probable space group: P 21/C
;
_chemical_formula_sum "Si O2"
_cell_formula_units_Z 28
_cell_length_a 8.990773
_cell_length_b 16.237994
_cell_length_c 18.040762
_cell_angle_alpha 90.000000
_cell_angle_beta 31.093566
_cell_angle_gamma 90.000000
_cell_volume 1360.196899
_symmetry_space_group_name_H-M "P 21/C"
_symmetry_group_IT_number 14
_symmetry_cell_setting 'monoclinic'
loop_
_space_group_symop_operation_xyz
x,y,z
-x,1/2+y,1/2-z
-x,-y,-z
x,1/2-y,1/2+z
loop_
_atom_site_type_symbol
_atom_site_label
_atom_site_fract_x
_atom_site_fract_y
_atom_site_fract_z
Si Si1 0.598675 0.576108 0.304569
Si Si2 0.939436 0.493757 0.790526
Si Si3 0.542099 0.949411 0.241112
Si Si4 0.960629 0.856705 0.510990
Si Si5 0.825905 0.648632 0.737437
Si Si6 0.715298 0.254854 0.523069
Si Si7 0.546705 0.573953 0.084765
O O1 0.394366 0.505284 0.357034
O O2 0.825107 0.599036 0.141812
O O3 0.443473 0.660388 0.390635
O O4 0.764850 0.539813 0.303842
O O5 0.945593 0.572001 0.732786
O O6 0.753624 0.421563 0.830509
O O7 0.759602 0.528640 0.937029
O O8 0.759185 0.881924 0.181578
O O9 0.227238 0.908940 0.364857
O O10 0.509994 0.011171 0.323949
O O11 0.713708 0.851740 0.553866
O O12 0.107399 0.775854 0.481076
O O13 0.518837 0.684488 0.895788
O O14 0.052798 0.722604 0.638117
#
# Coordination Sequence:
#
# PCOD9239527 Si02
#       7
#     4   4   4   4   4   4   4
#     4  11  19  35  65  84 118 153 202 240 295 340
#     4  10  19  32  60  92 114 154 195 249 284 352
#     4   9  17  33  60  90 109 146 202 241 270 349
#     4  10  17  35  58  88 113 151 203 235 281 353
#     4  10  23  39  60  83 123 153 199 237 303 353
#     4  11  23  38  62  84 116 165 189 242 303 357
#     4   9  16  29  58  89 114 143 195 239 280 338
#
# _framework density 20.585255
#
# number of rings (size 3 to 8) (size 9 to 14) (size 15 to 20)
#    0.000    2.000    4.286    0.857    2.000    1.143 
#    0.000    0.000   22.000    0.000    0.000    0.000 
#    0.000    0.000    0.000    0.000    0.000    0.000 
#
# Total GULP energy -156069.668251 kJ/mol
# GULP energy per Si atom -5573.916723 kJ/mol
# Density = 2.053840 g / cm^3
# Si number density = 20.585255 Si / 1000 Ang^3
#
#
#
# Elastic Constant Matrix: (Units=GPa)
#
#
# Indices 1 2 3 4 5 6 
#
# 1 115.2700 46.4256 19.0774 0.0000 -21.9266 0.0000
# 2 46.4256 68.6020 26.5356 0.0000 -23.4675 0.0000
# 3 19.0774 26.5356 28.3060 0.0000 -9.7746 0.0000
# 4 0.0000 0.0000 0.0000 18.2810 0.0000 -12.8089
# 5 -21.9266 -23.4675 -9.7746 0.0000 11.1119 0.0000
# 6 0.0000 0.0000 0.0000 -12.8089 0.0000 35.3126
#
#
#
# Elastic Compliance Matrix: (Units=1/GPa)
#
#
# Indices 1 2 3 4 5 6 
#
# 1 0.013889 -0.000146 0.000192 0.000000 0.027268 0.000000
# 2 -0.000146 0.057876 -0.017306 0.000000 0.106718 0.000000
# 3 0.000192 -0.017306 0.055918 0.000000 0.013018 0.000000
# 4 0.000000 0.000000 0.000000 0.073341 0.000000 0.026603
# 5 0.027268 0.106718 0.013018 0.000000 0.380631 0.000000
# 6 0.000000 0.000000 0.000000 0.026603 0.000000 0.037968
#
#
# Mechanical properties :
#
#
# Convention : Reuss Voigt Hill
#
# Bulk Modulus (GPa) = 10.73389 44.02836 27.38112
# Shear Modulus (GPa) = 7.29718 20.95041 14.12380
#
# Velocity S-wave (km/s) = 1.88482 3.19366 2.62222
# Velocity P-wave (km/s) = 3.15633 5.91896 4.74323
#
# Compressibility (1/GPa) = 0.09316291
#
# Stress axis : x y z
#
# Youngs Moduli (GPa) = 71.99900 17.27840 17.88339
#
# Poissons Ratio (x) = 0.00252 -0.00343
# Poissons Ratio (y) = 0.01049 0.30949
# Poissons Ratio (z) = -0.01381 0.29902
#
# Static dielectric constant tensor:
#      x y z
#    x 1.746600 0.000000 -0.021870 
#    y 0.000000 1.769810 0.000000 
#    z -0.021870 0.000000 1.785730 
# 
# From -- ./inp_files/66000.got.cif
#   From: 2010.05.17/outbox.cif.g08.bks.cpg/sg14_33_cif.got.tgz:66000.got - 2010.06.03 17:49:19.
