data_PCOD9239536
_publ_section_title
;
Structure prediction by ZEFSAII (Michael W. Deem and Ramdas Pophale) SiO2 
 PCOD9239536
Probable space group: P 21/C
;
_chemical_formula_sum "Si O2"
_cell_formula_units_Z 28
_cell_length_a 13.978521
_cell_length_b 9.740953
_cell_length_c 11.072627
_cell_angle_alpha 90.000000
_cell_angle_beta 53.888395
_cell_angle_gamma 90.000000
_cell_volume 1218.021926
_symmetry_space_group_name_H-M "P 21/C"
_symmetry_group_IT_number 14
_symmetry_cell_setting 'monoclinic'
loop_
_space_group_symop_operation_xyz
x,y,z
-x,1/2+y,1/2-z
-x,-y,-z
x,1/2-y,1/2+z
loop_
_atom_site_type_symbol
_atom_site_label
_atom_site_fract_x
_atom_site_fract_y
_atom_site_fract_z
Si Si1 0.762057 0.062127 0.837527
Si Si2 0.723254 0.127265 0.272037
Si Si3 0.981458 0.302511 0.533446
Si Si4 0.018237 0.146024 0.735997
Si Si5 0.614664 0.113666 0.591114
Si Si6 0.155596 0.548821 0.961221
Si Si7 0.436197 0.585150 0.342446
O O1 0.724567 0.213636 0.816295
O O2 0.882120 0.091743 0.823316
O O3 0.791844 0.974305 0.696141
O O4 0.649397 0.014046 0.995929
O O5 0.654969 0.053606 0.432696
O O6 0.644241 0.097406 0.216339
O O7 0.861809 0.107545 0.138345
O O8 0.028326 0.278999 0.636411
O O9 0.043097 0.340618 0.360255
O O10 0.940811 0.148341 0.525828
O O11 0.104397 0.040788 0.605546
O O12 0.742276 0.142226 0.556725
O O13 0.542180 0.255805 0.636848
O O14 0.547940 0.005025 0.724076
#
# Coordination Sequence:
#
# PCOD9239536 Si02
#       7
#     4   4   4   4   4   4   4
#     4   9  17  33  59  85 108 153 203 233 288 362
#     4   9  17  35  60  84 113 149 202 241 289 351
#     4  10  17  35  61  87 117 150 203 236 299 361
#     4  10  19  33  62  85 113 153 192 247 291 361
#     4  11  22  37  60  86 118 159 195 246 293 353
#     4  10  19  37  57  83 117 152 196 237 296 359
#     4  11  20  38  60  87 116 155 202 243 291 348
#
# _framework density 22.988094
#
# number of rings (size 3 to 8) (size 9 to 14) (size 15 to 20)
#    0.000    2.286    4.286    3.857    0.000    0.571 
#    0.000    5.714    3.143    0.000    0.000    0.000 
#    0.000    0.000    0.000    0.000    0.000    0.000 
#
# Total GULP energy -156003.732108 kJ/mol
# GULP energy per Si atom -5571.561861 kJ/mol
# Density = 2.293577 g / cm^3
# Si number density = 22.988094 Si / 1000 Ang^3
#
#
#
# Elastic Constant Matrix: (Units=GPa)
#
#
# Indices 1 2 3 4 5 6 
#
# 1 23.1931 15.8441 29.8097 0.0000 4.1167 0.0000
# 2 15.8441 46.2522 43.7242 0.0000 -4.8259 0.0000
# 3 29.8097 43.7242 197.0987 0.0000 27.2950 0.0000
# 4 0.0000 0.0000 0.0000 34.7350 0.0000 4.2823
# 5 4.1167 -4.8259 27.2950 0.0000 25.5600 0.0000
# 6 0.0000 0.0000 0.0000 4.2823 0.0000 14.5074
#
#
#
# Elastic Compliance Matrix: (Units=1/GPa)
#
#
# Indices 1 2 3 4 5 6 
#
# 1 0.062698 -0.018589 -0.004077 0.000000 -0.009254 0.000000
# 2 -0.018589 0.037649 -0.008144 0.000000 0.018799 0.000000
# 3 -0.004077 -0.008144 0.008941 0.000000 -0.010429 0.000000
# 4 0.000000 0.000000 0.000000 0.029877 0.000000 -0.008819
# 5 -0.009254 0.018799 -0.010429 0.000000 0.055300 0.000000
# 6 0.000000 0.000000 0.000000 -0.008819 0.000000 0.071534
#
#
# Mechanical properties :
#
#
# Convention : Reuss Voigt Hill
#
# Bulk Modulus (GPa) = 20.97855 49.47776 35.22815
# Shear Modulus (GPa) = 14.55574 26.77155 20.66364
#
# Velocity S-wave (km/s) = 2.51905 3.41630 3.00139
# Velocity P-wave (km/s) = 4.19600 6.09356 5.23153
#
# Compressibility (1/GPa) = 0.04766774
#
# Stress axis : x y z
#
# Youngs Moduli (GPa) = 15.94950 26.56146 111.84229
#
# Poissons Ratio (x) = 0.49374 0.45603
# Poissons Ratio (y) = 0.29648 0.91083
# Poissons Ratio (z) = 0.06503 0.21631
#
# Static dielectric constant tensor:
#      x y z
#    x 1.895730 0.000000 0.073340 
#    y 0.000000 1.945710 0.000000 
#    z 0.073340 0.000000 2.004620 
# 
# From -- ./inp_files/32172.got.cif
#   From: 2010.05.17/outbox.cif.g08.bks.cpg/sg14_17_cif.got.tgz:32172.got - 2010.06.03 17:49:19.
