data_PCOD9239798
_publ_section_title
;
Structure prediction by ZEFSAII (Michael W. Deem and Ramdas Pophale) SiO2 
 PCOD9239798
Probable space group: P 21/C
;
_chemical_formula_sum "Si O2"
_cell_formula_units_Z 30
_cell_length_a 8.039781
_cell_length_b 11.656714
_cell_length_c 17.551582
_cell_angle_alpha 90.000000
_cell_angle_beta 46.057871
_cell_angle_gamma 90.000000
_cell_volume 1184.387713
_symmetry_space_group_name_H-M "P 21/C"
_symmetry_group_IT_number 14
_symmetry_cell_setting 'monoclinic'
loop_
_space_group_symop_operation_xyz
x,y,z
-x,1/2+y,1/2-z
-x,-y,-z
x,1/2-y,1/2+z
loop_
_atom_site_type_symbol
_atom_site_label
_atom_site_fract_x
_atom_site_fract_y
_atom_site_fract_z
Si Si1 0.792319 0.141235 0.616627
Si Si2 0.194992 0.062523 0.837950
Si Si3 0.270897 0.817288 0.984857
Si Si4 0.078688 0.219295 0.298594
Si Si5 0.500000 0.500000 0.500000
Si Si6 0.434421 0.332169 0.404978
Si Si7 0.708371 0.890271 0.622327
Si Si8 0.973676 0.322578 0.659516
O O1 0.682480 0.244036 0.603773
O O2 0.046009 0.121143 0.499474
O O3 0.854192 0.200864 0.677119
O O4 0.655024 0.024374 0.645239
O O5 0.177619 0.932127 0.817763
O O6 0.051778 0.901968 0.044091
O O7 0.182429 0.151368 0.771029
O O8 0.370653 0.102618 0.847236
O O9 0.172214 0.729237 0.079467
O O10 0.468985 0.901627 0.945843
O O11 0.232688 0.149870 0.310613
O O12 0.039894 0.175420 0.226643
O O13 0.606235 0.407253 0.401300
O O14 0.449809 0.199550 0.374060
O O15 0.208903 0.338234 0.534198
#
# Coordination Sequence:
#
# PCOD9239798 Si02
#       8
#     4   4   4   4   2   4   4   4
#     4   9  16  28  51  73  98 134 174 209 262 312
#     4   9  17  34  47  73 111 127 177 229 255 295
#     4   9  18  34  48  79 104 134 176 223 259 302
#     4   8  18  29  47  78 104 126 168 229 266 294
#     4  12  20  30  58  76 108 140 176 218 252 318
#     4  10  18  32  51  80 100 136 177 219 264 300
#     4   8  16  31  47  71 105 133 163 217 268 302
#     4  11  16  26  53  78  99 127 174 227 257 304
#
# _framework density 25.329545
#
# number of rings (size 3 to 8) (size 9 to 14) (size 15 to 20)
#    0.800    1.867    4.000    1.200    1.867    0.000 
#    0.000    0.667    0.000    6.400    0.000    0.000 
#    0.000    0.000    0.000    0.000    0.000    0.000 
#
# Total GULP energy -167043.382284 kJ/mol
# GULP energy per Si atom -5568.112743 kJ/mol
# Density = 2.527189 g / cm^3
# Si number density = 25.329545 Si / 1000 Ang^3
#
#
#
# Elastic Constant Matrix: (Units=GPa)
#
#
# Indices 1 2 3 4 5 6 
#
# 1 31.3736 7.2654 4.9873 0.0000 7.4907 0.0000
# 2 7.2654 124.2609 10.8655 0.0000 19.7155 0.0000
# 3 4.9873 10.8655 74.6056 0.0000 14.0475 0.0000
# 4 0.0000 0.0000 0.0000 25.2395 0.0000 -6.1215
# 5 7.4907 19.7155 14.0475 0.0000 50.1186 0.0000
# 6 0.0000 0.0000 0.0000 -6.1215 0.0000 18.5367
#
#
#
# Elastic Compliance Matrix: (Units=1/GPa)
#
#
# Indices 1 2 3 4 5 6 
#
# 1 0.033343 -0.001178 -0.001274 0.000000 -0.004163 0.000000
# 2 -0.001178 0.008655 -0.000606 0.000000 -0.003059 0.000000
# 3 -0.001274 -0.000606 0.014248 0.000000 -0.003565 0.000000
# 4 0.000000 0.000000 0.000000 0.043070 0.000000 0.014223
# 5 -0.004163 -0.003059 -0.003565 0.000000 0.022777 0.000000
# 6 0.000000 0.000000 0.000000 0.014223 0.000000 0.058644
#
#
# Mechanical properties :
#
#
# Convention : Reuss Voigt Hill
#
# Bulk Modulus (GPa) = 19.94723 30.71960 25.33341
# Shear Modulus (GPa) = 24.56249 32.58709 28.57479
#
# Velocity S-wave (km/s) = 3.11741 3.59071 3.36240
# Velocity P-wave (km/s) = 4.56616 5.41712 5.00974
#
# Compressibility (1/GPa) = 0.05013228
#
# Stress axis : x y z
#
# Youngs Moduli (GPa) = 29.99122 115.54389 70.18314
#
# Poissons Ratio (x) = 0.13607 0.08938
# Poissons Ratio (y) = 0.03532 0.04252
# Poissons Ratio (z) = 0.03820 0.07000
#
# Static dielectric constant tensor:
#      x y z
#    x 2.294580 0.000000 -0.029270 
#    y 0.000000 2.123120 0.000000 
#    z -0.029270 0.000000 2.146260 
# 
# From -- ./inp_files/55404.got.cif
#   From: 2010.05.17/outbox.cif.g08.bks.cpg/sg14_28_cif.got.tgz:55404.got - 2010.06.03 17:49:19.
