data_PCOD9239351
_publ_section_title
;
Structure prediction by ZEFSAII (Michael W. Deem and Ramdas Pophale) SiO2 
 PCOD9239351
Probable space group: P 21/C
;
_chemical_formula_sum "Si O2"
_cell_formula_units_Z 24
_cell_length_a 8.804497
_cell_length_b 5.508808
_cell_length_c 17.490690
_cell_angle_alpha 90.000000
_cell_angle_beta 89.163509
_cell_angle_gamma 90.000000
_cell_volume 848.247997
_symmetry_space_group_name_H-M "P 21/C"
_symmetry_group_IT_number 14
_symmetry_cell_setting 'monoclinic'
loop_
_space_group_symop_operation_xyz
x,y,z
-x,1/2+y,1/2-z
-x,-y,-z
x,1/2-y,1/2+z
loop_
_atom_site_type_symbol
_atom_site_label
_atom_site_fract_x
_atom_site_fract_y
_atom_site_fract_z
Si Si1 0.186065 0.571638 0.192297
Si Si2 0.095901 0.481355 0.919701
Si Si3 0.456070 0.250929 0.541435
Si Si4 0.792464 0.572406 0.362698
Si Si5 0.107599 0.516209 0.423645
Si Si6 0.566626 0.240592 0.214126
O O1 0.276618 0.208247 0.063151
O O2 0.261827 0.790895 0.139465
O O3 0.253318 0.689908 0.269375
O O4 0.232794 0.288359 0.197941
O O5 0.976380 0.460946 0.849515
O O6 0.187717 0.728332 0.925976
O O7 0.190906 0.235712 0.911352
O O8 0.000000 0.500000 0.000000
O O9 0.500000 0.500000 0.500000
O O10 0.520834 0.257215 0.626720
O O11 0.500000 0.000000 0.500000
O O12 0.973525 0.537037 0.362028
O O13 0.000000 0.500000 0.500000
O O14 0.485142 0.001870 0.251778
#
# Coordination Sequence:
#
# PCOD9239351 Si02
#       6
#     4   4   4   4   4   4
#     4  10  17  30  50  72  95 132 174 217 271 313
#     4   8  14  23  39  66  99 120 145 201 270 313
#     4  12  24  36  50  74 109 147 188 224 272 332
#     4  10  18  31  49  70 101 135 170 217 272 315
#     4   8  14  24  41  66  95 122 154 204 267 310
#     4  12  21  36  55  74 100 144 188 231 274 318
#
# _framework density 28.293614000000002
#
# number of rings (size 3 to 8) (size 9 to 14) (size 15 to 20)
#    0.000    2.000    3.333    2.000    0.000    0.000 
#    0.000    0.000    0.000    0.000    0.000    0.000 
#    0.000   85.333    0.000    1.333    0.000    0.000 
#
# Total GULP energy -133644.127110 kJ/mol
# GULP energy per Si atom -5568.505296 kJ/mol
# Density = 2.822922 g / cm^3
# Si number density = 28.293614 Si / 1000 Ang^3
#
#
#
# Elastic Constant Matrix: (Units=GPa)
#
#
# Indices 1 2 3 4 5 6 
#
# 1 92.5159 23.4905 29.7930 0.0000 3.8249 0.0000
# 2 23.4905 363.7490 52.6398 0.0000 -8.1305 0.0000
# 3 29.7930 52.6398 158.6780 0.0000 30.7137 0.0000
# 4 0.0000 0.0000 0.0000 46.3745 0.0000 13.3228
# 5 3.8249 -8.1305 30.7137 0.0000 44.0377 0.0000
# 6 0.0000 0.0000 0.0000 13.3228 0.0000 9.0380
#
#
#
# Elastic Compliance Matrix: (Units=1/GPa)
#
#
# Indices 1 2 3 4 5 6 
#
# 1 0.011581 -0.000435 -0.002104 0.000000 0.000381 0.000000
# 2 -0.000435 0.002980 -0.001180 0.000000 0.001411 0.000000
# 3 -0.002104 -0.001180 0.008203 0.000000 -0.005756 0.000000
# 4 0.000000 0.000000 0.000000 0.037404 0.000000 -0.055136
# 5 0.000381 0.001411 -0.005756 0.000000 0.026950 0.000000
# 6 0.000000 0.000000 0.000000 -0.055136 0.000000 0.191919
#
#
# Mechanical properties :
#
#
# Convention : Reuss Voigt Hill
#
# Bulk Modulus (GPa) = 65.24903 91.86551 78.55727
# Shear Modulus (GPa) = 17.14784 53.82467 35.48626
#
# Velocity S-wave (km/s) = 2.46451 4.36634 3.54533
# Velocity P-wave (km/s) = 5.58658 7.61308 6.67716
#
# Compressibility (1/GPa) = 0.01532590
#
# Stress axis : x y z
#
# Youngs Moduli (GPa) = 86.34712 335.62633 121.91227
#
# Poissons Ratio (x) = 0.14596 0.25650
# Poissons Ratio (y) = 0.03755 0.14383
# Poissons Ratio (z) = 0.18167 0.39598
#
# Static dielectric constant tensor:
#      x y z
#    x 2.289810 0.000000 -0.018340 
#    y 0.000000 2.554310 0.000000 
#    z -0.018340 0.000000 2.321510 
# 
# From -- ./inp_files/47758.got.cif
#   From: 2010.05.17/outbox.cif.g08.bks.cpg/sg14_24_cif.got.tgz:47758.got - 2010.06.03 17:49:19.
