data_PCOD9239685
_publ_section_title
;
Structure prediction by ZEFSAII (Michael W. Deem and Ramdas Pophale) SiO2 
 PCOD9239685
Probable space group: P 21/C
;
_chemical_formula_sum "Si O2"
_cell_formula_units_Z 32
_cell_length_a 9.449414
_cell_length_b 8.590004
_cell_length_c 24.371296
_cell_angle_alpha 90.000000
_cell_angle_beta 42.253929
_cell_angle_gamma 90.000000
_cell_volume 1330.196857
_symmetry_space_group_name_H-M "P 21/C"
_symmetry_group_IT_number 14
_symmetry_cell_setting 'monoclinic'
loop_
_space_group_symop_operation_xyz
x,y,z
-x,1/2+y,1/2-z
-x,-y,-z
x,1/2-y,1/2+z
loop_
_atom_site_type_symbol
_atom_site_label
_atom_site_fract_x
_atom_site_fract_y
_atom_site_fract_z
Si Si1 0.547582 0.128553 0.916068
Si Si2 0.610687 0.355120 0.593565
Si Si3 0.334184 0.528693 0.962068
Si Si4 0.553984 0.696824 0.161150
Si Si5 0.950484 0.957624 0.837846
Si Si6 0.715995 0.501982 0.675943
Si Si7 0.875071 0.745092 0.269069
Si Si8 0.263246 0.573193 0.100942
O O1 0.585672 0.205155 0.843880
O O2 0.571508 0.278206 0.948159
O O3 0.367973 0.006130 0.951664
O O4 0.717856 0.018459 0.895303
O O5 0.721483 0.201262 0.540543
O O6 0.691266 0.398488 0.629710
O O7 0.359957 0.317767 0.672708
O O8 0.303848 0.402398 0.922756
O O9 0.586493 0.532949 0.904400
O O10 0.227548 0.503043 0.051362
O O11 0.431472 0.571016 0.233571
O O12 0.657874 0.823508 0.172224
O O13 0.052391 0.978462 0.866900
O O14 0.944937 0.788512 0.811717
O O15 0.083461 0.082057 0.763604
O O16 0.046427 0.641925 0.185848
#
# Coordination Sequence:
#
# PCOD9239685 Si02
#       8
#     4   4   4   4   4   4   4   4
#     4   8  18  33  50  77 104 131 171 221 264 308
#     4  10  20  32  53  81 109 137 175 220 264 310
#     4  10  19  34  53  79 109 140 176 217 258 311
#     4  10  19  32  49  75 106 133 170 213 261 309
#     4  10  18  30  52  77 104 131 168 215 262 306
#     4  11  20  32  52  78 106 139 172 213 263 313
#     4  10  18  33  54  80 106 132 170 222 267 306
#     4   9  18  32  55  78 106 140 176 218 265 309
#
# _framework density 24.05659
#
# number of rings (size 3 to 8) (size 9 to 14) (size 15 to 20)
#    0.000    2.250    0.000    5.250    0.000    0.500 
#    0.000    1.250    0.000    9.750    0.000   10.500 
#    0.000    0.000    0.000    0.000    0.000    0.000 
#
# Total GULP energy -178375.247553 kJ/mol
# GULP energy per Si atom -5574.226486 kJ/mol
# Density = 2.400184 g / cm^3
# Si number density = 24.056590 Si / 1000 Ang^3
#
#
#
# Elastic Constant Matrix: (Units=GPa)
#
#
# Indices 1 2 3 4 5 6 
#
# 1 110.5442 49.2664 21.8290 0.0000 25.7765 0.0000
# 2 49.2664 95.3817 18.9086 0.0000 28.2719 0.0000
# 3 21.8290 18.9086 70.5129 0.0000 12.1637 0.0000
# 4 0.0000 0.0000 0.0000 21.7185 0.0000 16.8827
# 5 25.7765 28.2719 12.1637 0.0000 25.5486 0.0000
# 6 0.0000 0.0000 0.0000 16.8827 0.0000 31.4487
#
#
#
# Elastic Compliance Matrix: (Units=1/GPa)
#
#
# Indices 1 2 3 4 5 6 
#
# 1 0.013007 -0.004075 -0.001578 0.000000 -0.007863 0.000000
# 2 -0.004075 0.016991 -0.000829 0.000000 -0.014296 0.000000
# 3 -0.001578 -0.000829 0.015753 0.000000 -0.004992 0.000000
# 4 0.000000 0.000000 0.000000 0.079019 0.000000 -0.042420
# 5 -0.007863 -0.014296 -0.004992 0.000000 0.065270 0.000000
# 6 0.000000 0.000000 0.000000 -0.042420 0.000000 0.054570
#
#
# Mechanical properties :
#
#
# Convention : Reuss Voigt Hill
#
# Bulk Modulus (GPa) = 30.49823 50.71631 40.60727
# Shear Modulus (GPa) = 18.62178 28.17214 23.39696
#
# Velocity S-wave (km/s) = 2.78525 3.42581 3.12200
# Velocity P-wave (km/s) = 4.80091 6.06433 5.46923
#
# Compressibility (1/GPa) = 0.03278879
#
# Stress axis : x y z
#
# Youngs Moduli (GPa) = 76.87996 58.85555 63.47819
#
# Poissons Ratio (x) = 0.23985 0.10014
# Poissons Ratio (y) = 0.31330 0.05259
# Poissons Ratio (z) = 0.12129 0.04876
#
# Static dielectric constant tensor:
#      x y z
#    x 1.895120 0.000000 -0.017570 
#    y 0.000000 1.996300 0.000000 
#    z -0.017570 0.000000 2.010740 
# 
# From -- ./inp_files/72061.got.cif
#   From: 2010.05.17/outbox.cif.g08.bks.cpg/sg14_37_cif.got.tgz:72061.got - 2010.06.03 17:49:19.
