data_PCOD9239179
_publ_section_title
;
Structure prediction by ZEFSAII (Michael W. Deem and Ramdas Pophale) SiO2 
 PCOD9239179
Probable space group: P 21/C
;
_chemical_formula_sum "Si O2"
_cell_formula_units_Z 32
_cell_length_a 7.277526
_cell_length_b 22.696914
_cell_length_c 13.663282
_cell_angle_alpha 90.000000
_cell_angle_beta 142.567826
_cell_angle_gamma 90.000000
_cell_volume 1371.771929
_symmetry_space_group_name_H-M "P 21/C"
_symmetry_group_IT_number 14
_symmetry_cell_setting 'monoclinic'
loop_
_space_group_symop_operation_xyz
x,y,z
-x,1/2+y,1/2-z
-x,-y,-z
x,1/2-y,1/2+z
loop_
_atom_site_type_symbol
_atom_site_label
_atom_site_fract_x
_atom_site_fract_y
_atom_site_fract_z
Si Si1 0.382267 0.853561 0.358282
Si Si2 0.136039 0.775313 0.102803
Si Si3 0.554188 0.833526 0.783136
Si Si4 0.208742 0.575364 0.033995
Si Si5 0.743941 0.375698 0.635638
Si Si6 0.791757 0.855366 0.221103
Si Si7 0.792337 0.727832 0.149594
Si Si8 0.867178 0.543775 0.084311
O O1 0.491813 0.804915 0.484453
O O2 0.610041 0.907399 0.459855
O O3 0.046172 0.870572 0.246932
O O4 0.368031 0.822394 0.247182
O O5 0.888804 0.807518 0.932464
O O6 0.937720 0.752901 0.111121
O O7 0.324624 0.718219 0.152321
O O8 0.500035 0.885838 0.683306
O O9 0.443082 0.855771 0.844408
O O10 0.941315 0.616751 0.879683
O O11 0.096447 0.550353 0.089791
O O12 0.255061 0.522281 0.977571
O O13 0.519782 0.381549 0.450137
O O14 0.974141 0.321682 0.717544
O O15 0.934720 0.434197 0.740644
O O16 0.753524 0.784581 0.201397
#
# Coordination Sequence:
#
# PCOD9239179 Si02
#       8
#     4   4   4   4   4   4   4   4
#     4  10  18  33  62  83 102 143 192 229 264 331
#     4  10  16  29  55  82 104 141 190 216 258 343
#     4  10  18  33  53  79 110 147 181 220 269 342
#     4  10  23  38  55  78 117 150 182 229 285 317
#     4   9  17  32  60  78 104 147 190 218 265 344
#     4  11  19  32  56  87 109 130 181 243 283 308
#     4   9  16  31  51  83 112 139 174 222 279 337
#     4   9  21  42  59  71 107 161 197 212 263 345
#
# _framework density 23.327493
#
# number of rings (size 3 to 8) (size 9 to 14) (size 15 to 20)
#    0.000    2.250    3.750    2.250    0.000    1.000 
#    4.500    0.625    2.750    0.000    0.000    0.000 
#    0.000    0.000    0.000    0.000    0.000    0.000 
#
# Total GULP energy -178941.596532 kJ/mol
# GULP energy per Si atom -5591.924892 kJ/mol
# Density = 2.327440 g / cm^3
# Si number density = 23.327493 Si / 1000 Ang^3
#
#
#
# Elastic Constant Matrix: (Units=GPa)
#
#
# Indices 1 2 3 4 5 6 
#
# 1 38.5229 -2.9056 -16.8126 0.0000 -8.9215 0.0000
# 2 -2.9056 77.9729 25.0301 0.0000 -2.3099 0.0000
# 3 -16.8126 25.0301 116.2759 0.0000 8.5613 0.0000
# 4 0.0000 0.0000 0.0000 8.3589 0.0000 -1.8367
# 5 -8.9215 -2.3099 8.5613 0.0000 23.3002 0.0000
# 6 0.0000 0.0000 0.0000 -1.8367 0.0000 13.8246
#
#
#
# Elastic Compliance Matrix: (Units=1/GPa)
#
#
# Indices 1 2 3 4 5 6 
#
# 1 0.029868 0.000289 0.003507 0.000000 0.010176 0.000000
# 2 0.000289 0.013926 -0.003151 0.000000 0.002649 0.000000
# 3 0.003507 -0.003151 0.009980 0.000000 -0.002636 0.000000
# 4 0.000000 0.000000 0.000000 0.123230 0.000000 0.016372
# 5 0.010176 0.002649 -0.002636 0.000000 0.048046 0.000000
# 6 0.000000 0.000000 0.000000 0.016372 0.000000 0.074510
#
#
# Mechanical properties :
#
#
# Convention : Reuss Voigt Hill
#
# Bulk Modulus (GPa) = 18.16108 27.04394 22.60251
# Shear Modulus (GPa) = 15.79165 24.26073 20.02619
#
# Velocity S-wave (km/s) = 2.60466 3.22841 2.93316
# Velocity P-wave (km/s) = 4.10461 5.05125 4.60234
#
# Compressibility (1/GPa) = 0.05506282
#
# Stress axis : x y z
#
# Youngs Moduli (GPa) = 33.48102 71.80965 100.20271
#
# Poissons Ratio (x) = -0.02072 -0.35144
# Poissons Ratio (y) = -0.00966 0.31574
# Poissons Ratio (z) = -0.11743 0.22627
#
# Static dielectric constant tensor:
#      x y z
#    x 1.911960 0.000000 -0.015850 
#    y 0.000000 1.895260 0.000000 
#    z -0.015850 0.000000 1.872450 
# 
# From -- ./inp_files/42255.got.cif
#   From: 2010.05.17/outbox.cif.g08.bks.cpg/sg14_22_cif.got.tgz:42255.got - 2010.06.03 17:49:19.
