data_PCOD9239383
_publ_section_title
;
Structure prediction by ZEFSAII (Michael W. Deem and Ramdas Pophale) SiO2 
 PCOD9239383
Probable space group: P 21/C
;
_chemical_formula_sum "Si O2"
_cell_formula_units_Z 32
_cell_length_a 12.879201
_cell_length_b 9.720232
_cell_length_c 13.122682
_cell_angle_alpha 90.000000
_cell_angle_beta 78.934253
_cell_angle_gamma 90.000000
_cell_volume 1612.269232
_symmetry_space_group_name_H-M "P 21/C"
_symmetry_group_IT_number 14
_symmetry_cell_setting 'monoclinic'
loop_
_space_group_symop_operation_xyz
x,y,z
-x,1/2+y,1/2-z
-x,-y,-z
x,1/2-y,1/2+z
loop_
_atom_site_type_symbol
_atom_site_label
_atom_site_fract_x
_atom_site_fract_y
_atom_site_fract_z
Si Si1 0.113020 0.018916 0.282693
Si Si2 0.037910 0.656622 0.471678
Si Si3 0.164697 0.151428 0.468333
Si Si4 0.211295 0.701548 0.611310
Si Si5 0.881898 0.065392 0.250255
Si Si6 0.376959 0.995325 0.999816
Si Si7 0.256355 0.237985 0.143683
Si Si8 0.287605 0.376033 0.323025
O O1 0.142771 0.024548 0.396866
O O2 0.161694 0.158593 0.221877
O O3 0.987179 0.015612 0.288682
O O4 0.168763 0.900551 0.207486
O O5 0.132049 0.685969 0.531413
O O6 0.073475 0.663509 0.348256
O O7 0.000000 0.500000 0.500000
O O8 0.942625 0.760186 0.509829
O O9 0.206343 0.150690 0.575815
O O10 0.252013 0.246008 0.396300
O O11 0.196618 0.851096 0.661904
O O12 0.322946 0.644606 0.550730
O O13 0.816958 0.952732 0.199038
O O14 0.317017 0.118401 0.071475
O O15 0.351834 0.024091 0.885290
O O16 0.500000 0.000000 0.000000
O O17 0.332728 0.311917 0.210613
#
# Coordination Sequence:
#
# PCOD9239383 Si02
#       8
#     4   4   4   4   4   4   4   4
#     4  10  19  30  52  81 115 157 183 219 270 337
#     4  12  17  31  52  75 112 156 188 219 268 336
#     4  10  17  31  53  80 115 151 190 220 265 334
#     4  11  22  37  51  83 116 147 195 233 279 339
#     4  12  21  31  55  82 120 155 183 225 280 342
#     4  10  21  43  66  81 103 147 199 243 292 340
#     4   9  19  35  58  85 112 141 191 239 268 336
#     4  10  20  36  57  85 110 149 187 231 289 332
#
# _framework density 19.847799999999999
#
# number of rings (size 3 to 8) (size 9 to 14) (size 15 to 20)
#    0.000    1.500    6.250    0.750    1.750    0.000 
#    4.500    1.250    0.000    0.750    0.000    0.000 
#    0.000    0.000    0.000    0.000    0.000    0.000 
#
# Total GULP energy -178569.780500 kJ/mol
# GULP energy per Si atom -5580.305641 kJ/mol
# Density = 1.980263 g / cm^3
# Si number density = 19.847800 Si / 1000 Ang^3
#
#
#
# Elastic Constant Matrix: (Units=GPa)
#
#
# Indices 1 2 3 4 5 6 
#
# 1 75.3891 11.2862 24.2700 0.0000 10.9686 0.0000
# 2 11.2862 44.7582 10.9521 0.0000 2.9398 0.0000
# 3 24.2700 10.9521 70.9974 0.0000 11.5388 0.0000
# 4 0.0000 0.0000 0.0000 30.2887 0.0000 -2.8830
# 5 10.9686 2.9398 11.5388 0.0000 14.6126 0.0000
# 6 0.0000 0.0000 0.0000 -2.8830 0.0000 9.6362
#
#
#
# Elastic Compliance Matrix: (Units=1/GPa)
#
#
# Indices 1 2 3 4 5 6 
#
# 1 0.016100 -0.002587 -0.003700 0.000000 -0.008643 0.000000
# 2 -0.002587 0.023691 -0.002652 0.000000 -0.000731 0.000000
# 3 -0.003700 -0.002652 0.017462 0.000000 -0.010478 0.000000
# 4 0.000000 0.000000 0.000000 0.033983 0.000000 0.010168
# 5 -0.008643 -0.000731 -0.010478 0.000000 0.083343 0.000000
# 6 0.000000 0.000000 0.000000 0.010168 0.000000 0.106818
#
#
# Mechanical properties :
#
#
# Convention : Reuss Voigt Hill
#
# Bulk Modulus (GPa) = 25.39568 31.57346 28.48457
# Shear Modulus (GPa) = 16.00511 20.54991 18.27751
#
# Velocity S-wave (km/s) = 2.84278 3.22121 3.03790
# Velocity P-wave (km/s) = 4.85780 5.45686 5.16602
#
# Compressibility (1/GPa) = 0.03937678
#
# Stress axis : x y z
#
# Youngs Moduli (GPa) = 62.10992 42.20939 57.26784
#
# Poissons Ratio (x) = 0.10919 0.21189
# Poissons Ratio (y) = 0.16067 0.15185
# Poissons Ratio (z) = 0.22981 0.11192
#
# Static dielectric constant tensor:
#      x y z
#    x 1.645300 0.000000 -0.006170 
#    y 0.000000 1.770550 0.000000 
#    z -0.006170 0.000000 1.782890 
# 
# From -- ./inp_files/29105.got.cif
#   From: 2010.05.17/outbox.cif.g08.bks.cpg/sg14_15_cif.got.tgz:29105.got - 2010.06.03 17:49:19.
