data_PCOD9239963
_publ_section_title
;
Structure prediction by ZEFSAII (Michael W. Deem and Ramdas Pophale) SiO2 
 PCOD9239963
Probable space group: P 21/C
;
_chemical_formula_sum "Si O2"
_cell_formula_units_Z 32
_cell_length_a 12.206762
_cell_length_b 13.107218
_cell_length_c 8.860060
_cell_angle_alpha 90.000000
_cell_angle_beta 88.024102
_cell_angle_gamma 90.000000
_cell_volume 1416.737413
_symmetry_space_group_name_H-M "P 21/C"
_symmetry_group_IT_number 14
_symmetry_cell_setting 'monoclinic'
loop_
_space_group_symop_operation_xyz
x,y,z
-x,1/2+y,1/2-z
-x,-y,-z
x,1/2-y,1/2+z
loop_
_atom_site_type_symbol
_atom_site_label
_atom_site_fract_x
_atom_site_fract_y
_atom_site_fract_z
Si Si1 0.976593 0.816337 0.028641
Si Si2 0.083876 0.908753 0.517589
Si Si3 0.212789 0.876489 0.999420
Si Si4 0.540046 0.385266 0.965811
Si Si5 0.273314 0.826458 0.321475
Si Si6 0.270415 0.535154 0.223873
Si Si7 0.166131 0.210455 0.238931
Si Si8 0.696918 0.838005 0.486223
O O1 0.920776 0.840736 0.870657
O O2 0.020001 0.698522 0.018493
O O3 0.084782 0.882930 0.046458
O O4 0.894279 0.806769 0.174542
O O5 0.179759 0.903022 0.388368
O O6 0.155087 0.922573 0.665576
O O7 0.000000 0.000000 0.500000
O O8 0.229652 0.782211 0.882389
O O9 0.257658 0.972101 0.903896
O O10 0.277435 0.843608 0.144345
O O11 0.612384 0.348184 0.102863
O O12 0.427545 0.324279 0.952945
O O13 0.500000 0.500000 0.000000
O O14 0.626683 0.392344 0.825238
O O15 0.292477 0.434023 0.126397
O O16 0.258909 0.246864 0.118603
O O17 0.223124 0.151198 0.373485
#
# Coordination Sequence:
#
# PCOD9239963 Si02
#       8
#     4   4   4   4   4   4   4   4
#     4  10  19  34  54  84 119 154 187 240 295 347
#     4  10  18  33  58  85 118 162 199 235 295 362
#     4  11  21  37  60  90 122 152 195 249 299 358
#     4   9  20  41  62  83 116 152 195 249 297 342
#     4  10  21  36  60  90 119 160 203 245 301 357
#     4  10  21  38  60  86 120 155 197 250 301 359
#     4  10  20  35  56  80 113 153 199 236 286 364
#     4  10  22  40  58  82 113 156 201 248 298 349
#
# _framework density 22.587108000000001
#
# number of rings (size 3 to 8) (size 9 to 14) (size 15 to 20)
#    0.000    2.000    0.000    6.000    0.000    2.000 
#    0.000   16.250    0.000    0.000    0.000    0.000 
#    0.000    0.000    0.000    0.000    0.000    0.000 
#
# Total GULP energy -178745.374457 kJ/mol
# GULP energy per Si atom -5585.792952 kJ/mol
# Density = 2.253570 g / cm^3
# Si number density = 22.587108 Si / 1000 Ang^3
#
#
#
# Elastic Constant Matrix: (Units=GPa)
#
#
# Indices 1 2 3 4 5 6 
#
# 1 125.1846 0.3997 -2.8732 0.0000 0.6800 0.0000
# 2 0.3997 26.4166 -19.9388 0.0000 -1.9618 0.0000
# 3 -2.8732 -19.9388 44.3660 0.0000 9.6937 0.0000
# 4 0.0000 0.0000 0.0000 23.7575 0.0000 -2.6581
# 5 0.6800 -1.9618 9.6937 0.0000 25.1205 0.0000
# 6 0.0000 0.0000 0.0000 -2.6581 0.0000 34.9534
#
#
#
# Elastic Compliance Matrix: (Units=1/GPa)
#
#
# Indices 1 2 3 4 5 6 
#
# 1 0.008009 0.000478 0.000844 0.000000 -0.000505 0.000000
# 2 0.000478 0.058146 0.027491 0.000000 -0.006081 0.000000
# 3 0.000844 0.027491 0.037661 0.000000 -0.012409 0.000000
# 4 0.000000 0.000000 0.000000 0.042453 0.000000 0.003228
# 5 -0.000505 -0.006081 -0.012409 0.000000 0.044135 0.000000
# 6 0.000000 0.000000 0.000000 0.003228 0.000000 0.028855
#
#
# Mechanical properties :
#
#
# Convention : Reuss Voigt Hill
#
# Bulk Modulus (GPa) = 6.19415 16.79365 11.49390
# Shear Modulus (GPa) = 23.20765 31.32490 27.26628
#
# Velocity S-wave (km/s) = 3.20890 3.72808 3.47819
# Velocity P-wave (km/s) = 4.05927 5.09732 4.60762
#
# Compressibility (1/GPa) = 0.16144275
#
# Stress axis : x y z
#
# Youngs Moduli (GPa) = 124.86283 17.19808 26.55288
#
# Poissons Ratio (x) = -0.00823 -0.02241
# Poissons Ratio (y) = -0.05972 -0.72997
# Poissons Ratio (z) = -0.10538 -0.47280
#
# Static dielectric constant tensor:
#      x y z
#    x 1.843300 0.000000 -0.037140 
#    y 0.000000 1.916520 0.000000 
#    z -0.037140 0.000000 1.844350 
# 
# From -- ./inp_files/13104.got.cif
#   From: 2010.05.17/outbox.cif.g08.bks.cpg/sg14_7_cif.got.tgz:13104.got - 2010.06.03 17:49:19.
