data_PCOD9239624
_publ_section_title
;
Structure prediction by ZEFSAII (Michael W. Deem and Ramdas Pophale) SiO2 
 PCOD9239624
Probable space group: P 21/C
;
_chemical_formula_sum "Si O2"
_cell_formula_units_Z 32
_cell_length_a 7.345981
_cell_length_b 7.282905
_cell_length_c 24.011766
_cell_angle_alpha 90.000000
_cell_angle_beta 109.566968
_cell_angle_gamma 90.000000
_cell_volume 1210.444864
_symmetry_space_group_name_H-M "P 21/C"
_symmetry_group_IT_number 14
_symmetry_cell_setting 'monoclinic'
loop_
_space_group_symop_operation_xyz
x,y,z
-x,1/2+y,1/2-z
-x,-y,-z
x,1/2-y,1/2+z
loop_
_atom_site_type_symbol
_atom_site_label
_atom_site_fract_x
_atom_site_fract_y
_atom_site_fract_z
Si Si1 0.496999 0.760958 0.936773
Si Si2 0.156332 0.275448 0.684847
Si Si3 0.357628 0.237307 0.309014
Si Si4 0.090890 0.246643 0.561951
Si Si5 0.034548 0.819880 0.061465
Si Si6 0.601312 0.680232 0.559591
Si Si7 0.769416 0.182736 0.812972
Si Si8 0.592616 0.192731 0.690140
O O1 0.699159 0.677682 0.935596
O O2 0.361031 0.725596 0.869620
O O3 0.493885 0.982669 0.939918
O O4 0.476225 0.712453 0.999966
O O5 0.178740 0.207483 0.750642
O O6 0.040236 0.194746 0.620081
O O7 0.114650 0.493107 0.682637
O O8 0.377505 0.255578 0.684458
O O9 0.350767 0.243438 0.374696
O O10 0.548293 0.348355 0.310460
O O11 0.397699 0.024931 0.298874
O O12 0.110183 0.471078 0.565113
O O13 0.947647 0.217891 0.495612
O O14 0.135023 0.722340 0.123956
O O15 0.808773 0.840635 0.051565
O O16 0.740936 0.276608 0.750398
#
# Coordination Sequence:
#
# PCOD9239624 Si02
#       8
#     4   4   4   4   4   4   4   4
#     4   9  18  33  51  70  91 118 161 201 226 267
#     4   8  15  29  49  68  88 115 158 198 221 256
#     4  10  18  28  48  71  93 121 154 190 231 274
#     4   8  14  28  50  69  87 115 156 198 226 257
#     4   9  16  27  47  71  95 119 149 192 236 271
#     4  10  19  30  48  72  95 122 153 190 235 281
#     4   9  17  31  50  71  91 119 160 197 225 271
#     4   9  17  30  49  70  92 121 157 197 230 263
#
# _framework density 26.436561999999999
#
# number of rings (size 3 to 8) (size 9 to 14) (size 15 to 20)
#    0.000    3.000    0.000    2.250    0.000    2.500 
#    0.000    3.750    0.000   11.250    0.000    0.000 
#    0.000    0.000    0.000    0.000    0.000    0.000 
#
# Total GULP energy -178422.703859 kJ/mol
# GULP energy per Si atom -5575.709496 kJ/mol
# Density = 2.637639 g / cm^3
# Si number density = 26.436562 Si / 1000 Ang^3
#
#
#
# Elastic Constant Matrix: (Units=GPa)
#
#
# Indices 1 2 3 4 5 6 
#
# 1 98.7732 -11.1014 6.8933 0.0000 -12.8568 0.0000
# 2 -11.1014 68.7545 4.4463 0.0000 -13.8334 0.0000
# 3 6.8933 4.4463 358.4249 0.0000 -3.3953 0.0000
# 4 0.0000 0.0000 0.0000 -469.1898 0.0000 34.8550
# 5 -12.8568 -13.8334 -3.3953 0.0000 24.2474 0.0000
# 6 0.0000 0.0000 0.0000 34.8550 0.0000 6.0015
#
#
#
# Elastic Compliance Matrix: (Units=1/GPa)
#
#
# Indices 1 2 3 4 5 6 
#
# 1 0.011591 0.003519 -0.000190 0.000000 0.008127 0.000000
# 2 0.003519 0.017504 -0.000173 0.000000 0.011828 0.000000
# 3 -0.000190 -0.000173 0.002798 0.000000 0.000193 0.000000
# 4 0.000000 0.000000 0.000000 -0.001489 0.000000 0.008647
# 5 0.008127 0.011828 0.000193 0.000000 0.052326 0.000000
# 6 0.000000 0.000000 0.000000 0.008647 0.000000 0.116404
#
#
# Mechanical properties :
#
#
# Convention : Reuss Voigt Hill
#
# Bulk Modulus (GPa) = 26.17458 58.49211 42.33334
# Shear Modulus (GPa) = 24.32447 -52.74056 -14.20804
#
# Velocity S-wave (km/s) = 3.03662 -4.47137 -2.32079
# Velocity P-wave (km/s) = 4.71350 2.11756 2.97767
#
# Compressibility (1/GPa) = 0.03820501
#
# Stress axis : x y z
#
# Youngs Moduli (GPa) = 86.27556 57.13117 357.44941
#
# Poissons Ratio (x) = -0.20104 0.06777
# Poissons Ratio (y) = -0.30359 0.06176
# Poissons Ratio (z) = 0.01636 0.00987
#
# Static dielectric constant tensor:
#      x y z
#    x 2.139570 0.000000 0.017430 
#    y 0.000000 2.074810 0.000000 
#    z 0.017430 0.000000 2.280800 
# 
# From -- ./inp_files/71979.got.cif
#   From: 2010.05.17/outbox.cif.g08.bks.cpg/sg14_36_cif.got.tgz:71979.got - 2010.06.03 17:49:19.
