data_PCOD9239047
_publ_section_title
;
Structure prediction by ZEFSAII (Michael W. Deem and Ramdas Pophale) SiO2 
 PCOD9239047
Probable space group: P 2/C
;
_chemical_formula_sum "Si O2"
_cell_formula_units_Z 20
_cell_length_a 18.000000
_cell_length_b 9.000000
_cell_length_c 12.000000
_cell_angle_alpha 90.000000
_cell_angle_beta 150.000000
_cell_angle_gamma 90.000000
_cell_volume 972.000000
_symmetry_space_group_name_H-M "P 2/C"
_symmetry_group_IT_number 13
_symmetry_cell_setting 'monoclinic'
loop_
_space_group_symop_operation_xyz
x,y,z
-x,y,1/2-z
-x,-y,-z
x,-y,1/2+z
loop_
_atom_site_type_symbol
_atom_site_label
_atom_site_fract_x
_atom_site_fract_y
_atom_site_fract_z
Si Si1 0.556608 0.066654 0.694464
Si Si2 0.013797 0.255231 0.015609
Si Si3 0.121869 0.993950 0.312247
Si Si4 0.560660 0.575001 0.197567
Si Si5 0.871901 0.498521 0.995198
O O1 0.500000 0.029641 0.750000
O O2 0.542305 0.246202 0.666802
O O3 0.500000 0.000000 0.500000
O O4 0.723827 0.008328 0.923958
O O5 0.917752 0.359231 0.974862
O O6 0.908432 0.155859 0.798281
O O7 0.103750 0.134451 0.205288
O O8 0.122968 0.360432 0.083406
O O9 0.000000 0.003128 0.250000
O O10 0.500000 0.535149 0.250000
O O11 0.732722 0.535052 0.395704
O O12 0.500000 0.500000 0.000000
O O13 0.000000 0.527810 0.250000
#
# Coordination Sequence:
#
# PCOD9239047 Si02
#       5
#     4   4   4   4   4
#     4  11  28  47  73 107 149 194 243 303 369 439
#     4  10  24  40  77 104 140 185 246 304 368 430
#     4  11  24  45  72 103 142 186 246 299 366 437
#     4  11  28  48  72 107 150 194 241 304 369 437
#     4  11  24  44  72 104 141 186 247 299 364 437
#
# _framework density 20.576132000000001
#
# number of rings (size 3 to 8) (size 9 to 14) (size 15 to 20)
#    0.000    1.200    0.000    3.600   19.600    2.400 
#    0.000    0.000    0.000    0.000    0.000    0.000 
#    0.000    0.000    0.000    0.000    0.000    0.000 
#
# Total GULP energy -111460.683291 kJ/mol
# GULP energy per Si atom -5573.034165 kJ/mol
# Density = 2.052930 g / cm^3
# Si number density = 20.576132 Si / 1000 Ang^3
#
#
#
# Elastic Constant Matrix: (Units=GPa)
#
#
# Indices 1 2 3 4 5 6 
#
# 1 199.8500 38.1279 39.9895 0.0000 -9.1579 0.0000
# 2 38.1279 98.9374 3.2649 0.0000 -19.3924 0.0000
# 3 39.9895 3.2649 104.3841 0.0000 -20.3495 0.0000
# 4 0.0000 0.0000 0.0000 26.9207 0.0000 -16.2176
# 5 -9.1579 -19.3924 -20.3495 0.0000 47.2713 0.0000
# 6 0.0000 0.0000 0.0000 -16.2176 0.0000 36.7438
#
#
#
# Elastic Compliance Matrix: (Units=1/GPa)
#
#
# Indices 1 2 3 4 5 6 
#
# 1 0.005883 -0.002354 -0.002343 0.000000 -0.000834 0.000000
# 2 -0.002354 0.011965 0.001523 0.000000 0.005108 0.000000
# 3 -0.002343 0.001523 0.011422 0.000000 0.005088 0.000000
# 4 0.000000 0.000000 0.000000 0.050600 0.000000 0.022333
# 5 -0.000834 0.005108 0.005088 0.000000 0.025279 0.000000
# 6 0.000000 0.000000 0.000000 0.022333 0.000000 0.037073
#
#
# Mechanical properties :
#
#
# Convention : Reuss Voigt Hill
#
# Bulk Modulus (GPa) = 43.62206 62.88181 53.25194
# Shear Modulus (GPa) = 32.00819 43.63977 37.82398
#
# Velocity S-wave (km/s) = 3.94839 4.61031 4.29213
# Velocity P-wave (km/s) = 6.48326 7.67899 7.10632
#
# Compressibility (1/GPa) = 0.02292418
#
# Stress axis : x y z
#
# Youngs Moduli (GPa) = 169.97130 83.57427 87.55179
#
# Poissons Ratio (x) = 0.19669 0.20513
# Poissons Ratio (y) = 0.40003 -0.13336
# Poissons Ratio (z) = 0.39823 -0.12731
#
# Static dielectric constant tensor:
#      x y z
#    x 2.128700 0.000000 0.359270 
#    y 0.000000 1.743750 0.000000 
#    z 0.359270 0.000000 2.153760 
# 
# From -- ./inp_files/32759.got.cif
#   From: 2010.05.17/outbox.ucp.g08.bks.cvg/sg13_17_cif.got.tgz:32759.got - 2010.06.11 12:23:55.
