data_PCOD9239980
_publ_section_title
;
Structure prediction by ZEFSAII (Michael W. Deem and Ramdas Pophale) SiO2 
 PCOD9239980
Probable space group: P 21/C
;
_chemical_formula_sum "Si O2"
_cell_formula_units_Z 28
_cell_length_a 6.614973
_cell_length_b 14.655779
_cell_length_c 17.481874
_cell_angle_alpha 90.000000
_cell_angle_beta 53.695969
_cell_angle_gamma 90.000000
_cell_volume 1365.837145
_symmetry_space_group_name_H-M "P 21/C"
_symmetry_group_IT_number 14
_symmetry_cell_setting 'monoclinic'
loop_
_space_group_symop_operation_xyz
x,y,z
-x,1/2+y,1/2-z
-x,-y,-z
x,1/2-y,1/2+z
loop_
_atom_site_type_symbol
_atom_site_label
_atom_site_fract_x
_atom_site_fract_y
_atom_site_fract_z
Si Si1 0.046772 0.593455 0.777849
Si Si2 0.454256 0.066486 0.186343
Si Si3 0.181597 0.076335 0.830019
Si Si4 0.603142 0.100850 0.992433
Si Si5 0.770956 0.004966 0.475611
Si Si6 0.795104 0.878842 0.607664
Si Si7 0.488832 0.793761 0.140492
O O1 0.257586 0.515601 0.712518
O O2 0.199656 0.688864 0.733749
O O3 0.841798 0.584320 0.756398
O O4 0.937182 0.563762 0.884510
O O5 0.513069 0.123238 0.097768
O O6 0.324953 0.121893 0.282154
O O7 0.702070 0.018696 0.166156
O O8 0.356196 0.150812 0.830493
O O9 0.902503 0.093911 0.922788
O O10 0.509847 0.163461 0.944534
O O11 0.500000 0.000000 0.000000
O O12 0.745226 0.968483 0.567605
O O13 0.500000 0.000000 0.500000
O O14 0.906406 0.104488 0.446267
O O15 0.643014 0.799679 0.599839
#
# Coordination Sequence:
#
# PCOD9239980 Si02
#       7
#     4   4   4   4   4   4   4
#     4   9  19  36  60  88 117 154 200 257 305 368
#     4  10  19  35  60  85 114 155 208 244 307 378
#     4  10  18  33  60  85 116 157 193 247 309 370
#     4  11  19  35  59  89 121 154 203 251 307 382
#     4  10  21  41  68  87 117 169 220 257 306 381
#     4  10  23  42  59  88 123 159 210 262 305 380
#     4  10  22  38  56  87 131 153 195 262 315 370
#
# _framework density 20.500247999999999
#
# number of rings (size 3 to 8) (size 9 to 14) (size 15 to 20)
#    0.000    2.000    4.286    1.286    0.000    3.429 
#    5.143    0.000    0.000    0.000    0.000    0.000 
#    0.000    0.000    0.000    0.000    0.000    0.000 
#
# Total GULP energy -155903.560914 kJ/mol
# GULP energy per Si atom -5567.984318 kJ/mol
# Density = 2.045359 g / cm^3
# Si number density = 20.500248 Si / 1000 Ang^3
#
#
#
# Elastic Constant Matrix: (Units=GPa)
#
#
# Indices 1 2 3 4 5 6 
#
# 1 130.2181 24.1249 29.3568 0.0000 8.7077 0.0000
# 2 24.1249 51.3264 11.5183 0.0000 -8.0196 0.0000
# 3 29.3568 11.5183 89.8913 0.0000 11.9214 0.0000
# 4 0.0000 0.0000 0.0000 14.5319 0.0000 4.0111
# 5 8.7077 -8.0196 11.9214 0.0000 27.4190 0.0000
# 6 0.0000 0.0000 0.0000 4.0111 0.0000 29.3100
#
#
#
# Elastic Compliance Matrix: (Units=1/GPa)
#
#
# Indices 1 2 3 4 5 6 
#
# 1 0.009162 -0.004379 -0.001990 0.000000 -0.003325 0.000000
# 2 -0.004379 0.023681 -0.002873 0.000000 0.009566 0.000000
# 3 -0.001990 -0.002873 0.012915 0.000000 -0.005824 0.000000
# 4 0.000000 0.000000 0.000000 0.071516 0.000000 -0.009787
# 5 -0.003325 0.009566 -0.005824 0.000000 0.042857 0.000000
# 6 0.000000 0.000000 0.000000 -0.009787 0.000000 0.035457
#
#
# Mechanical properties :
#
#
# Convention : Reuss Voigt Hill
#
# Bulk Modulus (GPa) = 36.66573 44.60397 40.63485
# Shear Modulus (GPa) = 22.40517 28.01457 25.20987
#
# Velocity S-wave (km/s) = 3.30952 3.70069 3.51056
# Velocity P-wave (km/s) = 5.70335 6.32971 6.02468
#
# Compressibility (1/GPa) = 0.02727343
#
# Stress axis : x y z
#
# Youngs Moduli (GPa) = 109.14984 42.22808 77.43023
#
# Poissons Ratio (x) = 0.18493 0.15408
# Poissons Ratio (y) = 0.47800 0.22245
# Poissons Ratio (z) = 0.21720 0.12132
#
# Static dielectric constant tensor:
#      x y z
#    x 1.393880 0.000000 0.002900 
#    y 0.000000 1.780000 0.000000 
#    z 0.002900 0.000000 1.769770 
# 
# From -- ./inp_files/53398.got.cif
#   From: 2010.05.17/outbox.cif.g08.bks.cpg/sg14_27_cif.got.tgz:53398.got - 2010.06.03 17:49:19.
