data_PCOD9239095
_publ_section_title
;
Structure prediction by ZEFSAII (Michael W. Deem and Ramdas Pophale) SiO2 
 PCOD9239095
Probable space group: P 21/C
;
_chemical_formula_sum "Si O2"
_cell_formula_units_Z 20
_cell_length_a 26.674764
_cell_length_b 6.879876
_cell_length_c 5.226337
_cell_angle_alpha 90.000000
_cell_angle_beta 66.620777
_cell_angle_gamma 90.000000
_cell_volume 880.386360
_symmetry_space_group_name_H-M "P 21/C"
_symmetry_group_IT_number 14
_symmetry_cell_setting 'monoclinic'
loop_
_space_group_symop_operation_xyz
x,y,z
-x,1/2+y,1/2-z
-x,-y,-z
x,1/2-y,1/2+z
loop_
_atom_site_type_symbol
_atom_site_label
_atom_site_fract_x
_atom_site_fract_y
_atom_site_fract_z
Si Si1 0.948193 0.629331 0.537321
Si Si2 0.170772 0.468363 0.050220
Si Si3 0.330349 0.120535 0.897929
Si Si4 0.785972 0.521390 0.537748
Si Si5 0.553464 0.623619 0.946927
O O1 0.949682 0.805726 0.739602
O O2 0.889946 0.532565 0.716475
O O3 0.000000 0.500000 0.500000
O O4 0.194183 0.247495 0.963192
O O5 0.209772 0.558228 0.185745
O O6 0.173124 0.553306 0.762078
O O7 0.329373 0.294645 0.687025
O O8 0.388443 0.019434 0.726374
O O9 0.274726 0.009524 0.950059
O O10 0.553089 0.797232 0.737259
O O11 0.500000 0.500000 0.000000
#
# Coordination Sequence:
#
# PCOD9239095 Si02
#       5
#     4   4   4   4   4
#     4  12  23  38  55  81 110 144 181 219 265 325
#     4  10  16  27  47  71 105 124 164 215 279 290
#     4  10  16  25  44  74 101 122 166 224 263 289
#     4  10  14  25  46  70 106 119 163 222 278 279
#     4  10  21  35  53  78 113 145 181 218 266 317
#
# _framework density 22.717300000000002
#
# number of rings (size 3 to 8) (size 9 to 14) (size 15 to 20)
#    0.000    1.600    8.000    1.200    0.000    0.000 
#    0.000    0.000    0.000    0.000    0.000    8.400 
#    0.000    0.000    0.000    0.000    0.000    0.000 
#
# Total GULP energy -111587.408589 kJ/mol
# GULP energy per Si atom -5579.370429 kJ/mol
# Density = 2.266559 g / cm^3
# Si number density = 22.717300 Si / 1000 Ang^3
#
#
#
# Elastic Constant Matrix: (Units=GPa)
#
#
# Indices 1 2 3 4 5 6 
#
# 1 117.3001 -10.5530 15.1147 0.0000 -19.9509 0.0000
# 2 -10.5530 31.2919 -6.5027 0.0000 -7.9039 0.0000
# 3 15.1147 -6.5027 83.3778 0.0000 10.7440 0.0000
# 4 0.0000 0.0000 0.0000 -4.9023 0.0000 -14.0578
# 5 -19.9509 -7.9039 10.7440 0.0000 71.4406 0.0000
# 6 0.0000 0.0000 0.0000 -14.0578 0.0000 19.4092
#
#
#
# Elastic Compliance Matrix: (Units=1/GPa)
#
#
# Indices 1 2 3 4 5 6 
#
# 1 0.009685 0.003730 -0.001903 0.000000 0.003404 0.000000
# 2 0.003730 0.034690 0.001428 0.000000 0.004665 0.000000
# 3 -0.001903 0.001428 0.012745 0.000000 -0.002290 0.000000
# 4 0.000000 0.000000 0.000000 -0.066295 0.000000 -0.048016
# 5 0.003404 0.004665 -0.002290 0.000000 0.015809 0.000000
# 6 0.000000 0.000000 0.000000 -0.048016 0.000000 0.016744
#
#
# Mechanical properties :
#
#
# Convention : Reuss Voigt Hill
#
# Bulk Modulus (GPa) = 15.71570 25.34310 20.52940
# Shear Modulus (GPa) = 131.30758 32.78356 82.04557
#
# Velocity S-wave (km/s) = 7.61092 3.80295 6.01617
# Velocity P-wave (km/s) = 9.17430 5.51936 7.57071
#
# Compressibility (1/GPa) = 0.06363064
#
# Stress axis : x y z
#
# Youngs Moduli (GPa) = 103.25356 28.82654 78.46125
#
# Poissons Ratio (x) = -0.10753 0.14934
# Poissons Ratio (y) = -0.38517 -0.11206
# Poissons Ratio (z) = 0.19653 -0.04117
#
# Static dielectric constant tensor:
#      x y z
#    x 1.876610 0.000000 0.016750 
#    y 0.000000 2.056060 0.000000 
#    z 0.016750 0.000000 1.884960 
# 
# From -- ./inp_files/4321.got.cif
#   From: 2010.05.17/outbox.cif.g08.bks.cpg/sg14_3_cif.got.tgz:4321.got - 2010.06.03 17:49:19.
