data_PCOD9239940
_publ_section_title
;
Structure prediction by ZEFSAII (Michael W. Deem and Ramdas Pophale) SiO2 
 PCOD9239940
Probable space group: P 21/C
;
_chemical_formula_sum "Si O2"
_cell_formula_units_Z 28
_cell_length_a 14.107238
_cell_length_b 12.342619
_cell_length_c 7.815440
_cell_angle_alpha 90.000000
_cell_angle_beta 48.227983
_cell_angle_gamma 90.000000
_cell_volume 1014.906347
_symmetry_space_group_name_H-M "P 21/C"
_symmetry_group_IT_number 14
_symmetry_cell_setting 'monoclinic'
loop_
_space_group_symop_operation_xyz
x,y,z
-x,1/2+y,1/2-z
-x,-y,-z
x,1/2-y,1/2+z
loop_
_atom_site_type_symbol
_atom_site_label
_atom_site_fract_x
_atom_site_fract_y
_atom_site_fract_z
Si Si1 0.037635 0.295499 0.264703
Si Si2 0.323865 0.653895 0.833230
Si Si3 0.456041 0.469727 0.861746
Si Si4 0.100576 0.079491 0.974967
Si Si5 0.401154 0.247831 0.572849
Si Si6 0.850470 0.186765 0.737837
Si Si7 0.307487 0.417973 0.476951
O O1 0.923021 0.276997 0.536932
O O2 0.970424 0.362506 0.194806
O O3 0.142360 0.353128 0.254464
O O4 0.064575 0.176982 0.153063
O O5 0.352705 0.554925 0.923668
O O6 0.457309 0.699131 0.598553
O O7 0.224512 0.616289 0.807988
O O8 0.252204 0.749808 0.023422
O O9 0.418101 0.346629 0.909467
O O10 0.583147 0.497722 0.606069
O O11 0.500000 0.500000 0.000000
O O12 0.206120 0.025694 0.971526
O O13 0.000000 0.000000 0.000000
O O14 0.296885 0.341375 0.656974
O O15 0.363135 0.174578 0.780351
#
# Coordination Sequence:
#
# PCOD9239940 Si02
#       7
#     4   4   4   4   4   4   4
#     4   9  21  39  58  88 118 155 217 264 304 366
#     4  10  18  33  55  84 115 152 193 240 309 376
#     4   9  19  33  54  83 113 149 194 230 289 380
#     4  11  23  42  65  88 121 169 215 261 312 365
#     4  10  20  36  56  83 119 152 187 241 300 366
#     4   9  18  34  58  80 114 149 190 261 309 350
#     4  10  21  37  58  84 116 156 195 243 300 361
#
# _framework density 27.588753000000001
#
# number of rings (size 3 to 8) (size 9 to 14) (size 15 to 20)
#    0.000    2.286    0.000    3.429    0.000   10.286 
#    0.000   12.143    0.000    0.000    0.000    0.000 
#    0.000    0.000    0.000    0.000    0.000    0.000 
#
# Total GULP energy -156210.156606 kJ/mol
# GULP energy per Si atom -5578.934164 kJ/mol
# Density = 2.752596 g / cm^3
# Si number density = 27.588753 Si / 1000 Ang^3
#
#
#
# Elastic Constant Matrix: (Units=GPa)
#
#
# Indices 1 2 3 4 5 6 
#
# 1 137.5640 0.7234 2.3003 0.0000 -3.2897 0.0000
# 2 0.7234 76.9430 4.6836 0.0000 -15.5294 0.0000
# 3 2.3003 4.6836 42.8205 0.0000 0.9788 0.0000
# 4 0.0000 0.0000 0.0000 46.2808 0.0000 -0.4161
# 5 -3.2897 -15.5294 0.9788 0.0000 32.3632 0.0000
# 6 0.0000 0.0000 0.0000 -0.4161 0.0000 46.9157
#
#
#
# Elastic Compliance Matrix: (Units=1/GPa)
#
#
# Indices 1 2 3 4 5 6 
#
# 1 0.007295 0.000121 -0.000424 0.000000 0.000813 0.000000
# 2 0.000121 0.014522 -0.001756 0.000000 0.007034 0.000000
# 3 -0.000424 -0.001756 0.023605 0.000000 -0.001599 0.000000
# 4 0.000000 0.000000 0.000000 0.021609 0.000000 0.000192
# 5 0.000813 0.007034 -0.001599 0.000000 0.034405 0.000000
# 6 0.000000 0.000000 0.000000 0.000192 0.000000 0.021317
#
#
# Mechanical properties :
#
#
# Convention : Reuss Voigt Hill
#
# Bulk Modulus (GPa) = 24.20984 30.30466 27.25725
# Shear Modulus (GPa) = 35.55238 41.75330 38.65284
#
# Velocity S-wave (km/s) = 3.59368 3.89449 3.74710
# Velocity P-wave (km/s) = 5.10036 5.58847 5.34998
#
# Compressibility (1/GPa) = 0.04130552
#
# Stress axis : x y z
#
# Youngs Moduli (GPa) = 137.07607 68.86112 42.36450
#
# Poissons Ratio (x) = -0.00835 0.01795
# Poissons Ratio (y) = -0.01661 0.07438
# Poissons Ratio (z) = 0.05808 0.12090
#
# Static dielectric constant tensor:
#      x y z
#    x 2.278090 0.000000 -0.018730 
#    y 0.000000 2.249390 0.000000 
#    z -0.018730 0.000000 2.319410 
# 
# From -- ./inp_files/12858.got.cif
#   From: 2010.05.17/outbox.cif.g08.bks.cpg/sg14_7_cif.got.tgz:12858.got - 2010.06.03 17:49:19.
