data_PCOD9239707
_publ_section_title
;
Structure prediction by ZEFSAII (Michael W. Deem and Ramdas Pophale) SiO2 
 PCOD9239707
Probable space group: P 21/C
;
_chemical_formula_sum "Si O2"
_cell_formula_units_Z 32
_cell_length_a 8.596307
_cell_length_b 11.779472
_cell_length_c 33.064773
_cell_angle_alpha 90.000000
_cell_angle_beta 29.539571
_cell_angle_gamma 90.000000
_cell_volume 1650.713986
_symmetry_space_group_name_H-M "P 21/C"
_symmetry_group_IT_number 14
_symmetry_cell_setting 'monoclinic'
loop_
_space_group_symop_operation_xyz
x,y,z
-x,1/2+y,1/2-z
-x,-y,-z
x,1/2-y,1/2+z
loop_
_atom_site_type_symbol
_atom_site_label
_atom_site_fract_x
_atom_site_fract_y
_atom_site_fract_z
Si Si1 0.217854 0.894298 0.741317
Si Si2 0.678339 0.660702 0.778927
Si Si3 0.633486 0.211325 0.852487
Si Si4 0.657695 0.862904 0.002381
Si Si5 0.487495 0.829388 0.889146
Si Si6 0.429967 0.021136 0.841338
Si Si7 0.665175 0.328774 0.693828
Si Si8 0.219326 0.624383 0.530368
O O1 0.396638 0.826568 0.665613
O O2 0.302170 0.846219 0.766238
O O3 0.845050 0.870895 0.817960
O O4 0.298360 0.026514 0.723644
O O5 0.511482 0.720942 0.854868
O O6 0.496736 0.711239 0.781622
O O7 0.034133 0.707274 0.699734
O O8 0.646657 0.110675 0.815831
O O9 0.376895 0.188532 0.945212
O O10 0.985971 0.836706 0.905408
O O11 0.628887 0.999519 0.012464
O O12 0.374657 0.829427 0.035925
O O13 0.329241 0.932836 0.899819
O O14 0.309094 0.804527 0.970805
O O15 0.147952 0.095552 0.886617
O O16 0.528757 0.932318 0.784054
#
# Coordination Sequence:
#
# PCOD9239707 Si02
#       8
#     4   4   4   4   4   4   4   4
#     4  11  22  40  57  86 119 162 197 236 298 355
#     4  10  23  38  59  84 121 158 197 239 290 363
#     4  11  23  36  61  87 121 151 194 249 298 351
#     4  10  20  35  56  91 120 150 195 253 301 341
#     4  10  18  36  56  85 118 155 189 237 297 352
#     4  10  20  31  57  91 114 146 195 244 299 348
#     4  10  23  37  62  85 119 156 200 244 303 349
#     4  10  18  30  59  88 120 146 186 254 302 340
#
# _framework density 19.385551
#
# number of rings (size 3 to 8) (size 9 to 14) (size 15 to 20)
#    0.000    1.750    3.750    0.375    8.750    0.000 
#    0.000    0.625    0.000    0.750    0.000    0.000 
#    0.000    0.000    0.000    0.000    0.000    0.000 
#
# Total GULP energy -178533.831099 kJ/mol
# GULP energy per Si atom -5579.182222 kJ/mol
# Density = 1.934143 g / cm^3
# Si number density = 19.385551 Si / 1000 Ang^3
#
#
#
# Elastic Constant Matrix: (Units=GPa)
#
#
# Indices 1 2 3 4 5 6 
#
# 1 116.2321 45.3853 21.3880 0.0000 11.8330 0.0000
# 2 45.3853 102.0649 31.3991 0.0000 16.8653 0.0000
# 3 21.3880 31.3991 50.1151 0.0000 17.5358 0.0000
# 4 0.0000 0.0000 0.0000 17.7582 0.0000 -2.1206
# 5 11.8330 16.8653 17.5358 0.0000 22.1654 0.0000
# 6 0.0000 0.0000 0.0000 -2.1206 0.0000 25.0400
#
#
#
# Elastic Compliance Matrix: (Units=1/GPa)
#
#
# Indices 1 2 3 4 5 6 
#
# 1 0.010592 -0.004012 -0.001516 0.000000 -0.001403 0.000000
# 2 -0.004012 0.013983 -0.005635 0.000000 -0.004039 0.000000
# 3 -0.001516 -0.005635 0.030903 0.000000 -0.019351 0.000000
# 4 0.000000 0.000000 0.000000 0.056887 0.000000 0.004818
# 5 -0.001403 -0.004039 -0.019351 0.000000 0.064247 0.000000
# 6 0.000000 0.000000 0.000000 0.004818 0.000000 0.040344
#
#
# Mechanical properties :
#
#
# Convention : Reuss Voigt Hill
#
# Bulk Modulus (GPa) = 30.16448 51.63966 40.90207
# Shear Modulus (GPa) = 19.97346 24.34203 22.15775
#
# Velocity S-wave (km/s) = 3.21335 3.54740 3.38450
# Velocity P-wave (km/s) = 5.41863 6.59354 6.03475
#
# Compressibility (1/GPa) = 0.03315157
#
# Stress axis : x y z
#
# Youngs Moduli (GPa) = 94.41379 71.51740 32.35928
#
# Poissons Ratio (x) = 0.28690 0.04906
# Poissons Ratio (y) = 0.37876 0.18235
# Poissons Ratio (z) = 0.14314 0.40301
#
# Static dielectric constant tensor:
#      x y z
#    x 1.737010 0.000000 -0.004100 
#    y 0.000000 1.674310 0.000000 
#    z -0.004100 0.000000 1.699510 
# 
# From -- ./inp_files/79615.got.cif
#   From: 2010.05.17/outbox.cif.g08.bks.cpg/sg14_40_cif.got.tgz:79615.got - 2010.06.03 17:49:19.
