data_PCOD9239153
_publ_section_title
;
Structure prediction by ZEFSAII (Michael W. Deem and Ramdas Pophale) SiO2 
 PCOD9239153
Probable space group: P 21/C
;
_chemical_formula_sum "Si O2"
_cell_formula_units_Z 28
_cell_length_a 19.719717
_cell_length_b 7.604609
_cell_length_c 22.363109
_cell_angle_alpha 90.000000
_cell_angle_beta 161.429332
_cell_angle_gamma 90.000000
_cell_volume 1068.030910
_symmetry_space_group_name_H-M "P 21/C"
_symmetry_group_IT_number 14
_symmetry_cell_setting 'monoclinic'
loop_
_space_group_symop_operation_xyz
x,y,z
-x,1/2+y,1/2-z
-x,-y,-z
x,1/2-y,1/2+z
loop_
_atom_site_type_symbol
_atom_site_label
_atom_site_fract_x
_atom_site_fract_y
_atom_site_fract_z
Si Si1 0.033476 0.995723 0.359000
Si Si2 0.394664 0.693694 0.840570
Si Si3 0.049063 0.168488 0.490489
Si Si4 0.269375 0.302471 0.781681
Si Si5 0.064946 0.993295 0.918078
Si Si6 0.813401 0.288814 0.110472
Si Si7 0.475704 0.443144 0.173728
O O1 0.031236 0.012303 0.427867
O O2 0.053761 0.812202 0.340410
O O3 0.256560 0.091725 0.525455
O O4 0.844938 0.108379 0.171290
O O5 0.350105 0.489206 0.821622
O O6 0.482741 0.686143 0.846981
O O7 0.175075 0.793975 0.664956
O O8 0.560971 0.763181 0.028311
O O9 0.221538 0.175183 0.686791
O O10 0.084482 0.338563 0.478551
O O11 0.062327 0.357840 0.646794
O O12 0.919029 0.064584 0.742466
O O13 0.309798 0.946201 0.108714
O O14 0.582136 0.362925 0.901205
#
# Coordination Sequence:
#
# PCOD9239153 Si02
#       7
#     4   4   4   4   4   4   4
#     4   9  21  36  52  74 110 139 176 216 259 308
#     4  10  17  27  49  76 102 137 167 209 271 317
#     4  10  18  29  46  78 110 127 166 224 265 300
#     4  10  16  25  48  78 106 127 162 221 273 305
#     4  10  16  30  50  76 104 134 167 216 265 314
#     4   9  20  37  50  75 105 138 179 214 253 312
#     4  10  18  33  50  73 102 143 174 204 260 322
#
# _framework density 26.216470000000001
#
# number of rings (size 3 to 8) (size 9 to 14) (size 15 to 20)
#    0.857    1.429    4.286    0.857    2.000    0.000 
#    7.714    0.000    0.000    0.857    0.000    2.000 
#    0.000    0.000    0.000    0.000    0.000    0.000 
#
# Total GULP energy -156661.059772 kJ/mol
# GULP energy per Si atom -5595.037849 kJ/mol
# Density = 2.615680 g / cm^3
# Si number density = 26.216470 Si / 1000 Ang^3
#
#
#
# Elastic Constant Matrix: (Units=GPa)
#
#
# Indices 1 2 3 4 5 6 
#
# 1 107.3899 15.3395 -5.5193 0.0000 1.7428 0.0000
# 2 15.3395 64.6159 16.0718 0.0000 -16.3735 0.0000
# 3 -5.5193 16.0718 106.0669 0.0000 -10.9545 0.0000
# 4 0.0000 0.0000 0.0000 7.5942 0.0000 -1.9907
# 5 1.7428 -16.3735 -10.9545 0.0000 43.5617 0.0000
# 6 0.0000 0.0000 0.0000 -1.9907 0.0000 36.6011
#
#
#
# Elastic Compliance Matrix: (Units=1/GPa)
#
#
# Indices 1 2 3 4 5 6 
#
# 1 0.009780 -0.002841 0.000810 0.000000 -0.001256 0.000000
# 2 -0.002841 0.018345 -0.002262 0.000000 0.006440 0.000000
# 3 0.000810 -0.002262 0.009981 0.000000 0.001627 0.000000
# 4 0.000000 0.000000 0.000000 0.133583 0.000000 0.007266
# 5 -0.001256 0.006440 0.001627 0.000000 0.025836 0.000000
# 6 0.000000 0.000000 0.000000 0.007266 0.000000 0.027717
#
#
# Mechanical properties :
#
#
# Convention : Reuss Voigt Hill
#
# Bulk Modulus (GPa) = 33.87760 36.65075 35.26418
# Shear Modulus (GPa) = 20.51960 34.36344 27.44152
#
# Velocity S-wave (km/s) = 2.80071 3.62437 3.23883
# Velocity P-wave (km/s) = 4.83828 5.61472 5.24090
#
# Compressibility (1/GPa) = 0.02951803
#
# Stress axis : x y z
#
# Youngs Moduli (GPa) = 102.25275 54.51010 100.19014
#
# Poissons Ratio (x) = 0.15487 -0.08113
# Poissons Ratio (y) = 0.29052 0.22668
# Poissons Ratio (z) = -0.08280 0.12333
#
# Static dielectric constant tensor:
#      x y z
#    x 2.055430 0.000000 0.004700 
#    y 0.000000 2.170800 0.000000 
#    z 0.004700 0.000000 1.994870 
# 
# From -- ./inp_files/74706.got.cif
#   From: 2010.05.17/outbox.cif.g08.bks.cpg/sg14_38_cif.got.tgz:74706.got - 2010.06.03 17:49:19.
