data_PCOD9239866
_publ_section_title
;
Structure prediction by ZEFSAII (Michael W. Deem and Ramdas Pophale) SiO2 
 PCOD9239866
Probable space group: P 21/C
;
_chemical_formula_sum "Si O2"
_cell_formula_units_Z 28
_cell_length_a 8.685113
_cell_length_b 11.394664
_cell_length_c 27.974626
_cell_angle_alpha 90.000000
_cell_angle_beta 151.111145
_cell_angle_gamma 90.000000
_cell_volume 1337.485813
_symmetry_space_group_name_H-M "P 21/C"
_symmetry_group_IT_number 14
_symmetry_cell_setting 'monoclinic'
loop_
_space_group_symop_operation_xyz
x,y,z
-x,1/2+y,1/2-z
-x,-y,-z
x,1/2-y,1/2+z
loop_
_atom_site_type_symbol
_atom_site_label
_atom_site_fract_x
_atom_site_fract_y
_atom_site_fract_z
Si Si1 0.860181 0.628496 0.382219
Si Si2 0.330429 0.471798 0.234933
Si Si3 0.396573 0.595574 0.592902
Si Si4 0.175785 0.553750 0.702178
Si Si5 0.207003 0.271199 0.865982
Si Si6 0.847332 0.389184 0.685066
Si Si7 0.786894 0.190815 0.589120
O O1 0.483223 0.602670 0.280179
O O2 0.988511 0.516476 0.386333
O O3 0.030671 0.617348 0.479300
O O4 0.984296 0.736933 0.385436
O O5 0.521642 0.403636 0.329010
O O6 0.464470 0.436137 0.219066
O O7 0.971107 0.431932 0.145529
O O8 0.582290 0.697811 0.615196
O O9 0.549711 0.475462 0.613505
O O10 0.014590 0.675578 0.668923
O O11 0.109937 0.467256 0.728320
O O12 0.998768 0.355394 0.776636
O O13 0.449703 0.321126 0.971272
O O14 0.771834 0.273774 0.632290
#
# Coordination Sequence:
#
# PCOD9239866 Si02
#       7
#     4   4   4   4   4   4   4
#     4   8  18  33  54  78 107 134 177 220 273 308
#     4  10  19  33  54  82 113 132 179 227 271 309
#     4  10  18  32  57  81 103 141 179 224 262 325
#     4   8  19  34  54  78 109 136 176 227 263 314
#     4  10  19  35  57  79 104 144 185 214 266 325
#     4  10  19  35  56  77 109 141 183 218 268 315
#     4  10  19  35  57  78 107 146 174 226 270 311
#
# _framework density 20.934802000000001
#
# number of rings (size 3 to 8) (size 9 to 14) (size 15 to 20)
#    0.857    1.714    1.429    1.286    0.000    4.571 
#    0.000    1.429    0.000    0.000    0.000    0.000 
#    0.000    0.000    0.000    0.000    0.000    0.000 
#
# Total GULP energy -155882.471106 kJ/mol
# GULP energy per Si atom -5567.231111 kJ/mol
# Density = 2.088715 g / cm^3
# Si number density = 20.934802 Si / 1000 Ang^3
#
#
#
# Elastic Constant Matrix: (Units=GPa)
#
#
# Indices 1 2 3 4 5 6 
#
# 1 84.7434 22.2592 13.1227 0.0000 -4.5742 0.0000
# 2 22.2592 52.9580 41.9598 0.0000 5.7364 0.0000
# 3 13.1227 41.9598 88.2209 0.0000 -16.3388 0.0000
# 4 0.0000 0.0000 0.0000 16.7726 0.0000 -0.8150
# 5 -4.5742 5.7364 -16.3388 0.0000 21.3631 0.0000
# 6 0.0000 0.0000 0.0000 -0.8150 0.0000 27.1907
#
#
#
# Elastic Compliance Matrix: (Units=1/GPa)
#
#
# Indices 1 2 3 4 5 6 
#
# 1 0.014470 -0.011046 0.004922 0.000000 0.009829 0.000000
# 2 -0.011046 0.051815 -0.030309 0.000000 -0.039459 0.000000
# 3 0.004922 -0.030309 0.031131 0.000000 0.033001 0.000000
# 4 0.000000 0.000000 0.000000 0.059708 0.000000 0.001790
# 5 0.009829 -0.039459 0.033001 0.000000 0.084749 0.000000
# 6 0.000000 0.000000 0.000000 0.001790 0.000000 0.036831
#
#
# Mechanical properties :
#
#
# Convention : Reuss Voigt Hill
#
# Bulk Modulus (GPa) = 40.73598 42.28952 41.51275
# Shear Modulus (GPa) = 13.89841 22.97067 18.43454
#
# Velocity S-wave (km/s) = 2.57940 3.31607 2.97066
# Velocity P-wave (km/s) = 5.32652 5.90814 5.62486
#
# Compressibility (1/GPa) = 0.02454832
#
# Stress axis : x y z
#
# Youngs Moduli (GPa) = 69.10750 19.29961 32.12272
#
# Poissons Ratio (x) = 0.21319 -0.15810
# Poissons Ratio (y) = 0.76339 0.97360
# Poissons Ratio (z) = -0.34013 0.58495
#
# Static dielectric constant tensor:
#      x y z
#    x 1.798990 0.000000 0.029150 
#    y 0.000000 1.776310 0.000000 
#    z 0.029150 0.000000 1.753690 
# 
# From -- ./inp_files/76670.got.cif
#   From: 2010.05.17/outbox.cif.g08.bks.cpg/sg14_39_cif.got.tgz:76670.got - 2010.06.03 17:49:19.
