data_PCOD9239244
_publ_section_title
;
Structure prediction by ZEFSAII (Michael W. Deem and Ramdas Pophale) SiO2 
 PCOD9239244
Probable space group: P 21/C
;
_chemical_formula_sum "Si O2"
_cell_formula_units_Z 20
_cell_length_a 13.154295
_cell_length_b 5.305493
_cell_length_c 13.350174
_cell_angle_alpha 90.000000
_cell_angle_beta 105.631648
_cell_angle_gamma 90.000000
_cell_volume 897.248612
_symmetry_space_group_name_H-M "P 21/C"
_symmetry_group_IT_number 14
_symmetry_cell_setting 'monoclinic'
loop_
_space_group_symop_operation_xyz
x,y,z
-x,1/2+y,1/2-z
-x,-y,-z
x,1/2-y,1/2+z
loop_
_atom_site_type_symbol
_atom_site_label
_atom_site_fract_x
_atom_site_fract_y
_atom_site_fract_z
Si Si1 0.034869 0.749878 0.449779
Si Si2 0.747083 0.311917 0.899423
Si Si3 0.768156 0.360313 0.195145
Si Si4 0.152933 0.355904 0.236216
Si Si5 0.569983 0.247711 0.509322
O O1 0.960080 0.768446 0.333163
O O2 0.000000 0.500000 0.500000
O O3 0.161726 0.769475 0.493975
O O4 0.000000 0.000000 0.500000
O O5 0.756956 0.111314 0.812794
O O6 0.774427 0.564356 0.841851
O O7 0.636236 0.281678 0.924255
O O8 0.803143 0.641844 0.177545
O O9 0.659203 0.269175 0.118996
O O10 0.848368 0.126133 0.209500
O O11 0.500000 0.500000 0.500000
O O12 0.500000 0.000000 0.500000
#
# Coordination Sequence:
#
# PCOD9239244 Si02
#       5
#     4   4   4   4   4
#     4  10  16  32  62  93 118 156 193 236 299 372
#     4   9  23  38  67  85 127 159 200 240 315 350
#     4  10  21  40  63  86 124 153 206 248 302 359
#     4   9  18  37  63  92 121 155 190 245 300 371
#     4  12  28  43  61  89 122 161 215 262 298 355
#
# _framework density 22.290367
#
# number of rings (size 3 to 8) (size 9 to 14) (size 15 to 20)
#    1.200    0.800    2.000    1.200    2.800    1.600 
#    0.000    2.000    0.000    0.000    0.000    0.000 
#    0.000    0.000    0.000    0.000    0.000    0.000 
#
# Total GULP energy -111421.342395 kJ/mol
# GULP energy per Si atom -5571.067120 kJ/mol
# Density = 2.223963 g / cm^3
# Si number density = 22.290367 Si / 1000 Ang^3
#
#
#
# Elastic Constant Matrix: (Units=GPa)
#
#
# Indices 1 2 3 4 5 6 
#
# 1 107.9205 62.9687 11.1683 0.0000 24.3848 0.0000
# 2 62.9687 193.4627 32.0903 0.0000 14.1813 0.0000
# 3 11.1683 32.0903 88.2400 0.0000 16.6005 0.0000
# 4 0.0000 0.0000 0.0000 41.1795 0.0000 8.4063
# 5 24.3848 14.1813 16.6005 0.0000 29.8813 0.0000
# 6 0.0000 0.0000 0.0000 8.4063 0.0000 19.7564
#
#
#
# Elastic Compliance Matrix: (Units=1/GPa)
#
#
# Indices 1 2 3 4 5 6 
#
# 1 0.013737 -0.003993 0.001637 0.000000 -0.010224 0.000000
# 2 -0.003993 0.006738 -0.002185 0.000000 0.001275 0.000000
# 3 0.001637 -0.002185 0.013374 0.000000 -0.007729 0.000000
# 4 0.000000 0.000000 0.000000 0.026594 0.000000 -0.011316
# 5 -0.010224 0.001275 -0.007729 0.000000 0.045498 0.000000
# 6 0.000000 0.000000 0.000000 -0.011316 0.000000 0.055431
#
#
# Mechanical properties :
#
#
# Convention : Reuss Voigt Hill
#
# Bulk Modulus (GPa) = 40.37646 66.89752 53.63699
# Shear Modulus (GPa) = 27.97847 37.05651 32.51749
#
# Velocity S-wave (km/s) = 3.54670 4.08173 3.82359
# Velocity P-wave (km/s) = 5.90976 7.23126 6.60365
#
# Compressibility (1/GPa) = 0.02476690
#
# Stress axis : x y z
#
# Youngs Moduli (GPa) = 72.79730 148.42093 74.77143
#
# Poissons Ratio (x) = 0.59267 -0.12241
# Poissons Ratio (y) = 0.29069 0.16335
# Poissons Ratio (z) = -0.11917 0.32425
#
# Static dielectric constant tensor:
#      x y z
#    x 2.045370 0.000000 -0.134230 
#    y 0.000000 1.573950 0.000000 
#    z -0.134230 0.000000 1.960520 
# 
# From -- ./inp_files/58276.got.cif
#   From: 2010.05.17/outbox.cif.g08.bks.cpg/sg14_30_cif.got.tgz:58276.got - 2010.06.03 17:49:19.
