data_PCOD9239832
_publ_section_title
;
Structure prediction by ZEFSAII (Michael W. Deem and Ramdas Pophale) SiO2 
 PCOD9239832
Probable space group: P 21/C
;
_chemical_formula_sum "Si O2"
_cell_formula_units_Z 32
_cell_length_a 21.409588
_cell_length_b 13.777651
_cell_length_c 13.330631
_cell_angle_alpha 90.000000
_cell_angle_beta 21.000191
_cell_angle_gamma 90.000000
_cell_volume 1409.182138
_symmetry_space_group_name_H-M "P 21/C"
_symmetry_group_IT_number 14
_symmetry_cell_setting 'monoclinic'
loop_
_space_group_symop_operation_xyz
x,y,z
-x,1/2+y,1/2-z
-x,-y,-z
x,1/2-y,1/2+z
loop_
_atom_site_type_symbol
_atom_site_label
_atom_site_fract_x
_atom_site_fract_y
_atom_site_fract_z
Si Si1 0.730768 0.725742 0.449446
Si Si2 0.945031 0.997161 0.198114
Si Si3 0.399235 0.483541 0.330386
Si Si4 0.985108 0.279809 0.620510
Si Si5 0.441249 0.501807 0.705336
Si Si6 0.303114 0.288682 0.272426
Si Si7 0.283617 0.976731 0.790846
Si Si8 0.408096 0.730377 0.794657
O O1 0.724019 0.607207 0.455455
O O2 0.714471 0.743093 0.589368
O O3 0.556640 0.759461 0.652443
O O4 0.906707 0.773790 0.144685
O O5 0.948727 0.112466 0.218325
O O6 0.751869 0.958364 0.500461
O O7 0.093787 0.945588 0.039546
O O8 0.000000 0.000000 0.000000
O O9 0.445903 0.534076 0.366840
O O10 0.318714 0.542431 0.356187
O O11 0.575114 0.446042 0.006398
O O12 0.142238 0.239253 0.454396
O O13 0.791707 0.238455 0.895459
O O14 0.500000 0.500000 0.500000
O O15 0.416537 0.613754 0.776261
O O16 0.289515 0.404949 0.277599
O O17 0.497357 0.262977 0.948004
#
# Coordination Sequence:
#
# PCOD9239832 Si02
#       8
#     4   4   4   4   4   4   4   4
#     4   9  18  33  55  76 103 140 177 219 268 313
#     4  10  18  32  54  81 104 136 185 225 262 325
#     4   9  17  33  57  74 109 143 175 223 269 320
#     4   9  19  33  52  77 105 137 177 219 265 324
#     4  10  20  34  53  79 112 142 174 224 282 322
#     4   9  18  33  53  77 104 138 180 223 264 321
#     4   9  17  32  58  78 102 143 189 220 266 325
#     4   9  19  35  52  75 109 140 175 217 270 325
#
# _framework density 22.708207000000002
#
# number of rings (size 3 to 8) (size 9 to 14) (size 15 to 20)
#    0.000    2.750    1.250    0.000    0.000    2.000 
#    2.250    0.625   24.750    0.000    0.000    0.000 
#    0.000    0.000    0.000    0.000    0.000    0.000 
#
# Total GULP energy -178173.468911 kJ/mol
# GULP energy per Si atom -5567.920903 kJ/mol
# Density = 2.265652 g / cm^3
# Si number density = 22.708207 Si / 1000 Ang^3
#
#
#
# Elastic Constant Matrix: (Units=GPa)
#
#
# Indices 1 2 3 4 5 6 
#
# 1 136.7193 -28.5611 70.4339 0.0000 6.5067 0.0000
# 2 -28.5611 50.6147 -4.1164 0.0000 -4.8504 0.0000
# 3 70.4339 -4.1164 140.6434 0.0000 -12.3204 0.0000
# 4 0.0000 0.0000 0.0000 21.3747 0.0000 6.0858
# 5 6.5067 -4.8504 -12.3204 0.0000 41.5633 0.0000
# 6 0.0000 0.0000 0.0000 6.0858 0.0000 17.6110
#
#
#
# Elastic Compliance Matrix: (Units=1/GPa)
#
#
# Indices 1 2 3 4 5 6 
#
# 1 0.011756 0.005868 -0.005972 0.000000 -0.002926 0.000000
# 2 0.005868 0.022999 -0.002167 0.000000 0.001123 0.000000
# 3 -0.005972 -0.002167 0.010366 0.000000 0.003755 0.000000
# 4 0.000000 0.000000 0.000000 0.051890 0.000000 -0.017931
# 5 -0.002926 0.001123 0.003755 0.000000 0.025762 0.000000
# 6 0.000000 0.000000 0.000000 -0.017931 0.000000 0.062979
#
#
# Mechanical properties :
#
#
# Convention : Reuss Voigt Hill
#
# Bulk Modulus (GPa) = 24.64320 44.83226 34.73773
# Shear Modulus (GPa) = 24.53133 35.45788 29.99460
#
# Velocity S-wave (km/s) = 3.29033 3.95581 3.63832
# Velocity P-wave (km/s) = 5.03098 6.37575 5.74286
#
# Compressibility (1/GPa) = 0.04057914
#
# Stress axis : x y z
#
# Youngs Moduli (GPa) = 85.06472 43.47935 96.46583
#
# Poissons Ratio (x) = -0.25512 0.57608
# Poissons Ratio (y) = -0.49912 0.20903
# Poissons Ratio (z) = 0.50799 0.09421
#
# Static dielectric constant tensor:
#      x y z
#    x 1.935150 0.000000 -0.029870 
#    y 0.000000 1.936380 0.000000 
#    z -0.029870 0.000000 1.833380 
# 
# From -- ./inp_files/35426.got.cif
#   From: 2010.05.17/outbox.cif.g08.bks.cpg/sg14_18_cif.got.tgz:35426.got - 2010.06.03 17:49:19.
