data_PCOD9239933
_publ_section_title
;
Structure prediction by ZEFSAII (Michael W. Deem and Ramdas Pophale) SiO2 
 PCOD9239933
Probable space group: P 21/C
;
_chemical_formula_sum "Si O2"
_cell_formula_units_Z 32
_cell_length_a 14.690999
_cell_length_b 14.145712
_cell_length_c 8.406595
_cell_angle_alpha 90.000000
_cell_angle_beta 56.101752
_cell_angle_gamma 90.000000
_cell_volume 1450.072479
_symmetry_space_group_name_H-M "P 21/C"
_symmetry_group_IT_number 14
_symmetry_cell_setting 'monoclinic'
loop_
_space_group_symop_operation_xyz
x,y,z
-x,1/2+y,1/2-z
-x,-y,-z
x,1/2-y,1/2+z
loop_
_atom_site_type_symbol
_atom_site_label
_atom_site_fract_x
_atom_site_fract_y
_atom_site_fract_z
Si Si1 0.926620 0.049648 0.247954
Si Si2 0.123890 0.271162 0.062695
Si Si3 0.902732 0.894142 0.722163
Si Si4 0.262374 0.935834 0.086354
Si Si5 0.581597 0.050075 0.798684
Si Si6 0.422895 0.445823 0.201356
Si Si7 0.075764 0.868558 0.064897
Si Si8 0.281883 0.411622 0.054911
O O1 0.967670 0.083266 0.381798
O O2 0.819171 0.985951 0.335363
O O3 0.912605 0.135538 0.136959
O O4 0.027494 0.975946 0.122778
O O5 0.127626 0.159508 0.083463
O O6 0.231377 0.316889 0.034698
O O7 0.017645 0.305713 0.265951
O O8 0.113206 0.319537 0.902944
O O9 0.819493 0.979914 0.777722
O O10 0.327687 0.900082 0.178381
O O11 0.186332 0.865384 0.058915
O O12 0.348760 0.982910 0.878791
O O13 0.505463 0.104893 0.745144
O O14 0.638200 0.965686 0.644137
O O15 0.500000 0.000000 0.000000
O O16 0.340303 0.391740 0.165420
O O17 0.500000 0.500000 0.000000
#
# Coordination Sequence:
#
# PCOD9239933 Si02
#       8
#     4   4   4   4   4   4   4   4
#     4   9  18  31  51  76 105 135 170 208 254 311
#     4  11  23  34  50  77 110 143 177 211 260 330
#     4  11  23  34  50  77 110 144 176 212 260 327
#     4  10  18  33  55  79 111 139 172 219 273 309
#     4   9  18  31  50  81 108 125 168 223 261 304
#     4   9  18  31  52  81 106 129 166 219 264 305
#     4   9  18  31  51  76 105 136 168 209 253 313
#     4  10  18  33  55  79 109 139 173 218 275 310
#
# _framework density 22.067865000000001
#
# number of rings (size 3 to 8) (size 9 to 14) (size 15 to 20)
#    0.000    2.250    2.500    0.750    5.250    1.500 
#    0.000    0.000    0.000    0.000    0.000   35.000 
#    0.000    0.000    0.000    0.000    0.000    0.000 
#
# Total GULP energy -178358.783092 kJ/mol
# GULP energy per Si atom -5573.711972 kJ/mol
# Density = 2.201764 g / cm^3
# Si number density = 22.067865 Si / 1000 Ang^3
#
#
#
# Elastic Constant Matrix: (Units=GPa)
#
#
# Indices 1 2 3 4 5 6 
#
# 1 215.6120 12.0229 29.5622 0.0000 33.8736 0.0000
# 2 12.0229 19.6384 5.8935 0.0000 1.4138 0.0000
# 3 29.5622 5.8935 80.0522 0.0000 -4.4344 0.0000
# 4 0.0000 0.0000 0.0000 16.2841 0.0000 6.3990
# 5 33.8736 1.4138 -4.4344 0.0000 37.8418 0.0000
# 6 0.0000 0.0000 0.0000 6.3990 0.0000 17.1989
#
#
#
# Elastic Compliance Matrix: (Units=1/GPa)
#
#
# Indices 1 2 3 4 5 6 
#
# 1 0.005965 -0.002559 -0.002320 0.000000 -0.005516 0.000000
# 2 -0.002559 0.053388 -0.002989 0.000000 -0.000054 0.000000
# 3 -0.002320 -0.002989 0.013779 0.000000 0.003803 0.000000
# 4 0.000000 0.000000 0.000000 0.071925 0.000000 -0.026760
# 5 -0.005516 -0.000054 0.003803 0.000000 0.031811 0.000000
# 6 0.000000 0.000000 0.000000 -0.026760 0.000000 0.068100
#
#
# Mechanical properties :
#
#
# Convention : Reuss Voigt Hill
#
# Bulk Modulus (GPa) = 17.42227 45.58441 31.50334
# Shear Modulus (GPa) = 17.86764 32.11991 24.99378
#
# Velocity S-wave (km/s) = 2.84855 3.81925 3.36904
# Velocity P-wave (km/s) = 4.32793 6.33642 5.42592
#
# Compressibility (1/GPa) = 0.05739779
#
# Stress axis : x y z
#
# Youngs Moduli (GPa) = 167.63488 18.73087 72.57257
#
# Poissons Ratio (x) = 0.04793 0.16838
# Poissons Ratio (y) = 0.42893 0.21689
# Poissons Ratio (z) = 0.38893 0.05598
#
# Static dielectric constant tensor:
#      x y z
#    x 1.942350 0.000000 0.073030 
#    y 0.000000 1.784490 0.000000 
#    z 0.073030 0.000000 1.911800 
# 
# From -- ./inp_files/16247.got.cif
#   From: 2010.05.17/outbox.cif.g08.bks.cpg/sg14_9_cif.got.tgz:16247.got - 2010.06.03 17:49:19.
