data_PCOD9239530
_publ_section_title
;
Structure prediction by ZEFSAII (Michael W. Deem and Ramdas Pophale) SiO2 
 PCOD9239530
Probable space group: P 21/C
;
_chemical_formula_sum "Si O2"
_cell_formula_units_Z 32
_cell_length_a 8.635504
_cell_length_b 15.921428
_cell_length_c 16.240316
_cell_angle_alpha 90.000000
_cell_angle_beta 135.935566
_cell_angle_gamma 90.000000
_cell_volume 1552.889814
_symmetry_space_group_name_H-M "P 21/C"
_symmetry_group_IT_number 14
_symmetry_cell_setting 'monoclinic'
loop_
_space_group_symop_operation_xyz
x,y,z
-x,1/2+y,1/2-z
-x,-y,-z
x,1/2-y,1/2+z
loop_
_atom_site_type_symbol
_atom_site_label
_atom_site_fract_x
_atom_site_fract_y
_atom_site_fract_z
Si Si1 0.127202 0.725576 0.865737
Si Si2 0.770704 0.916741 0.497921
Si Si3 0.296837 0.570220 0.843060
Si Si4 0.678102 0.283752 0.280812
Si Si5 0.748041 0.652416 0.807703
Si Si6 0.875041 0.498360 0.751704
Si Si7 0.437285 0.847479 0.907633
Si Si8 0.133480 0.262216 0.406552
O O1 0.950661 0.716438 0.870298
O O2 0.980455 0.739940 0.726362
O O3 0.252001 0.636697 0.899864
O O4 0.308717 0.798299 0.931513
O O5 0.545402 0.967001 0.434900
O O6 0.782619 0.898131 0.405970
O O7 0.741791 0.825122 0.529354
O O8 0.989907 0.957253 0.620009
O O9 0.300064 0.630359 0.764083
O O10 0.078521 0.512304 0.764892
O O11 0.488328 0.300798 0.274751
O O12 0.600598 0.209151 0.189578
O O13 0.934291 0.264223 0.397066
O O14 0.769101 0.585290 0.742179
O O15 0.682842 0.435666 0.649681
O O16 0.698916 0.839695 0.023152
#
# Coordination Sequence:
#
# PCOD9239530 Si02
#       8
#     4   4   4   4   4   4   4   4
#     4   9  18  35  53  77 109 142 180 223 268 324
#     4  11  17  34  59  82 112 144 175 227 285 331
#     4   8  17  32  53  74 112 142 171 213 279 324
#     4   9  18  37  56  70 115 154 174 212 284 326
#     4  10  21  36  51  81 119 145 170 229 295 318
#     4  11  20  32  55  87 110 138 188 229 266 329
#     4  10  18  35  58  79 105 145 191 229 251 332
#     4  10  17  35  61  78  98 151 195 210 267 329
#
# _framework density 20.606742000000001
#
# number of rings (size 3 to 8) (size 9 to 14) (size 15 to 20)
#    0.000    2.500    6.250    0.750    0.000    0.000 
#    2.250    8.750    0.000    0.000    0.000    0.000 
#    0.000    0.000    0.000    0.000    0.000    0.000 
#
# Total GULP energy -178277.840826 kJ/mol
# GULP energy per Si atom -5571.182526 kJ/mol
# Density = 2.055984 g / cm^3
# Si number density = 20.606742 Si / 1000 Ang^3
#
#
#
# Elastic Constant Matrix: (Units=GPa)
#
#
# Indices 1 2 3 4 5 6 
#
# 1 119.3992 10.1402 23.1829 0.0000 30.7910 0.0000
# 2 10.1402 36.4216 -6.1926 0.0000 -0.7557 0.0000
# 3 23.1829 -6.1926 47.0488 0.0000 17.4951 0.0000
# 4 0.0000 0.0000 0.0000 28.0993 0.0000 9.5620
# 5 30.7910 -0.7557 17.4951 0.0000 31.9131 0.0000
# 6 0.0000 0.0000 0.0000 9.5620 0.0000 30.8679
#
#
#
# Elastic Compliance Matrix: (Units=1/GPa)
#
#
# Indices 1 2 3 4 5 6 
#
# 1 0.011809 -0.003938 -0.002595 0.000000 -0.010065 0.000000
# 2 -0.003938 0.029472 0.005209 0.000000 0.001641 0.000000
# 3 -0.002595 0.005209 0.027937 0.000000 -0.012689 0.000000
# 4 0.000000 0.000000 0.000000 0.039782 0.000000 -0.012323
# 5 -0.010065 0.001641 -0.012689 0.000000 0.048041 0.000000
# 6 0.000000 0.000000 0.000000 -0.012323 0.000000 0.036213
#
#
# Mechanical properties :
#
#
# Convention : Reuss Voigt Hill
#
# Bulk Modulus (GPa) = 15.02142 28.57009 21.79575
# Shear Modulus (GPa) = 22.92624 29.89201 26.40912
#
# Velocity S-wave (km/s) = 3.33912 3.81280 3.58380
# Velocity P-wave (km/s) = 4.70869 5.76869 5.26543
#
# Compressibility (1/GPa) = 0.06657162
#
# Stress axis : x y z
#
# Youngs Moduli (GPa) = 84.68160 33.93023 35.79508
#
# Poissons Ratio (x) = 0.13361 0.09287
# Poissons Ratio (y) = 0.33345 -0.18646
# Poissons Ratio (z) = 0.21971 -0.17674
#
# Static dielectric constant tensor:
#      x y z
#    x 1.779130 0.000000 0.036280 
#    y 0.000000 1.771180 0.000000 
#    z 0.036280 0.000000 1.823360 
# 
# From -- ./inp_files/65992.got.cif
#   From: 2010.05.17/outbox.cif.g08.bks.cpg/sg14_33_cif.got.tgz:65992.got - 2010.06.03 17:49:19.
