data_PCOD9239204
_publ_section_title
;
Structure prediction by ZEFSAII (Michael W. Deem and Ramdas Pophale) SiO2 
 PCOD9239204
Probable space group: P 21/C
;
_chemical_formula_sum "Si O2"
_cell_formula_units_Z 26
_cell_length_a 16.916002
_cell_length_b 9.459698
_cell_length_c 12.757593
_cell_angle_alpha 90.000000
_cell_angle_beta 154.359046
_cell_angle_gamma 90.000000
_cell_volume 883.407334
_symmetry_space_group_name_H-M "P 21/C"
_symmetry_group_IT_number 14
_symmetry_cell_setting 'monoclinic'
loop_
_space_group_symop_operation_xyz
x,y,z
-x,1/2+y,1/2-z
-x,-y,-z
x,1/2-y,1/2+z
loop_
_atom_site_type_symbol
_atom_site_label
_atom_site_fract_x
_atom_site_fract_y
_atom_site_fract_z
Si Si1 0.877771 0.176609 0.880337
Si Si2 0.671688 0.963350 0.056023
Si Si3 0.534163 0.308364 0.243619
Si Si4 0.500000 0.000000 0.500000
Si Si5 0.807646 0.983747 0.640672
Si Si6 0.989187 0.139600 0.674657
Si Si7 0.205927 0.261531 0.120466
O O1 0.843848 0.298977 0.918801
O O2 0.028841 0.231810 0.980717
O O3 0.993253 0.065226 0.084995
O O4 0.729640 0.086372 0.642164
O O5 0.504259 0.859684 0.816940
O O6 0.626022 0.122711 0.958877
O O7 0.857213 0.935503 0.211325
O O8 0.707540 0.899932 0.216902
O O9 0.591646 0.400705 0.209957
O O10 0.327480 0.357236 0.013990
O O11 0.355383 0.135454 0.303114
O O12 0.859490 0.056379 0.596882
O O13 0.101110 0.248609 0.883544
#
# Coordination Sequence:
#
# PCOD9239204 Si02
#       7
#     4   4   4   2   4   4   4
#     4   9  18  34  55  83 108 146 197 242 284 340
#     4  10  21  38  59  86 121 155 194 243 292 355
#     4  11  21  39  59  91 121 149 200 248 290 351
#     4  10  16  30  58  84 106 150 196 236 278 346
#     4  10  19  34  58  83 113 146 199 248 278 350
#     4  10  18  35  58  79 112 158 184 240 303 335
#     4   9  17  32  57  81 113 152 192 236 290 348
#
# _framework density 29.431497
#
# number of rings (size 3 to 8) (size 9 to 14) (size 15 to 20)
#    0.000    2.154    6.154    0.000    0.000    0.000 
#    8.308    0.769    3.385    2.769    0.000    0.000 
#    0.000    0.000    0.000    0.000    0.000    0.000 
#
# Total GULP energy -144818.306617 kJ/mol
# GULP energy per Si atom -5569.934870 kJ/mol
# Density = 2.936451 g / cm^3
# Si number density = 29.431497 Si / 1000 Ang^3
#
#
#
# Elastic Constant Matrix: (Units=GPa)
#
#
# Indices 1 2 3 4 5 6 
#
# 1 88.3084 20.4614 16.3157 0.0000 -6.2311 0.0000
# 2 20.4614 106.6228 26.8772 0.0000 0.0391 0.0000
# 3 16.3157 26.8772 107.5723 0.0000 1.1100 0.0000
# 4 0.0000 0.0000 0.0000 38.4294 0.0000 7.2454
# 5 -6.2311 0.0391 1.1100 0.0000 44.7281 0.0000
# 6 0.0000 0.0000 0.0000 7.2454 0.0000 17.8182
#
#
#
# Elastic Compliance Matrix: (Units=1/GPa)
#
#
# Indices 1 2 3 4 5 6 
#
# 1 0.012159 -0.001990 -0.001365 0.000000 0.001730 0.000000
# 2 -0.001990 0.010335 -0.002278 0.000000 -0.000230 0.000000
# 3 -0.001365 -0.002278 0.010077 0.000000 -0.000438 0.000000
# 4 0.000000 0.000000 0.000000 0.028182 0.000000 -0.011460
# 5 0.001730 -0.000230 -0.000438 0.000000 0.022609 0.000000
# 6 0.000000 0.000000 0.000000 -0.011460 0.000000 0.060782
#
#
# Mechanical properties :
#
#
# Convention : Reuss Voigt Hill
#
# Bulk Modulus (GPa) = 46.93669 47.75691 47.34680
# Shear Modulus (GPa) = 30.76684 36.11843 33.44264
#
# Velocity S-wave (km/s) = 3.23673 3.50695 3.37454
# Velocity P-wave (km/s) = 5.47275 5.71489 5.59513
#
# Compressibility (1/GPa) = 0.02130529
#
# Stress axis : x y z
#
# Youngs Moduli (GPa) = 82.24198 96.75790 99.23808
#
# Poissons Ratio (x) = 0.19255 0.13545
# Poissons Ratio (y) = 0.16366 0.22607
# Poissons Ratio (z) = 0.11225 0.22042
#
# Static dielectric constant tensor:
#      x y z
#    x 2.090560 0.000000 -0.242520 
#    y 0.000000 2.470020 0.000000 
#    z -0.242520 0.000000 2.421460 
# 
# From -- ./inp_files/33772.got.cif
#   From: 2010.05.17/outbox.cif.g08.bks.cpg/sg14_17_cif.got.tgz:33772.got - 2010.06.03 17:49:19.
