data_PCOD9239986
_publ_section_title
;
Structure prediction by ZEFSAII (Michael W. Deem and Ramdas Pophale) SiO2 
 PCOD9239986
Probable space group: P 21/C
;
_chemical_formula_sum "Si O2"
_cell_formula_units_Z 32
_cell_length_a 20.731313
_cell_length_b 9.054350
_cell_length_c 25.122588
_cell_angle_alpha 90.000000
_cell_angle_beta 20.205693
_cell_angle_gamma 90.000000
_cell_volume 1628.771054
_symmetry_space_group_name_H-M "P 21/C"
_symmetry_group_IT_number 14
_symmetry_cell_setting 'monoclinic'
loop_
_space_group_symop_operation_xyz
x,y,z
-x,1/2+y,1/2-z
-x,-y,-z
x,1/2-y,1/2+z
loop_
_atom_site_type_symbol
_atom_site_label
_atom_site_fract_x
_atom_site_fract_y
_atom_site_fract_z
Si Si1 0.231811 0.352324 0.573063
Si Si2 0.638868 0.369716 0.954490
Si Si3 0.003093 0.308092 0.412449
Si Si4 0.351570 0.697159 0.755162
Si Si5 0.313879 0.957378 0.110834
Si Si6 0.729652 0.040257 0.262746
Si Si7 0.036236 0.082341 0.766445
Si Si8 0.832137 0.976950 0.671294
O O1 0.432225 0.296026 0.397150
O O2 0.261103 0.413967 0.610635
O O3 0.089690 0.215223 0.685748
O O4 0.144222 0.487194 0.608449
O O5 0.659808 0.194392 0.941161
O O6 0.676691 0.408636 0.863225
O O7 0.791072 0.467269 0.867325
O O8 0.433520 0.426966 0.127831
O O9 0.802813 0.233768 0.580486
O O10 0.070182 0.459411 0.389049
O O11 0.018270 0.346229 0.338772
O O12 0.152795 0.188870 0.318624
O O13 0.292549 0.819422 0.757502
O O14 0.330972 0.540931 0.739794
O O15 0.165700 0.936402 0.274024
O O16 0.500000 0.000000 0.000000
O O17 0.000000 0.000000 0.500000
#
# Coordination Sequence:
#
# PCOD9239986 Si02
#       8
#     4   4   4   4   4   4   4   4
#     4  12  24  41  64  85 121 161 217 256 303 367
#     4  10  20  33  59  92 122 153 201 251 309 360
#     4  10  22  38  63  90 129 159 201 250 318 374
#     4  11  21  39  62  92 125 163 198 257 313 372
#     4  12  20  35  63  94 120 156 197 256 314 364
#     4  10  18  33  60  93 124 151 192 253 310 369
#     4  11  24  43  61  87 119 168 211 260 299 369
#     4  10  20  35  59  93 127 155 188 243 320 373
#
# _framework density 19.646715
#
# number of rings (size 3 to 8) (size 9 to 14) (size 15 to 20)
#    0.000    1.250    5.000    1.875    1.750    0.000 
#    0.000    1.250    2.750    0.000    0.000    0.000 
#    0.000    0.000    0.000    0.000    0.000    0.000 
#
# Total GULP energy -178318.520340 kJ/mol
# GULP energy per Si atom -5572.453761 kJ/mol
# Density = 1.960200 g / cm^3
# Si number density = 19.646715 Si / 1000 Ang^3
#
#
#
# Elastic Constant Matrix: (Units=GPa)
#
#
# Indices 1 2 3 4 5 6 
#
# 1 37.9672 23.6564 22.2815 0.0000 -4.5086 0.0000
# 2 23.6564 102.1737 29.0652 0.0000 -6.9585 0.0000
# 3 22.2815 29.0652 84.7932 0.0000 -2.7183 0.0000
# 4 0.0000 0.0000 0.0000 30.8112 0.0000 -6.3984
# 5 -4.5086 -6.9585 -2.7183 0.0000 20.5901 0.0000
# 6 0.0000 0.0000 0.0000 -6.3984 0.0000 34.0573
#
#
#
# Elastic Compliance Matrix: (Units=1/GPa)
#
#
# Indices 1 2 3 4 5 6 
#
# 1 0.034537 -0.005691 -0.006973 0.000000 0.004719 0.000000
# 2 -0.005691 0.011995 -0.002537 0.000000 0.002473 0.000000
# 3 -0.006973 -0.002537 0.014480 0.000000 -0.000473 0.000000
# 4 0.000000 0.000000 0.000000 0.033773 0.000000 0.006345
# 5 0.004719 0.002473 -0.000473 0.000000 0.050373 0.000000
# 6 0.000000 0.000000 0.000000 0.006345 0.000000 0.030554
#
#
# Mechanical properties :
#
#
# Convention : Reuss Voigt Hill
#
# Bulk Modulus (GPa) = 32.66962 41.66002 37.16482
# Shear Modulus (GPa) = 23.11389 27.08714 25.10052
#
# Velocity S-wave (km/s) = 3.43370 3.71713 3.57822
# Velocity P-wave (km/s) = 5.69079 6.29868 6.00243
#
# Compressibility (1/GPa) = 0.03060948
#
# Stress axis : x y z
#
# Youngs Moduli (GPa) = 28.95410 83.36791 69.05967
#
# Poissons Ratio (x) = 0.47448 0.48158
# Poissons Ratio (y) = 0.16479 0.17519
# Poissons Ratio (z) = 0.20191 0.21149
#
# Static dielectric constant tensor:
#      x y z
#    x 1.666690 0.000000 0.008550 
#    y 0.000000 1.740060 0.000000 
#    z 0.008550 0.000000 1.755460 
# 
# From -- ./inp_files/77957.got.cif
#   From: 2010.05.17/outbox.cif.g08.bks.cpg/sg14_39_cif.got.tgz:77957.got - 2010.06.03 17:49:19.
