data_PCOD9239141
_publ_section_title
;
Structure prediction by ZEFSAII (Michael W. Deem and Ramdas Pophale) SiO2 
 PCOD9239141
Probable space group: P 21/C
;
_chemical_formula_sum "Si O2"
_cell_formula_units_Z 32
_cell_length_a 21.312807
_cell_length_b 18.940652
_cell_length_c 5.407780
_cell_angle_alpha 90.000000
_cell_angle_beta 59.664954
_cell_angle_gamma 90.000000
_cell_volume 1884.122169
_symmetry_space_group_name_H-M "P 21/C"
_symmetry_group_IT_number 14
_symmetry_cell_setting 'monoclinic'
loop_
_space_group_symop_operation_xyz
x,y,z
-x,1/2+y,1/2-z
-x,-y,-z
x,1/2-y,1/2+z
loop_
_atom_site_type_symbol
_atom_site_label
_atom_site_fract_x
_atom_site_fract_y
_atom_site_fract_z
Si Si1 0.981524 0.456577 0.786710
Si Si2 0.870808 0.600979 0.509761
Si Si3 0.589122 0.034180 0.577861
Si Si4 0.599580 0.634112 0.056793
Si Si5 0.439928 0.119822 0.864478
Si Si6 0.746659 0.706260 0.734204
Si Si7 0.663615 0.014373 0.929408
Si Si8 0.833063 0.513629 0.084876
O O1 0.041301 0.394525 0.666685
O O2 0.000000 0.500000 0.500000
O O3 0.000000 0.500000 0.000000
O O4 0.894196 0.451659 0.960557
O O5 0.826406 0.672998 0.591458
O O6 0.847164 0.558307 0.308580
O O7 0.847299 0.560042 0.808443
O O8 0.512417 0.073120 0.723994
O O9 0.631587 0.049738 0.746290
O O10 0.578190 0.949080 0.600737
O O11 0.634216 0.048999 0.239702
O O12 0.568294 0.663747 0.371474
O O13 0.566153 0.663125 0.873071
O O14 0.685884 0.645272 0.878761
O O15 0.371182 0.065024 0.000201
O O16 0.736049 0.743135 0.490761
O O17 0.750063 0.010567 0.750227
#
# Coordination Sequence:
#
# PCOD9239141 Si02
#       8
#     4   4   4   4   4   4   4   4
#     4   8  16  27  44  65  84 108 146 185 225 283
#     4  10  18  32  46  60  86 119 154 195 231 259
#     4  10  18  27  42  64  86 115 152 180 222 283
#     4  10  18  30  44  58  82 115 148 194 229 248
#     4  10  17  28  44  64  84 114 153 182 224 284
#     4  12  24  35  46  65  91 128 172 201 216 250
#     4  10  16  23  36  58  88 113 136 174 210 258
#     4  10  17  28  46  68  87 116 153 183 231 291
#
# _framework density 16.984036
#
# number of rings (size 3 to 8) (size 9 to 14) (size 15 to 20)
#    0.000    2.000    0.000    9.000    0.000    0.000 
#    0.000    0.000    0.000    0.000    0.000    0.000 
#    0.000    0.000    0.000   38.250    0.000   13.000 
#
# Total GULP energy -178252.706518 kJ/mol
# GULP energy per Si atom -5570.397079 kJ/mol
# Density = 1.694538 g / cm^3
# Si number density = 16.984036 Si / 1000 Ang^3
#
#
#
# Elastic Constant Matrix: (Units=GPa)
#
#
# Indices 1 2 3 4 5 6 
#
# 1 99.1880 7.7363 55.1272 0.0000 -6.1671 0.0000
# 2 7.7363 18.4691 10.1957 0.0000 -10.2886 0.0000
# 3 55.1272 10.1957 127.2310 0.0000 10.9178 0.0000
# 4 0.0000 0.0000 0.0000 10.3643 0.0000 2.5242
# 5 -6.1671 -10.2886 10.9178 0.0000 56.5939 0.0000
# 6 0.0000 0.0000 0.0000 2.5242 0.0000 7.2326
#
#
#
# Elastic Compliance Matrix: (Units=1/GPa)
#
#
# Indices 1 2 3 4 5 6 
#
# 1 0.013683 -0.001006 -0.006060 0.000000 0.002477 0.000000
# 2 -0.001006 0.064955 -0.005870 0.000000 0.012831 0.000000
# 3 -0.006060 -0.005870 0.011291 0.000000 -0.003906 0.000000
# 4 0.000000 0.000000 0.000000 0.105448 0.000000 -0.036801
# 5 0.002477 0.012831 -0.003906 0.000000 0.021026 0.000000
# 6 0.000000 0.000000 0.000000 -0.036801 0.000000 0.151106
#
#
# Mechanical properties :
#
#
# Convention : Reuss Voigt Hill
#
# Bulk Modulus (GPa) = 15.61152 43.44514 29.52833
# Shear Modulus (GPa) = 12.05593 26.29342 19.17468
#
# Velocity S-wave (km/s) = 2.66717 3.93889 3.36368
# Velocity P-wave (km/s) = 4.32399 6.80603 5.70171
#
# Compressibility (1/GPa) = 0.06405527
#
# Stress axis : x y z
#
# Youngs Moduli (GPa) = 73.08526 15.39536 88.56437
#
# Poissons Ratio (x) = 0.01548 0.53674
# Poissons Ratio (y) = 0.07350 0.51992
# Poissons Ratio (z) = 0.44293 0.09038
#
# Static dielectric constant tensor:
#      x y z
#    x 1.625740 0.000000 0.051890 
#    y 0.000000 1.544160 0.000000 
#    z 0.051890 0.000000 1.650500 
# 
# From -- ./inp_files/4424.got.cif
#   From: 2010.05.17/outbox.cif.g08.bks.cpg/sg14_3_cif.got.tgz:4424.got - 2010.06.03 17:49:19.
