data_PCOD9239063
_publ_section_title
;
Structure prediction by ZEFSAII (Michael W. Deem and Ramdas Pophale) SiO2 
 PCOD9239063
Probable space group: P 2/C
;
_chemical_formula_sum "Si O2"
_cell_formula_units_Z 20
_cell_length_a 9.000000
_cell_length_b 12.000000
_cell_length_c 9.000000
_cell_angle_alpha 90.000000
_cell_angle_beta 100.000000
_cell_angle_gamma 90.000000
_cell_volume 957.233136
_symmetry_space_group_name_H-M "P 2/C"
_symmetry_group_IT_number 13
_symmetry_cell_setting 'monoclinic'
loop_
_space_group_symop_operation_xyz
x,y,z
-x,y,1/2-z
-x,-y,-z
x,-y,1/2+z
loop_
_atom_site_type_symbol
_atom_site_label
_atom_site_fract_x
_atom_site_fract_y
_atom_site_fract_z
Si Si1 0.196311 0.450155 0.659693
Si Si2 0.829347 0.876544 0.189730
Si Si3 0.860981 0.645787 0.039243
Si Si4 0.600151 0.924131 0.622665
Si Si5 0.362902 0.252244 0.611100
O O1 0.189672 0.579965 0.616939
O O2 0.214444 0.420397 0.835675
O O3 0.323588 0.381601 0.595556
O O4 0.037751 0.388691 0.587065
O O5 0.826250 0.777277 0.061623
O O6 0.767232 0.813568 0.323788
O O7 0.000000 0.903352 0.250000
O O8 0.743197 0.993934 0.162749
O O9 0.500000 0.907868 0.750000
O O10 0.621738 0.808109 0.542411
O O11 0.500000 0.000000 0.500000
O O12 0.500000 0.235728 0.750000
#
# Coordination Sequence:
#
# PCOD9239063 Si02
#       5
#     4   4   4   4   4
#     4   9  18  36  59  88 117 159 191 241 301 356
#     4  11  20  38  64  90 119 163 202 244 307 362
#     4   9  17  35  61  85 121 152 195 240 302 351
#     4  12  23  42  64  86 120 166 203 250 309 359
#     4  11  21  41  64  85 122 166 200 245 307 363
#
# _framework density 20.893552
#
# number of rings (size 3 to 8) (size 9 to 14) (size 15 to 20)
#    0.000    1.600    8.000    0.000    0.000    0.800 
#    3.600    4.000    4.400    1.200    0.000    0.000 
#    0.000    0.000    0.000    0.000    0.000    0.000 
#
# Total GULP energy -111381.780590 kJ/mol
# GULP energy per Si atom -5569.089030 kJ/mol
# Density = 2.084600 g / cm^3
# Si number density = 20.893552 Si / 1000 Ang^3
#
#
#
# Elastic Constant Matrix: (Units=GPa)
#
#
# Indices 1 2 3 4 5 6 
#
# 1 105.9074 41.2989 38.1673 0.0000 -4.7618 0.0000
# 2 41.2989 87.4675 29.9114 0.0000 -2.8486 0.0000
# 3 38.1673 29.9114 50.7086 0.0000 -8.2121 0.0000
# 4 0.0000 0.0000 0.0000 35.0441 0.0000 -6.0539
# 5 -4.7618 -2.8486 -8.2121 0.0000 13.3621 0.0000
# 6 0.0000 0.0000 0.0000 -6.0539 0.0000 25.9552
#
#
#
# Elastic Compliance Matrix: (Units=1/GPa)
#
#
# Indices 1 2 3 4 5 6 
#
# 1 0.013877 -0.003704 -0.008426 0.000000 -0.001023 0.000000
# 2 -0.003704 0.015379 -0.006626 0.000000 -0.002114 0.000000
# 3 -0.008426 -0.006626 0.032489 0.000000 0.015552 0.000000
# 4 0.000000 0.000000 0.000000 0.029734 0.000000 0.006935
# 5 -0.001023 -0.002114 0.015552 0.000000 0.083582 0.000000
# 6 0.000000 0.000000 0.000000 0.006935 0.000000 0.040146
#
#
# Mechanical properties :
#
#
# Convention : Reuss Voigt Hill
#
# Bulk Modulus (GPa) = 41.26413 51.42654 46.34533
# Shear Modulus (GPa) = 19.17214 23.85265 21.51239
#
# Velocity S-wave (km/s) = 3.03249 3.38246 3.21225
# Velocity P-wave (km/s) = 5.66162 6.31837 5.99899
#
# Compressibility (1/GPa) = 0.02423412
#
# Stress axis : x y z
#
# Youngs Moduli (GPa) = 72.06063 65.02469 30.77938
#
# Poissons Ratio (x) = 0.24087 0.25934
# Poissons Ratio (y) = 0.26693 0.20393
# Poissons Ratio (z) = 0.60716 0.43083
#
# Static dielectric constant tensor:
#      x y z
#    x 1.751880 0.000000 -0.044590 
#    y 0.000000 0.851680 0.000000 
#    z -0.044590 0.000000 1.775180 
# 
# From -- ./inp_files/11871.got.cif
#   From: 2010.05.17/outbox.ucp.g08.bks.cvg/sg13_6_cif.got.tgz:11871.got - 2010.06.11 12:23:55.
