data_PCOD9239513
_publ_section_title
;
Structure prediction by ZEFSAII (Michael W. Deem and Ramdas Pophale) SiO2 
 PCOD9239513
Probable space group: P 21/C
;
_chemical_formula_sum "Si O2"
_cell_formula_units_Z 30
_cell_length_a 5.594411
_cell_length_b 12.778180
_cell_length_c 16.222778
_cell_angle_alpha 90.000000
_cell_angle_beta 95.347027
_cell_angle_gamma 90.000000
_cell_volume 1154.661433
_symmetry_space_group_name_H-M "P 21/C"
_symmetry_group_IT_number 14
_symmetry_cell_setting 'monoclinic'
loop_
_space_group_symop_operation_xyz
x,y,z
-x,1/2+y,1/2-z
-x,-y,-z
x,1/2-y,1/2+z
loop_
_atom_site_type_symbol
_atom_site_label
_atom_site_fract_x
_atom_site_fract_y
_atom_site_fract_z
Si Si1 0.712438 0.548835 0.349356
Si Si2 0.520819 0.180567 0.576308
Si Si3 0.940160 0.343509 0.287641
Si Si4 0.116600 0.337586 0.954294
Si Si5 0.421819 0.256519 0.751763
Si Si6 0.500000 0.500000 0.500000
Si Si7 0.921342 0.452955 0.110706
Si Si8 0.099402 0.659320 0.469943
O O1 0.880928 0.452141 0.331862
O O2 0.623358 0.620784 0.270385
O O3 0.489167 0.512338 0.397269
O O4 0.860861 0.626898 0.414517
O O5 0.386040 0.195902 0.484910
O O6 0.403965 0.199970 0.661202
O O7 0.642822 0.067507 0.579088
O O8 0.731489 0.267497 0.579776
O O9 0.694758 0.273245 0.286809
O O10 0.952907 0.390378 0.194919
O O11 0.200534 0.285019 0.301745
O O12 0.065467 0.400611 0.039642
O O13 0.968508 0.231421 0.954487
O O14 0.044800 0.422928 0.885686
O O15 0.250164 0.561140 0.500887
#
# Coordination Sequence:
#
# PCOD9239513 Si02
#       8
#     4   4   4   4   4   2   4   4
#     4  12  26  47  75 100 144 188 247 300 362 438
#     4  10  17  34  65  95 133 186 229 284 353 428
#     4  11  26  44  73 108 144 196 239 292 369 440
#     4  10  17  34  63  94 133 181 230 287 352 428
#     4  11  22  45  73 101 145 193 239 290 366 433
#     4  12  26  44  72 102 128 186 252 306 358 422
#     4   9  19  33  57  99 137 175 231 286 351 428
#     4  11  22  41  66  98 135 186 237 303 361 417
#
# _framework density 25.981642000000001
#
# number of rings (size 3 to 8) (size 9 to 14) (size 15 to 20)
#    0.000    1.333    4.000    2.400    1.867    0.000 
#    2.400    1.333    0.000    0.000    0.000    0.000 
#    0.000    0.000    0.000    0.000    0.000    0.000 
#
# Total GULP energy -167086.108350 kJ/mol
# GULP energy per Si atom -5569.536945 kJ/mol
# Density = 2.592251 g / cm^3
# Si number density = 25.981642 Si / 1000 Ang^3
#
#
#
# Elastic Constant Matrix: (Units=GPa)
#
#
# Indices 1 2 3 4 5 6 
#
# 1 85.3218 48.7016 20.9856 0.0000 -16.3273 0.0000
# 2 48.7016 79.6466 4.1387 0.0000 2.4488 0.0000
# 3 20.9856 4.1387 59.0102 0.0000 -17.3482 0.0000
# 4 0.0000 0.0000 0.0000 33.9346 0.0000 -3.8807
# 5 -16.3273 2.4488 -17.3482 0.0000 48.6608 0.0000
# 6 0.0000 0.0000 0.0000 -3.8807 0.0000 36.2909
#
#
#
# Elastic Compliance Matrix: (Units=1/GPa)
#
#
# Indices 1 2 3 4 5 6 
#
# 1 0.021626 -0.013155 -0.004960 0.000000 0.006150 0.000000
# 2 -0.013155 0.020653 0.001817 0.000000 -0.004805 0.000000
# 3 -0.004960 0.001817 0.020182 0.000000 0.005439 0.000000
# 4 0.000000 0.000000 0.000000 0.029833 0.000000 0.003190
# 5 0.006150 -0.004805 0.005439 0.000000 0.024795 0.000000
# 6 0.000000 0.000000 0.000000 0.003190 0.000000 0.027896
#
#
# Mechanical properties :
#
#
# Convention : Reuss Voigt Hill
#
# Bulk Modulus (GPa) = 33.48482 41.29227 37.38855
# Shear Modulus (GPa) = 26.66151 33.78744 30.22447
#
# Velocity S-wave (km/s) = 3.20686 3.61007 3.41442
# Velocity P-wave (km/s) = 5.16021 5.77097 5.47412
#
# Compressibility (1/GPa) = 0.02986428
#
# Stress axis : x y z
#
# Youngs Moduli (GPa) = 46.24047 48.41978 49.54945
#
# Poissons Ratio (x) = 0.63696 0.24577
# Poissons Ratio (y) = 0.60830 -0.09003
# Poissons Ratio (z) = 0.22936 -0.08798
#
# Static dielectric constant tensor:
#      x y z
#    x 1.900170 0.000000 0.238310 
#    y 0.000000 2.015500 0.000000 
#    z 0.238310 0.000000 1.920740 
# 
# From -- ./inp_files/63521.got.cif
#   From: 2010.05.17/outbox.cif.g08.bks.cpg/sg14_32_cif.got.tgz:63521.got - 2010.06.03 17:49:19.
