data_PCOD9239635
_publ_section_title
;
Structure prediction by ZEFSAII (Michael W. Deem and Ramdas Pophale) SiO2 
 PCOD9239635
Probable space group: P 21/C
;
_chemical_formula_sum "Si O2"
_cell_formula_units_Z 32
_cell_length_a 12.298338
_cell_length_b 17.000907
_cell_length_c 5.620806
_cell_angle_alpha 90.000000
_cell_angle_beta 95.267247
_cell_angle_gamma 90.000000
_cell_volume 1170.251890
_symmetry_space_group_name_H-M "P 21/C"
_symmetry_group_IT_number 14
_symmetry_cell_setting 'monoclinic'
loop_
_space_group_symop_operation_xyz
x,y,z
-x,1/2+y,1/2-z
-x,-y,-z
x,1/2-y,1/2+z
loop_
_atom_site_type_symbol
_atom_site_label
_atom_site_fract_x
_atom_site_fract_y
_atom_site_fract_z
Si Si1 0.171754 0.551342 0.452739
Si Si2 0.257494 0.781054 0.980407
Si Si3 0.880472 0.030057 0.552399
Si Si4 0.529438 0.592290 0.017959
Si Si5 0.033595 0.167574 0.619843
Si Si6 0.486076 0.671741 0.510195
Si Si7 0.051784 0.149342 0.122210
Si Si8 0.295802 0.278373 0.941279
O O1 0.248783 0.625264 0.507423
O O2 0.164076 0.503757 0.698403
O O3 0.051539 0.590714 0.401181
O O4 0.194280 0.518211 0.193821
O O5 0.213811 0.742129 0.212049
O O6 0.386558 0.767342 0.990904
O O7 0.917296 0.121740 0.595205
O O8 0.000000 0.000000 0.500000
O O9 0.483764 0.621656 0.265817
O O10 0.500000 0.500000 0.000000
O O11 0.484070 0.623577 0.755524
O O12 0.651671 0.633837 0.045658
O O13 0.100564 0.144745 0.395759
O O14 0.010850 0.260118 0.608712
O O15 0.096649 0.138568 0.867330
O O16 0.597291 0.721515 0.536420
O O17 0.240479 0.247079 0.177113
#
# Coordination Sequence:
#
# PCOD9239635 Si02
#       8
#     4   4   4   4   4   4   4   4
#     4  10  21  30  45  66  87 116 167 198 234 279
#     4  12  23  32  50  72  99 135 174 210 235 286
#     4  10  19  32  44  58  84 119 157 195 237 291
#     4  10  18  29  48  67  89 126 179 207 239 283
#     4   8  14  22  37  51  70  99 129 163 220 256
#     4  10  19  33  45  66 100 133 169 197 248 291
#     4   8  14  23  36  52  77  95 128 173 220 245
#     4   8  14  25  41  56  85 119 155 187 232 273
#
# _framework density 27.344538
#
# number of rings (size 3 to 8) (size 9 to 14) (size 15 to 20)
#    0.000    2.500    0.000    4.500    7.000    0.000 
#    0.000    0.000    0.000    0.000    0.000    0.000 
#    0.000    0.000    0.000    0.000  570.000    0.750 
#
# Total GULP energy -178722.193868 kJ/mol
# GULP energy per Si atom -5585.068558 kJ/mol
# Density = 2.728230 g / cm^3
# Si number density = 27.344538 Si / 1000 Ang^3
#
#
#
# Elastic Constant Matrix: (Units=GPa)
#
#
# Indices 1 2 3 4 5 6 
#
# 1 54.7066 2.8438 38.4902 0.0000 -5.0060 0.0000
# 2 2.8438 105.5284 55.8527 0.0000 -1.2015 0.0000
# 3 38.4902 55.8527 357.4876 0.0000 -8.0724 0.0000
# 4 0.0000 0.0000 0.0000 56.5072 0.0000 -2.4922
# 5 -5.0060 -1.2015 -8.0724 0.0000 35.6937 0.0000
# 6 0.0000 0.0000 0.0000 -2.4922 0.0000 22.0949
#
#
#
# Elastic Compliance Matrix: (Units=1/GPa)
#
#
# Indices 1 2 3 4 5 6 
#
# 1 0.020009 0.000654 -0.002204 0.000000 0.002330 0.000000
# 2 0.000654 0.010352 -0.001686 0.000000 0.000059 0.000000
# 3 -0.002204 -0.001686 0.003307 0.000000 0.000382 0.000000
# 4 0.000000 0.000000 0.000000 0.017785 0.000000 0.002006
# 5 0.002330 0.000059 0.000382 0.000000 0.028431 0.000000
# 6 0.000000 0.000000 0.000000 0.002006 0.000000 0.045486
#
#
# Mechanical properties :
#
#
# Convention : Reuss Voigt Hill
#
# Bulk Modulus (GPa) = 36.77211 79.12176 57.94694
# Shear Modulus (GPa) = 35.48423 50.89487 43.18955
#
# Velocity S-wave (km/s) = 3.60623 4.31889 3.97855
# Velocity P-wave (km/s) = 5.55128 7.33951 6.50712
#
# Compressibility (1/GPa) = 0.02719452
#
# Stress axis : x y z
#
# Youngs Moduli (GPa) = 49.97717 96.60231 302.41741
#
# Poissons Ratio (x) = -0.06315 0.66649
# Poissons Ratio (y) = -0.03267 0.50999
# Poissons Ratio (z) = 0.11014 0.16291
#
# Static dielectric constant tensor:
#      x y z
#    x 2.163760 0.000000 0.001000 
#    y 0.000000 2.244130 0.000000 
#    z 0.001000 0.000000 2.256210 
# 
# From -- ./inp_files/3733.got.cif
#   From: 2010.05.17/outbox.cif.g08.bks.cpg/sg14_2_cif.got.tgz:3733.got - 2010.06.03 17:49:19.
