data_PCOD9239656
_publ_section_title
;
Structure prediction by ZEFSAII (Michael W. Deem and Ramdas Pophale) SiO2 
 PCOD9239656
Probable space group: P 21/C
;
_chemical_formula_sum "Si O2"
_cell_formula_units_Z 30
_cell_length_a 13.575721
_cell_length_b 5.446004
_cell_length_c 13.872434
_cell_angle_alpha 90.000000
_cell_angle_beta 86.015438
_cell_angle_gamma 90.000000
_cell_volume 1023.157481
_symmetry_space_group_name_H-M "P 21/C"
_symmetry_group_IT_number 14
_symmetry_cell_setting 'monoclinic'
loop_
_space_group_symop_operation_xyz
x,y,z
-x,1/2+y,1/2-z
-x,-y,-z
x,1/2-y,1/2+z
loop_
_atom_site_type_symbol
_atom_site_label
_atom_site_fract_x
_atom_site_fract_y
_atom_site_fract_z
Si Si1 0.115737 0.724085 0.277596
Si Si2 0.908301 0.233680 0.003248
Si Si3 0.837845 0.765926 0.777317
Si Si4 0.342148 0.739138 0.271563
Si Si5 0.500000 0.500000 0.500000
Si Si6 0.865807 0.767212 0.553336
Si Si7 0.507901 0.989955 0.362153
Si Si8 0.337108 0.089755 0.094847
O O1 0.063758 0.738374 0.383909
O O2 0.094766 0.474523 0.222047
O O3 0.230360 0.681933 0.303755
O O4 0.113055 0.966893 0.213224
O O5 0.847599 0.482751 0.997569
O O6 0.846415 0.983521 0.996512
O O7 0.014165 0.248694 0.945079
O O8 0.819259 0.787742 0.662116
O O9 0.744149 0.732265 0.853429
O O10 0.423298 0.536685 0.236663
O O11 0.397952 0.928890 0.336513
O O12 0.324034 0.873543 0.170569
O O13 0.511760 0.228808 0.429200
O O14 0.625852 0.496731 0.510397
O O15 0.552426 0.725118 0.399353
#
# Coordination Sequence:
#
# PCOD9239656 Si02
#       8
#     4   4   4   4   2   4   4   4
#     4   9  16  24  38  56  78 103 135 172 205 248
#     4   8  13  21  31  50  74 101 127 157 200 245
#     4   9  15  25  38  56  77 105 137 168 204 249
#     4  11  18  29  47  60  81 112 150 180 220 261
#     4   8  18  32  40  58  84 106 140 178 224 252
#     4   8  13  20  33  49  73 102 129 156 196 247
#     4  10  18  30  42  60  80 109 147 184 217 267
#     4   9  18  29  41  59  80 109 142 179 216 258
#
# _framework density 29.320997999999999
#
# number of rings (size 3 to 8) (size 9 to 14) (size 15 to 20)
#    0.800    2.133    2.667    0.000    0.000    0.533 
#    0.000    0.000    0.000    0.000    0.000    0.000 
#    0.000    0.000    0.000   36.000    0.000    6.133 
#
# Total GULP energy -167088.429566 kJ/mol
# GULP energy per Si atom -5569.614319 kJ/mol
# Density = 2.925426 g / cm^3
# Si number density = 29.320998 Si / 1000 Ang^3
#
#
#
# Elastic Constant Matrix: (Units=GPa)
#
#
# Indices 1 2 3 4 5 6 
#
# 1 125.1891 10.9850 49.8229 0.0000 -33.9117 0.0000
# 2 10.9850 213.0567 18.6402 0.0000 -9.5686 0.0000
# 3 49.8229 18.6402 116.7294 0.0000 -32.6153 0.0000
# 4 0.0000 0.0000 0.0000 40.6316 0.0000 -19.7433
# 5 -33.9117 -9.5686 -32.6153 0.0000 44.5092 0.0000
# 6 0.0000 0.0000 0.0000 -19.7433 0.0000 26.7933
#
#
#
# Elastic Compliance Matrix: (Units=1/GPa)
#
#
# Indices 1 2 3 4 5 6 
#
# 1 0.010795 -0.000029 -0.002901 0.000000 0.006093 0.000000
# 2 -0.000029 0.004772 -0.000590 0.000000 0.000571 0.000000
# 3 -0.002901 -0.000590 0.011627 0.000000 0.006183 0.000000
# 4 0.000000 0.000000 0.000000 0.038339 0.000000 0.028251
# 5 0.006093 0.000571 0.006183 0.000000 0.031763 0.000000
# 6 0.000000 0.000000 0.000000 0.028251 0.000000 0.058140
#
#
# Mechanical properties :
#
#
# Convention : Reuss Voigt Hill
#
# Bulk Modulus (GPa) = 49.61540 68.20792 58.91166
# Shear Modulus (GPa) = 29.55172 47.42195 38.48684
#
# Velocity S-wave (km/s) = 3.17814 4.02598 3.62692
# Velocity P-wave (km/s) = 5.51594 6.70256 6.13799
#
# Compressibility (1/GPa) = 0.02015503
#
# Stress axis : x y z
#
# Youngs Moduli (GPa) = 92.63177 209.53947 86.00936
#
# Poissons Ratio (x) = 0.00611 0.24947
# Poissons Ratio (y) = 0.00270 0.05074
# Poissons Ratio (z) = 0.26868 0.12362
#
# Static dielectric constant tensor:
#      x y z
#    x 2.513080 0.000000 -0.063060 
#    y 0.000000 2.607840 0.000000 
#    z -0.063060 0.000000 2.410580 
# 
# From -- ./inp_files/48139.got.cif
#   From: 2010.05.17/outbox.cif.g08.bks.cpg/sg14_25_cif.got.tgz:48139.got - 2010.06.03 17:49:19.
