data_PCOD9239702
_publ_section_title
;
Structure prediction by ZEFSAII (Michael W. Deem and Ramdas Pophale) SiO2 
 PCOD9239702
Probable space group: P 21/C
;
_chemical_formula_sum "Si O2"
_cell_formula_units_Z 28
_cell_length_a 17.859072
_cell_length_b 9.189883
_cell_length_c 23.521432
_cell_angle_alpha 90.000000
_cell_angle_beta 19.491087
_cell_angle_gamma 90.000000
_cell_volume 1288.062855
_symmetry_space_group_name_H-M "P 21/C"
_symmetry_group_IT_number 14
_symmetry_cell_setting 'monoclinic'
loop_
_space_group_symop_operation_xyz
x,y,z
-x,1/2+y,1/2-z
-x,-y,-z
x,1/2-y,1/2+z
loop_
_atom_site_type_symbol
_atom_site_label
_atom_site_fract_x
_atom_site_fract_y
_atom_site_fract_z
Si Si1 0.746798 0.790427 0.180424
Si Si2 0.546008 0.653008 0.709263
Si Si3 0.969862 0.272429 0.924503
Si Si4 0.035228 0.124140 0.256816
Si Si5 0.467892 0.984939 0.890899
Si Si6 0.110669 0.599409 0.853509
Si Si7 0.066695 0.330578 0.131721
O O1 0.635020 0.882448 0.209202
O O2 0.892181 0.835851 0.132214
O O3 0.551816 0.679028 0.339923
O O4 0.930308 0.695642 0.014720
O O5 0.546502 0.515544 0.666117
O O6 0.721708 0.759796 0.551722
O O7 0.299816 0.726588 0.885555
O O8 0.061528 0.277845 0.794379
O O9 0.024410 0.434358 0.909298
O O10 0.985281 0.228926 0.240578
O O11 0.250840 0.033391 0.080759
O O12 0.871104 0.992117 0.391091
O O13 0.660577 0.091894 0.776435
O O14 0.124577 0.653607 0.779147
#
# Coordination Sequence:
#
# PCOD9239702 Si02
#       7
#     4   4   4   4   4   4   4
#     4  10  18  30  56  84 106 142 195 242 283 328
#     4  10  19  33  56  80 107 153 183 237 287 335
#     4  10  18  33  53  82 111 137 190 247 274 333
#     4  10  22  36  54  88 121 148 189 238 296 347
#     4  10  18  34  56  81 114 145 187 246 298 324
#     4   9  16  33  58  82 108 139 197 249 280 326
#     4   9  21  36  55  84 116 152 188 237 288 349
#
# _framework density 21.738068999999999
#
# number of rings (size 3 to 8) (size 9 to 14) (size 15 to 20)
#    0.000    2.286    2.857    0.857    2.000    5.143 
#    0.000    0.000    0.000    6.000    0.000    0.000 
#    0.000    0.000    0.000    0.000    0.000    0.000 
#
# Total GULP energy -156116.363998 kJ/mol
# GULP energy per Si atom -5575.584429 kJ/mol
# Density = 2.168859 g / cm^3
# Si number density = 21.738069 Si / 1000 Ang^3
#
#
#
# Elastic Constant Matrix: (Units=GPa)
#
#
# Indices 1 2 3 4 5 6 
#
# 1 -10.5166 2.3180 -22.0964 0.0000 36.8326 0.0000
# 2 2.3180 20.1352 -2.0884 0.0000 4.2906 0.0000
# 3 -22.0964 -2.0884 51.2895 0.0000 7.7480 0.0000
# 4 0.0000 0.0000 0.0000 15.6013 0.0000 5.3926
# 5 36.8326 4.2906 7.7480 0.0000 26.5704 0.0000
# 6 0.0000 0.0000 0.0000 5.3926 0.0000 32.3293
#
#
#
# Elastic Compliance Matrix: (Units=1/GPa)
#
#
# Indices 1 2 3 4 5 6 
#
# 1 -0.011715 -0.003577 -0.008090 0.000000 0.019177 0.000000
# 2 -0.003577 0.050951 0.001075 0.000000 -0.003583 0.000000
# 3 -0.008090 0.001075 0.015051 0.000000 0.006652 0.000000
# 4 0.000000 0.000000 0.000000 0.068019 0.000000 -0.011346
# 5 0.019177 -0.003583 0.006652 0.000000 0.009691 0.000000
# 6 0.000000 0.000000 0.000000 -0.011346 0.000000 0.032824
#
#
# Mechanical properties :
#
#
# Convention : Reuss Voigt Hill
#
# Bulk Modulus (GPa) = 30.20849 1.90828 16.05838
# Shear Modulus (GPa) = 25.37575 20.41851 22.89713
#
# Velocity S-wave (km/s) = 3.42034 3.06812 3.24901
# Velocity P-wave (km/s) = 5.43370 3.66482 4.63444
#
# Compressibility (1/GPa) = 0.03310328
#
# Stress axis : x y z
#
# Youngs Moduli (GPa) = -85.35766 19.62672 66.44121
#
# Poissons Ratio (x) = 0.07020 0.53749
# Poissons Ratio (y) = -0.30530 -0.07142
# Poissons Ratio (z) = -0.69052 -0.02110
#
# Static dielectric constant tensor:
#      x y z
#    x 1.891420 0.000000 0.002080 
#    y 0.000000 1.826750 0.000000 
#    z 0.002080 0.000000 1.808120 
# 
# From -- ./inp_files/48750.got.cif
#   From: 2010.05.17/outbox.cif.g08.bks.cpg/sg14_25_cif.got.tgz:48750.got - 2010.06.03 17:49:19.
