data_PCOD9239291
_publ_section_title
;
Structure prediction by ZEFSAII (Michael W. Deem and Ramdas Pophale) SiO2 
 PCOD9239291
Probable space group: P 21/C
;
_chemical_formula_sum "Si O2"
_cell_formula_units_Z 32
_cell_length_a 5.552174
_cell_length_b 9.802030
_cell_length_c 23.693619
_cell_angle_alpha 90.000000
_cell_angle_beta 78.081733
_cell_angle_gamma 90.000000
_cell_volume 1261.670976
_symmetry_space_group_name_H-M "P 21/C"
_symmetry_group_IT_number 14
_symmetry_cell_setting 'monoclinic'
loop_
_space_group_symop_operation_xyz
x,y,z
-x,1/2+y,1/2-z
-x,-y,-z
x,1/2-y,1/2+z
loop_
_atom_site_type_symbol
_atom_site_label
_atom_site_fract_x
_atom_site_fract_y
_atom_site_fract_z
Si Si1 0.123657 0.832361 0.093487
Si Si2 0.684502 0.292286 0.762419
Si Si3 0.335969 0.289875 0.441611
Si Si4 0.341885 0.979436 0.292946
Si Si5 0.664324 0.685442 0.940217
Si Si6 0.213438 0.517948 0.147546
Si Si7 0.980215 0.611141 0.356748
Si Si8 0.746761 0.397587 0.537930
O O1 0.380246 0.750920 0.083356
O O2 0.852795 0.762767 0.100893
O O3 0.119053 0.899441 0.029552
O O4 0.117837 0.956323 0.137835
O O5 0.647094 0.133580 0.755848
O O6 0.426152 0.372330 0.767499
O O7 0.796113 0.339935 0.816576
O O8 0.868194 0.348690 0.705402
O O9 0.230805 0.216342 0.502502
O O10 0.376434 0.451807 0.452972
O O11 0.562940 0.949336 0.326561
O O12 0.070136 0.970787 0.331920
O O13 0.707127 0.532083 0.918515
O O14 0.401419 0.755837 0.959326
O O15 0.778203 0.779033 0.884819
O O16 0.145539 0.613876 0.404899
#
# Coordination Sequence:
#
# PCOD9239291 Si02
#       8
#     4   4   4   4   4   4   4   4
#     4  10  17  28  39  73 102 140 163 218 266 351
#     4  10  24  38  59  82 113 154 197 241 280 338
#     4  10  17  26  41  67 105 134 165 213 267 341
#     4  10  23  41  58  79 112 144 196 249 283 324
#     4  11  17  28  48  70 103 146 178 213 280 331
#     4  10  24  35  56  79 110 148 198 233 276 337
#     4  11  17  30  50  71 106 148 181 214 287 334
#     4  10  17  26  43  73 107 138 174 214 275 348
#
# _framework density 25.363189999999999
#
# number of rings (size 3 to 8) (size 9 to 14) (size 15 to 20)
#    0.750    1.000    5.000    2.250    1.750    1.000 
#    0.000    0.000    0.000    0.000    0.000    0.000 
#    0.000    8.000    0.000    0.500    0.000    0.000 
#
# Total GULP energy -178332.114465 kJ/mol
# GULP energy per Si atom -5572.878577 kJ/mol
# Density = 2.530546 g / cm^3
# Si number density = 25.363190 Si / 1000 Ang^3
#
#
#
# Elastic Constant Matrix: (Units=GPa)
#
#
# Indices 1 2 3 4 5 6 
#
# 1 108.3171 -6.1719 15.1102 0.0000 -13.1120 0.0000
# 2 -6.1719 52.9855 -0.6251 0.0000 -2.7637 0.0000
# 3 15.1102 -0.6251 110.0673 0.0000 -12.8018 0.0000
# 4 0.0000 0.0000 0.0000 24.7300 0.0000 8.4930
# 5 -13.1120 -2.7637 -12.8018 0.0000 13.6435 0.0000
# 6 0.0000 0.0000 0.0000 8.4930 0.0000 -32.2168
#
#
#
# Elastic Compliance Matrix: (Units=1/GPa)
#
#
# Indices 1 2 3 4 5 6 
#
# 1 0.010618 0.001773 -0.000246 0.000000 0.010333 0.000000
# 2 0.001773 0.019409 0.000586 0.000000 0.006186 0.000000
# 3 -0.000246 0.000586 0.010225 0.000000 0.009476 0.000000
# 4 0.000000 0.000000 0.000000 0.037080 0.000000 0.009775
# 5 0.010333 0.006186 0.009476 0.000000 0.093371 0.000000
# 6 0.000000 0.000000 0.000000 0.009775 0.000000 -0.028463
#
#
# Mechanical properties :
#
#
# Convention : Reuss Voigt Hill
#
# Bulk Modulus (GPa) = 22.48254 31.99958 27.24106
# Shear Modulus (GPa) = 32.71416 18.76844 25.74130
#
# Velocity S-wave (km/s) = 3.59531 2.72322 3.18922
# Velocity P-wave (km/s) = 5.11063 4.74677 4.93206
#
# Compressibility (1/GPa) = 0.04447896
#
# Stress axis : x y z
#
# Youngs Moduli (GPa) = 94.17690 51.52204 97.80323
#
# Poissons Ratio (x) = -0.09134 0.02404
# Poissons Ratio (y) = -0.16697 -0.05734
# Poissons Ratio (z) = 0.02315 -0.03021
#
# Static dielectric constant tensor:
#      x y z
#    x 2.146140 0.000000 -0.020240 
#    y 0.000000 2.472960 0.000000 
#    z -0.020240 0.000000 1.977270 
# 
# From -- ./inp_files/78923.got.cif
#   From: 2010.05.17/outbox.cif.g08.bks.cpg/sg14_40_cif.got.tgz:78923.got - 2010.06.03 17:49:19.
