data_PCOD9239378
_publ_section_title
;
Structure prediction by ZEFSAII (Michael W. Deem and Ramdas Pophale) SiO2 
 PCOD9239378
Probable space group: P 21/C
;
_chemical_formula_sum "Si O2"
_cell_formula_units_Z 32
_cell_length_a 8.785242
_cell_length_b 8.378744
_cell_length_c 16.410260
_cell_angle_alpha 90.000000
_cell_angle_beta 84.296257
_cell_angle_gamma 90.000000
_cell_volume 1201.967195
_symmetry_space_group_name_H-M "P 21/C"
_symmetry_group_IT_number 14
_symmetry_cell_setting 'monoclinic'
loop_
_space_group_symop_operation_xyz
x,y,z
-x,1/2+y,1/2-z
-x,-y,-z
x,1/2-y,1/2+z
loop_
_atom_site_type_symbol
_atom_site_label
_atom_site_fract_x
_atom_site_fract_y
_atom_site_fract_z
Si Si1 0.750892 0.873693 0.713111
Si Si2 0.013449 0.369440 0.068443
Si Si3 0.694937 0.052772 0.862087
Si Si4 0.598410 0.293852 0.742115
Si Si5 0.163909 0.919553 0.976075
Si Si6 0.455061 0.286732 0.093386
Si Si7 0.295523 0.249488 0.956440
Si Si8 0.808593 0.549379 0.793747
O O1 0.567115 0.877075 0.741335
O O2 0.750434 0.863712 0.615787
O O3 0.820968 0.703971 0.736388
O O4 0.805609 0.993766 0.781966
O O5 0.049405 0.454626 0.152213
O O6 0.166533 0.274912 0.032919
O O7 0.000000 0.500000 0.000000
O O8 0.880272 0.239067 0.070933
O O9 0.591746 0.177761 0.820164
O O10 0.774456 0.125277 0.937226
O O11 0.607620 0.896257 0.898561
O O12 0.590225 0.214594 0.652888
O O13 0.749979 0.398281 0.747006
O O14 0.274954 0.060728 0.935625
O O15 0.000000 0.000000 0.000000
O O16 0.338609 0.410629 0.141236
O O17 0.449990 0.304739 0.995725
#
# Coordination Sequence:
#
# PCOD9239378 Si02
#       8
#     4   4   4   4   4   4   4   4
#     4  10  18  33  51  74 106 136 167 217 258 300
#     4  10  19  35  55  75 100 134 174 220 265 312
#     4   9  17  30  52  75  98 136 177 203 247 317
#     4  10  17  31  51  75 102 139 174 204 250 317
#     4   9  17  34  56  73  96 138 176 208 254 316
#     4   8  15  30  47  67  98 134 166 201 247 308
#     4   9  19  33  52  76 101 133 174 213 260 308
#     4   9  18  32  51  73 100 136 174 206 254 318
#
# _framework density 26.623021000000001
#
# number of rings (size 3 to 8) (size 9 to 14) (size 15 to 20)
#    0.000    3.000    0.000    6.000    0.000    0.000 
#    0.000   16.250    0.000    0.000    0.000    0.000 
#    0.000    0.000    0.000    0.000    0.000    0.000 
#
# Total GULP energy -178479.095647 kJ/mol
# GULP energy per Si atom -5577.471739 kJ/mol
# Density = 2.656243 g / cm^3
# Si number density = 26.623021 Si / 1000 Ang^3
#
#
#
# Elastic Constant Matrix: (Units=GPa)
#
#
# Indices 1 2 3 4 5 6 
#
# 1 52.8601 10.1402 40.0838 0.0000 2.0152 0.0000
# 2 10.1402 71.1236 8.8497 0.0000 24.7324 0.0000
# 3 40.0838 8.8497 157.9436 0.0000 49.7786 0.0000
# 4 0.0000 0.0000 0.0000 31.1868 0.0000 15.8325
# 5 2.0152 24.7324 49.7786 0.0000 53.5329 0.0000
# 6 0.0000 0.0000 0.0000 15.8325 0.0000 23.9779
#
#
#
# Elastic Compliance Matrix: (Units=1/GPa)
#
#
# Indices 1 2 3 4 5 6 
#
# 1 0.027549 -0.006685 -0.010275 0.000000 0.011606 0.000000
# 2 -0.006685 0.018892 0.004682 0.000000 -0.012830 0.000000
# 3 -0.010275 0.004682 0.013065 0.000000 -0.013925 0.000000
# 4 0.000000 0.000000 0.000000 0.048233 0.000000 -0.031848
# 5 0.011606 -0.012830 -0.013925 0.000000 0.037119 0.000000
# 6 0.000000 0.000000 0.000000 -0.031848 0.000000 0.062734
#
#
# Mechanical properties :
#
#
# Convention : Reuss Voigt Hill
#
# Bulk Modulus (GPa) = 28.61210 44.45276 36.53243
# Shear Modulus (GPa) = 20.50865 36.59642 28.55254
#
# Velocity S-wave (km/s) = 2.77850 3.71160 3.27842
# Velocity P-wave (km/s) = 4.58954 5.92464 5.29930
#
# Compressibility (1/GPa) = 0.03495025
#
# Stress axis : x y z
#
# Youngs Moduli (GPa) = 36.29884 52.93251 76.53801
#
# Poissons Ratio (x) = 0.35385 0.78640
# Poissons Ratio (y) = 0.24266 -0.35831
# Poissons Ratio (z) = 0.37296 -0.24780
#
# Static dielectric constant tensor:
#      x y z
#    x 2.191850 0.000000 0.004430 
#    y 0.000000 2.162790 0.000000 
#    z 0.004430 0.000000 2.146450 
# 
# From -- ./inp_files/57096.got.cif
#   From: 2010.05.17/outbox.cif.g08.bks.cpg/sg14_29_cif.got.tgz:57096.got - 2010.06.03 17:49:19.
