data_PCOD9239201
_publ_section_title
;
Structure prediction by ZEFSAII (Michael W. Deem and Ramdas Pophale) SiO2 
 PCOD9239201
Probable space group: P 21/C
;
_chemical_formula_sum "Si O2"
_cell_formula_units_Z 28
_cell_length_a 7.738987
_cell_length_b 17.711671
_cell_length_c 13.869570
_cell_angle_alpha 90.000000
_cell_angle_beta 140.744975
_cell_angle_gamma 90.000000
_cell_volume 1202.969888
_symmetry_space_group_name_H-M "P 21/C"
_symmetry_group_IT_number 14
_symmetry_cell_setting 'monoclinic'
loop_
_space_group_symop_operation_xyz
x,y,z
-x,1/2+y,1/2-z
-x,-y,-z
x,1/2-y,1/2+z
loop_
_atom_site_type_symbol
_atom_site_label
_atom_site_fract_x
_atom_site_fract_y
_atom_site_fract_z
Si Si1 0.793548 0.827292 0.676352
Si Si2 0.130761 0.925352 0.231007
Si Si3 0.307108 0.773346 0.356145
Si Si4 0.531200 0.885387 0.938477
Si Si5 0.182396 0.481505 0.936429
Si Si6 0.872187 0.424306 0.559927
Si Si7 0.420062 0.011812 0.744802
O O1 0.486705 0.798069 0.527371
O O2 0.009298 0.760965 0.748113
O O3 0.901093 0.860101 0.824917
O O4 0.830004 0.897295 0.615258
O O5 0.285068 0.846687 0.279509
O O6 0.249155 0.960418 0.380401
O O7 0.047976 0.998872 0.132557
O O8 0.821342 0.895290 0.113660
O O9 0.467000 0.700695 0.386039
O O10 0.311772 0.917948 0.921260
O O11 0.524148 0.934880 0.839018
O O12 0.889657 0.512058 0.848486
O O13 0.383212 0.483759 0.114499
O O14 0.635949 0.426421 0.377782
#
# Coordination Sequence:
#
# PCOD9239201 Si02
#       7
#     4   4   4   4   4   4   4
#     4  10  21  35  54  82 108 134 189 219 276 313
#     4  10  17  31  54  76 103 135 180 220 269 302
#     4  11  20  32  56  81 108 139 170 236 269 321
#     4  10  16  32  52  80 101 142 183 219 257 318
#     4  10  19  30  53  85 106 141 182 225 252 327
#     4   9  17  31  53  78 101 134 184 224 246 312
#     4  10  16  30  56  77 107 139 180 221 255 309
#
# _framework density 23.275727
#
# number of rings (size 3 to 8) (size 9 to 14) (size 15 to 20)
#    0.000    2.000    7.143    0.857    0.000    2.286 
#    0.000    0.000    6.286   14.571    0.000    0.000 
#    0.000    0.000    0.000    0.000    0.000    0.000 
#
# Total GULP energy -156070.163097 kJ/mol
# GULP energy per Si atom -5573.934396 kJ/mol
# Density = 2.322275 g / cm^3
# Si number density = 23.275727 Si / 1000 Ang^3
#
#
#
# Elastic Constant Matrix: (Units=GPa)
#
#
# Indices 1 2 3 4 5 6 
#
# 1 67.0235 32.8511 32.7619 0.0000 -10.9861 0.0000
# 2 32.8511 143.6961 58.9987 0.0000 -9.4961 0.0000
# 3 32.7619 58.9987 205.2979 0.0000 -2.0019 0.0000
# 4 0.0000 0.0000 0.0000 54.3416 0.0000 13.0024
# 5 -10.9861 -9.4961 -2.0019 0.0000 41.5517 0.0000
# 6 0.0000 0.0000 0.0000 13.0024 0.0000 19.7803
#
#
#
# Elastic Compliance Matrix: (Units=1/GPa)
#
#
# Indices 1 2 3 4 5 6 
#
# 1 0.018026 -0.003054 -0.001960 0.000000 0.003974 0.000000
# 2 -0.003054 0.008528 -0.001953 0.000000 0.001048 0.000000
# 3 -0.001960 -0.001953 0.005738 0.000000 -0.000688 0.000000
# 4 0.000000 0.000000 0.000000 0.021837 0.000000 -0.014354
# 5 0.003974 0.001048 -0.000688 0.000000 0.025323 0.000000
# 6 0.000000 0.000000 0.000000 -0.014354 0.000000 0.059991
#
#
# Mechanical properties :
#
#
# Convention : Reuss Voigt Hill
#
# Bulk Modulus (GPa) = 54.47040 73.91564 64.19302
# Shear Modulus (GPa) = 31.34822 42.56176 36.95499
#
# Velocity S-wave (km/s) = 3.67389 4.28084 3.98892
# Velocity P-wave (km/s) = 6.43814 7.50064 6.98961
#
# Compressibility (1/GPa) = 0.01835860
#
# Stress axis : x y z
#
# Youngs Moduli (GPa) = 55.47395 117.25397 174.26225
#
# Poissons Ratio (x) = 0.35805 0.34162
# Poissons Ratio (y) = 0.16940 0.34041
# Poissons Ratio (z) = 0.10875 0.22905
#
# Static dielectric constant tensor:
#      x y z
#    x 1.986980 0.000000 0.019010 
#    y 0.000000 1.887370 0.000000 
#    z 0.019010 0.000000 1.941440 
# 
# From -- ./inp_files/34311.got.cif
#   From: 2010.05.17/outbox.cif.g08.bks.cpg/sg14_18_cif.got.tgz:34311.got - 2010.06.03 17:49:19.
