data_PCOD9239817
_publ_section_title
;
Structure prediction by ZEFSAII (Michael W. Deem and Ramdas Pophale) SiO2 
 PCOD9239817
Probable space group: P 21/C
;
_chemical_formula_sum "Si O2"
_cell_formula_units_Z 28
_cell_length_a 17.315191
_cell_length_b 8.547770
_cell_length_c 14.846111
_cell_angle_alpha 90.000000
_cell_angle_beta 35.681024
_cell_angle_gamma 90.000000
_cell_volume 1281.634271
_symmetry_space_group_name_H-M "P 21/C"
_symmetry_group_IT_number 14
_symmetry_cell_setting 'monoclinic'
loop_
_space_group_symop_operation_xyz
x,y,z
-x,1/2+y,1/2-z
-x,-y,-z
x,1/2-y,1/2+z
loop_
_atom_site_type_symbol
_atom_site_label
_atom_site_fract_x
_atom_site_fract_y
_atom_site_fract_z
Si Si1 0.383096 0.602821 0.457541
Si Si2 0.728871 0.306411 0.252656
Si Si3 0.105855 0.778506 0.138496
Si Si4 0.626769 0.705623 0.644695
Si Si5 0.786024 0.987443 0.547999
Si Si6 0.815531 0.002106 0.092296
Si Si7 0.978002 0.718237 0.949603
O O1 0.365783 0.628534 0.580462
O O2 0.245273 0.669010 0.548797
O O3 0.395228 0.421458 0.413814
O O4 0.495535 0.716258 0.310553
O O5 0.696058 0.389646 0.188889
O O6 0.731723 0.119731 0.233586
O O7 0.884181 0.324931 0.135468
O O8 0.113599 0.600704 0.097972
O O9 0.098593 0.891276 0.058883
O O10 0.004341 0.779216 0.316616
O O11 0.715896 0.863330 0.549183
O O12 0.710150 0.602327 0.637095
O O13 0.857217 0.901142 0.563919
O O14 0.916016 0.879878 0.041380
#
# Coordination Sequence:
#
# PCOD9239817 Si02
#       7
#     4   4   4   4   4   4   4
#     4  10  21  38  58  79 103 138 180 223 267 318
#     4  10  21  36  54  79 112 142 175 220 271 316
#     4   9  18  33  54  79 109 145 182 219 260 309
#     4  10  21  38  58  78 104 139 180 221 267 321
#     4  10  20  35  54  80 111 143 177 220 266 313
#     4   9  19  34  53  80 112 142 177 221 265 313
#     4  10  18  32  53  80 110 146 183 215 257 312
#
# _framework density 21.847106
#
# number of rings (size 3 to 8) (size 9 to 14) (size 15 to 20)
#    0.000    2.286    0.000    2.571    0.000    2.286 
#    0.000   10.000    0.000    0.000    0.000    0.000 
#    0.000    0.000    0.000    0.000    0.000    0.000 
#
# Total GULP energy -155966.054542 kJ/mol
# GULP energy per Si atom -5570.216234 kJ/mol
# Density = 2.179738 g / cm^3
# Si number density = 21.847106 Si / 1000 Ang^3
#
#
#
# Elastic Constant Matrix: (Units=GPa)
#
#
# Indices 1 2 3 4 5 6 
#
# 1 35.0223 21.6468 11.2067 0.0000 5.9915 0.0000
# 2 21.6468 153.8375 34.6195 0.0000 9.4470 0.0000
# 3 11.2067 34.6195 44.1052 0.0000 -3.1267 0.0000
# 4 0.0000 0.0000 0.0000 13.3168 0.0000 3.5324
# 5 5.9915 9.4470 -3.1267 0.0000 30.0812 0.0000
# 6 0.0000 0.0000 0.0000 3.5324 0.0000 8.0058
#
#
#
# Elastic Compliance Matrix: (Units=1/GPa)
#
#
# Indices 1 2 3 4 5 6 
#
# 1 0.033570 -0.002794 -0.006799 0.000000 -0.006516 0.000000
# 2 -0.002794 0.008435 -0.006104 0.000000 -0.002727 0.000000
# 3 -0.006799 -0.006104 0.029642 0.000000 0.006352 0.000000
# 4 0.000000 0.000000 0.000000 0.085047 0.000000 -0.037525
# 5 -0.006516 -0.002727 0.006352 0.000000 0.036058 0.000000
# 6 0.000000 0.000000 0.000000 -0.037525 0.000000 0.141466
#
#
# Mechanical properties :
#
#
# Convention : Reuss Voigt Hill
#
# Bulk Modulus (GPa) = 24.84245 40.87902 32.86073
# Shear Modulus (GPa) = 13.19161 21.31356 17.25259
#
# Velocity S-wave (km/s) = 2.45993 3.12681 2.81320
# Velocity P-wave (km/s) = 4.41181 5.63808 5.06222
#
# Compressibility (1/GPa) = 0.04025368
#
# Stress axis : x y z
#
# Youngs Moduli (GPa) = 29.78827 118.55989 33.73568
#
# Poissons Ratio (x) = 0.33120 0.22937
# Poissons Ratio (y) = 0.08322 0.20592
# Poissons Ratio (z) = 0.20253 0.72369
#
# Static dielectric constant tensor:
#      x y z
#    x 1.836110 0.000000 -0.009510 
#    y 0.000000 1.858390 0.000000 
#    z -0.009510 0.000000 1.819900 
# 
# From -- ./inp_files/61047.got.cif
#   From: 2010.05.17/outbox.cif.g08.bks.cpg/sg14_31_cif.got.tgz:61047.got - 2010.06.03 17:49:19.
