data_PCOD9239229
_publ_section_title
;
Structure prediction by ZEFSAII (Michael W. Deem and Ramdas Pophale) SiO2 
 PCOD9239229
Probable space group: P 21/C
;
_chemical_formula_sum "Si O2"
_cell_formula_units_Z 32
_cell_length_a 27.263585
_cell_length_b 6.135535
_cell_length_c 16.183700
_cell_angle_alpha 90.000000
_cell_angle_beta 31.955126
_cell_angle_gamma 90.000000
_cell_volume 1432.775400
_symmetry_space_group_name_H-M "P 21/C"
_symmetry_group_IT_number 14
_symmetry_cell_setting 'monoclinic'
loop_
_space_group_symop_operation_xyz
x,y,z
-x,1/2+y,1/2-z
-x,-y,-z
x,1/2-y,1/2+z
loop_
_atom_site_type_symbol
_atom_site_label
_atom_site_fract_x
_atom_site_fract_y
_atom_site_fract_z
Si Si1 0.191960 0.438949 0.302154
Si Si2 0.417632 0.776009 0.699346
Si Si3 0.845615 0.262197 0.992263
Si Si4 0.942229 0.938444 0.459730
Si Si5 0.899526 0.265506 0.170428
Si Si6 0.619364 0.560208 0.901757
Si Si7 0.239910 0.002365 0.027121
Si Si8 0.307684 0.389235 0.842146
O O1 0.173600 0.623214 0.398159
O O2 0.147730 0.213465 0.396719
O O3 0.137444 0.527874 0.300307
O O4 0.303176 0.445263 0.138075
O O5 0.520262 0.854595 0.572415
O O6 0.338980 0.890506 0.867644
O O7 0.399594 0.520723 0.734880
O O8 0.398855 0.847961 0.630078
O O9 0.931855 0.422855 0.890183
O O10 0.831070 0.080993 0.942687
O O11 0.764324 0.432347 0.087083
O O12 0.027001 0.778178 0.360140
O O13 0.947206 0.124251 0.523062
O O14 0.810695 0.415618 0.319653
O O15 0.663970 0.723894 0.770319
O O16 0.259826 0.254774 0.983920
#
# Coordination Sequence:
#
# PCOD9239229 Si02
#       8
#     4   4   4   4   4   4   4   4
#     4  11  19  37  63  83 115 155 198 250 295 362
#     4   9  19  31  55  87 120 146 190 245 292 358
#     4  10  18  35  56  84 116 141 196 247 295 353
#     4  10  21  40  59  84 109 155 206 245 296 368
#     4  10  24  39  58  83 117 157 202 245 304 363
#     4  10  17  31  56  91 115 149 195 240 296 343
#     4  10  20  37  53  84 117 157 191 250 308 355
#     4  10  16  32  55  83 117 150 188 240 302 347
#
# _framework density 22.334274000000001
#
# number of rings (size 3 to 8) (size 9 to 14) (size 15 to 20)
#    0.000    2.000    5.000    0.750    0.000    2.000 
#    4.500    0.000    2.750    0.000    0.000    0.000 
#    0.000    0.000    0.000    0.000    0.000    0.000 
#
# Total GULP energy -178344.115788 kJ/mol
# GULP energy per Si atom -5573.253618 kJ/mol
# Density = 2.228344 g / cm^3
# Si number density = 22.334274 Si / 1000 Ang^3
#
#
#
# Elastic Constant Matrix: (Units=GPa)
#
#
# Indices 1 2 3 4 5 6 
#
# 1 44.6830 10.8120 15.2831 0.0000 -30.0554 0.0000
# 2 10.8120 74.0457 -12.7067 0.0000 -1.9629 0.0000
# 3 15.2831 -12.7067 39.6690 0.0000 -14.0604 0.0000
# 4 0.0000 0.0000 0.0000 21.3695 0.0000 -8.1112
# 5 -30.0554 -1.9629 -14.0604 0.0000 33.9189 0.0000
# 6 0.0000 0.0000 0.0000 -8.1112 0.0000 32.2277
#
#
#
# Elastic Compliance Matrix: (Units=1/GPa)
#
#
# Indices 1 2 3 4 5 6 
#
# 1 0.061362 -0.009134 -0.008770 0.000000 0.050208 0.000000
# 2 -0.009134 0.015952 0.007136 0.000000 -0.004213 0.000000
# 3 -0.008770 0.007136 0.033133 0.000000 0.006376 0.000000
# 4 0.000000 0.000000 0.000000 0.051738 0.000000 0.013022
# 5 0.050208 -0.004213 0.006376 0.000000 0.076371 0.000000
# 6 0.000000 0.000000 0.000000 0.013022 0.000000 0.034307
#
#
# Mechanical properties :
#
#
# Convention : Reuss Voigt Hill
#
# Bulk Modulus (GPa) = 11.24746 20.57493 15.91119
# Shear Modulus (GPa) = 15.43040 27.17052 21.30046
#
# Velocity S-wave (km/s) = 2.63132 3.49168 3.09157
# Velocity P-wave (km/s) = 3.77871 5.04856 4.45907
#
# Compressibility (1/GPa) = 0.08890897
#
# Stress axis : x y z
#
# Youngs Moduli (GPa) = 16.29685 62.68923 30.18120
#
# Poissons Ratio (x) = 0.57260 0.26470
# Poissons Ratio (y) = 0.14885 -0.21536
# Poissons Ratio (z) = 0.14293 -0.44732
#
# Static dielectric constant tensor:
#      x y z
#    x 1.884490 0.000000 -0.004080 
#    y 0.000000 1.859870 0.000000 
#    z -0.004080 0.000000 1.868030 
# 
# From -- ./inp_files/62486.got.cif
#   From: 2010.05.17/outbox.cif.g08.bks.cpg/sg14_32_cif.got.tgz:62486.got - 2010.06.03 17:49:19.
