data_PCOD9239831
_publ_section_title
;
Structure prediction by ZEFSAII (Michael W. Deem and Ramdas Pophale) SiO2 
 PCOD9239831
Probable space group: P 21/C
;
_chemical_formula_sum "Si O2"
_cell_formula_units_Z 32
_cell_length_a 12.952770
_cell_length_b 9.537186
_cell_length_c 15.266737
_cell_angle_alpha 90.000000
_cell_angle_beta 42.615997
_cell_angle_gamma 90.000000
_cell_volume 1276.938713
_symmetry_space_group_name_H-M "P 21/C"
_symmetry_group_IT_number 14
_symmetry_cell_setting 'monoclinic'
loop_
_space_group_symop_operation_xyz
x,y,z
-x,1/2+y,1/2-z
-x,-y,-z
x,1/2-y,1/2+z
loop_
_atom_site_type_symbol
_atom_site_label
_atom_site_fract_x
_atom_site_fract_y
_atom_site_fract_z
Si Si1 0.416073 0.299618 0.932183
Si Si2 0.065881 0.866557 0.376756
Si Si3 0.526250 0.603641 0.862763
Si Si4 0.779654 0.797293 0.096028
Si Si5 0.835594 0.096224 0.974608
Si Si6 0.677717 0.160061 0.681831
Si Si7 0.122224 0.427118 0.180026
Si Si8 0.279776 0.773134 0.610150
O O1 0.514427 0.439584 0.885695
O O2 0.338092 0.300674 0.883421
O O3 0.541159 0.177709 0.838828
O O4 0.259012 0.313803 0.085382
O O5 0.183006 0.939526 0.371695
O O6 0.191530 0.767363 0.252136
O O7 0.940006 0.776765 0.505290
O O8 0.977941 0.929894 0.347676
O O9 0.693515 0.652612 0.735450
O O10 0.415341 0.620287 0.847578
O O11 0.457277 0.696382 0.983712
O O12 0.803117 0.937502 0.022999
O O13 0.751967 0.149407 0.939152
O O14 0.010891 0.101965 0.831350
O O15 0.767686 0.199138 0.091744
O O16 0.200786 0.578917 0.134674
#
# Coordination Sequence:
#
# PCOD9239831 Si02
#       8
#     4   4   4   4   4   4   4   4
#     4   9  18  34  55  78 103 145 184 207 261 326
#     4  10  20  34  55  83 111 134 174 230 272 301
#     4   9  18  35  55  77 103 147 185 209 254 334
#     4  10  18  32  54  80 103 141 180 216 259 324
#     4  10  18  32  54  80 103 141 180 216 259 324
#     4  10  20  34  55  83 111 134 174 230 272 301
#     4   9  18  35  55  77 103 147 185 209 254 334
#     4   9  18  34  55  78 103 145 184 207 261 326
#
# _framework density 25.059933999999998
#
# number of rings (size 3 to 8) (size 9 to 14) (size 15 to 20)
#    0.000    2.500    2.500    0.000    0.000    0.500 
#    0.000   13.750    0.000   12.000    0.000    0.000 
#    0.000    0.000    0.000    0.000    0.000    0.000 
#
# Total GULP energy -178489.465133 kJ/mol
# GULP energy per Si atom -5577.795785 kJ/mol
# Density = 2.500290 g / cm^3
# Si number density = 25.059934 Si / 1000 Ang^3
#
#
#
# Elastic Constant Matrix: (Units=GPa)
#
#
# Indices 1 2 3 4 5 6 
#
# 1 68.4955 19.3267 46.6532 0.0000 -12.7143 0.0000
# 2 19.3267 50.9264 32.6410 0.0000 10.7827 0.0000
# 3 46.6532 32.6410 192.0048 0.0000 15.0096 0.0000
# 4 0.0000 0.0000 0.0000 21.2365 0.0000 5.1571
# 5 -12.7143 10.7827 15.0096 0.0000 44.7054 0.0000
# 6 0.0000 0.0000 0.0000 5.1571 0.0000 17.4769
#
#
#
# Elastic Compliance Matrix: (Units=1/GPa)
#
#
# Indices 1 2 3 4 5 6 
#
# 1 0.021636 -0.007154 -0.004782 0.000000 0.009484 0.000000
# 2 -0.007154 0.025185 -0.001961 0.000000 -0.007451 0.000000
# 3 -0.004782 -0.001961 0.006955 0.000000 -0.003222 0.000000
# 4 0.000000 0.000000 0.000000 0.050724 0.000000 -0.014968
# 5 0.009484 -0.007451 -0.003222 0.000000 0.027945 0.000000
# 6 0.000000 0.000000 0.000000 -0.014968 0.000000 0.061635
#
#
# Mechanical properties :
#
#
# Convention : Reuss Voigt Hill
#
# Bulk Modulus (GPa) = 38.48710 56.51873 47.50292
# Shear Modulus (GPa) = 21.68866 30.87082 26.27974
#
# Velocity S-wave (km/s) = 2.94508 3.51362 3.24184
# Velocity P-wave (km/s) = 5.19192 6.25005 5.74540
#
# Compressibility (1/GPa) = 0.02598273
#
# Stress axis : x y z
#
# Youngs Moduli (GPa) = 46.21965 39.70553 143.77186
#
# Poissons Ratio (x) = 0.28404 0.68756
# Poissons Ratio (y) = 0.33065 0.28192
# Poissons Ratio (z) = 0.22104 0.07786
#
# Static dielectric constant tensor:
#      x y z
#    x 2.203050 0.000000 0.037810 
#    y 0.000000 1.944030 0.000000 
#    z 0.037810 0.000000 1.984410 
# 
# From -- ./inp_files/59217.got.cif
#   From: 2010.05.17/outbox.cif.g08.bks.cpg/sg14_30_cif.got.tgz:59217.got - 2010.06.03 17:49:19.
