data_PCOD9239305
_publ_section_title
;
Structure prediction by ZEFSAII (Michael W. Deem and Ramdas Pophale) SiO2 
 PCOD9239305
Probable space group: P 21/C
;
_chemical_formula_sum "Si O2"
_cell_formula_units_Z 28
_cell_length_a 23.450097
_cell_length_b 5.081234
_cell_length_c 24.893849
_cell_angle_alpha 90.000000
_cell_angle_beta 142.564381
_cell_angle_gamma 90.000000
_cell_volume 1803.085429
_symmetry_space_group_name_H-M "P 21/C"
_symmetry_group_IT_number 14
_symmetry_cell_setting 'monoclinic'
loop_
_space_group_symop_operation_xyz
x,y,z
-x,1/2+y,1/2-z
-x,-y,-z
x,1/2-y,1/2+z
loop_
_atom_site_type_symbol
_atom_site_label
_atom_site_fract_x
_atom_site_fract_y
_atom_site_fract_z
Si Si1 0.627398 0.779626 0.093838
Si Si2 0.565987 0.283961 0.110513
Si Si3 0.803685 0.701270 0.151681
Si Si4 0.994381 0.191405 0.709978
Si Si5 0.401546 0.661239 0.130733
Si Si6 0.481395 0.659945 0.307769
Si Si7 0.792147 0.201808 0.067929
O O1 0.605726 0.566016 0.123569
O O2 0.725977 0.739608 0.138720
O O3 0.615874 0.066625 0.110710
O O4 0.544121 0.734274 0.988139
O O5 0.572512 0.220442 0.177921
O O6 0.795031 0.414938 0.118436
O O7 0.910644 0.749912 0.251164
O O8 0.787371 0.916591 0.092174
O O9 0.891343 0.260473 0.611428
O O10 0.003848 0.391285 0.768111
O O11 0.418200 0.680708 0.207090
O O12 0.435753 0.374517 0.137641
O O13 0.471619 0.873280 0.156348
O O14 0.297479 0.732708 0.034810
#
# Coordination Sequence:
#
# PCOD9239305 Si02
#       7
#     4   4   4   4   4   4   4
#     4  10  19  28  43  61  81 114 145 167 208 251
#     4  10  19  30  41  60  85 110 143 177 203 243
#     4  10  18  29  44  65  91 114 140 174 210 255
#     4   8  16  27  41  63  88 111 135 170 214 254
#     4  10  19  30  47  66  84 115 145 170 217 256
#     4  10  20  32  44  63  90 113 143 181 208 247
#     4  10  17  28  46  66  89 113 139 173 214 258
#
# _framework density 15.528937000000001
#
# number of rings (size 3 to 8) (size 9 to 14) (size 15 to 20)
#    0.000    2.286    0.000    4.286    0.000    2.286 
#    0.000    0.000    0.000    0.000    0.000    2.000 
#    0.000    0.000    0.000    0.000    0.000    0.000 
#
# Total GULP energy -156110.623395 kJ/mol
# GULP energy per Si atom -5575.379407 kJ/mol
# Density = 1.549359 g / cm^3
# Si number density = 15.528937 Si / 1000 Ang^3
#
#
#
# Elastic Constant Matrix: (Units=GPa)
#
#
# Indices 1 2 3 4 5 6 
#
# 1 70.1997 -16.8074 18.6176 0.0000 10.4350 0.0000
# 2 -16.8074 42.4876 -17.0193 0.0000 -3.4812 0.0000
# 3 18.6176 -17.0193 47.9519 0.0000 14.2140 0.0000
# 4 0.0000 0.0000 0.0000 14.3507 0.0000 2.1277
# 5 10.4350 -3.4812 14.2140 0.0000 18.5955 0.0000
# 6 0.0000 0.0000 0.0000 2.1277 0.0000 8.2616
#
#
#
# Elastic Compliance Matrix: (Units=1/GPa)
#
#
# Indices 1 2 3 4 5 6 
#
# 1 0.017207 0.005092 -0.002966 0.000000 -0.006436 0.000000
# 2 0.005092 0.029072 0.009794 0.000000 -0.004901 0.000000
# 3 -0.002966 0.009794 0.031607 0.000000 -0.020661 0.000000
# 4 0.000000 0.000000 0.000000 0.072449 0.000000 -0.018659
# 5 -0.006436 -0.004901 -0.020661 0.000000 0.072263 0.000000
# 6 0.000000 0.000000 0.000000 -0.018659 0.000000 0.125848
#
#
# Mechanical properties :
#
#
# Convention : Reuss Voigt Hill
#
# Bulk Modulus (GPa) = 9.83035 14.46902 12.14968
# Shear Modulus (GPa) = 13.94640 19.96478 16.95559
#
# Velocity S-wave (km/s) = 3.00007 3.58949 3.30793
# Velocity P-wave (km/s) = 4.28306 5.14946 4.73611
#
# Compressibility (1/GPa) = 0.10172583
#
# Stress axis : x y z
#
# Youngs Moduli (GPa) = 58.11456 34.39717 31.63898
#
# Poissons Ratio (x) = -0.17513 0.09384
# Poissons Ratio (y) = -0.29589 -0.30989
# Poissons Ratio (z) = 0.17237 -0.33690
#
# Static dielectric constant tensor:
#      x y z
#    x 1.507180 0.000000 0.024880 
#    y 0.000000 1.529790 0.000000 
#    z 0.024880 0.000000 1.515580 
# 
# From -- ./inp_files/58351.got.cif
#   From: 2010.05.17/outbox.cif.g08.bks.cpg/sg14_30_cif.got.tgz:58351.got - 2010.06.03 17:49:19.
