data_PCOD9239104
_publ_section_title
;
Structure prediction by ZEFSAII (Michael W. Deem and Ramdas Pophale) SiO2 
 PCOD9239104
Probable space group: P 21/C
;
_chemical_formula_sum "Si O2"
_cell_formula_units_Z 28
_cell_length_a 5.427419
_cell_length_b 6.809778
_cell_length_c 30.343770
_cell_angle_alpha 90.000000
_cell_angle_beta 87.838120
_cell_angle_gamma 90.000000
_cell_volume 1120.692891
_symmetry_space_group_name_H-M "P 21/C"
_symmetry_group_IT_number 14
_symmetry_cell_setting 'monoclinic'
loop_
_space_group_symop_operation_xyz
x,y,z
-x,1/2+y,1/2-z
-x,-y,-z
x,1/2-y,1/2+z
loop_
_atom_site_type_symbol
_atom_site_label
_atom_site_fract_x
_atom_site_fract_y
_atom_site_fract_z
Si Si1 0.374408 0.251974 0.194881
Si Si2 0.514067 0.651043 0.458376
Si Si3 0.464934 0.657391 0.618474
Si Si4 0.435442 0.152749 0.296128
Si Si5 0.992993 0.262296 0.509610
Si Si6 0.026960 0.122999 0.411019
Si Si7 0.887717 0.169312 0.661313
O O1 0.422951 0.198228 0.245003
O O2 0.624261 0.222288 0.165300
O O3 0.107522 0.195622 0.178308
O O4 0.357059 0.490173 0.195569
O O5 0.500000 0.500000 0.500000
O O6 0.533618 0.532190 0.413036
O O7 0.757260 0.774917 0.465556
O O8 0.263390 0.771265 0.463902
O O9 0.500766 0.669799 0.671412
O O10 0.706252 0.779291 0.601092
O O11 0.205876 0.761681 0.608534
O O12 0.189531 0.028441 0.310552
O O13 0.995224 0.152665 0.463248
O O14 0.000000 0.500000 0.500000
O O15 0.035147 0.915149 0.386078
#
# Coordination Sequence:
#
# PCOD9239104 Si02
#       7
#     4   4   4   4   4   4   4
#     4  10  20  33  49  67  89 119 157 191 235 271
#     4  10  15  22  32  55  79 115 144 167 207 266
#     4  11  17  25  40  58  84 115 151 177 217 265
#     4   9  22  32  51  66  93 121 158 191 232 272
#     4  10  15  20  34  51  80 113 143 167 205 259
#     4  11  15  26  37  58  82 115 149 176 212 265
#     4   9  20  30  47  65  89 118 155 186 228 270
#
# _framework density 24.984541
#
# number of rings (size 3 to 8) (size 9 to 14) (size 15 to 20)
#    0.857    1.143    7.143    0.000    2.000    0.000 
#    0.000    0.000    0.000    0.000    0.000    0.000 
#    0.000    0.000    0.000   14.143    0.000    0.000 
#
# Total GULP energy -156374.256381 kJ/mol
# GULP energy per Si atom -5584.794871 kJ/mol
# Density = 2.492768 g / cm^3
# Si number density = 24.984541 Si / 1000 Ang^3
#
#
#
# Elastic Constant Matrix: (Units=GPa)
#
#
# Indices 1 2 3 4 5 6 
#
# 1 189.0974 12.7261 38.0472 0.0000 10.9353 0.0000
# 2 12.7261 44.3824 8.0682 0.0000 -0.8935 0.0000
# 3 38.0472 8.0682 139.3481 0.0000 1.0236 0.0000
# 4 0.0000 0.0000 0.0000 43.6815 0.0000 7.4663
# 5 10.9353 -0.8935 1.0236 0.0000 33.7499 0.0000
# 6 0.0000 0.0000 0.0000 7.4663 0.0000 21.9978
#
#
#
# Elastic Compliance Matrix: (Units=1/GPa)
#
#
# Indices 1 2 3 4 5 6 
#
# 1 0.005791 -0.001428 -0.001485 0.000000 -0.001869 0.000000
# 2 -0.001428 0.023137 -0.000958 0.000000 0.001104 0.000000
# 3 -0.001485 -0.000958 0.007635 0.000000 0.000224 0.000000
# 4 0.000000 0.000000 0.000000 0.024303 0.000000 -0.008249
# 5 -0.001869 0.001104 0.000224 0.000000 0.030258 0.000000
# 6 0.000000 0.000000 0.000000 -0.008249 0.000000 0.048259
#
#
# Mechanical properties :
#
#
# Convention : Reuss Voigt Hill
#
# Bulk Modulus (GPa) = 34.69527 54.50120 44.59824
# Shear Modulus (GPa) = 31.90147 40.81827 36.35987
#
# Velocity S-wave (km/s) = 3.57718 4.04634 3.81897
# Velocity P-wave (km/s) = 5.56583 6.60998 6.11025
#
# Compressibility (1/GPa) = 0.02882237
#
# Stress axis : x y z
#
# Youngs Moduli (GPa) = 172.67447 43.22015 130.96738
#
# Poissons Ratio (x) = 0.06173 0.19446
# Poissons Ratio (y) = 0.24663 0.12544
# Poissons Ratio (z) = 0.25639 0.04140
#
# Static dielectric constant tensor:
#      x y z
#    x 2.069180 0.000000 0.047890 
#    y 0.000000 2.053530 0.000000 
#    z 0.047890 0.000000 1.980810 
# 
# From -- ./inp_files/78621.got.cif
#   From: 2010.05.17/outbox.cif.g08.bks.cpg/sg14_40_cif.got.tgz:78621.got - 2010.06.03 17:49:19.
