data_PCOD9239607
_publ_section_title
;
Structure prediction by ZEFSAII (Michael W. Deem and Ramdas Pophale) SiO2 
 PCOD9239607
Probable space group: P 21/C
;
_chemical_formula_sum "Si O2"
_cell_formula_units_Z 24
_cell_length_a 22.100769
_cell_length_b 10.352880
_cell_length_c 13.922937
_cell_angle_alpha 90.000000
_cell_angle_beta 161.032466
_cell_angle_gamma 90.000000
_cell_volume 1035.442510
_symmetry_space_group_name_H-M "P 21/C"
_symmetry_group_IT_number 14
_symmetry_cell_setting 'monoclinic'
loop_
_space_group_symop_operation_xyz
x,y,z
-x,1/2+y,1/2-z
-x,-y,-z
x,1/2-y,1/2+z
loop_
_atom_site_type_symbol
_atom_site_label
_atom_site_fract_x
_atom_site_fract_y
_atom_site_fract_z
Si Si1 0.242603 0.597979 0.099636
Si Si2 0.547517 0.788926 0.621643
Si Si3 0.965750 0.341002 0.387731
Si Si4 0.949697 0.791070 0.300067
Si Si5 0.989558 0.064709 0.324118
Si Si6 0.283081 0.493932 0.762379
O O1 0.428613 0.665040 0.413478
O O2 0.187574 0.465722 0.070172
O O3 0.204463 0.598408 0.928856
O O4 0.076284 0.688830 0.895533
O O5 0.598969 0.874768 0.605276
O O6 0.422309 0.889427 0.496187
O O7 0.739059 0.755039 0.961267
O O8 0.958563 0.307935 0.489016
O O9 0.144261 0.429077 0.630429
O O10 0.987857 0.197520 0.376498
O O11 0.946462 0.941195 0.327059
O O12 0.840403 0.045290 0.013600
#
# Coordination Sequence:
#
# PCOD9239607 Si02
#       6
#     4   4   4   4   4   4
#     4   9  20  35  57  79 109 149 177 227 277 323
#     4  10  17  39  53  78 113 139 188 224 267 331
#     4  11  17  37  57  80 113 139 188 227 273 329
#     4   9  21  35  55  88 104 146 186 232 267 325
#     4   8  17  34  55  83 102 142 183 222 272 321
#     4   9  19  31  61  80 103 153 177 222 276 328
#
# _framework density 23.178497
#
# number of rings (size 3 to 8) (size 9 to 14) (size 15 to 20)
#    1.000    1.667    3.333    0.500    0.000    0.000 
#    6.000    1.667    0.000    0.000    0.000    0.000 
#    0.000    0.000    0.000    0.000    0.000    0.000 
#
# Total GULP energy -133854.246192 kJ/mol
# GULP energy per Si atom -5577.260258 kJ/mol
# Density = 2.312574 g / cm^3
# Si number density = 23.178497 Si / 1000 Ang^3
#
#
#
# Elastic Constant Matrix: (Units=GPa)
#
#
# Indices 1 2 3 4 5 6 
#
# 1 48.3085 -3.7069 21.1131 0.0000 -12.1949 0.0000
# 2 -3.7069 67.2623 12.9254 0.0000 6.9984 0.0000
# 3 21.1131 12.9254 100.2068 0.0000 5.8120 0.0000
# 4 0.0000 0.0000 0.0000 28.1515 0.0000 5.5680
# 5 -12.1949 6.9984 5.8120 0.0000 25.9682 0.0000
# 6 0.0000 0.0000 0.0000 5.5680 0.0000 40.0589
#
#
#
# Elastic Compliance Matrix: (Units=1/GPa)
#
#
# Indices 1 2 3 4 5 6 
#
# 1 0.027264 0.001344 -0.006727 0.000000 0.013947 0.000000
# 2 0.001344 0.015674 -0.002124 0.000000 -0.003118 0.000000
# 3 -0.006727 -0.002124 0.011976 0.000000 -0.005267 0.000000
# 4 0.000000 0.000000 0.000000 0.036526 0.000000 -0.005077
# 5 0.013947 -0.003118 -0.005267 0.000000 0.047077 0.000000
# 6 0.000000 0.000000 0.000000 -0.005077 0.000000 0.025669
#
#
# Mechanical properties :
#
#
# Convention : Reuss Voigt Hill
#
# Bulk Modulus (GPa) = 25.06235 30.71563 27.88899
# Shear Modulus (GPa) = 25.97409 31.19880 28.58645
#
# Velocity S-wave (km/s) = 3.35119 3.67280 3.51567
# Velocity P-wave (km/s) = 5.08037 5.59164 5.34213
#
# Compressibility (1/GPa) = 0.03990049
#
# Stress axis : x y z
#
# Youngs Moduli (GPa) = 36.67846 63.80083 83.49971
#
# Poissons Ratio (x) = -0.08575 0.56167
# Poissons Ratio (y) = -0.04930 0.17736
# Poissons Ratio (z) = 0.24672 0.13552
#
# Static dielectric constant tensor:
#      x y z
#    x 1.915970 0.000000 0.024890 
#    y 0.000000 2.002830 0.000000 
#    z 0.024890 0.000000 1.868930 
# 
# From -- ./inp_files/51472.got.cif
#   From: 2010.05.17/outbox.cif.g08.bks.cpg/sg14_26_cif.got.tgz:51472.got - 2010.06.03 17:49:19.
