data_PCOD9239380
_publ_section_title
;
Structure prediction by ZEFSAII (Michael W. Deem and Ramdas Pophale) SiO2 
 PCOD9239380
Probable space group: P 21/C
;
_chemical_formula_sum "Si O2"
_cell_formula_units_Z 28
_cell_length_a 19.864282
_cell_length_b 8.356176
_cell_length_c 20.405900
_cell_angle_alpha 90.000000
_cell_angle_beta 160.625250
_cell_angle_gamma 90.000000
_cell_volume 1123.676110
_symmetry_space_group_name_H-M "P 21/C"
_symmetry_group_IT_number 14
_symmetry_cell_setting 'monoclinic'
loop_
_space_group_symop_operation_xyz
x,y,z
-x,1/2+y,1/2-z
-x,-y,-z
x,1/2-y,1/2+z
loop_
_atom_site_type_symbol
_atom_site_label
_atom_site_fract_x
_atom_site_fract_y
_atom_site_fract_z
Si Si1 0.935942 0.915747 0.637988
Si Si2 0.554005 0.206767 0.215571
Si Si3 0.534127 0.360689 0.330840
Si Si4 0.813741 0.569564 0.286783
Si Si5 0.568733 0.948985 0.687177
Si Si6 0.026178 0.896456 0.457890
Si Si7 0.999778 0.063894 0.836805
O O1 0.695368 0.895338 0.405492
O O2 0.025818 0.743122 0.709481
O O3 0.013804 0.018573 0.648144
O O4 0.983221 0.966395 0.754795
O O5 0.631436 0.265370 0.358620
O O6 0.471819 0.376096 0.112639
O O7 0.740269 0.161035 0.338422
O O8 0.417828 0.044870 0.102032
O O9 0.521095 0.221799 0.373035
O O10 0.630431 0.561719 0.168447
O O11 0.000000 0.500000 0.500000
O O12 0.874725 0.749511 0.325818
O O13 0.829441 0.472997 0.234183
O O14 0.781742 0.955042 0.926170
O O15 0.000000 0.000000 0.500000
#
# Coordination Sequence:
#
# PCOD9239380 Si02
#       7
#     4   4   4   4   4   4   4
#     4  10  22  33  53  82 111 144 186 226 280 340
#     4  11  19  33  56  75 119 140 184 230 279 320
#     4  10  21  34  52  85 106 150 185 223 276 341
#     4  10  17  31  52  78 106 138 176 229 281 318
#     4  10  20  35  55  83 109 144 187 230 281 325
#     4  11  20  33  54  84 109 138 189 236 280 329
#     4  10  19  34  51  78 111 143 180 232 284 324
#
# _framework density 24.918212
#
# number of rings (size 3 to 8) (size 9 to 14) (size 15 to 20)
#    0.000    1.714    4.286    4.286    2.000    0.000 
#    0.000    0.000    0.000    0.857    3.714    4.000 
#    0.000    0.000    0.000    0.000    0.000    0.000 
#
# Total GULP energy -156507.702829 kJ/mol
# GULP energy per Si atom -5589.560815 kJ/mol
# Density = 2.486150 g / cm^3
# Si number density = 24.918212 Si / 1000 Ang^3
#
#
#
# Elastic Constant Matrix: (Units=GPa)
#
#
# Indices 1 2 3 4 5 6 
#
# 1 216.2015 97.0141 21.7595 0.0000 -23.7552 0.0000
# 2 97.0141 211.3646 10.6215 0.0000 -15.1947 0.0000
# 3 21.7595 10.6215 93.9846 0.0000 -12.2447 0.0000
# 4 0.0000 0.0000 0.0000 12.0176 0.0000 -7.2968
# 5 -23.7552 -15.1947 -12.2447 0.0000 33.7190 0.0000
# 6 0.0000 0.0000 0.0000 -7.2968 0.0000 69.4648
#
#
#
# Elastic Compliance Matrix: (Units=1/GPa)
#
#
# Indices 1 2 3 4 5 6 
#
# 1 0.006185 -0.002591 -0.000759 0.000000 0.002914 0.000000
# 2 -0.002591 0.005982 0.000039 0.000000 0.000884 0.000000
# 3 -0.000759 0.000039 0.011278 0.000000 0.003578 0.000000
# 4 0.000000 0.000000 0.000000 0.088880 0.000000 0.009336
# 5 0.002914 0.000884 0.003578 0.000000 0.033407 0.000000
# 6 0.000000 0.000000 0.000000 0.009336 0.000000 0.015376
#
#
# Mechanical properties :
#
#
# Convention : Reuss Voigt Hill
#
# Bulk Modulus (GPa) = 59.44814 86.70455 73.07635
# Shear Modulus (GPa) = 28.84536 49.18399 39.01467
#
# Velocity S-wave (km/s) = 3.40605 4.44759 3.96120
# Velocity P-wave (km/s) = 6.27513 7.82598 7.09307
#
# Compressibility (1/GPa) = 0.01682138
#
# Stress axis : x y z
#
# Youngs Moduli (GPa) = 161.69385 167.16735 88.67143
#
# Poissons Ratio (x) = 0.43313 0.06734
# Poissons Ratio (y) = 0.41895 -0.00346
# Poissons Ratio (z) = 0.12280 -0.00653
#
# Static dielectric constant tensor:
#      x y z
#    x 1.926650 0.000000 0.064600 
#    y 0.000000 1.952840 0.000000 
#    z 0.064600 0.000000 2.071070 
# 
# From -- ./inp_files/60345.got.cif
#   From: 2010.05.17/outbox.cif.g08.bks.cpg/sg14_31_cif.got.tgz:60345.got - 2010.06.03 17:49:19.
