data_PCOD9239674
_publ_section_title
;
Structure prediction by ZEFSAII (Michael W. Deem and Ramdas Pophale) SiO2 
 PCOD9239674
Probable space group: P 21/C
;
_chemical_formula_sum "Si O2"
_cell_formula_units_Z 28
_cell_length_a 7.849955
_cell_length_b 6.902873
_cell_length_c 21.275199
_cell_angle_alpha 90.000000
_cell_angle_beta 114.099670
_cell_angle_gamma 90.000000
_cell_volume 1052.358449
_symmetry_space_group_name_H-M "P 21/C"
_symmetry_group_IT_number 14
_symmetry_cell_setting 'monoclinic'
loop_
_space_group_symop_operation_xyz
x,y,z
-x,1/2+y,1/2-z
-x,-y,-z
x,1/2-y,1/2+z
loop_
_atom_site_type_symbol
_atom_site_label
_atom_site_fract_x
_atom_site_fract_y
_atom_site_fract_z
Si Si1 0.535365 0.731802 0.007688
Si Si2 0.648347 0.168591 0.698405
Si Si3 0.103261 0.136922 0.465633
Si Si4 0.391744 0.225347 0.842572
Si Si5 0.247097 0.174845 0.688107
Si Si6 0.215541 0.779218 0.150316
Si Si7 0.157633 0.755637 0.397292
O O1 0.704589 0.736029 0.982974
O O2 0.624728 0.806913 0.085949
O O3 0.500000 0.500000 0.000000
O O4 0.328144 0.816800 0.967136
O O5 0.451210 0.247737 0.695918
O O6 0.782316 0.146621 0.778461
O O7 0.753267 0.276249 0.658099
O O8 0.608192 0.957555 0.664965
O O9 0.964843 0.299031 0.419380
O O10 0.144352 0.984364 0.415149
O O11 0.000000 0.000000 0.500000
O O12 0.255482 0.161585 0.765607
O O13 0.597601 0.153812 0.855341
O O14 0.063303 0.290129 0.637630
O O15 0.234543 0.954948 0.661671
#
# Coordination Sequence:
#
# PCOD9239674 Si02
#       7
#     4   4   4   4   4   4   4
#     4  10  18  30  50  79 103 137 175 222 261 316
#     4  10  19  33  53  78 109 136 179 212 276 317
#     4  10  19  30  52  81 110 139 181 230 271 309
#     4  10  18  35  52  78 106 138 177 218 267 318
#     4   9  21  33  52  77 108 140 174 221 262 317
#     4   9  19  33  51  81 106 140 172 222 266 321
#     4  10  20  31  51  76 106 140 169 225 266 318
#
# _framework density 26.606904
#
# number of rings (size 3 to 8) (size 9 to 14) (size 15 to 20)
#    0.000    2.286    2.857    1.714    6.000    0.000 
#    0.000    0.000    0.000    0.857    0.000    8.000 
#    0.000    0.000    0.000    0.000    0.000    0.000 
#
# Total GULP energy -156268.038133 kJ/mol
# GULP energy per Si atom -5581.001362 kJ/mol
# Density = 2.654635 g / cm^3
# Si number density = 26.606904 Si / 1000 Ang^3
#
#
#
# Elastic Constant Matrix: (Units=GPa)
#
#
# Indices 1 2 3 4 5 6 
#
# 1 117.3265 1.1430 30.2065 0.0000 18.1056 0.0000
# 2 1.1430 87.1612 6.4344 0.0000 0.0263 0.0000
# 3 30.2065 6.4344 75.3492 0.0000 9.5406 0.0000
# 4 0.0000 0.0000 0.0000 28.5439 0.0000 -5.9114
# 5 18.1056 0.0263 9.5406 0.0000 59.9370 0.0000
# 6 0.0000 0.0000 0.0000 -5.9114 0.0000 -7.1027
#
#
#
# Elastic Compliance Matrix: (Units=1/GPa)
#
#
# Indices 1 2 3 4 5 6 
#
# 1 0.009830 0.000141 -0.003650 0.000000 -0.002388 0.000000
# 2 0.000141 0.011549 -0.001058 0.000000 0.000121 0.000000
# 3 -0.003650 -0.001058 0.014988 0.000000 -0.001283 0.000000
# 4 0.000000 0.000000 0.000000 0.029883 0.000000 -0.024871
# 5 -0.002388 0.000121 -0.001283 0.000000 0.017610 0.000000
# 6 0.000000 0.000000 0.000000 -0.024871 0.000000 -0.120093
#
#
# Mechanical properties :
#
#
# Convention : Reuss Voigt Hill
#
# Bulk Modulus (GPa) = 36.72078 39.48942 38.10510
# Shear Modulus (GPa) = -277.45686 32.41252 -122.52217
#
# Velocity S-wave (km/s) = -10.22284 3.49406 -6.79330
# Velocity P-wave (km/s) = 11.20316 5.58139 6.86872
#
# Compressibility (1/GPa) = 0.02723254
#
# Stress axis : x y z
#
# Youngs Moduli (GPa) = 101.72659 86.58597 66.72134
#
# Poissons Ratio (x) = -0.01223 0.24356
# Poissons Ratio (y) = -0.01437 0.07060
# Poissons Ratio (z) = 0.37135 0.09162
#
# Static dielectric constant tensor:
#      x y z
#    x 2.175400 0.000000 0.051650 
#    y 0.000000 2.123340 0.000000 
#    z 0.051650 0.000000 2.120170 
# 
# From -- ./inp_files/65274.got.cif
#   From: 2010.05.17/outbox.cif.g08.bks.cpg/sg14_33_cif.got.tgz:65274.got - 2010.06.03 17:49:19.
