data_PCOD9239173
_publ_section_title
;
Structure prediction by ZEFSAII (Michael W. Deem and Ramdas Pophale) SiO2 
 PCOD9239173
Probable space group: P 21/C
;
_chemical_formula_sum "Si O2"
_cell_formula_units_Z 32
_cell_length_a 15.527280
_cell_length_b 11.300267
_cell_length_c 20.952769
_cell_angle_alpha 90.000000
_cell_angle_beta 26.243345
_cell_angle_gamma 90.000000
_cell_volume 1625.657468
_symmetry_space_group_name_H-M "P 21/C"
_symmetry_group_IT_number 14
_symmetry_cell_setting 'monoclinic'
loop_
_space_group_symop_operation_xyz
x,y,z
-x,1/2+y,1/2-z
-x,-y,-z
x,1/2-y,1/2+z
loop_
_atom_site_type_symbol
_atom_site_label
_atom_site_fract_x
_atom_site_fract_y
_atom_site_fract_z
Si Si1 0.125729 0.376326 0.214063
Si Si2 0.675890 0.376303 0.503878
Si Si3 0.634980 0.289153 0.142411
Si Si4 0.514234 0.206461 0.513965
Si Si5 0.123401 0.890069 0.801177
Si Si6 0.632444 0.485423 0.044813
Si Si7 0.279425 0.098575 0.949024
Si Si8 0.749614 0.092704 0.144368
O O1 0.121181 0.482971 0.268237
O O2 0.903531 0.333896 0.353909
O O3 0.301106 0.294768 0.123793
O O4 0.202575 0.438181 0.098589
O O5 0.572107 0.308943 0.631935
O O6 0.571676 0.327745 0.510675
O O7 0.677451 0.515356 0.518840
O O8 0.701363 0.400100 0.056160
O O9 0.460294 0.327518 0.304368
O O10 0.784003 0.217768 0.087036
O O11 0.681652 0.175202 0.351470
O O12 0.538578 0.101618 0.552172
O O13 0.124831 0.908294 0.875684
O O14 0.922633 0.831050 0.910295
O O15 0.467127 0.569615 0.183681
O O16 0.236902 0.006332 0.919166
#
# Coordination Sequence:
#
# PCOD9239173 Si02
#       8
#     4   4   4   4   4   4   4   4
#     4  10  17  31  54  80 106 135 170 228 266 300
#     4   9  20  33  51  82 104 134 176 217 262 315
#     4   9  19  32  47  76 106 139 166 210 256 315
#     4  10  17  31  52  81 109 132 168 227 263 305
#     4  10  17  29  50  82 102 129 175 220 266 303
#     4   9  16  30  51  75 105 133 163 215 269 301
#     4   9  19  32  49  73 108 141 167 210 262 310
#     4  10  16  29  48  76 106 131 170 211 253 312
#
# _framework density 19.684342000000001
#
# number of rings (size 3 to 8) (size 9 to 14) (size 15 to 20)
#    0.000    2.500    2.500    1.125    0.000    1.000 
#    0.000    0.000    0.000    1.500    6.500    0.000 
#    0.000    0.000    0.000    0.000    0.000    0.000 
#
# Total GULP energy -178229.299271 kJ/mol
# GULP energy per Si atom -5569.665602 kJ/mol
# Density = 1.963954 g / cm^3
# Si number density = 19.684342 Si / 1000 Ang^3
#
#
#
# Elastic Constant Matrix: (Units=GPa)
#
#
# Indices 1 2 3 4 5 6 
#
# 1 41.8968 17.4730 3.0469 0.0000 8.2208 0.0000
# 2 17.4730 31.4428 9.3604 0.0000 -1.6778 0.0000
# 3 3.0469 9.3604 63.2186 0.0000 -2.3862 0.0000
# 4 0.0000 0.0000 0.0000 17.3548 0.0000 6.1362
# 5 8.2208 -1.6778 -2.3862 0.0000 20.5806 0.0000
# 6 0.0000 0.0000 0.0000 6.1362 0.0000 27.0184
#
#
#
# Elastic Compliance Matrix: (Units=1/GPa)
#
#
# Indices 1 2 3 4 5 6 
#
# 1 0.035625 -0.020874 0.000776 0.000000 -0.015842 0.000000
# 2 -0.020874 0.045595 -0.005313 0.000000 0.011439 0.000000
# 3 0.000776 -0.005313 0.016612 0.000000 0.001183 0.000000
# 4 0.000000 0.000000 0.000000 0.062652 0.000000 -0.014229
# 5 -0.015842 0.011439 0.001183 0.000000 0.055987 0.000000
# 6 0.000000 0.000000 0.000000 -0.014229 0.000000 0.040243
#
#
# Mechanical properties :
#
#
# Convention : Reuss Voigt Hill
#
# Bulk Modulus (GPa) = 21.27173 21.81318 21.54245
# Shear Modulus (GPa) = 15.46992 20.10264 17.78628
#
# Velocity S-wave (km/s) = 2.80643 3.19917 3.00921
# Velocity P-wave (km/s) = 4.61858 4.97512 4.80016
#
# Compressibility (1/GPa) = 0.04701075
#
# Stress axis : x y z
#
# Youngs Moduli (GPa) = 28.06983 21.93201 60.19708
#
# Poissons Ratio (x) = 0.45780 -0.04669
# Poissons Ratio (y) = 0.58592 0.31984
# Poissons Ratio (z) = -0.02177 0.11653
#
# Static dielectric constant tensor:
#      x y z
#    x 1.696390 0.000000 0.006550 
#    y 0.000000 1.715610 0.000000 
#    z 0.006550 0.000000 1.765550 
# 
# From -- ./inp_files/47291.got.cif
#   From: 2010.05.17/outbox.cif.g08.bks.cpg/sg14_24_cif.got.tgz:47291.got - 2010.06.03 17:49:19.
