data_PCOD9239777
_publ_section_title
;
Structure prediction by ZEFSAII (Michael W. Deem and Ramdas Pophale) SiO2 
 PCOD9239777
Probable space group: P 21/C
;
_chemical_formula_sum "Si O2"
_cell_formula_units_Z 16
_cell_length_a 7.839570
_cell_length_b 9.520437
_cell_length_c 12.636977
_cell_angle_alpha 90.000000
_cell_angle_beta 139.317776
_cell_angle_gamma 90.000000
_cell_volume 614.821094
_symmetry_space_group_name_H-M "P 21/C"
_symmetry_group_IT_number 14
_symmetry_cell_setting 'monoclinic'
loop_
_space_group_symop_operation_xyz
x,y,z
-x,1/2+y,1/2-z
-x,-y,-z
x,1/2-y,1/2+z
loop_
_atom_site_type_symbol
_atom_site_label
_atom_site_fract_x
_atom_site_fract_y
_atom_site_fract_z
Si Si1 0.333848 0.878888 0.365935
Si Si2 0.240987 0.154695 0.940505
Si Si3 0.379036 0.624869 0.633712
Si Si4 0.059104 0.339304 0.050260
O O1 0.485940 0.732096 0.460414
O O2 0.348596 0.907754 0.245521
O O3 0.024912 0.881306 0.249066
O O4 0.500000 0.000000 0.500000
O O5 0.125795 0.267054 0.969832
O O6 0.317372 0.012930 0.038085
O O7 0.676460 0.671717 0.758975
O O8 0.182112 0.751245 0.520232
O O9 0.000000 0.500000 0.000000
#
# Coordination Sequence:
#
# PCOD9239777 Si02
#       4
#     4   4   4   4
#     4  10  21  40  62  90 125 160 201 258 310 362
#     4  10  21  40  62  89 121 161 207 248 301 372
#     4  10  20  37  62  92 124 161 202 249 299 368
#     4  10  18  31  56  91 120 150 195 249 295 348
#
# _framework density 26.02383
#
# number of rings (size 3 to 8) (size 9 to 14) (size 15 to 20)
#    0.000    2.000    0.000    7.500    0.000    2.000 
#    0.000   21.250    0.000    0.000    0.000    0.000 
#    0.000    0.000    0.000    0.000    0.000    0.000 
#
# Total GULP energy -89703.404144 kJ/mol
# GULP energy per Si atom -5606.462759 kJ/mol
# Density = 2.596460 g / cm^3
# Si number density = 26.023830 Si / 1000 Ang^3
#
#
#
# Elastic Constant Matrix: (Units=GPa)
#
#
# Indices 1 2 3 4 5 6 
#
# 1 122.9102 25.2109 38.6719 0.0000 30.9883 0.0000
# 2 25.2109 182.3403 53.0578 0.0000 -3.3169 0.0000
# 3 38.6719 53.0578 182.0602 0.0000 12.9168 0.0000
# 4 0.0000 0.0000 0.0000 71.9766 0.0000 8.2087
# 5 30.9883 -3.3169 12.9168 0.0000 50.4728 0.0000
# 6 0.0000 0.0000 0.0000 8.2087 0.0000 36.8336
#
#
#
# Elastic Compliance Matrix: (Units=1/GPa)
#
#
# Indices 1 2 3 4 5 6 
#
# 1 0.010347 -0.001121 -0.001441 0.000000 -0.006057 0.000000
# 2 -0.001121 0.006151 -0.001662 0.000000 0.001518 0.000000
# 3 -0.001441 -0.001662 0.006343 0.000000 -0.000848 0.000000
# 4 0.000000 0.000000 0.000000 0.014256 0.000000 -0.003177
# 5 -0.006057 0.001518 -0.000848 0.000000 0.023848 0.000000
# 6 0.000000 0.000000 0.000000 -0.003177 0.000000 0.027857
#
#
# Mechanical properties :
#
#
# Convention : Reuss Voigt Hill
#
# Bulk Modulus (GPa) = 69.48589 80.13245 74.80917
# Shear Modulus (GPa) = 48.99660 56.54793 52.77227
#
# Velocity S-wave (km/s) = 4.34378 4.66653 4.50804
# Velocity P-wave (km/s) = 7.20533 7.73913 7.47699
#
# Compressibility (1/GPa) = 0.01439141
#
# Stress axis : x y z
#
# Youngs Moduli (GPa) = 96.64948 162.58821 157.64658
#
# Poissons Ratio (x) = 0.18232 0.22720
# Poissons Ratio (y) = 0.10838 0.26200
# Poissons Ratio (z) = 0.13929 0.27021
#
# Static dielectric constant tensor:
#      x y z
#    x 2.186870 0.000000 -0.030770 
#    y 0.000000 1.925000 0.000000 
#    z -0.030770 0.000000 2.053580 
# 
# From -- ./inp_files/56911.got.cif
#   From: 2010.05.17/outbox.cif.g08.bks.cpg/sg14_29_cif.got.tgz:56911.got - 2010.06.03 17:49:19.
