data_PCOD9239644
_publ_section_title
;
Structure prediction by ZEFSAII (Michael W. Deem and Ramdas Pophale) SiO2 
 PCOD9239644
Probable space group: P 21/C
;
_chemical_formula_sum "Si O2"
_cell_formula_units_Z 32
_cell_length_a 10.891576
_cell_length_b 8.474874
_cell_length_c 21.787616
_cell_angle_alpha 90.000000
_cell_angle_beta 60.006496
_cell_angle_gamma 90.000000
_cell_volume 1741.777775
_symmetry_space_group_name_H-M "P 21/C"
_symmetry_group_IT_number 14
_symmetry_cell_setting 'monoclinic'
loop_
_space_group_symop_operation_xyz
x,y,z
-x,1/2+y,1/2-z
-x,-y,-z
x,1/2-y,1/2+z
loop_
_atom_site_type_symbol
_atom_site_label
_atom_site_fract_x
_atom_site_fract_y
_atom_site_fract_z
Si Si1 0.889207 0.683912 0.847199
Si Si2 0.886748 0.076792 0.248545
Si Si3 0.316672 0.668231 0.651231
Si Si4 0.616165 0.923207 0.248545
Si Si5 0.380866 0.168234 0.151230
Si Si6 0.567580 0.251812 0.500000
Si Si7 0.699694 0.580633 0.000000
Si Si8 0.416395 0.316086 0.847199
O O1 0.939449 0.548040 0.786679
O O2 0.743128 0.740124 0.852860
O O3 0.841365 0.620994 0.925967
O O4 0.993160 0.833961 0.820388
O O5 0.813604 0.217785 0.304914
O O6 0.763121 0.999999 0.236881
O O7 0.316151 0.499998 0.683846
O O8 0.345113 0.650320 0.571769
O O9 0.448847 0.759868 0.647141
O O10 0.576567 0.782215 0.304914
O O11 0.633940 0.833961 0.179612
O O12 0.487195 0.048042 0.286679
O O13 0.511348 0.150320 0.071769
O O14 0.429556 0.178249 0.499999
O O15 0.657766 0.101678 0.500000
O O16 0.693297 0.620994 0.074034
#
# Coordination Sequence:
#
# PCOD9239644 Si02
#       8
#     4   4   4   4   4   4   4   4
#     4  10  19  33  51  73 104 139 176 215 270 318
#     4  10  20  33  51  76 106 140 179 220 264 316
#     4  10  18  29  49  78 106 132 167 220 269 320
#     4  10  20  33  51  76 106 140 179 220 264 316
#     4  10  18  29  49  78 106 132 167 220 269 320
#     4   9  15  28  48  76 105 129 166 217 276 318
#     4   9  16  30  51  72 102 140 170 216 270 318
#     4  10  19  33  51  73 104 139 176 215 270 318
#
# _framework density 18.372033999999999
#
# number of rings (size 3 to 8) (size 9 to 14) (size 15 to 20)
#    0.000    2.250    2.500    1.875    0.000    0.000 
#    0.000    0.625    0.000    0.000    0.000   18.375 
#    0.000    0.000    0.000    0.000    0.000    0.000 
#
# Total GULP energy -178170.252174 kJ/mol
# GULP energy per Si atom -5567.820380 kJ/mol
# Density = 1.833022 g / cm^3
# Si number density = 18.372034 Si / 1000 Ang^3
#
#
#
# Elastic Constant Matrix: (Units=GPa)
#
#
# Indices 1 2 3 4 5 6 
#
# 1 22.4226 9.8017 37.4544 0.0000 1.3106 0.0000
# 2 9.8017 81.4576 36.7828 0.0000 1.0997 0.0000
# 3 37.4544 36.7828 105.6012 0.0000 2.0752 0.0000
# 4 0.0000 0.0000 0.0000 673.2931 0.0000 26.2511
# 5 1.3106 1.0997 2.0752 0.0000 8.6156 0.0000
# 6 0.0000 0.0000 0.0000 26.2511 0.0000 31.1328
#
#
#
# Elastic Compliance Matrix: (Units=1/GPa)
#
#
# Indices 1 2 3 4 5 6 
#
# 1 0.111806 0.005327 -0.041359 0.000000 -0.007725 0.000000
# 2 0.005327 0.014825 -0.007033 0.000000 -0.001008 0.000000
# 3 -0.041359 -0.007033 0.026573 0.000000 0.000788 0.000000
# 4 0.000000 0.000000 0.000000 0.001536 0.000000 -0.001295
# 5 -0.007725 -0.001008 0.000788 0.000000 0.117183 0.000000
# 6 0.000000 0.000000 0.000000 -0.001295 0.000000 0.033212
#
#
# Mechanical properties :
#
#
# Convention : Reuss Voigt Hill
#
# Bulk Modulus (GPa) = 14.90903 41.95102 28.43002
# Shear Modulus (GPa) = 12.08829 150.97113 81.52971
#
# Velocity S-wave (km/s) = 2.56788 9.07485 6.66884
# Velocity P-wave (km/s) = 4.11396 11.51901 8.64905
#
# Compressibility (1/GPa) = 0.06707346
#
# Stress axis : x y z
#
# Youngs Moduli (GPa) = 8.94404 67.45412 37.63227
#
# Poissons Ratio (x) = -0.35931 1.55642
# Poissons Ratio (y) = -0.04764 0.26468
# Poissons Ratio (z) = 0.36991 0.47442
#
# Static dielectric constant tensor:
#      x y z
#    x 1.618180 0.000000 0.002930 
#    y 0.000000 1.637850 0.000000 
#    z 0.002930 0.000000 1.690080 
# 
# From -- ./inp_files/55385.got.cif
#   From: 2010.05.17/outbox.cif.g08.bks.cpg/sg14_28_cif.got.tgz:55385.got - 2010.06.03 17:49:19.
