data_PCOD9239216
_publ_section_title
;
Structure prediction by ZEFSAII (Michael W. Deem and Ramdas Pophale) SiO2 
 PCOD9239216
Probable space group: P 21/C
;
_chemical_formula_sum "Si O2"
_cell_formula_units_Z 28
_cell_length_a 25.767792
_cell_length_b 12.644497
_cell_length_c 13.848431
_cell_angle_alpha 90.000000
_cell_angle_beta 22.230854
_cell_angle_gamma 90.000000
_cell_volume 1707.107266
_symmetry_space_group_name_H-M "P 21/C"
_symmetry_group_IT_number 14
_symmetry_cell_setting 'monoclinic'
loop_
_space_group_symop_operation_xyz
x,y,z
-x,1/2+y,1/2-z
-x,-y,-z
x,1/2-y,1/2+z
loop_
_atom_site_type_symbol
_atom_site_label
_atom_site_fract_x
_atom_site_fract_y
_atom_site_fract_z
Si Si1 0.324014 0.776106 0.993358
Si Si2 0.652950 0.539924 0.761871
Si Si3 0.577570 0.842155 0.691896
Si Si4 0.158738 0.978506 0.242537
Si Si5 0.642686 0.445852 0.983780
Si Si6 0.660255 0.632192 0.459265
Si Si7 0.556044 0.725000 0.446995
O O1 0.201579 0.857913 0.191158
O O2 0.438405 0.828483 0.867848
O O3 0.287668 0.661231 0.098629
O O4 0.409053 0.754532 0.748047
O O5 0.755694 0.510342 0.500091
O O6 0.639620 0.665706 0.796807
O O7 0.500000 0.500000 0.000000
O O8 0.692745 0.485916 0.794264
O O9 0.642681 0.955464 0.556674
O O10 0.672811 0.746932 0.487922
O O11 0.546702 0.824229 0.857283
O O12 0.218590 0.053930 0.223415
O O13 0.000000 0.000000 0.500000
O O14 0.481350 0.414537 0.252740
O O15 0.628775 0.650380 0.400832
#
# Coordination Sequence:
#
# PCOD9239216 Si02
#       7
#     4   4   4   4   4   4   4
#     4  10  21  33  51  89 117 139 193 229 286 338
#     4  12  16  34  61  83 103 149 196 221 279 335
#     4  10  16  31  57  90 114 135 179 253 284 316
#     4  12  24  39  56  81 118 151 190 234 276 340
#     4  10  18  32  57  86 114 135 185 249 275 332
#     4  10  19  33  52  86 115 136 189 233 275 332
#     4  10  18  29  60  88 111 144 185 236 290 327
#
# _framework density 16.402014999999999
#
# number of rings (size 3 to 8) (size 9 to 14) (size 15 to 20)
#    0.000    1.714    8.571    0.857    0.000    2.286 
#    0.000    1.429    0.000    0.857    0.000    0.000 
#    0.000    0.000    0.000    0.000    0.000    0.000 
#
# Total GULP energy -156126.049198 kJ/mol
# GULP energy per Si atom -5575.930328 kJ/mol
# Density = 1.636468 g / cm^3
# Si number density = 16.402015 Si / 1000 Ang^3
#
#
#
# Elastic Constant Matrix: (Units=GPa)
#
#
# Indices 1 2 3 4 5 6 
#
# 1 88.0669 34.3547 30.9752 0.0000 19.3588 0.0000
# 2 34.3547 117.9947 27.3886 0.0000 -2.6480 0.0000
# 3 30.9752 27.3886 57.9099 0.0000 -0.8418 0.0000
# 4 0.0000 0.0000 0.0000 13.7205 0.0000 0.5192
# 5 19.3588 -2.6480 -0.8418 0.0000 23.2291 0.0000
# 6 0.0000 0.0000 0.0000 0.5192 0.0000 30.6318
#
#
#
# Elastic Compliance Matrix: (Units=1/GPa)
#
#
# Indices 1 2 3 4 5 6 
#
# 1 0.019946 -0.004115 -0.008976 0.000000 -0.017417 0.000000
# 2 -0.004115 0.010389 -0.002647 0.000000 0.004517 0.000000
# 3 -0.008976 -0.002647 0.023438 0.000000 0.008028 0.000000
# 4 0.000000 0.000000 0.000000 0.072930 0.000000 -0.001236
# 5 -0.017417 0.004517 0.008028 0.000000 0.058370 0.000000
# 6 0.000000 0.000000 0.000000 -0.001236 0.000000 0.032667
#
#
# Mechanical properties :
#
#
# Convention : Reuss Voigt Hill
#
# Bulk Modulus (GPa) = 44.84797 49.93428 47.39112
# Shear Modulus (GPa) = 19.48208 24.93316 22.20762
#
# Velocity S-wave (km/s) = 3.45017 3.90311 3.68361
# Velocity P-wave (km/s) = 6.57829 7.12899 6.85917
#
# Compressibility (1/GPa) = 0.02229755
#
# Stress axis : x y z
#
# Youngs Moduli (GPa) = 50.13624 96.25828 42.66623
#
# Poissons Ratio (x) = 0.39607 0.38296
# Poissons Ratio (y) = 0.20630 0.11293
# Poissons Ratio (z) = 0.45001 0.25478
#
# Static dielectric constant tensor:
#      x y z
#    x 1.575050 0.000000 0.011910 
#    y 0.000000 1.598330 0.000000 
#    z 0.011910 0.000000 1.514860 
# 
# From -- ./inp_files/51984.got.cif
#   From: 2010.05.17/outbox.cif.g08.bks.cpg/sg14_26_cif.got.tgz:51984.got - 2010.06.03 17:49:19.
