data_PCOD9239969
_publ_section_title
;
Structure prediction by ZEFSAII (Michael W. Deem and Ramdas Pophale) SiO2 
 PCOD9239969
Probable space group: P 21/C
;
_chemical_formula_sum "Si O2"
_cell_formula_units_Z 32
_cell_length_a 26.991450
_cell_length_b 7.272379
_cell_length_c 15.112952
_cell_angle_alpha 90.000000
_cell_angle_beta 151.445834
_cell_angle_gamma 90.000000
_cell_volume 1417.980476
_symmetry_space_group_name_H-M "P 21/C"
_symmetry_group_IT_number 14
_symmetry_cell_setting 'monoclinic'
loop_
_space_group_symop_operation_xyz
x,y,z
-x,1/2+y,1/2-z
-x,-y,-z
x,1/2-y,1/2+z
loop_
_atom_site_type_symbol
_atom_site_label
_atom_site_fract_x
_atom_site_fract_y
_atom_site_fract_z
Si Si1 0.213590 0.517347 0.136728
Si Si2 0.652652 0.568513 0.491283
Si Si3 0.261413 0.589037 0.018844
Si Si4 0.224882 0.474081 0.488122
Si Si5 0.987511 0.431314 0.081971
Si Si6 0.417546 0.645841 0.129213
Si Si7 0.731388 0.042062 0.755357
Si Si8 0.104448 0.953548 0.114523
O O1 0.285689 0.413047 0.320523
O O2 0.245034 0.737276 0.193999
O O3 0.235918 0.482231 0.068577
O O4 0.095105 0.474920 0.981028
O O5 0.722109 0.615831 0.514708
O O6 0.540107 0.657661 0.313726
O O7 0.628286 0.350849 0.445919
O O8 0.232749 0.804576 0.986914
O O9 0.188452 0.536409 0.823356
O O10 0.376794 0.569447 0.159687
O O11 0.282765 0.449114 0.672063
O O12 0.103351 0.424762 0.301421
O O13 0.927682 0.242896 0.973261
O O14 0.000000 0.500000 0.000000
O O15 0.363741 0.538503 0.962901
O O16 0.834873 0.958141 0.872290
O O17 0.000000 0.000000 0.000000
#
# Coordination Sequence:
#
# PCOD9239969 Si02
#       8
#     4   4   4   4   4   4   4   4
#     4   9  18  32  55  80 104 138 183 213 258 324
#     4  10  19  35  56  78 102 139 178 224 272 313
#     4   9  18  35  54  74 105 147 175 207 268 326
#     4  10  18  33  59  79 102 140 185 218 253 314
#     4  11  18  34  56  81 106 136 182 221 248 312
#     4   9  19  36  56  74 103 139 180 223 266 317
#     4   8  18  35  52  76 105 143 178 207 263 329
#     4  10  20  34  51  76 112 145 168 206 271 319
#
# _framework density 22.567307
#
# number of rings (size 3 to 8) (size 9 to 14) (size 15 to 20)
#    0.000    2.500    2.500    1.500    1.750    1.000 
#    4.500    0.000    2.750    0.000    0.000    0.000 
#    0.000    0.000    0.000    0.000    0.000    0.000 
#
# Total GULP energy -178434.329644 kJ/mol
# GULP energy per Si atom -5576.072801 kJ/mol
# Density = 2.251594 g / cm^3
# Si number density = 22.567307 Si / 1000 Ang^3
#
#
#
# Elastic Constant Matrix: (Units=GPa)
#
#
# Indices 1 2 3 4 5 6 
#
# 1 134.1359 11.0433 79.8143 0.0000 -7.5882 0.0000
# 2 11.0433 46.8193 10.3838 0.0000 -5.4644 0.0000
# 3 79.8143 10.3838 119.3138 0.0000 8.7158 0.0000
# 4 0.0000 0.0000 0.0000 20.2811 0.0000 11.1734
# 5 -7.5882 -5.4644 8.7158 0.0000 34.1530 0.0000
# 6 0.0000 0.0000 0.0000 11.1734 0.0000 9.7544
#
#
#
# Elastic Compliance Matrix: (Units=1/GPa)
#
#
# Indices 1 2 3 4 5 6 
#
# 1 0.013278 -0.000476 -0.009222 0.000000 0.005227 0.000000
# 2 -0.000476 0.022358 -0.001917 0.000000 0.003961 0.000000
# 3 -0.009222 -0.001917 0.015172 0.000000 -0.006228 0.000000
# 4 0.000000 0.000000 0.000000 0.133650 0.000000 -0.153092
# 5 0.005227 0.003961 -0.006228 0.000000 0.032664 0.000000
# 6 0.000000 0.000000 0.000000 -0.153092 0.000000 0.277881
#
#
# Mechanical properties :
#
#
# Convention : Reuss Voigt Hill
#
# Bulk Modulus (GPa) = 36.26106 55.86129 46.06117
# Shear Modulus (GPa) = 9.48000 26.10619 17.79309
#
# Velocity S-wave (km/s) = 2.05180 3.40489 2.81097
# Velocity P-wave (km/s) = 4.66005 6.34544 5.56689
#
# Compressibility (1/GPa) = 0.02757780
#
# Stress axis : x y z
#
# Youngs Moduli (GPa) = 75.31469 44.72595 65.90981
#
# Poissons Ratio (x) = 0.02130 0.60785
# Poissons Ratio (y) = 0.03587 0.12632
# Poissons Ratio (z) = 0.69458 0.08572
#
# Static dielectric constant tensor:
#      x y z
#    x 1.869340 0.000000 0.000180 
#    y 0.000000 1.997480 0.000000 
#    z 0.000180 0.000000 1.767810 
# 
# From -- ./inp_files/51849.got.cif
#   From: 2010.05.17/outbox.cif.g08.bks.cpg/sg14_26_cif.got.tgz:51849.got - 2010.06.03 17:49:19.
