data_PCOD9239700
_publ_section_title
;
Structure prediction by ZEFSAII (Michael W. Deem and Ramdas Pophale) SiO2 
 PCOD9239700
Probable space group: P 21/C
;
_chemical_formula_sum "Si O2"
_cell_formula_units_Z 24
_cell_length_a 7.643421
_cell_length_b 8.685556
_cell_length_c 22.540661
_cell_angle_alpha 90.000000
_cell_angle_beta 144.641569
_cell_angle_gamma 90.000000
_cell_volume 865.959846
_symmetry_space_group_name_H-M "P 21/C"
_symmetry_group_IT_number 14
_symmetry_cell_setting 'monoclinic'
loop_
_space_group_symop_operation_xyz
x,y,z
-x,1/2+y,1/2-z
-x,-y,-z
x,1/2-y,1/2+z
loop_
_atom_site_type_symbol
_atom_site_label
_atom_site_fract_x
_atom_site_fract_y
_atom_site_fract_z
Si Si1 0.861888 0.263085 0.467903
Si Si2 0.909403 0.991840 0.071458
Si Si3 0.674674 0.820594 0.545336
Si Si4 0.816998 0.004357 0.379150
Si Si5 0.824475 0.470531 0.748825
Si Si6 0.906290 0.277038 0.668090
O O1 0.921807 0.382588 0.430121
O O2 0.679546 0.121697 0.388836
O O3 0.748857 0.380873 0.486131
O O4 0.125301 0.164334 0.577181
O O5 0.733708 0.860305 0.057401
O O6 0.044374 0.095012 0.162464
O O7 0.856932 0.910787 0.543314
O O8 0.848237 0.888443 0.649463
O O9 0.322014 0.826866 0.435216
O O10 0.679064 0.020318 0.274763
O O11 0.874895 0.646596 0.746460
O O12 0.709372 0.361235 0.664800
#
# Coordination Sequence:
#
# PCOD9239700 Si02
#       6
#     4   4   4   4   4   4
#     4   9  16  31  56  80 109 141 195 224 263 355
#     4  10  18  30  55  87 105 147 184 228 285 326
#     4   9  20  36  56  85 113 143 191 229 295 328
#     4   8  17  35  54  83 105 151 189 225 287 327
#     4  10  22  35  54  86 111 155 180 233 295 329
#     4  12  21  36  56  85 122 140 193 235 286 348
#
# _framework density 27.714908000000001
#
# number of rings (size 3 to 8) (size 9 to 14) (size 15 to 20)
#    1.000    1.333    1.667    2.000    0.000    0.000 
#    0.000    0.000    0.000    6.000    4.333    0.000 
#    0.000    0.000    0.000    0.000    0.000    0.000 
#
# Total GULP energy -133640.163941 kJ/mol
# GULP energy per Si atom -5568.340164 kJ/mol
# Density = 2.765183 g / cm^3
# Si number density = 27.714908 Si / 1000 Ang^3
#
#
#
# Elastic Constant Matrix: (Units=GPa)
#
#
# Indices 1 2 3 4 5 6 
#
# 1 71.1462 43.4381 34.2817 0.0000 -27.6204 0.0000
# 2 43.4381 192.6180 63.9605 0.0000 -3.5536 0.0000
# 3 34.2817 63.9605 93.6972 0.0000 -15.9151 0.0000
# 4 0.0000 0.0000 0.0000 60.3810 0.0000 -27.1758
# 5 -27.6204 -3.5536 -15.9151 0.0000 39.6429 0.0000
# 6 0.0000 0.0000 0.0000 -27.1758 0.0000 51.6400
#
#
#
# Elastic Compliance Matrix: (Units=1/GPa)
#
#
# Indices 1 2 3 4 5 6 
#
# 1 0.023969 -0.003957 -0.003533 0.000000 0.014926 0.000000
# 2 -0.003957 0.007432 -0.004272 0.000000 -0.003806 0.000000
# 3 -0.003533 -0.004272 0.015452 0.000000 0.003359 0.000000
# 4 0.000000 0.000000 0.000000 0.021702 0.000000 0.011421
# 5 0.014926 -0.003806 0.003359 0.000000 0.036632 0.000000
# 6 0.000000 0.000000 0.000000 0.011421 0.000000 0.025375
#
#
# Mechanical properties :
#
#
# Convention : Reuss Voigt Hill
#
# Bulk Modulus (GPa) = 42.86546 71.20244 57.03395
# Shear Modulus (GPa) = 30.89038 44.71818 37.80428
#
# Velocity S-wave (km/s) = 3.34215 4.02121 3.69730
# Velocity P-wave (km/s) = 5.51302 6.87800 6.23299
#
# Compressibility (1/GPa) = 0.02332880
#
# Stress axis : x y z
#
# Youngs Moduli (GPa) = 41.72137 134.54698 64.71506
#
# Poissons Ratio (x) = 0.53235 0.22866
# Poissons Ratio (y) = 0.16508 0.27648
# Poissons Ratio (z) = 0.14741 0.57483
#
# Static dielectric constant tensor:
#      x y z
#    x 2.259690 0.000000 0.056820 
#    y 0.000000 2.077520 0.000000 
#    z 0.056820 0.000000 2.288550 
# 
# From -- ./inp_files/72936.got.cif
#   From: 2010.05.17/outbox.cif.g08.bks.cpg/sg14_37_cif.got.tgz:72936.got - 2010.06.03 17:49:19.
