data_PCOD9239018
_publ_section_title
;
Structure prediction by ZEFSAII (Michael W. Deem and Ramdas Pophale) SiO2 
 PCOD9239018
Probable space group: P 2/C
;
_chemical_formula_sum "Si O2"
_cell_formula_units_Z 20
_cell_length_a 12.000000
_cell_length_b 12.000000
_cell_length_c 9.000000
_cell_angle_alpha 90.000000
_cell_angle_beta 130.000000
_cell_angle_gamma 90.000000
_cell_volume 992.793598
_symmetry_space_group_name_H-M "P 2/C"
_symmetry_group_IT_number 13
_symmetry_cell_setting 'monoclinic'
loop_
_space_group_symop_operation_xyz
x,y,z
-x,y,1/2-z
-x,-y,-z
x,-y,1/2+z
loop_
_atom_site_type_symbol
_atom_site_label
_atom_site_fract_x
_atom_site_fract_y
_atom_site_fract_z
Si Si1 0.689028 0.390026 0.070739
Si Si2 0.664655 0.388275 0.710750
Si Si3 0.833804 0.974591 0.053557
Si Si4 0.275842 0.857468 0.837247
Si Si5 0.415783 0.174843 0.024412
O O1 0.730948 0.504912 0.185057
O O2 0.742979 0.276169 0.193278
O O3 0.726065 0.383260 0.929054
O O4 0.512142 0.395549 0.926634
O O5 0.672313 0.276624 0.621810
O O6 0.000000 0.955680 0.250000
O O7 0.788020 0.100870 0.059410
O O8 0.805388 0.927508 0.862933
O O9 0.707431 0.912757 0.039143
O O10 0.452121 0.868564 0.967573
O O11 0.500000 0.207261 0.250000
#
# Coordination Sequence:
#
# PCOD9239018 Si02
#       5
#     4   4   4   4   4
#     4   9  19  32  55  87 117 147 188 237 289 344
#     4   9  18  31  56  85 120 144 186 239 295 334
#     4  11  23  39  60  82 118 158 196 237 288 342
#     4  10  22  39  58  88 117 152 196 237 288 342
#     4   9  20  36  60  87 117 153 193 241 285 339
#
# _framework density 20.145174000000001
#
# number of rings (size 3 to 8) (size 9 to 14) (size 15 to 20)
#    0.000    2.400    0.000    1.200   14.000    0.000 
#    7.200    0.000    0.000    2.400    0.000    0.000 
#    0.000    0.000    0.000    0.000    0.000    0.000 
#
# Total GULP energy -111460.607632 kJ/mol
# GULP energy per Si atom -5573.030382 kJ/mol
# Density = 2.009932 g / cm^3
# Si number density = 20.145174 Si / 1000 Ang^3
#
#
#
# Elastic Constant Matrix: (Units=GPa)
#
#
# Indices 1 2 3 4 5 6 
#
# 1 31.7808 20.2721 29.4347 0.0000 -0.9536 0.0000
# 2 20.2721 113.5229 43.4786 0.0000 -15.5661 0.0000
# 3 29.4347 43.4786 66.7597 0.0000 -11.4001 0.0000
# 4 0.0000 0.0000 0.0000 24.8575 0.0000 -12.3297
# 5 -0.9536 -15.5661 -11.4001 0.0000 21.0087 0.0000
# 6 0.0000 0.0000 0.0000 -12.3297 0.0000 17.8719
#
#
#
# Elastic Compliance Matrix: (Units=1/GPa)
#
#
# Indices 1 2 3 4 5 6 
#
# 1 0.056073 -0.001950 -0.025641 0.000000 -0.012813 0.000000
# 2 -0.001950 0.012303 -0.006185 0.000000 0.005671 0.000000
# 3 -0.025641 -0.006185 0.032326 0.000000 0.011795 0.000000
# 4 0.000000 0.000000 0.000000 0.061157 0.000000 0.042192
# 5 -0.012813 0.005671 0.011795 0.000000 0.057620 0.000000
# 6 0.000000 0.000000 0.000000 0.042192 0.000000 0.085062
#
#
# Mechanical properties :
#
#
# Convention : Reuss Voigt Hill
#
# Bulk Modulus (GPa) = 30.16426 44.27046 37.21736
# Shear Modulus (GPa) = 13.04995 20.67282 16.86139
#
# Velocity S-wave (km/s) = 2.54794 3.20690 2.89622
# Velocity P-wave (km/s) = 4.86436 5.97793 5.44966
#
# Compressibility (1/GPa) = 0.03315182
#
# Stress axis : x y z
#
# Youngs Moduli (GPa) = 17.83394 81.27897 30.93437
#
# Poissons Ratio (x) = 0.15846 0.79319
# Poissons Ratio (y) = 0.03477 0.19132
# Poissons Ratio (z) = 0.45728 0.50269
#
# Static dielectric constant tensor:
#      x y z
#    x 1.730730 0.000000 -0.050220 
#    y 0.000000 1.764160 0.000000 
#    z -0.050220 0.000000 1.712530 
# 
# From -- ./inp_files/15640.got.cif
#   From: 2010.05.17/outbox.ucp.g08.bks.cvg/sg13_8_cif.got.tgz:15640.got - 2010.06.11 12:23:55.
