data_PCOD9239099
_publ_section_title
;
Structure prediction by ZEFSAII (Michael W. Deem and Ramdas Pophale) SiO2 
 PCOD9239099
Probable space group: P 21/C
;
_chemical_formula_sum "Si O2"
_cell_formula_units_Z 32
_cell_length_a 13.595706
_cell_length_b 22.093654
_cell_length_c 7.265714
_cell_angle_alpha 90.000000
_cell_angle_beta 142.639036
_cell_angle_gamma 90.000000
_cell_volume 1324.395955
_symmetry_space_group_name_H-M "P 21/C"
_symmetry_group_IT_number 14
_symmetry_cell_setting 'monoclinic'
loop_
_space_group_symop_operation_xyz
x,y,z
-x,1/2+y,1/2-z
-x,-y,-z
x,1/2-y,1/2+z
loop_
_atom_site_type_symbol
_atom_site_label
_atom_site_fract_x
_atom_site_fract_y
_atom_site_fract_z
Si Si1 0.918840 0.523735 0.066455
Si Si2 0.247350 0.158046 0.219226
Si Si3 0.087317 0.892146 0.323065
Si Si4 0.074580 0.639460 0.243728
Si Si5 0.423138 0.859641 0.772637
Si Si6 0.421720 0.025686 0.070384
Si Si7 0.413058 0.895988 0.187735
Si Si8 0.246610 0.207373 0.807776
O O1 0.883744 0.464818 0.136949
O O2 0.029301 0.579046 0.290164
O O3 0.749588 0.552155 0.750005
O O4 0.000000 0.500000 0.000000
O O5 0.408230 0.120059 0.483943
O O6 0.250344 0.220590 0.333090
O O7 0.238590 0.178783 0.996397
O O8 0.086339 0.121148 0.019995
O O9 0.074232 0.875971 0.522652
O O10 0.231000 0.850714 0.452535
O O11 0.269271 0.644857 0.561963
O O12 0.924222 0.686316 0.043472
O O13 0.471610 0.917009 0.716833
O O14 0.415158 0.880752 0.973024
O O15 0.572822 0.812996 0.991033
O O16 0.389598 0.969086 0.156592
O O17 0.500000 0.000000 0.000000
#
# Coordination Sequence:
#
# PCOD9239099 Si02
#       8
#     4   4   4   4   4   4   4   4
#     4  10  14  29  57  91 115 152 192 229 282 356
#     4  11  25  42  58  83 119 155 201 244 302 336
#     4   9  19  35  56  86 122 154 190 243 287 351
#     4   9  18  33  62  87 114 153 201 234 291 350
#     4  10  19  36  65  89 116 156 198 235 293 352
#     4  10  16  29  59  92 118 151 195 227 287 357
#     4  10  20  37  58  91 121 154 192 245 285 353
#     4  11  23  41  62  84 111 157 199 250 287 358
#
# _framework density 24.161957999999998
#
# number of rings (size 3 to 8) (size 9 to 14) (size 15 to 20)
#    0.000    2.000    6.250    0.750    0.000    1.000 
#    0.000    8.125    0.000    0.000    0.000    0.000 
#    0.000    0.000    0.000    0.000    0.000    0.000 
#
# Total GULP energy -178456.608545 kJ/mol
# GULP energy per Si atom -5576.769017 kJ/mol
# Density = 2.410696 g / cm^3
# Si number density = 24.161958 Si / 1000 Ang^3
#
#
#
# Elastic Constant Matrix: (Units=GPa)
#
#
# Indices 1 2 3 4 5 6 
#
# 1 87.2846 7.7523 27.8939 0.0000 21.9138 0.0000
# 2 7.7523 45.9698 25.8847 0.0000 11.3955 0.0000
# 3 27.8939 25.8847 149.6882 0.0000 52.5614 0.0000
# 4 0.0000 0.0000 0.0000 24.6859 0.0000 2.3949
# 5 21.9138 11.3955 52.5614 0.0000 43.4518 0.0000
# 6 0.0000 0.0000 0.0000 2.3949 0.0000 17.3927
#
#
#
# Elastic Compliance Matrix: (Units=1/GPa)
#
#
# Indices 1 2 3 4 5 6 
#
# 1 0.013135 -0.000576 -0.000130 0.000000 -0.006316 0.000000
# 2 -0.000576 0.024250 -0.003398 0.000000 -0.001958 0.000000
# 3 -0.000130 -0.003398 0.012093 0.000000 -0.013671 0.000000
# 4 0.000000 0.000000 0.000000 0.041057 0.000000 -0.005653
# 5 -0.006316 -0.001958 -0.013671 0.000000 0.043250 0.000000
# 6 0.000000 0.000000 0.000000 -0.005653 0.000000 0.058274
#
#
# Mechanical properties :
#
#
# Convention : Reuss Voigt Hill
#
# Bulk Modulus (GPa) = 24.23185 45.11158 34.67171
# Shear Modulus (GPa) = 23.36174 31.86685 27.61430
#
# Velocity S-wave (km/s) = 3.11284 3.63559 3.38432
# Velocity P-wave (km/s) = 4.79275 6.02780 5.44540
#
# Compressibility (1/GPa) = 0.04126800
#
# Stress axis : x y z
#
# Youngs Moduli (GPa) = 76.13127 41.23784 82.69202
#
# Poissons Ratio (x) = 0.02376 0.01079
# Poissons Ratio (y) = 0.04386 0.28102
# Poissons Ratio (z) = 0.00993 0.14014
#
# Static dielectric constant tensor:
#      x y z
#    x 2.008200 0.000000 0.054040 
#    y 0.000000 1.614290 0.000000 
#    z 0.054040 0.000000 2.155510 
# 
# From -- ./inp_files/17053.got.cif
#   From: 2010.05.17/outbox.cif.g08.bks.cpg/sg14_9_cif.got.tgz:17053.got - 2010.06.03 17:49:19.
