data_PCOD9239183
_publ_section_title
;
Structure prediction by ZEFSAII (Michael W. Deem and Ramdas Pophale) SiO2 
 PCOD9239183
Probable space group: P 21/C
;
_chemical_formula_sum "Si O2"
_cell_formula_units_Z 32
_cell_length_a 5.425758
_cell_length_b 17.719127
_cell_length_c 20.579108
_cell_angle_alpha 90.000000
_cell_angle_beta 120.715120
_cell_angle_gamma 90.000000
_cell_volume 1700.924592
_symmetry_space_group_name_H-M "P 21/C"
_symmetry_group_IT_number 14
_symmetry_cell_setting 'monoclinic'
loop_
_space_group_symop_operation_xyz
x,y,z
-x,1/2+y,1/2-z
-x,-y,-z
x,1/2-y,1/2+z
loop_
_atom_site_type_symbol
_atom_site_label
_atom_site_fract_x
_atom_site_fract_y
_atom_site_fract_z
Si Si1 0.191088 0.795980 0.097525
Si Si2 0.265264 0.964419 0.896584
Si Si3 0.750176 0.739654 0.127977
Si Si4 0.488837 0.372390 0.238612
Si Si5 0.895678 0.602777 0.464127
Si Si6 0.668416 0.772616 0.841065
Si Si7 0.902881 0.597359 0.705416
Si Si8 0.035431 0.840930 0.772370
O O1 0.916476 0.748536 0.083070
O O2 0.410625 0.751139 0.081438
O O3 0.365872 0.818530 0.186154
O O4 0.089412 0.873384 0.050693
O O5 0.595179 0.936537 0.942950
O O6 0.080751 0.942897 0.935504
O O7 0.117403 0.920051 0.816220
O O8 0.241695 0.050811 0.872299
O O9 0.858856 0.814113 0.182856
O O10 0.851597 0.667357 0.182242
O O11 0.350170 0.317446 0.166777
O O12 0.257454 0.418300 0.248760
O O13 0.758888 0.417815 0.247953
O O14 0.814820 0.683246 0.420085
O O15 0.848215 0.799163 0.802411
O O16 0.340406 0.801701 0.798360
#
# Coordination Sequence:
#
# PCOD9239183 Si02
#       8
#     4   4   4   4   4   4   4   4
#     4  10  18  30  46  68  88 122 157 192 210 265
#     4  10  21  32  45  65 101 123 148 187 232 270
#     4  10  17  30  48  64  88 118 161 190 218 258
#     4  10  17  30  48  64  88 118 161 190 218 258
#     4  10  21  32  45  65 101 123 148 187 232 270
#     4  10  16  30  48  67  83 121 147 193 234 259
#     4  10  18  30  46  68  88 122 157 192 210 265
#     4  10  16  30  48  67  83 121 147 193 234 259
#
# _framework density 18.813298
#
# number of rings (size 3 to 8) (size 9 to 14) (size 15 to 20)
#    0.000    2.000    5.000    1.500    0.000    0.000 
#    0.000   15.000    0.000    0.000    0.000    0.000 
#    0.000    6.000    0.000    0.000    0.000    0.000 
#
# Total GULP energy -178326.452535 kJ/mol
# GULP energy per Si atom -5572.701642 kJ/mol
# Density = 1.877048 g / cm^3
# Si number density = 18.813298 Si / 1000 Ang^3
#
#
#
# Elastic Constant Matrix: (Units=GPa)
#
#
# Indices 1 2 3 4 5 6 
#
# 1 182.3679 10.2893 9.4264 0.0000 4.4059 0.0000
# 2 10.2893 29.5257 26.9986 0.0000 8.3728 0.0000
# 3 9.4264 26.9986 28.5757 0.0000 7.9653 0.0000
# 4 0.0000 0.0000 0.0000 37.0553 0.0000 8.0120
# 5 4.4059 8.3728 7.9653 0.0000 10.5908 0.0000
# 6 0.0000 0.0000 0.0000 8.0120 0.0000 10.0264
#
#
#
# Elastic Compliance Matrix: (Units=1/GPa)
#
#
# Indices 1 2 3 4 5 6 
#
# 1 0.005602 -0.001714 0.000055 0.000000 -0.001017 0.000000
# 2 -0.001714 0.254879 -0.233158 0.000000 -0.025429 0.000000
# 3 0.000055 -0.233158 0.257975 0.000000 -0.009717 0.000000
# 4 0.000000 0.000000 0.000000 0.032623 0.000000 -0.026069
# 5 -0.001017 -0.025429 -0.009717 0.000000 0.122256 0.000000
# 6 0.000000 0.000000 0.000000 -0.026069 0.000000 0.120568
#
#
# Mechanical properties :
#
#
# Convention : Reuss Voigt Hill
#
# Bulk Modulus (GPa) = 20.48291 37.09976 28.79134
# Shear Modulus (GPa) = 3.90682 24.45151 14.17916
#
# Velocity S-wave (km/s) = 1.44261 3.60904 2.74830
# Velocity P-wave (km/s) = 3.69945 6.09341 5.04061
#
# Compressibility (1/GPa) = 0.04882118
#
# Stress axis : x y z
#
# Youngs Moduli (GPa) = 178.51236 3.92343 3.87634
#
# Poissons Ratio (x) = 0.00673 -0.00021
# Poissons Ratio (y) = 0.30606 0.90380
# Poissons Ratio (z) = -0.00988 0.91478
#
# Static dielectric constant tensor:
#      x y z
#    x 1.746210 0.000000 0.000280 
#    y 0.000000 1.654870 0.000000 
#    z 0.000280 0.000000 1.656410 
# 
# From -- ./inp_files/53627.got.cif
#   From: 2010.05.17/outbox.cif.g08.bks.cpg/sg14_27_cif.got.tgz:53627.got - 2010.06.03 17:49:19.
