data_PCOD9239943
_publ_section_title
;
Structure prediction by ZEFSAII (Michael W. Deem and Ramdas Pophale) SiO2 
 PCOD9239943
Probable space group: P 21/C
;
_chemical_formula_sum "Si O2"
_cell_formula_units_Z 28
_cell_length_a 14.951322
_cell_length_b 13.801357
_cell_length_c 13.452862
_cell_angle_alpha 90.000000
_cell_angle_beta 30.311169
_cell_angle_gamma 90.000000
_cell_volume 1401.024941
_symmetry_space_group_name_H-M "P 21/C"
_symmetry_group_IT_number 14
_symmetry_cell_setting 'monoclinic'
loop_
_space_group_symop_operation_xyz
x,y,z
-x,1/2+y,1/2-z
-x,-y,-z
x,1/2-y,1/2+z
loop_
_atom_site_type_symbol
_atom_site_label
_atom_site_fract_x
_atom_site_fract_y
_atom_site_fract_z
Si Si1 0.851101 0.633364 0.119697
Si Si2 0.352406 0.639359 0.480955
Si Si3 0.243670 0.912196 0.302472
Si Si4 0.966942 0.880710 0.289614
Si Si5 0.383716 0.460788 0.917120
Si Si6 0.279611 0.230508 0.597155
Si Si7 0.455892 0.659693 0.791573
O O1 0.759944 0.528353 0.206428
O O2 0.736800 0.713722 0.284673
O O3 0.903011 0.659490 0.957591
O O4 0.037715 0.619107 0.997729
O O5 0.335054 0.628174 0.615115
O O6 0.515197 0.583084 0.275397
O O7 0.369926 0.750468 0.431233
O O8 0.171628 0.597077 0.605644
O O9 0.339438 0.874878 0.308796
O O10 0.828288 0.967550 0.400476
O O11 0.913112 0.803875 0.257227
O O12 0.390251 0.370915 0.988704
O O13 0.466156 0.565865 0.852638
O O14 0.366006 0.300328 0.431299
#
# Coordination Sequence:
#
# PCOD9239943 Si02
#       7
#     4   4   4   4   4   4   4
#     4  10  18  33  56  81 108 138 185 227 271 319
#     4  10  21  35  55  80 114 141 180 226 272 320
#     4  10  20  31  55  86 104 141 183 226 273 321
#     4   9  19  37  51  80 111 141 176 231 264 324
#     4   9  20  36  51  82 108 143 180 217 271 324
#     4   9  20  31  54  79 106 148 169 226 275 311
#     4  11  20  35  56  81 115 142 179 231 267 323
#
# _framework density 19.985368999999999
#
# number of rings (size 3 to 8) (size 9 to 14) (size 15 to 20)
#    0.857    1.429    1.429    1.714    2.000    1.143 
#    2.571    0.000    0.000   12.857    0.000    0.000 
#    0.000    0.000    0.000    0.000    0.000    0.000 
#
# Total GULP energy -155992.334528 kJ/mol
# GULP energy per Si atom -5571.154805 kJ/mol
# Density = 1.993988 g / cm^3
# Si number density = 19.985369 Si / 1000 Ang^3
#
#
#
# Elastic Constant Matrix: (Units=GPa)
#
#
# Indices 1 2 3 4 5 6 
#
# 1 34.2705 1.1464 1.2330 0.0000 -6.5454 0.0000
# 2 1.1464 72.0290 9.3459 0.0000 5.2494 0.0000
# 3 1.2330 9.3459 48.4765 0.0000 -3.4896 0.0000
# 4 0.0000 0.0000 0.0000 22.2759 0.0000 5.1184
# 5 -6.5454 5.2494 -3.4896 0.0000 30.9343 0.0000
# 6 0.0000 0.0000 0.0000 5.1184 0.0000 23.4242
#
#
#
# Elastic Compliance Matrix: (Units=1/GPa)
#
#
# Indices 1 2 3 4 5 6 
#
# 1 0.030475 -0.000951 -0.000117 0.000000 0.006596 0.000000
# 2 -0.000951 0.014505 -0.002988 0.000000 -0.003000 0.000000
# 3 -0.000117 -0.002988 0.021416 0.000000 0.002898 0.000000
# 4 0.000000 0.000000 0.000000 0.047265 0.000000 -0.010328
# 5 0.006596 -0.003000 0.002898 0.000000 0.034558 0.000000
# 6 0.000000 0.000000 0.000000 -0.010328 0.000000 0.044948
#
#
# Mechanical properties :
#
#
# Convention : Reuss Voigt Hill
#
# Bulk Modulus (GPa) = 17.15713 19.80298 18.48005
# Shear Modulus (GPa) = 22.65450 24.86361 23.75906
#
# Velocity S-wave (km/s) = 3.37048 3.53099 3.45167
# Velocity P-wave (km/s) = 4.87343 5.15307 5.01520
#
# Compressibility (1/GPa) = 0.05828482
#
# Stress axis : x y z
#
# Youngs Moduli (GPa) = 32.81331 68.94295 46.69357
#
# Poissons Ratio (x) = 0.06554 0.00547
# Poissons Ratio (y) = 0.03119 0.13953
# Poissons Ratio (z) = 0.00384 0.20601
#
# Static dielectric constant tensor:
#      x y z
#    x 1.729180 0.000000 -0.032130 
#    y 0.000000 1.717420 0.000000 
#    z -0.032130 0.000000 1.702480 
# 
# From -- ./inp_files/49087.got.cif
#   From: 2010.05.17/outbox.cif.g08.bks.cpg/sg14_25_cif.got.tgz:49087.got - 2010.06.03 17:49:19.
