data_PCOD9239864
_publ_section_title
;
Structure prediction by ZEFSAII (Michael W. Deem and Ramdas Pophale) SiO2 
 PCOD9239864
Probable space group: P 21/C
;
_chemical_formula_sum "Si O2"
_cell_formula_units_Z 24
_cell_length_a 20.686695
_cell_length_b 7.924873
_cell_length_c 13.785044
_cell_angle_alpha 90.000000
_cell_angle_beta 156.328656
_cell_angle_gamma 90.000000
_cell_volume 907.331645
_symmetry_space_group_name_H-M "P 21/C"
_symmetry_group_IT_number 14
_symmetry_cell_setting 'monoclinic'
loop_
_space_group_symop_operation_xyz
x,y,z
-x,1/2+y,1/2-z
-x,-y,-z
x,1/2-y,1/2+z
loop_
_atom_site_type_symbol
_atom_site_label
_atom_site_fract_x
_atom_site_fract_y
_atom_site_fract_z
Si Si1 0.925825 0.435067 0.738103
Si Si2 0.747688 0.643533 0.866717
Si Si3 0.581915 0.371001 0.266753
Si Si4 0.245241 0.030143 0.253773
Si Si5 0.013910 0.261533 0.559012
Si Si6 0.542369 0.010825 0.922128
O O1 0.755789 0.387012 0.458641
O O2 0.963231 0.318021 0.884474
O O3 0.073179 0.417918 0.865875
O O4 0.927730 0.620232 0.786693
O O5 0.764886 0.828939 0.844491
O O6 0.605947 0.627462 0.748977
O O7 0.681185 0.514103 0.692366
O O8 0.524306 0.179104 0.180420
O O9 0.610867 0.421727 0.417172
O O10 0.436484 0.489112 0.030568
O O11 0.136507 0.864584 0.105146
O O12 0.166798 0.122691 0.240842
#
# Coordination Sequence:
#
# PCOD9239864 Si02
#       6
#     4   4   4   4   4   4
#     4  10  18  32  56  85 118 157 200 252 310 358
#     4   9  20  39  59  83 121 165 202 245 309 373
#     4  11  20  34  59  90 120 156 207 261 305 354
#     4   9  18  33  56  87 119 158 208 252 295 361
#     4   9  17  31  54  83 117 160 205 243 298 377
#     4  10  21  38  60  86 121 162 206 255 307 366
#
# _framework density 26.451187000000001
#
# number of rings (size 3 to 8) (size 9 to 14) (size 15 to 20)
#    0.000    2.333    0.000    5.000    0.000    0.000 
#    0.000    5.000    0.000   11.000    0.000    0.000 
#    0.000    0.000    0.000    0.000    0.000    3.000 
#
# Total GULP energy -134577.945512 kJ/mol
# GULP energy per Si atom -5607.414396 kJ/mol
# Density = 2.639098 g / cm^3
# Si number density = 26.451187 Si / 1000 Ang^3
#
#
#
# Elastic Constant Matrix: (Units=GPa)
#
#
# Indices 1 2 3 4 5 6 
#
# 1 69.6660 25.9975 18.5217 0.0000 19.8805 0.0000
# 2 25.9975 95.9447 35.1212 0.0000 17.4107 0.0000
# 3 18.5217 35.1212 173.7159 0.0000 34.7557 0.0000
# 4 0.0000 0.0000 0.0000 35.1578 0.0000 16.3496
# 5 19.8805 17.4107 34.7557 0.0000 41.5085 0.0000
# 6 0.0000 0.0000 0.0000 16.3496 0.0000 40.6300
#
#
#
# Elastic Compliance Matrix: (Units=1/GPa)
#
#
# Indices 1 2 3 4 5 6 
#
# 1 0.017671 -0.003585 0.000280 0.000000 -0.007194 0.000000
# 2 -0.003585 0.012393 -0.001714 0.000000 -0.002046 0.000000
# 3 0.000280 -0.001714 0.007155 0.000000 -0.005406 0.000000
# 4 0.000000 0.000000 0.000000 0.034991 0.000000 -0.014080
# 5 -0.007194 -0.002046 -0.005406 0.000000 0.032922 0.000000
# 6 0.000000 0.000000 0.000000 -0.014080 0.000000 0.030278
#
#
# Mechanical properties :
#
#
# Convention : Reuss Voigt Hill
#
# Bulk Modulus (GPa) = 36.79147 55.40083 46.09615
# Shear Modulus (GPa) = 32.36090 40.77167 36.56628
#
# Velocity S-wave (km/s) = 3.50154 3.93032 3.72211
# Velocity P-wave (km/s) = 5.50337 6.44876 5.99473
#
# Compressibility (1/GPa) = 0.02718022
#
# Stress axis : x y z
#
# Youngs Moduli (GPa) = 56.59122 80.69213 139.76665
#
# Poissons Ratio (x) = 0.28929 -0.03915
# Poissons Ratio (y) = 0.20289 0.23955
# Poissons Ratio (z) = -0.01585 0.13830
#
# Static dielectric constant tensor:
#      x y z
#    x 2.061120 0.000000 -0.040020 
#    y 0.000000 2.042330 0.000000 
#    z -0.040020 0.000000 2.073280 
# 
# From -- ./inp_files/61805.got.cif
#   From: 2010.05.17/outbox.cif.g08.bks.cpg/sg14_31_cif.got.tgz:61805.got - 2010.06.03 17:49:19.
