data_PCOD9239251
_publ_section_title
;
Structure prediction by ZEFSAII (Michael W. Deem and Ramdas Pophale) SiO2 
 PCOD9239251
Probable space group: P 21/C
;
_chemical_formula_sum "Si O2"
_cell_formula_units_Z 32
_cell_length_a 8.392309
_cell_length_b 16.400799
_cell_length_c 15.215063
_cell_angle_alpha 90.000000
_cell_angle_beta 40.762525
_cell_angle_gamma 90.000000
_cell_volume 1367.362775
_symmetry_space_group_name_H-M "P 21/C"
_symmetry_group_IT_number 14
_symmetry_cell_setting 'monoclinic'
loop_
_space_group_symop_operation_xyz
x,y,z
-x,1/2+y,1/2-z
-x,-y,-z
x,1/2-y,1/2+z
loop_
_atom_site_type_symbol
_atom_site_label
_atom_site_fract_x
_atom_site_fract_y
_atom_site_fract_z
Si Si1 0.843064 0.483343 0.201262
Si Si2 0.070408 0.145359 0.510640
Si Si3 0.622359 0.084755 0.263402
Si Si4 0.671869 0.369577 0.544939
Si Si5 0.182108 0.181956 0.284548
Si Si6 0.382753 0.412719 0.486608
Si Si7 0.986179 0.785642 0.837268
Si Si8 0.050840 0.458157 0.297786
O O1 0.841967 0.581599 0.201015
O O2 0.582400 0.447779 0.339065
O O3 0.030814 0.457206 0.200872
O O4 0.904073 0.434338 0.088004
O O5 0.346609 0.111659 0.396496
O O6 0.058654 0.201958 0.428829
O O7 0.991942 0.199715 0.626001
O O8 0.681787 0.084285 0.134417
O O9 0.789228 0.155858 0.234858
O O10 0.700891 0.998041 0.271595
O O11 0.473793 0.299236 0.655458
O O12 0.520515 0.401703 0.522261
O O13 0.945943 0.377941 0.390661
O O14 0.054280 0.213152 0.250320
O O15 0.257912 0.326775 0.519230
O O16 0.154718 0.473588 0.590810
#
# Coordination Sequence:
#
# PCOD9239251 Si02
#       8
#     4   4   4   4   4   4   4   4
#     4  11  18  36  65  91 115 156 207 246 292 362
#     4  11  26  37  60  90 120 160 201 243 315 369
#     4  10  21  36  55  83 125 150 191 252 304 343
#     4   9  15  30  59  91 108 148 197 247 287 343
#     4  10  19  42  64  84 119 159 206 250 295 359
#     4   9  17  33  65  83 113 156 210 235 285 348
#     4  10  22  43  60  79 122 163 196 252 299 359
#     4  10  16  33  59  88 117 152 194 242 300 339
#
# _framework density 23.402712999999999
#
# number of rings (size 3 to 8) (size 9 to 14) (size 15 to 20)
#    0.000    2.000    5.000    1.500    1.750    0.500 
#    4.500    1.250    0.000    0.000    0.000    0.000 
#    0.000    0.000    0.000    0.000    0.000    0.000 
#
# Total GULP energy -178319.559422 kJ/mol
# GULP energy per Si atom -5572.486232 kJ/mol
# Density = 2.334945 g / cm^3
# Si number density = 23.402713 Si / 1000 Ang^3
#
#
#
# Elastic Constant Matrix: (Units=GPa)
#
#
# Indices 1 2 3 4 5 6 
#
# 1 71.2913 1.5774 12.5804 0.0000 17.5568 0.0000
# 2 1.5774 65.3499 10.7816 0.0000 11.4563 0.0000
# 3 12.5804 10.7816 56.4689 0.0000 7.1665 0.0000
# 4 0.0000 0.0000 0.0000 25.8676 0.0000 11.2753
# 5 17.5568 11.4563 7.1665 0.0000 22.9323 0.0000
# 6 0.0000 0.0000 0.0000 11.2753 0.0000 19.5084
#
#
#
# Elastic Compliance Matrix: (Units=1/GPa)
#
#
# Indices 1 2 3 4 5 6 
#
# 1 0.017923 0.002485 -0.002675 0.000000 -0.014128 0.000000
# 2 0.002485 0.017389 -0.002634 0.000000 -0.009767 0.000000
# 3 -0.002675 -0.002634 0.019140 0.000000 -0.002618 0.000000
# 4 0.000000 0.000000 0.000000 0.051677 0.000000 -0.029868
# 5 -0.014128 -0.009767 -0.002618 0.000000 0.060120 0.000000
# 6 0.000000 0.000000 0.000000 -0.029868 0.000000 0.068523
#
#
# Mechanical properties :
#
#
# Convention : Reuss Voigt Hill
#
# Bulk Modulus (GPa) = 20.48978 26.99877 23.74427
# Shear Modulus (GPa) = 19.47895 24.87306 22.17600
#
# Velocity S-wave (km/s) = 2.88816 3.26364 3.08162
# Velocity P-wave (km/s) = 4.46052 5.07577 4.77806
#
# Compressibility (1/GPa) = 0.04880483
#
# Stress axis : x y z
#
# Youngs Moduli (GPa) = 55.79386 57.50759 52.24694
#
# Poissons Ratio (x) = -0.14292 0.13974
# Poissons Ratio (y) = -0.13867 0.13763
# Poissons Ratio (z) = 0.14923 0.15149
#
# Static dielectric constant tensor:
#      x y z
#    x 1.919670 0.000000 0.008560 
#    y 0.000000 2.040990 0.000000 
#    z 0.008560 0.000000 1.941370 
# 
# From -- ./inp_files/42055.got.cif
#   From: 2010.05.17/outbox.cif.g08.bks.cpg/sg14_22_cif.got.tgz:42055.got - 2010.06.03 17:49:19.
