data_PCOD9239690
_publ_section_title
;
Structure prediction by ZEFSAII (Michael W. Deem and Ramdas Pophale) SiO2 
 PCOD9239690
Probable space group: P 21/C
;
_chemical_formula_sum "Si O2"
_cell_formula_units_Z 32
_cell_length_a 10.818155
_cell_length_b 9.395263
_cell_length_c 22.271612
_cell_angle_alpha 90.000000
_cell_angle_beta 128.265398
_cell_angle_gamma 90.000000
_cell_volume 1777.324461
_symmetry_space_group_name_H-M "P 21/C"
_symmetry_group_IT_number 14
_symmetry_cell_setting 'monoclinic'
loop_
_space_group_symop_operation_xyz
x,y,z
-x,1/2+y,1/2-z
-x,-y,-z
x,1/2-y,1/2+z
loop_
_atom_site_type_symbol
_atom_site_label
_atom_site_fract_x
_atom_site_fract_y
_atom_site_fract_z
Si Si1 0.863641 0.600686 0.029612
Si Si2 0.081765 0.169397 0.314298
Si Si3 0.166230 0.853862 0.320027
Si Si4 0.517856 0.872109 0.457983
Si Si5 0.916515 0.283254 0.066768
Si Si6 0.884470 0.632464 0.455709
Si Si7 0.649981 0.626910 0.581422
Si Si8 0.326511 0.958235 0.027731
O O1 0.899910 0.640400 0.109463
O O2 0.922546 0.440319 0.039483
O O3 0.673389 0.598678 0.966140
O O4 0.924518 0.731497 0.008930
O O5 0.219295 0.285228 0.343368
O O6 0.918770 0.242268 0.248356
O O7 0.109991 0.016435 0.292442
O O8 0.354871 0.853046 0.374812
O O9 0.115054 0.810167 0.372471
O O10 0.555230 0.736218 0.510117
O O11 0.500000 0.000000 0.500000
O O12 0.073983 0.193940 0.097629
O O13 0.770169 0.189499 0.997306
O O14 0.724430 0.566942 0.434988
O O15 0.000000 0.500000 0.500000
O O16 0.721382 0.520771 0.552794
O O17 0.514245 0.559233 0.581127
#
# Coordination Sequence:
#
# PCOD9239690 Si02
#       8
#     4   4   4   4   4   4   4   4
#     4  10  19  37  55  82 109 145 184 228 274 336
#     4  10  22  33  53  81 118 139 176 221 293 336
#     4  11  22  34  52  87 112 148 174 228 286 342
#     4  11  16  33  57  79 110 138 181 228 273 329
#     4  10  20  32  53  77 112 144 186 219 271 322
#     4  10  20  32  51  84 109 143 182 234 269 317
#     4  10  18  31  54  79 112 138 174 234 270 331
#     4  10  18  30  52  82 108 138 179 228 277 311
#
# _framework density 18.004591999999999
#
# number of rings (size 3 to 8) (size 9 to 14) (size 15 to 20)
#    0.000    1.750    7.500    0.375    1.750    0.000 
#    0.000    0.000    0.000    0.000    9.750    0.000 
#    0.000    0.000    0.000    0.000    0.000    0.000 
#
# Total GULP energy -178206.539687 kJ/mol
# GULP energy per Si atom -5568.954365 kJ/mol
# Density = 1.796361 g / cm^3
# Si number density = 18.004592 Si / 1000 Ang^3
#
#
#
# Elastic Constant Matrix: (Units=GPa)
#
#
# Indices 1 2 3 4 5 6 
#
# 1 78.0981 31.0986 13.2446 0.0000 3.7042 0.0000
# 2 31.0986 110.4948 21.8010 0.0000 6.6245 0.0000
# 3 13.2446 21.8010 46.5847 0.0000 24.2043 0.0000
# 4 0.0000 0.0000 0.0000 22.4677 0.0000 -1.6526
# 5 3.7042 6.6245 24.2043 0.0000 22.5163 0.0000
# 6 0.0000 0.0000 0.0000 -1.6526 0.0000 44.0252
#
#
#
# Elastic Compliance Matrix: (Units=1/GPa)
#
#
# Indices 1 2 3 4 5 6 
#
# 1 0.014763 -0.003522 -0.004135 0.000000 0.003053 0.000000
# 2 -0.003522 0.011037 -0.006292 0.000000 0.004096 0.000000
# 3 -0.004135 -0.006292 0.054978 0.000000 -0.056568 0.000000
# 4 0.000000 0.000000 0.000000 0.044632 0.000000 0.001675
# 5 0.003053 0.004096 -0.056568 0.000000 0.103514 0.000000
# 6 0.000000 0.000000 0.000000 0.001675 0.000000 0.022777
#
#
# Mechanical properties :
#
#
# Convention : Reuss Voigt Hill
#
# Bulk Modulus (GPa) = 18.91077 40.82955 29.87016
# Shear Modulus (GPa) = 16.82213 29.07073 22.94643
#
# Velocity S-wave (km/s) = 3.05999 4.02260 3.57385
# Velocity P-wave (km/s) = 4.79696 6.65595 5.80140
#
# Compressibility (1/GPa) = 0.05287993
#
# Stress axis : x y z
#
# Youngs Moduli (GPa) = 67.73476 90.60079 18.18907
#
# Poissons Ratio (x) = 0.31912 0.07521
# Poissons Ratio (y) = 0.23858 0.11445
# Poissons Ratio (z) = 0.28009 0.57007
#
# Static dielectric constant tensor:
#      x y z
#    x 1.703060 0.000000 -0.006000 
#    y 0.000000 1.714140 0.000000 
#    z -0.006000 0.000000 1.588940 
# 
# From -- ./inp_files/67062.got.cif
#   From: 2010.05.17/outbox.cif.g08.bks.cpg/sg14_34_cif.got.tgz:67062.got - 2010.06.03 17:49:19.
