data_PCOD9239902
_publ_section_title
;
Structure prediction by ZEFSAII (Michael W. Deem and Ramdas Pophale) SiO2 
 PCOD9239902
Probable space group: P 21/C
;
_chemical_formula_sum "Si O2"
_cell_formula_units_Z 28
_cell_length_a 11.093036
_cell_length_b 21.126233
_cell_length_c 5.360930
_cell_angle_alpha 90.000000
_cell_angle_beta 91.443187
_cell_angle_gamma 90.000000
_cell_volume 1255.957199
_symmetry_space_group_name_H-M "P 21/C"
_symmetry_group_IT_number 14
_symmetry_cell_setting 'monoclinic'
loop_
_space_group_symop_operation_xyz
x,y,z
-x,1/2+y,1/2-z
-x,-y,-z
x,1/2-y,1/2+z
loop_
_atom_site_type_symbol
_atom_site_label
_atom_site_fract_x
_atom_site_fract_y
_atom_site_fract_z
Si Si1 0.519010 0.418339 0.742586
Si Si2 0.891672 0.333335 0.245487
Si Si3 0.201394 0.692820 0.258485
Si Si4 0.643460 0.041439 0.752846
Si Si5 0.484902 0.717996 0.339713
Si Si6 0.921280 0.935379 0.438558
Si Si7 0.866676 0.526228 0.434908
O O1 0.419710 0.472622 0.733205
O O2 0.591357 0.420758 0.485783
O O3 0.465800 0.348758 0.751034
O O4 0.602440 0.431387 0.986339
O O5 0.883466 0.255812 0.266335
O O6 0.849428 0.349643 0.521357
O O7 0.004623 0.375621 0.167050
O O8 0.802424 0.341759 0.006626
O O9 0.337760 0.713301 0.324553
O O10 0.782476 0.027065 0.809756
O O11 0.519066 0.732962 0.624627
O O12 0.872778 0.921877 0.714461
O O13 0.827347 0.952292 0.211087
O O14 0.000000 0.000000 0.500000
O O15 0.000000 0.500000 0.500000
#
# Coordination Sequence:
#
# PCOD9239902 Si02
#       7
#     4   4   4   4   4   4   4
#     4  10  23  38  66  88 121 166 195 260 306 377
#     4  10  18  33  49  72 111 152 191 232 291 359
#     4  10  19  33  51  77 109 156 185 243 302 352
#     4  10  21  43  60  91 122 160 214 239 319 369
#     4  12  21  36  52  91 124 144 199 247 314 370
#     4  10  21  33  49  81 113 154 197 239 296 350
#     4  10  21  36  53  84 122 154 195 247 286 356
#
# _framework density 22.293752999999999
#
# number of rings (size 3 to 8) (size 9 to 14) (size 15 to 20)
#    0.000    1.714    2.857    2.571    0.000    6.857 
#    0.000    0.000    0.000    0.000   22.286    0.000 
#    0.000    0.000    0.000    0.000    0.000    0.000 
#
# Total GULP energy -156087.347779 kJ/mol
# GULP energy per Si atom -5574.548135 kJ/mol
# Density = 2.224301 g / cm^3
# Si number density = 22.293753 Si / 1000 Ang^3
#
#
#
# Elastic Constant Matrix: (Units=GPa)
#
#
# Indices 1 2 3 4 5 6 
#
# 1 -11.4478 -11.6724 -41.1184 0.0000 56.3215 0.0000
# 2 -11.6724 70.0766 -37.0313 0.0000 34.5832 0.0000
# 3 -41.1184 -37.0313 78.3952 0.0000 64.0086 0.0000
# 4 0.0000 0.0000 0.0000 6.8668 0.0000 1.2940
# 5 56.3215 34.5832 64.0086 0.0000 -55.7385 0.0000
# 6 0.0000 0.0000 0.0000 1.2940 0.0000 29.2205
#
#
#
# Elastic Compliance Matrix: (Units=1/GPa)
#
#
# Indices 1 2 3 4 5 6 
#
# 1 0.027702 -0.006921 -0.004174 0.000000 0.018904 0.000000
# 2 -0.006921 0.012660 0.000850 0.000000 0.001837 0.000000
# 3 -0.004174 0.000850 0.007216 0.000000 0.004596 0.000000
# 4 0.000000 0.000000 0.000000 0.146853 0.000000 -0.006503
# 5 0.018904 0.001837 0.004596 0.000000 0.007578 0.000000
# 6 0.000000 0.000000 0.000000 -0.006503 0.000000 0.034511
#
#
# Mechanical properties :
#
#
# Convention : Reuss Voigt Hill
#
# Bulk Modulus (GPa) = 36.91862 -4.73559 16.09151
# Shear Modulus (GPa) = 18.79424 11.19284 14.99354
#
# Velocity S-wave (km/s) = 2.90664 2.24310 2.59616
# Velocity P-wave (km/s) = 5.27833 2.14007 4.02745
#
# Compressibility (1/GPa) = 0.02708661
#
# Stress axis : x y z
#
# Youngs Moduli (GPa) = 36.09842 78.99126 138.58754
#
# Poissons Ratio (x) = 0.54669 0.57851
# Poissons Ratio (y) = 0.24983 -0.11777
# Poissons Ratio (z) = 0.15069 -0.06713
#
# Static dielectric constant tensor:
#      x y z
#    x 1.873360 0.000000 -0.061890 
#    y 0.000000 1.855010 0.000000 
#    z -0.061890 0.000000 1.908850 
# 
# From -- ./inp_files/2972.got.cif
#   From: 2010.05.17/outbox.cif.g08.bks.cpg/sg14_2_cif.got.tgz:2972.got - 2010.06.03 17:49:19.
