data_PCOD9239688
_publ_section_title
;
Structure prediction by ZEFSAII (Michael W. Deem and Ramdas Pophale) SiO2 
 PCOD9239688
Probable space group: P 21/C
;
_chemical_formula_sum "Si O2"
_cell_formula_units_Z 24
_cell_length_a 8.501729
_cell_length_b 8.164280
_cell_length_c 14.068495
_cell_angle_alpha 90.000000
_cell_angle_beta 61.010124
_cell_angle_gamma 90.000000
_cell_volume 854.150846
_symmetry_space_group_name_H-M "P 21/C"
_symmetry_group_IT_number 14
_symmetry_cell_setting 'monoclinic'
loop_
_space_group_symop_operation_xyz
x,y,z
-x,1/2+y,1/2-z
-x,-y,-z
x,1/2-y,1/2+z
loop_
_atom_site_type_symbol
_atom_site_label
_atom_site_fract_x
_atom_site_fract_y
_atom_site_fract_z
Si Si1 0.782237 0.422787 0.957705
Si Si2 0.435188 0.275479 0.031953
Si Si3 0.776113 0.563512 0.664685
Si Si4 0.458742 0.749747 0.717576
Si Si5 0.105207 0.112021 0.088843
Si Si6 0.128321 0.949874 0.351308
O O1 0.636846 0.278287 0.013171
O O2 0.987538 0.408468 0.861605
O O3 0.675415 0.553549 0.923580
O O4 0.816269 0.481797 0.055322
O O5 0.472353 0.275901 0.908329
O O6 0.289204 0.135558 0.092207
O O7 0.634378 0.706576 0.728696
O O8 0.653677 0.402855 0.713234
O O9 0.834763 0.581131 0.537580
O O10 0.964902 0.527355 0.660878
O O11 0.317009 0.601088 0.752380
O O12 0.994010 0.283615 0.120302
#
# Coordination Sequence:
#
# PCOD9239688 Si02
#       6
#     4   4   4   4   4   4
#     4   9  17  31  51  76 107 143 183 222 272 336
#     4   9  17  30  51  76 105 141 180 225 277 328
#     4   9  17  30  51  76 104 140 181 225 277 331
#     4  10  18  30  52  80 107 138 184 235 278 324
#     4   8  16  31  50  71 100 140 179 220 275 336
#     4   9  17  30  51  76 105 142 185 226 271 333
#
# _framework density 28.098084
#
# number of rings (size 3 to 8) (size 9 to 14) (size 15 to 20)
#    0.000    3.000    0.000    1.000    0.000    1.333 
#    0.000    1.667    0.000   61.000    0.000    0.000 
#    0.000    0.000    0.000    0.000    0.000    0.333 
#
# Total GULP energy -134152.252445 kJ/mol
# GULP energy per Si atom -5589.677185 kJ/mol
# Density = 2.803413 g / cm^3
# Si number density = 28.098084 Si / 1000 Ang^3
#
#
#
# Elastic Constant Matrix: (Units=GPa)
#
#
# Indices 1 2 3 4 5 6 
#
# 1 172.0565 40.5008 58.5024 0.0000 -52.7267 0.0000
# 2 40.5008 90.2219 34.8128 0.0000 -19.5055 0.0000
# 3 58.5024 34.8128 91.6939 0.0000 -44.0914 0.0000
# 4 0.0000 0.0000 0.0000 50.0192 0.0000 -15.3132
# 5 -52.7267 -19.5055 -44.0914 0.0000 66.6926 0.0000
# 6 0.0000 0.0000 0.0000 -15.3132 0.0000 44.3461
#
#
#
# Elastic Compliance Matrix: (Units=1/GPa)
#
#
# Indices 1 2 3 4 5 6 
#
# 1 0.008492 -0.001856 -0.002560 0.000000 0.004478 0.000000
# 2 -0.001856 0.013420 -0.004001 0.000000 -0.000188 0.000000
# 3 -0.002560 -0.004001 0.018358 0.000000 0.008943 0.000000
# 4 0.000000 0.000000 0.000000 0.022356 0.000000 0.007720
# 5 0.004478 -0.000188 0.008943 0.000000 0.024392 0.000000
# 6 0.000000 0.000000 0.000000 0.007720 0.000000 0.025216
#
#
# Mechanical properties :
#
#
# Convention : Reuss Voigt Hill
#
# Bulk Modulus (GPa) = 42.66860 69.06714 55.86787
# Shear Modulus (GPa) = 36.52831 46.88867 41.70849
#
# Velocity S-wave (km/s) = 3.60950 4.08947 3.85696
# Velocity P-wave (km/s) = 5.70876 6.85072 6.30564
#
# Compressibility (1/GPa) = 0.02343644
#
# Stress axis : x y z
#
# Youngs Moduli (GPa) = 117.76206 74.51395 54.47081
#
# Poissons Ratio (x) = 0.13830 0.13943
# Poissons Ratio (y) = 0.21857 0.21795
# Poissons Ratio (z) = 0.30144 0.29815
#
# Static dielectric constant tensor:
#      x y z
#    x 2.186990 0.000000 -0.009970 
#    y 0.000000 2.338280 0.000000 
#    z -0.009970 0.000000 2.235830 
# 
# From -- ./inp_files/55090.got.cif
#   From: 2010.05.17/outbox.cif.g08.bks.cpg/sg14_28_cif.got.tgz:55090.got - 2010.06.03 17:49:19.
