data_PCOD9239835
_publ_section_title
;
Structure prediction by ZEFSAII (Michael W. Deem and Ramdas Pophale) SiO2 
 PCOD9239835
Probable space group: P 21/C
;
_chemical_formula_sum "Si O2"
_cell_formula_units_Z 20
_cell_length_a 5.602346
_cell_length_b 10.364305
_cell_length_c 12.541571
_cell_angle_alpha 90.000000
_cell_angle_beta 93.571738
_cell_angle_gamma 90.000000
_cell_volume 726.804572
_symmetry_space_group_name_H-M "P 21/C"
_symmetry_group_IT_number 14
_symmetry_cell_setting 'monoclinic'
loop_
_space_group_symop_operation_xyz
x,y,z
-x,1/2+y,1/2-z
-x,-y,-z
x,1/2-y,1/2+z
loop_
_atom_site_type_symbol
_atom_site_label
_atom_site_fract_x
_atom_site_fract_y
_atom_site_fract_z
Si Si1 0.098549 0.549968 0.334550
Si Si2 0.088059 0.722913 0.665267
Si Si3 0.599412 0.497147 0.348985
Si Si4 0.968517 0.643726 0.949902
Si Si5 0.536854 0.423927 0.112062
O O1 0.059962 0.401101 0.297588
O O2 0.358498 0.548071 0.394665
O O3 0.094063 0.651837 0.238939
O O4 0.847598 0.564400 0.389432
O O5 0.977527 0.765034 0.551281
O O6 0.344957 0.656462 0.646060
O O7 0.565596 0.512569 0.218313
O O8 0.711000 0.652806 0.887689
O O9 0.218456 0.657794 0.892190
O O10 0.000000 0.500000 0.000000
O O11 0.500000 0.500000 0.000000
#
# Coordination Sequence:
#
# PCOD9239835 Si02
#       5
#     4   4   4   4   4
#     4  10  22  36  60  86 124 154 206 241 303 347
#     4  10  24  37  63  90 126 156 203 250 300 362
#     4  10  22  35  60  87 124 154 201 246 304 350
#     4  10  20  32  57  84 118 146 202 247 295 334
#     4  10  18  32  54  82 114 147 196 247 291 337
#
# _framework density 27.517714000000002
#
# number of rings (size 3 to 8) (size 9 to 14) (size 15 to 20)
#    1.200    0.800    0.000    6.000    5.600    0.000 
#    0.000    0.000    0.000    2.400    0.000    0.000 
#    0.000    0.000    0.000    0.000    0.000    0.000 
#
# Total GULP energy -111771.993173 kJ/mol
# GULP energy per Si atom -5588.599659 kJ/mol
# Density = 2.745508 g / cm^3
# Si number density = 27.517714 Si / 1000 Ang^3
#
#
#
# Elastic Constant Matrix: (Units=GPa)
#
#
# Indices 1 2 3 4 5 6 
#
# 1 286.4342 49.5683 33.4373 0.0000 7.1205 0.0000
# 2 49.5683 147.5215 55.8499 0.0000 -9.6675 0.0000
# 3 33.4373 55.8499 86.0875 0.0000 8.8485 0.0000
# 4 0.0000 0.0000 0.0000 40.0015 0.0000 0.3008
# 5 7.1205 -9.6675 8.8485 0.0000 35.8004 0.0000
# 6 0.0000 0.0000 0.0000 0.3008 0.0000 32.4964
#
#
#
# Elastic Compliance Matrix: (Units=1/GPa)
#
#
# Indices 1 2 3 4 5 6 
#
# 1 0.003777 -0.001067 -0.000686 0.000000 -0.000870 0.000000
# 2 -0.001067 0.009872 -0.006450 0.000000 0.004472 0.000000
# 3 -0.000686 -0.006450 0.016655 0.000000 -0.005722 0.000000
# 4 0.000000 0.000000 0.000000 0.025001 0.000000 -0.000231
# 5 -0.000870 0.004472 -0.005722 0.000000 0.030727 0.000000
# 6 0.000000 0.000000 0.000000 -0.000231 0.000000 0.030775
#
#
# Mechanical properties :
#
#
# Convention : Reuss Voigt Hill
#
# Bulk Modulus (GPa) = 71.94364 88.63933 80.29149
# Shear Modulus (GPa) = 36.27249 47.07218 41.67234
#
# Velocity S-wave (km/s) = 3.63457 4.14044 3.89573
# Velocity P-wave (km/s) = 6.61927 7.42559 7.03399
#
# Compressibility (1/GPa) = 0.01389977
#
# Stress axis : x y z
#
# Youngs Moduli (GPa) = 264.72755 101.29665 60.04195
#
# Poissons Ratio (x) = 0.10804 0.04118
# Poissons Ratio (y) = 0.28236 0.38727
# Poissons Ratio (z) = 0.18156 0.65335
#
# Static dielectric constant tensor:
#      x y z
#    x 2.134030 0.000000 -0.378690 
#    y 0.000000 2.177140 0.000000 
#    z -0.378690 0.000000 1.023760 
# 
# From -- ./inp_files/37025.got.cif
#   From: 2010.05.17/outbox.cif.g08.bks.cpg/sg14_19_cif.got.tgz:37025.got - 2010.06.03 17:49:19.
