data_PCOD9239994
_publ_section_title
;
Structure prediction by ZEFSAII (Michael W. Deem and Ramdas Pophale) SiO2 
 PCOD9239994
Probable space group: P 21/C
;
_chemical_formula_sum "Si O2"
_cell_formula_units_Z 30
_cell_length_a 18.072287
_cell_length_b 8.439227
_cell_length_c 14.170946
_cell_angle_alpha 90.000000
_cell_angle_beta 32.718082
_cell_angle_gamma 90.000000
_cell_volume 1168.194181
_symmetry_space_group_name_H-M "P 21/C"
_symmetry_group_IT_number 14
_symmetry_cell_setting 'monoclinic'
loop_
_space_group_symop_operation_xyz
x,y,z
-x,1/2+y,1/2-z
-x,-y,-z
x,1/2-y,1/2+z
loop_
_atom_site_type_symbol
_atom_site_label
_atom_site_fract_x
_atom_site_fract_y
_atom_site_fract_z
Si Si1 0.432230 0.095874 0.471449
Si Si2 0.102546 0.775117 0.209764
Si Si3 0.375138 0.751535 0.540050
Si Si4 0.683273 0.922075 0.881224
Si Si5 0.000000 0.000000 0.500000
Si Si6 0.705373 0.992167 0.079893
Si Si7 0.110762 0.956362 0.543702
Si Si8 0.343272 0.160832 0.360163
O O1 0.390757 0.258662 0.567584
O O2 0.344173 0.110821 0.468405
O O3 0.396870 0.927391 0.557108
O O4 0.583614 0.075798 0.266141
O O5 0.230404 0.739229 0.140016
O O6 0.060828 0.624264 0.193204
O O7 0.991703 0.893179 0.378083
O O8 0.170735 0.888358 0.058225
O O9 0.371358 0.588104 0.601333
O O10 0.505593 0.720163 0.330877
O O11 0.844636 0.920094 0.692097
O O12 0.660947 0.949990 0.018797
O O13 0.079870 0.862894 0.482691
O O14 0.743102 0.817486 0.073620
O O15 0.262743 0.019371 0.396376
#
# Coordination Sequence:
#
# PCOD9239994 Si02
#       8
#     4   4   4   4   2   4   4   4
#     4  10  18  33  66 101 120 163 222 284 336 372
#     4  11  21  37  61  93 123 170 227 279 315 400
#     4  10  19  36  64  95 127 155 224 284 326 384
#     4  10  21  37  63  87 138 178 206 270 344 396
#     4  12  26  46  56  94 152 192 204 274 348 428
#     4   9  18  35  64  95 124 151 220 291 324 375
#     4  12  25  38  66  92 134 178 228 270 341 400
#     4  10  19  33  62  98 121 156 216 289 330 380
#
# _framework density 25.680662000000002
#
# number of rings (size 3 to 8) (size 9 to 14) (size 15 to 20)
#    0.000    1.600    6.667    0.800    3.733    0.000 
#    0.000    1.333    5.867    1.600    0.000    0.000 
#    0.000    0.000    0.000    0.000    0.000    0.000 
#
# Total GULP energy -167003.651116 kJ/mol
# GULP energy per Si atom -5566.788371 kJ/mol
# Density = 2.562221 g / cm^3
# Si number density = 25.680662 Si / 1000 Ang^3
#
#
#
# Elastic Constant Matrix: (Units=GPa)
#
#
# Indices 1 2 3 4 5 6 
#
# 1 93.3928 25.8512 33.4683 0.0000 6.7762 0.0000
# 2 25.8512 175.3721 70.6746 0.0000 -2.7166 0.0000
# 3 33.4683 70.6746 135.0555 0.0000 1.4737 0.0000
# 4 0.0000 0.0000 0.0000 33.5233 0.0000 -11.1472
# 5 6.7762 -2.7166 1.4737 0.0000 22.1581 0.0000
# 6 0.0000 0.0000 0.0000 -11.1472 0.0000 36.6316
#
#
#
# Elastic Compliance Matrix: (Units=1/GPa)
#
#
# Indices 1 2 3 4 5 6 
#
# 1 0.012105 -0.000821 -0.002531 0.000000 -0.003634 0.000000
# 2 -0.000821 0.007311 -0.003637 0.000000 0.001389 0.000000
# 3 -0.002531 -0.003637 0.009939 0.000000 -0.000333 0.000000
# 4 0.000000 0.000000 0.000000 0.033188 0.000000 0.010099
# 5 -0.003634 0.001389 -0.000333 0.000000 0.046434 0.000000
# 6 0.000000 0.000000 0.000000 0.010099 0.000000 0.030372
#
#
# Mechanical properties :
#
#
# Convention : Reuss Voigt Hill
#
# Bulk Modulus (GPa) = 65.03359 73.75651 69.39505
# Shear Modulus (GPa) = 31.55530 36.71768 34.13649
#
# Velocity S-wave (km/s) = 3.50917 3.78534 3.64987
# Velocity P-wave (km/s) = 6.46513 6.92012 6.69649
#
# Compressibility (1/GPa) = 0.01537667
#
# Stress axis : x y z
#
# Youngs Moduli (GPa) = 82.60891 136.78907 100.61845
#
# Poissons Ratio (x) = 0.11229 0.25462
# Poissons Ratio (y) = 0.06781 0.36598
# Poissons Ratio (z) = 0.20905 0.49755
#
# Static dielectric constant tensor:
#      x y z
#    x -1.181780 0.000000 -1.281320 
#    y 0.000000 4.002880 0.000000 
#    z -1.281320 0.000000 1.530140 
# 
# From -- ./inp_files/61055.got.cif
#   From: 2010.05.17/outbox.cif.g08.bks.cpg/sg14_31_cif.got.tgz:61055.got - 2010.06.03 17:49:19.
