data_PCOD9239597
_publ_section_title
;
Structure prediction by ZEFSAII (Michael W. Deem and Ramdas Pophale) SiO2 
 PCOD9239597
Probable space group: P 21/C
;
_chemical_formula_sum "Si O2"
_cell_formula_units_Z 24
_cell_length_a 6.679372
_cell_length_b 12.376117
_cell_length_c 16.603104
_cell_angle_alpha 90.000000
_cell_angle_beta 139.816500
_cell_angle_gamma 90.000000
_cell_volume 885.582576
_symmetry_space_group_name_H-M "P 21/C"
_symmetry_group_IT_number 14
_symmetry_cell_setting 'monoclinic'
loop_
_space_group_symop_operation_xyz
x,y,z
-x,1/2+y,1/2-z
-x,-y,-z
x,1/2-y,1/2+z
loop_
_atom_site_type_symbol
_atom_site_label
_atom_site_fract_x
_atom_site_fract_y
_atom_site_fract_z
Si Si1 0.209384 0.626442 0.340903
Si Si2 0.584481 0.829583 0.360081
Si Si3 0.508037 0.569790 0.105354
Si Si4 0.017865 0.853552 0.337314
Si Si5 0.169248 0.755067 0.108472
Si Si6 0.422729 0.942617 0.080521
O O1 0.205415 0.750809 0.365250
O O2 0.483164 0.567036 0.374894
O O3 0.256838 0.570714 0.444135
O O4 0.866001 0.600428 0.203011
O O5 0.510984 0.953094 0.358394
O O6 0.288520 0.766497 0.235459
O O7 0.798662 0.825927 0.345378
O O8 0.815583 0.780557 0.496146
O O9 0.723997 0.428960 0.042401
O O10 0.364979 0.663165 0.120471
O O11 0.772462 0.891876 0.194917
O O12 0.225887 0.871266 0.082765
#
# Coordination Sequence:
#
# PCOD9239597 Si02
#       6
#     4   4   4   4   4   4
#     4  11  19  35  61  89 120 156 204 244 300 350
#     4  10  20  34  65  89 115 164 200 244 300 363
#     4  11  20  36  64  89 120 159 204 242 301 362
#     4  10  18  38  60  88 118 160 198 246 303 351
#     4  10  17  38  58  87 119 158 199 244 298 344
#     4  10  20  33  62  90 114 163 202 242 297 358
#
# _framework density 27.100807
#
# number of rings (size 3 to 8) (size 9 to 14) (size 15 to 20)
#    0.000    1.667    6.667    2.000    0.000    0.667 
#    0.000    9.167   18.333    0.000    0.000    0.000 
#    0.000    0.000    0.000    0.000    0.000    0.000 
#
# Total GULP energy -134418.011053 kJ/mol
# GULP energy per Si atom -5600.750461 kJ/mol
# Density = 2.703912 g / cm^3
# Si number density = 27.100807 Si / 1000 Ang^3
#
#
#
# Elastic Constant Matrix: (Units=GPa)
#
#
# Indices 1 2 3 4 5 6 
#
# 1 84.8990 23.0312 32.9327 0.0000 10.6855 0.0000
# 2 23.0312 154.1395 51.6626 0.0000 1.7671 0.0000
# 3 32.9327 51.6626 217.3836 0.0000 -0.8890 0.0000
# 4 0.0000 0.0000 0.0000 58.4898 0.0000 5.3043
# 5 10.6855 1.7671 -0.8890 0.0000 45.7367 0.0000
# 6 0.0000 0.0000 0.0000 5.3043 0.0000 46.6925
#
#
#
# Elastic Compliance Matrix: (Units=1/GPa)
#
#
# Indices 1 2 3 4 5 6 
#
# 1 0.013189 -0.001371 -0.001685 0.000000 -0.003061 0.000000
# 2 -0.001371 0.007196 -0.001502 0.000000 0.000013 0.000000
# 3 -0.001685 -0.001502 0.005215 0.000000 0.000553 0.000000
# 4 0.000000 0.000000 0.000000 0.017275 0.000000 -0.001962
# 5 -0.003061 0.000013 0.000553 0.000000 0.022590 0.000000
# 6 0.000000 0.000000 0.000000 -0.001962 0.000000 0.021640
#
#
# Mechanical properties :
#
#
# Convention : Reuss Voigt Hill
#
# Bulk Modulus (GPa) = 60.66603 74.63055 67.64829
# Shear Modulus (GPa) = 49.15679 53.43685 51.29682
#
# Velocity S-wave (km/s) = 4.26355 4.44529 4.35537
# Velocity P-wave (km/s) = 6.83162 7.34475 7.09283
#
# Compressibility (1/GPa) = 0.01648369
#
# Stress axis : x y z
#
# Youngs Moduli (GPa) = 75.81809 138.96849 191.76460
#
# Poissons Ratio (x) = 0.19052 0.32310
# Poissons Ratio (y) = 0.10394 0.28811
# Poissons Ratio (z) = 0.12774 0.20879
#
# Static dielectric constant tensor:
#      x y z
#    x 2.174920 0.000000 0.033440 
#    y 0.000000 2.289530 0.000000 
#    z 0.033440 0.000000 2.070940 
# 
# From -- ./inp_files/24809.got.cif
#   From: 2010.05.17/outbox.cif.g08.bks.cpg/sg14_13_cif.got.tgz:24809.got - 2010.06.03 17:49:19.
