data_PCOD9239774
_publ_section_title
;
Structure prediction by ZEFSAII (Michael W. Deem and Ramdas Pophale) SiO2 
 PCOD9239774
Probable space group: P 21/C
;
_chemical_formula_sum "Si O2"
_cell_formula_units_Z 32
_cell_length_a 18.482000
_cell_length_b 8.097905
_cell_length_c 22.172635
_cell_angle_alpha 90.000000
_cell_angle_beta 23.487116
_cell_angle_gamma 90.000000
_cell_volume 1322.555676
_symmetry_space_group_name_H-M "P 21/C"
_symmetry_group_IT_number 14
_symmetry_cell_setting 'monoclinic'
loop_
_space_group_symop_operation_xyz
x,y,z
-x,1/2+y,1/2-z
-x,-y,-z
x,1/2-y,1/2+z
loop_
_atom_site_type_symbol
_atom_site_label
_atom_site_fract_x
_atom_site_fract_y
_atom_site_fract_z
Si Si1 0.401706 0.907749 0.402810
Si Si2 0.656567 0.568481 0.308872
Si Si3 0.198577 0.640579 0.900357
Si Si4 0.952052 0.043741 0.672679
Si Si5 0.406049 0.231500 0.858419
Si Si6 0.270420 0.940998 0.044991
Si Si7 0.008507 0.668204 0.436811
Si Si8 0.293642 0.435133 0.244335
O O1 0.544105 0.822981 0.247376
O O2 0.280184 0.747980 0.513139
O O3 0.507289 0.968516 0.382128
O O4 0.338446 0.080436 0.420770
O O5 0.749898 0.529338 0.172942
O O6 0.764920 0.465666 0.275712
O O7 0.447803 0.536894 0.452911
O O8 0.687559 0.757702 0.300110
O O9 0.387840 0.726614 0.770677
O O10 0.084385 0.732678 0.936916
O O11 0.075620 0.602586 0.051651
O O12 0.035110 0.216071 0.585957
O O13 0.902284 0.035072 0.780174
O O14 0.296197 0.083757 0.975239
O O15 0.181033 0.555305 0.287930
O O16 0.838314 0.574330 0.595670
#
# Coordination Sequence:
#
# PCOD9239774 Si02
#       8
#     4   4   4   4   4   4   4   4
#     4  11  22  40  65  85 111 152 214 251 290 347
#     4   9  17  33  54  82 112 159 190 224 284 357
#     4  10  18  34  60  84 112 156 200 236 283 355
#     4  11  19  35  55  88 124 154 181 237 309 359
#     4  11  22  41  66  84 109 155 214 255 285 347
#     4  10  23  37  59  87 121 153 190 245 305 352
#     4  10  18  31  56  87 125 150 191 238 292 362
#     4  10  18  32  54  92 111 148 204 242 282 350
#
# _framework density 24.195578999999999
#
# number of rings (size 3 to 8) (size 9 to 14) (size 15 to 20)
#    0.000    1.750    5.000    1.125    0.000    0.000 
#    2.250    1.250    5.500    0.000    0.000    0.000 
#    0.000    0.000    0.000    0.000    0.000    0.000 
#
# Total GULP energy -178656.099969 kJ/mol
# GULP energy per Si atom -5583.003124 kJ/mol
# Density = 2.414051 g / cm^3
# Si number density = 24.195579 Si / 1000 Ang^3
#
#
#
# Elastic Constant Matrix: (Units=GPa)
#
#
# Indices 1 2 3 4 5 6 
#
# 1 59.1438 10.0565 1.9689 0.0000 -9.0103 0.0000
# 2 10.0565 116.1940 30.6159 0.0000 3.5261 0.0000
# 3 1.9689 30.6159 101.7171 0.0000 31.1264 0.0000
# 4 0.0000 0.0000 0.0000 17.9665 0.0000 -5.6841
# 5 -9.0103 3.5261 31.1264 0.0000 27.8938 0.0000
# 6 0.0000 0.0000 0.0000 -5.6841 0.0000 36.3624
#
#
#
# Elastic Compliance Matrix: (Units=1/GPa)
#
#
# Indices 1 2 3 4 5 6 
#
# 1 0.018627 -0.001135 -0.002891 0.000000 0.009387 0.000000
# 2 -0.001135 0.009582 -0.003613 0.000000 0.002454 0.000000
# 3 -0.002891 -0.003613 0.016887 0.000000 -0.019322 0.000000
# 4 0.000000 0.000000 0.000000 0.058555 0.000000 0.009153
# 5 0.009387 0.002454 -0.019322 0.000000 0.060133 0.000000
# 6 0.000000 0.000000 0.000000 0.009153 0.000000 0.028932
#
#
# Mechanical properties :
#
#
# Convention : Reuss Voigt Hill
#
# Bulk Modulus (GPa) = 33.53747 40.25973 36.89860
# Shear Modulus (GPa) = 22.94262 32.07209 27.50736
#
# Velocity S-wave (km/s) = 3.08265 3.64474 3.37542
# Velocity P-wave (km/s) = 5.15378 5.86409 5.52037
#
# Compressibility (1/GPa) = 0.02981739
#
# Stress axis : x y z
#
# Youngs Moduli (GPa) = 53.68462 104.36158 59.21643
#
# Poissons Ratio (x) = 0.11847 0.17122
# Poissons Ratio (y) = 0.06094 0.21395
# Poissons Ratio (z) = 0.15522 0.37706
#
# Static dielectric constant tensor:
#      x y z
#    x 1.983450 0.000000 -0.088970 
#    y 0.000000 1.960620 0.000000 
#    z -0.088970 0.000000 1.971860 
# 
# From -- ./inp_files/74910.got.cif
#   From: 2010.05.17/outbox.cif.g08.bks.cpg/sg14_38_cif.got.tgz:74910.got - 2010.06.03 17:49:19.
