data_PCOD9239925
_publ_section_title
;
Structure prediction by ZEFSAII (Michael W. Deem and Ramdas Pophale) SiO2 
 PCOD9239925
Probable space group: P 21/C
;
_chemical_formula_sum "Si O2"
_cell_formula_units_Z 28
_cell_length_a 21.689447
_cell_length_b 5.327175
_cell_length_c 22.327095
_cell_angle_alpha 90.000000
_cell_angle_beta 145.962990
_cell_angle_gamma 90.000000
_cell_volume 1443.959224
_symmetry_space_group_name_H-M "P 21/C"
_symmetry_group_IT_number 14
_symmetry_cell_setting 'monoclinic'
loop_
_space_group_symop_operation_xyz
x,y,z
-x,1/2+y,1/2-z
-x,-y,-z
x,1/2-y,1/2+z
loop_
_atom_site_type_symbol
_atom_site_label
_atom_site_fract_x
_atom_site_fract_y
_atom_site_fract_z
Si Si1 0.807879 0.857435 0.260582
Si Si2 0.275416 0.474647 0.425164
Si Si3 0.003492 0.987391 0.905315
Si Si4 0.058223 0.353982 0.320726
Si Si5 0.132859 0.726221 0.105529
Si Si6 0.595718 0.449538 0.993581
Si Si7 0.641988 0.473736 0.166776
O O1 0.784652 0.042121 0.186882
O O2 0.894023 0.667391 0.300131
O O3 0.693613 0.740151 0.189682
O O4 0.861115 0.943845 0.365894
O O5 0.180140 0.421228 0.396013
O O6 0.352828 0.713526 0.500243
O O7 0.340233 0.211186 0.467199
O O8 0.049371 0.129843 0.885265
O O9 0.954614 0.162321 0.917658
O O10 0.092598 0.803522 0.007958
O O11 0.018592 0.080465 0.266699
O O12 0.254875 0.831113 0.220111
O O13 0.605942 0.371471 0.072457
O O14 0.466101 0.499254 0.880303
#
# Coordination Sequence:
#
# PCOD9239925 Si02
#       7
#     4   4   4   4   4   4   4
#     4  10  18  33  54  82 116 149 182 236 292 350
#     4  11  21  35  57  81 117 148 189 233 282 336
#     4  10  22  35  54  87 114 155 190 235 291 352
#     4  12  24  39  61  84 117 157 192 234 281 343
#     4  10  19  36  57  81 121 146 192 235 298 346
#     4  10  21  35  55  84 115 148 188 240 286 330
#     4   9  20  31  54  83 111 147 188 235 291 339
#
# _framework density 19.391128999999999
#
# number of rings (size 3 to 8) (size 9 to 14) (size 15 to 20)
#    0.000    1.714    2.857    2.143    4.000    1.714 
#    0.000    0.000    0.000    1.714    0.000    0.000 
#    0.000    0.000    0.000    0.000    0.000    0.000 
#
# Total GULP energy -156007.484828 kJ/mol
# GULP energy per Si atom -5571.695887 kJ/mol
# Density = 1.934699 g / cm^3
# Si number density = 19.391129 Si / 1000 Ang^3
#
#
#
# Elastic Constant Matrix: (Units=GPa)
#
#
# Indices 1 2 3 4 5 6 
#
# 1 64.1447 2.4667 39.1062 0.0000 25.3477 0.0000
# 2 2.4667 48.2903 10.7055 0.0000 14.7706 0.0000
# 3 39.1062 10.7055 68.6410 0.0000 16.9655 0.0000
# 4 0.0000 0.0000 0.0000 19.2981 0.0000 -2.3078
# 5 25.3477 14.7706 16.9655 0.0000 35.3931 0.0000
# 6 0.0000 0.0000 0.0000 -2.3078 0.0000 12.4626
#
#
#
# Elastic Compliance Matrix: (Units=1/GPa)
#
#
# Indices 1 2 3 4 5 6 
#
# 1 0.031521 0.007316 -0.014480 0.000000 -0.018686 0.000000
# 2 0.007316 0.025559 -0.004790 0.000000 -0.013610 0.000000
# 3 -0.014480 -0.004790 0.023264 0.000000 0.001218 0.000000
# 4 0.000000 0.000000 0.000000 0.052992 0.000000 0.009813
# 5 -0.018686 -0.013610 0.001218 0.000000 0.046733 0.000000
# 6 0.000000 0.000000 0.000000 0.009813 0.000000 0.082057
#
#
# Mechanical properties :
#
#
# Convention : Reuss Voigt Hill
#
# Bulk Modulus (GPa) = 17.71980 31.73697 24.72839
# Shear Modulus (GPa) = 16.40164 22.01728 19.20946
#
# Velocity S-wave (km/s) = 2.91147 3.37327 3.15084
# Velocity P-wave (km/s) = 4.52329 5.61909 5.10071
#
# Compressibility (1/GPa) = 0.05643404
#
# Stress axis : x y z
#
# Youngs Moduli (GPa) = 31.72522 39.12484 42.98408
#
# Poissons Ratio (x) = -0.28623 0.62243
# Poissons Ratio (y) = -0.23209 0.20591
# Poissons Ratio (z) = 0.45939 0.18742
#
# Static dielectric constant tensor:
#      x y z
#    x 1.663730 0.000000 -0.006730 
#    y 0.000000 1.798570 0.000000 
#    z -0.006730 0.000000 1.734050 
# 
# From -- ./inp_files/66251.got.cif
#   From: 2010.05.17/outbox.cif.g08.bks.cpg/sg14_34_cif.got.tgz:66251.got - 2010.06.03 17:49:19.
