data_PCOD9239321
_publ_section_title
;
Structure prediction by ZEFSAII (Michael W. Deem and Ramdas Pophale) SiO2 
 PCOD9239321
Probable space group: P 21/C
;
_chemical_formula_sum "Si O2"
_cell_formula_units_Z 30
_cell_length_a 10.000144
_cell_length_b 13.768561
_cell_length_c 9.202730
_cell_angle_alpha 90.000000
_cell_angle_beta 121.186752
_cell_angle_gamma 90.000000
_cell_volume 1083.985285
_symmetry_space_group_name_H-M "P 21/C"
_symmetry_group_IT_number 14
_symmetry_cell_setting 'monoclinic'
loop_
_space_group_symop_operation_xyz
x,y,z
-x,1/2+y,1/2-z
-x,-y,-z
x,1/2-y,1/2+z
loop_
_atom_site_type_symbol
_atom_site_label
_atom_site_fract_x
_atom_site_fract_y
_atom_site_fract_z
Si Si1 0.000000 0.000000 0.500000
Si Si2 0.802253 0.410670 0.655563
Si Si3 0.370839 0.163874 0.506689
Si Si4 0.171287 0.268503 0.158160
Si Si5 0.719820 0.449601 0.054710
Si Si6 0.849228 0.616843 0.574616
Si Si7 0.500634 0.067547 0.188361
Si Si8 0.332067 0.865120 0.186095
O O1 0.069574 0.906877 0.647545
O O2 0.137482 0.977540 0.465026
O O3 0.866297 0.501701 0.594824
O O4 0.638862 0.437085 0.645989
O O5 0.759282 0.332030 0.508655
O O6 0.300633 0.219842 0.332614
O O7 0.256043 0.172449 0.580125
O O8 0.359989 0.052277 0.452783
O O9 0.537580 0.199026 0.660944
O O10 0.088053 0.181326 0.023074
O O11 0.100002 0.342054 0.237801
O O12 0.767551 0.399688 0.231675
O O13 0.594373 0.394130 0.882559
O O14 0.657640 0.622513 0.447705
O O15 0.437118 0.958559 0.191883
#
# Coordination Sequence:
#
# PCOD9239321 Si02
#       8
#     2   4   4   4   4   4   4   4
#     4  10  22  34  46  72  96 128 164 204 254 292
#     4  10  19  32  51  72 100 128 162 208 255 297
#     4  10  18  31  48  79 105 127 161 197 248 311
#     4  10  19  26  44  74 108 133 151 189 244 295
#     4  10  19  32  51  74 104 130 165 211 254 295
#     4  10  17  29  45  73 100 126 158 191 241 302
#     4   9  16  29  50  73  98 125 149 193 255 302
#     4  10  17  29  52  75  97 126 156 202 256 298
#
# _framework density 27.675653000000001
#
# number of rings (size 3 to 8) (size 9 to 14) (size 15 to 20)
#    0.000    2.133    0.000    8.800    0.000    0.533 
#    0.000    0.000    0.000    0.000    0.000  112.000 
#    0.000    0.000    0.000    0.000    0.000    0.000 
#
# Total GULP energy -167125.617862 kJ/mol
# GULP energy per Si atom -5570.853929 kJ/mol
# Density = 2.761266 g / cm^3
# Si number density = 27.675653 Si / 1000 Ang^3
#
#
#
# Elastic Constant Matrix: (Units=GPa)
#
#
# Indices 1 2 3 4 5 6 
#
# 1 123.9974 2.0015 47.5901 0.0000 -15.9034 0.0000
# 2 2.0015 59.4536 7.3582 0.0000 3.5309 0.0000
# 3 47.5901 7.3582 163.8342 0.0000 -14.7956 0.0000
# 4 0.0000 0.0000 0.0000 0.4720 0.0000 -7.5243
# 5 -15.9034 3.5309 -14.7956 0.0000 40.0964 0.0000
# 6 0.0000 0.0000 0.0000 -7.5243 0.0000 18.3891
#
#
#
# Elastic Compliance Matrix: (Units=1/GPa)
#
#
# Indices 1 2 3 4 5 6 
#
# 1 0.009374 -0.000179 -0.002460 0.000000 0.002826 0.000000
# 2 -0.000179 0.017048 -0.000885 0.000000 -0.001899 0.000000
# 3 -0.002460 -0.000885 0.007011 0.000000 0.001689 0.000000
# 4 0.000000 0.000000 0.000000 -0.383614 0.000000 -0.156965
# 5 0.002826 -0.001899 0.001689 0.000000 0.026851 0.000000
# 6 0.000000 0.000000 0.000000 -0.156965 0.000000 -0.009846
#
#
# Mechanical properties :
#
#
# Convention : Reuss Voigt Hill
#
# Bulk Modulus (GPa) = 37.90025 51.24278 44.57151
# Shear Modulus (GPa) = -15.75632 31.14720 7.69544
#
# Velocity S-wave (km/s) = -2.38863 3.35839 1.66932
# Velocity P-wave (km/s) = 2.47321 5.79604 4.45594
#
# Compressibility (1/GPa) = 0.02638505
#
# Stress axis : x y z
#
# Youngs Moduli (GPa) = 106.67724 58.65730 142.64267
#
# Poissons Ratio (x) = 0.01050 0.35086
# Poissons Ratio (y) = 0.01910 0.12626
# Poissons Ratio (z) = 0.26239 0.05192
#
# Static dielectric constant tensor:
#      x y z
#    x 2.136250 0.000000 0.045650 
#    y 0.000000 3.687530 0.000000 
#    z 0.045650 0.000000 2.269520 
# 
# From -- ./inp_files/14045.got.cif
#   From: 2010.05.17/outbox.cif.g08.bks.cpg/sg14_8_cif.got.tgz:14045.got - 2010.06.03 17:49:19.
