data_PCOD9239585
_publ_section_title
;
Structure prediction by ZEFSAII (Michael W. Deem and Ramdas Pophale) SiO2 
 PCOD9239585
Probable space group: P 21/C
;
_chemical_formula_sum "Si O2"
_cell_formula_units_Z 24
_cell_length_a 19.570731
_cell_length_b 12.149564
_cell_length_c 13.257029
_cell_angle_alpha 90.000000
_cell_angle_beta 22.233959
_cell_angle_gamma 90.000000
_cell_volume 1192.759821
_symmetry_space_group_name_H-M "P 21/C"
_symmetry_group_IT_number 14
_symmetry_cell_setting 'monoclinic'
loop_
_space_group_symop_operation_xyz
x,y,z
-x,1/2+y,1/2-z
-x,-y,-z
x,1/2-y,1/2+z
loop_
_atom_site_type_symbol
_atom_site_label
_atom_site_fract_x
_atom_site_fract_y
_atom_site_fract_z
Si Si1 0.584663 0.405072 0.456716
Si Si2 0.308844 0.288592 0.588578
Si Si3 0.819470 0.997475 0.812227
Si Si4 0.242796 0.118969 0.525844
Si Si5 0.278629 0.859696 0.429823
Si Si6 0.995268 0.677019 0.826236
O O1 0.500000 0.500000 0.500000
O O2 0.673225 0.449396 0.437173
O O3 0.417222 0.336154 0.725214
O O4 0.727361 0.355270 0.184723
O O5 0.245191 0.373172 0.587450
O O6 0.264016 0.168054 0.607914
O O7 0.180690 0.319216 0.859105
O O8 0.520910 0.312159 0.318328
O O9 0.874544 0.072552 0.829779
O O10 0.000000 0.000000 0.500000
O O11 0.074234 0.162272 0.692306
O O12 0.254424 0.985503 0.501556
O O13 0.117461 0.782040 0.685152
#
# Coordination Sequence:
#
# PCOD9239585 Si02
#       6
#     4   4   4   4   4   4
#     4  10  17  37  62  88 115 159 203 256 295 355
#     4  11  22  41  63  90 124 162 204 256 306 369
#     4  10  19  35  62  90 117 153 213 252 297 359
#     4  11  23  39  65  91 124 161 206 255 308 363
#     4  11  22  40  64  88 129 158 204 255 308 364
#     4  11  25  38  63  95 121 163 209 255 308 365
#
# _framework density 20.121403000000001
#
# number of rings (size 3 to 8) (size 9 to 14) (size 15 to 20)
#    0.000    1.333    5.000    4.000    7.000    0.667 
#    0.000    0.000    0.000    3.000    0.000    0.000 
#    0.000    0.000    0.000    0.000    0.000    0.000 
#
# Total GULP energy -133643.679142 kJ/mol
# GULP energy per Si atom -5568.486631 kJ/mol
# Density = 2.007561 g / cm^3
# Si number density = 20.121403 Si / 1000 Ang^3
#
#
#
# Elastic Constant Matrix: (Units=GPa)
#
#
# Indices 1 2 3 4 5 6 
#
# 1 41.7370 2.5424 16.3039 0.0000 -23.9240 0.0000
# 2 2.5424 73.1705 32.1697 0.0000 -16.3467 0.0000
# 3 16.3039 32.1697 76.3042 0.0000 -25.6376 0.0000
# 4 0.0000 0.0000 0.0000 30.4613 0.0000 -2.5159
# 5 -23.9240 -16.3467 -25.6376 0.0000 28.4480 0.0000
# 6 0.0000 0.0000 0.0000 -2.5159 0.0000 26.4111
#
#
#
# Elastic Compliance Matrix: (Units=1/GPa)
#
#
# Indices 1 2 3 4 5 6 
#
# 1 0.051152 0.008353 0.002316 0.000000 0.049905 0.000000
# 2 0.008353 0.018587 -0.005267 0.000000 0.012959 0.000000
# 3 0.002316 -0.005267 0.020753 0.000000 0.017624 0.000000
# 4 0.000000 0.000000 0.000000 0.033089 0.000000 0.003152
# 5 0.049905 0.012959 0.017624 0.000000 0.100449 0.000000
# 6 0.000000 0.000000 0.000000 0.003152 0.000000 0.038163
#
#
# Mechanical properties :
#
#
# Convention : Reuss Voigt Hill
#
# Bulk Modulus (GPa) = 9.87205 32.58264 21.22735
# Shear Modulus (GPa) = 17.53442 26.41045 21.97244
#
# Velocity S-wave (km/s) = 2.95520 3.62685 3.30812
# Velocity P-wave (km/s) = 4.06955 5.81093 5.01638
#
# Compressibility (1/GPa) = 0.10129609
#
# Stress axis : x y z
#
# Youngs Moduli (GPa) = 19.54972 53.80040 48.18677
#
# Poissons Ratio (x) = -0.44941 -0.11161
# Poissons Ratio (y) = -0.16330 0.25381
# Poissons Ratio (z) = -0.04528 0.28338
#
# Static dielectric constant tensor:
#      x y z
#    x 1.780040 0.000000 -0.036810 
#    y 0.000000 1.784330 0.000000 
#    z -0.036810 0.000000 1.798490 
# 
# From -- ./inp_files/44485.got.cif
#   From: 2010.05.17/outbox.cif.g08.bks.cpg/sg14_23_cif.got.tgz:44485.got - 2010.06.03 17:49:19.
