data_PCOD9239614
_publ_section_title
;
Structure prediction by ZEFSAII (Michael W. Deem and Ramdas Pophale) SiO2 
 PCOD9239614
Probable space group: P 21/C
;
_chemical_formula_sum "Si O2"
_cell_formula_units_Z 24
_cell_length_a 24.317534
_cell_length_b 5.124885
_cell_length_c 21.804183
_cell_angle_alpha 90.000000
_cell_angle_beta 30.527532
_cell_angle_gamma 90.000000
_cell_volume 1380.277594
_symmetry_space_group_name_H-M "P 21/C"
_symmetry_group_IT_number 14
_symmetry_cell_setting 'monoclinic'
loop_
_space_group_symop_operation_xyz
x,y,z
-x,1/2+y,1/2-z
-x,-y,-z
x,1/2-y,1/2+z
loop_
_atom_site_type_symbol
_atom_site_label
_atom_site_fract_x
_atom_site_fract_y
_atom_site_fract_z
Si Si1 0.779050 0.435114 0.636634
Si Si2 0.559491 0.018869 0.116060
Si Si3 0.698146 0.883655 0.876385
Si Si4 0.585017 0.019770 0.237940
Si Si5 0.122004 0.435740 0.901011
Si Si6 0.385863 0.883213 0.594781
O O1 0.708406 0.483570 0.643652
O O2 0.836569 0.159128 0.592105
O O3 0.685138 0.428476 0.777327
O O4 0.858994 0.664631 0.581530
O O5 0.583580 0.017640 0.165385
O O6 0.478130 0.779524 0.180417
O O7 0.489370 0.277352 0.168838
O O8 0.670949 0.979039 0.971292
O O9 0.806238 0.928995 0.731391
O O10 0.615782 0.080338 0.920525
O O11 0.670242 0.577994 0.900174
O O12 0.000000 0.500000 0.000000
O O13 0.500000 0.000000 0.500000
#
# Coordination Sequence:
#
# PCOD9239614 Si02
#       6
#     4   4   4   4   4   4
#     4  10  19  32  50  71  95 125 160 195 239 287
#     4  10  19  32  49  72 103 132 157 184 226 286
#     4  10  19  30  47  68  92 125 157 190 234 282
#     4  10  20  32  49  73 102 132 156 186 228 285
#     4  10  21  35  51  70  93 124 162 208 249 276
#     4  10  18  27  44  70  97 120 148 189 234 286
#
# _framework density 17.387806999999999
#
# number of rings (size 3 to 8) (size 9 to 14) (size 15 to 20)
#    0.000    2.000    0.000    5.000    0.000    2.667 
#    0.000    0.000    0.000    2.000    0.000    0.000 
#    0.000    0.000    0.000    0.000    0.000    0.000 
#
# Total GULP energy -133625.087699 kJ/mol
# GULP energy per Si atom -5567.711987 kJ/mol
# Density = 1.734823 g / cm^3
# Si number density = 17.387807 Si / 1000 Ang^3
#
#
#
# Elastic Constant Matrix: (Units=GPa)
#
#
# Indices 1 2 3 4 5 6 
#
# 1 51.9945 8.5145 19.0559 0.0000 -6.1035 0.0000
# 2 8.5145 94.1752 7.3009 0.0000 1.0141 0.0000
# 3 19.0559 7.3009 45.4876 0.0000 3.1000 0.0000
# 4 0.0000 0.0000 0.0000 13.7428 0.0000 -0.3417
# 5 -6.1035 1.0141 3.1000 0.0000 19.5174 0.0000
# 6 0.0000 0.0000 0.0000 -0.3417 0.0000 16.5724
#
#
#
# Elastic Compliance Matrix: (Units=1/GPa)
#
#
# Indices 1 2 3 4 5 6 
#
# 1 0.024492 -0.001489 -0.010664 0.000000 0.009430 0.000000
# 2 -0.001489 0.010844 -0.001058 0.000000 -0.000861 0.000000
# 3 -0.010664 -0.001058 0.027139 0.000000 -0.007590 0.000000
# 4 0.000000 0.000000 0.000000 0.072803 0.000000 0.001501
# 5 0.009430 -0.000861 -0.007590 0.000000 0.055436 0.000000
# 6 0.000000 0.000000 0.000000 0.001501 0.000000 0.060372
#
#
# Mechanical properties :
#
#
# Convention : Reuss Voigt Hill
#
# Bulk Modulus (GPa) = 27.73725 29.04443 28.39084
# Shear Modulus (GPa) = 17.26963 20.41891 18.84427
#
# Velocity S-wave (km/s) = 3.15493 3.43056 3.29563
# Velocity P-wave (km/s) = 5.40909 5.69489 5.55383
#
# Compressibility (1/GPa) = 0.03605261
#
# Stress axis : x y z
#
# Youngs Moduli (GPa) = 40.82963 92.21310 36.84796
#
# Poissons Ratio (x) = 0.13732 0.39295
# Poissons Ratio (y) = 0.06080 0.03899
# Poissons Ratio (z) = 0.43541 0.09756
#
# Static dielectric constant tensor:
#      x y z
#    x 1.552260 0.000000 0.053110 
#    y 0.000000 1.608620 0.000000 
#    z 0.053110 0.000000 1.577500 
# 
# From -- ./inp_files/66149.got.cif
#   From: 2010.05.17/outbox.cif.g08.bks.cpg/sg14_34_cif.got.tgz:66149.got - 2010.06.03 17:49:19.
