data_PCOD9239276
_publ_section_title
;
Structure prediction by ZEFSAII (Michael W. Deem and Ramdas Pophale) SiO2 
 PCOD9239276
Probable space group: P 21/C
;
_chemical_formula_sum "Si O2"
_cell_formula_units_Z 24
_cell_length_a 17.062342
_cell_length_b 16.424950
_cell_length_c 8.157753
_cell_angle_alpha 90.000000
_cell_angle_beta 35.050994
_cell_angle_gamma 90.000000
_cell_volume 1312.973765
_symmetry_space_group_name_H-M "P 21/C"
_symmetry_group_IT_number 14
_symmetry_cell_setting 'monoclinic'
loop_
_space_group_symop_operation_xyz
x,y,z
-x,1/2+y,1/2-z
-x,-y,-z
x,1/2-y,1/2+z
loop_
_atom_site_type_symbol
_atom_site_label
_atom_site_fract_x
_atom_site_fract_y
_atom_site_fract_z
Si Si1 0.376123 0.431786 0.895725
Si Si2 0.779007 0.782357 0.436970
Si Si3 0.315646 0.989866 0.150586
Si Si4 0.923191 0.367995 0.027284
Si Si5 0.991236 0.714135 0.815339
Si Si6 0.237146 0.095375 0.971764
O O1 0.344070 0.337925 0.906893
O O2 0.534834 0.452288 0.637367
O O3 0.319215 0.479606 0.833296
O O4 0.302170 0.444330 0.197831
O O5 0.876704 0.828333 0.399709
O O6 0.733467 0.692876 0.573728
O O7 0.890397 0.764527 0.106719
O O8 0.197390 0.923877 0.326844
O O9 0.289246 0.056531 0.052481
O O10 0.926455 0.281042 0.927908
O O11 0.072111 0.408671 0.746676
O O12 0.920290 0.345376 0.225227
#
# Coordination Sequence:
#
# PCOD9239276 Si02
#       6
#     4   4   4   4   4   4
#     4  11  22  41  57  85 120 155 192 238 288 353
#     4  10  16  36  62  85 101 153 208 233 268 348
#     4  11  25  38  56  90 128 146 187 245 301 345
#     4  10  19  39  56  90 114 154 194 244 290 335
#     4   8  17  33  61  82 112 142 199 241 275 331
#     4  10  21  39  65  84 111 158 202 237 287 340
#
# _framework density 18.279116999999999
#
# number of rings (size 3 to 8) (size 9 to 14) (size 15 to 20)
#    0.000    2.333    3.333    3.000    0.000    0.667 
#    9.000    0.000    0.000    0.000    0.000    0.000 
#    0.000    0.000    0.000    0.000    0.000    0.000 
#
# Total GULP energy -133604.056609 kJ/mol
# GULP energy per Si atom -5566.835692 kJ/mol
# Density = 1.823751 g / cm^3
# Si number density = 18.279117 Si / 1000 Ang^3
#
#
#
# Elastic Constant Matrix: (Units=GPa)
#
#
# Indices 1 2 3 4 5 6 
#
# 1 100.7577 23.8968 35.4534 0.0000 -9.8121 0.0000
# 2 23.8968 43.8632 18.1700 0.0000 -18.9849 0.0000
# 3 35.4534 18.1700 38.9518 0.0000 -9.3311 0.0000
# 4 0.0000 0.0000 0.0000 -20.9933 0.0000 31.8239
# 5 -9.8121 -18.9849 -9.3311 0.0000 35.8971 0.0000
# 6 0.0000 0.0000 0.0000 31.8239 0.0000 8.6709
#
#
#
# Elastic Compliance Matrix: (Units=1/GPa)
#
#
# Indices 1 2 3 4 5 6 
#
# 1 0.014959 -0.003497 -0.012208 0.000000 -0.000934 0.000000
# 2 -0.003497 0.035268 -0.009629 0.000000 0.015193 0.000000
# 3 -0.012208 -0.009629 0.041863 0.000000 0.002452 0.000000
# 4 0.000000 0.000000 0.000000 -0.007257 0.000000 0.026635
# 5 -0.000934 0.015193 0.002452 0.000000 0.036275 0.000000
# 6 0.000000 0.000000 0.000000 0.026635 0.000000 0.017571
#
#
# Mechanical properties :
#
#
# Convention : Reuss Voigt Hill
#
# Bulk Modulus (GPa) = 24.14144 37.62368 30.88256
# Shear Modulus (GPa) = 24.61188 11.78509 18.19849
#
# Velocity S-wave (km/s) = 3.67338 2.54191 3.15872
# Velocity P-wave (km/s) = 5.58815 5.40764 5.49864
#
# Compressibility (1/GPa) = 0.04142255
#
# Stress axis : x y z
#
# Youngs Moduli (GPa) = 66.85068 28.35423 23.88721
#
# Poissons Ratio (x) = 0.09915 0.29161
# Poissons Ratio (y) = 0.23376 0.23002
# Poissons Ratio (z) = 0.81610 0.27303
#
# Static dielectric constant tensor:
#      x y z
#    x 1.715550 0.000000 0.054980 
#    y 0.000000 1.652900 0.000000 
#    z 0.054980 0.000000 1.612430 
# 
# From -- ./inp_files/9209.got.cif
#   From: 2010.05.17/outbox.cif.g08.bks.cpg/sg14_5_cif.got.tgz:9209.got - 2010.06.03 17:49:19.
