data_PCOD9239064
_publ_section_title
;
Structure prediction by ZEFSAII (Michael W. Deem and Ramdas Pophale) SiO2 
 PCOD9239064
Probable space group: P 2/C
;
_chemical_formula_sum "Si O2"
_cell_formula_units_Z 24
_cell_length_a 24.000000
_cell_length_b 9.000000
_cell_length_c 18.000000
_cell_angle_alpha 90.000000
_cell_angle_beta 20.000000
_cell_angle_gamma 90.000000
_cell_volume 1329.774317
_symmetry_space_group_name_H-M "P 2/C"
_symmetry_group_IT_number 13
_symmetry_cell_setting 'monoclinic'
loop_
_space_group_symop_operation_xyz
x,y,z
-x,y,1/2-z
-x,-y,-z
x,-y,1/2+z
loop_
_atom_site_type_symbol
_atom_site_label
_atom_site_fract_x
_atom_site_fract_y
_atom_site_fract_z
Si Si1 0.007110 0.072619 0.154367
Si Si2 0.306372 0.925406 0.695856
Si Si3 0.109154 0.719184 0.830245
Si Si4 0.848769 0.760181 0.383692
Si Si5 0.486738 0.804628 0.606740
Si Si6 0.771670 0.391375 0.824327
O O1 0.000000 0.119625 0.250000
O O2 0.924464 0.192578 0.204007
O O3 0.909108 0.917531 0.275713
O O4 0.187400 0.026640 0.897687
O O5 0.191154 0.829736 0.786872
O O6 0.420622 0.818798 0.603871
O O7 0.417177 0.038187 0.508938
O O8 0.218890 0.570559 0.688139
O O9 0.931325 0.668329 0.081292
O O10 0.682197 0.786824 0.637388
O O11 0.801355 0.658758 0.372718
O O12 0.000000 0.712263 0.250000
O O13 0.614265 0.682136 0.480002
#
# Coordination Sequence:
#
# PCOD9239064 Si02
#       6
#     4   4   4   4   4   4
#     4  11  20  39  66  94 118 160 212 265 309 366
#     4  11  21  40  66  95 120 161 210 267 308 363
#     4  11  23  40  61  90 127 163 205 249 320 376
#     4  11  21  40  64  91 122 165 212 256 315 370
#     4  11  22  38  65  93 123 159 210 263 309 369
#     4  11  23  38  61  91 126 170 202 250 313 386
#
# _framework density 18.048175000000001
#
# number of rings (size 3 to 8) (size 9 to 14) (size 15 to 20)
#    0.000    1.000    6.667    2.000    0.000    1.333 
#    0.000    3.333    0.000    0.000    0.000    0.000 
#    0.000    0.000    0.000    0.000    0.000    0.000 
#
# Total GULP energy -133827.814666 kJ/mol
# GULP energy per Si atom -5576.158944 kJ/mol
# Density = 1.800710 g / cm^3
# Si number density = 18.048175 Si / 1000 Ang^3
#
#
#
# Elastic Constant Matrix: (Units=GPa)
#
#
# Indices 1 2 3 4 5 6 
#
# 1 143.9281 68.0994 37.9254 0.0000 -10.1671 0.0000
# 2 68.0994 72.5629 34.2944 0.0000 -4.6744 0.0000
# 3 37.9254 34.2944 112.0184 0.0000 -14.9524 0.0000
# 4 0.0000 0.0000 0.0000 28.7383 0.0000 -3.9597
# 5 -10.1671 -4.6744 -14.9524 0.0000 35.4023 0.0000
# 6 0.0000 0.0000 0.0000 -3.9597 0.0000 22.3570
#
#
#
# Elastic Compliance Matrix: (Units=1/GPa)
#
#
# Indices 1 2 3 4 5 6 
#
# 1 0.012671 -0.011530 -0.000506 0.000000 0.001903 0.000000
# 2 -0.011530 0.026604 -0.004466 0.000000 -0.001685 0.000000
# 3 -0.000506 -0.004466 0.010987 0.000000 0.003905 0.000000
# 4 0.000000 0.000000 0.000000 0.035667 0.000000 0.006317
# 5 0.001903 -0.001685 0.003905 0.000000 0.030220 0.000000
# 6 0.000000 0.000000 0.000000 0.006317 0.000000 0.045848
#
#
# Mechanical properties :
#
#
# Convention : Reuss Voigt Hill
#
# Bulk Modulus (GPa) = 57.94426 67.68312 62.81369
# Shear Modulus (GPa) = 24.90614 29.84553 27.37583
#
# Velocity S-wave (km/s) = 3.71884 4.07093 3.89886
# Velocity P-wave (km/s) = 7.11440 7.72525 7.42611
#
# Compressibility (1/GPa) = 0.01725796
#
# Stress axis : x y z
#
# Youngs Moduli (GPa) = 78.92030 37.58835 91.01623
#
# Poissons Ratio (x) = 0.43339 0.04606
# Poissons Ratio (y) = 0.90994 0.40649
# Poissons Ratio (z) = 0.03994 0.16787
#
# Static dielectric constant tensor:
#      x y z
#    x 1.633950 0.000000 0.012730 
#    y 0.000000 1.611940 0.000000 
#    z 0.012730 0.000000 1.631900 
# 
# From -- ./inp_files/71239.got.cif
#   From: 2010.05.17/outbox.ucp.g08.bks.cvg/sg13_36_cif.got.tgz:71239.got - 2010.06.11 12:23:55.
