data_PCOD9239622
_publ_section_title
;
Structure prediction by ZEFSAII (Michael W. Deem and Ramdas Pophale) SiO2 
 PCOD9239622
Probable space group: P 21/C
;
_chemical_formula_sum "Si O2"
_cell_formula_units_Z 32
_cell_length_a 20.015866
_cell_length_b 8.866188
_cell_length_c 21.340998
_cell_angle_alpha 90.000000
_cell_angle_beta 31.895292
_cell_angle_gamma 90.000000
_cell_volume 2001.073423
_symmetry_space_group_name_H-M "P 21/C"
_symmetry_group_IT_number 14
_symmetry_cell_setting 'monoclinic'
loop_
_space_group_symop_operation_xyz
x,y,z
-x,1/2+y,1/2-z
-x,-y,-z
x,1/2-y,1/2+z
loop_
_atom_site_type_symbol
_atom_site_label
_atom_site_fract_x
_atom_site_fract_y
_atom_site_fract_z
Si Si1 0.640178 0.882404 0.322621
Si Si2 0.346538 0.896640 0.569483
Si Si3 0.846231 0.684923 0.220408
Si Si4 0.153914 0.647653 0.756017
Si Si5 0.950087 0.259903 0.534995
Si Si6 0.064769 0.334919 0.638821
Si Si7 0.133349 0.407498 0.184162
Si Si8 0.837383 0.539430 0.563342
O O1 0.490294 0.868274 0.435587
O O2 0.717010 0.740376 0.290293
O O3 0.710906 0.919491 0.201674
O O4 0.658054 0.015392 0.360015
O O5 0.273134 0.741508 0.637501
O O6 0.264258 0.000695 0.587894
O O7 0.831550 0.528573 0.267800
O O8 0.886544 0.822304 0.233563
O O9 0.957722 0.661664 0.081333
O O10 0.132993 0.676749 0.846929
O O11 0.033832 0.723996 0.818088
O O12 0.867744 0.366222 0.555302
O O13 0.048013 0.367603 0.494904
O O14 0.132581 0.225570 0.634073
O O15 0.154558 0.411965 0.515239
O O16 0.978124 0.469616 0.736350
#
# Coordination Sequence:
#
# PCOD9239622 Si02
#       8
#     4   4   4   4   4   4   4   4
#     4   9  17  31  50  71  95 132 164 195 242 294
#     4   9  18  31  49  70  97 130 163 197 242 290
#     4  10  18  28  46  73 102 126 155 199 247 296
#     4  10  18  28  46  74 103 126 152 200 249 292
#     4   9  15  27  45  73 102 121 151 196 249 294
#     4  10  19  31  49  70  94 128 161 201 246 292
#     4  10  19  32  48  69  95 124 163 200 240 294
#     4   9  15  28  50  70  95 127 160 195 244 293
#
# _framework density 15.991417
#
# number of rings (size 3 to 8) (size 9 to 14) (size 15 to 20)
#    0.000    2.500    2.500    1.125    0.000    0.500 
#    0.000    0.000    0.000    4.500    0.000    0.000 
#    0.000    0.000    0.000    0.000    0.000    0.000 
#
# Total GULP energy -178156.475939 kJ/mol
# GULP energy per Si atom -5567.389873 kJ/mol
# Density = 1.595502 g / cm^3
# Si number density = 15.991417 Si / 1000 Ang^3
#
#
#
# Elastic Constant Matrix: (Units=GPa)
#
#
# Indices 1 2 3 4 5 6 
#
# 1 49.6467 19.3346 32.5091 0.0000 2.2148 0.0000
# 2 19.3346 80.8069 23.2050 0.0000 -7.4758 0.0000
# 3 32.5091 23.2050 85.6413 0.0000 -5.7942 0.0000
# 4 0.0000 0.0000 0.0000 11.7098 0.0000 7.7450
# 5 2.2148 -7.4758 -5.7942 0.0000 16.7580 0.0000
# 6 0.0000 0.0000 0.0000 7.7450 0.0000 23.1785
#
#
#
# Elastic Compliance Matrix: (Units=1/GPa)
#
#
# Indices 1 2 3 4 5 6 
#
# 1 0.029337 -0.004912 -0.010461 0.000000 -0.009685 0.000000
# 2 -0.004912 0.014637 -0.001655 0.000000 0.006607 0.000000
# 3 -0.010461 -0.001655 0.016526 0.000000 0.006358 0.000000
# 4 0.000000 0.000000 0.000000 0.109626 0.000000 -0.036631
# 5 -0.009685 0.006607 0.006358 0.000000 0.066099 0.000000
# 6 0.000000 0.000000 0.000000 -0.036631 0.000000 0.055383
#
#
# Mechanical properties :
#
#
# Convention : Reuss Voigt Hill
#
# Bulk Modulus (GPa) = 37.81270 40.68804 39.25037
# Shear Modulus (GPa) = 14.94872 19.73235 17.34054
#
# Velocity S-wave (km/s) = 3.06076 3.51655 3.29654
# Velocity P-wave (km/s) = 6.01564 6.47974 6.25200
#
# Compressibility (1/GPa) = 0.02644614
#
# Stress axis : x y z
#
# Youngs Moduli (GPa) = 34.08678 68.32157 60.51095
#
# Poissons Ratio (x) = 0.33556 0.63298
# Poissons Ratio (y) = 0.16742 0.10012
# Poissons Ratio (z) = 0.35657 0.11304
#
# Static dielectric constant tensor:
#      x y z
#    x 1.544810 0.000000 0.019340 
#    y 0.000000 1.542200 0.000000 
#    z 0.019340 0.000000 1.525820 
# 
# From -- ./inp_files/66887.got.cif
#   From: 2010.05.17/outbox.cif.g08.bks.cpg/sg14_34_cif.got.tgz:66887.got - 2010.06.03 17:49:19.
