data_PCOD9239290
_publ_section_title
;
Structure prediction by ZEFSAII (Michael W. Deem and Ramdas Pophale) SiO2 
 PCOD9239290
Probable space group: P 21/C
;
_chemical_formula_sum "Si O2"
_cell_formula_units_Z 32
_cell_length_a 31.195139
_cell_length_b 5.168106
_cell_length_c 28.886419
_cell_angle_alpha 90.000000
_cell_angle_beta 154.332572
_cell_angle_gamma 90.000000
_cell_volume 2017.191441
_symmetry_space_group_name_H-M "P 21/C"
_symmetry_group_IT_number 14
_symmetry_cell_setting 'monoclinic'
loop_
_space_group_symop_operation_xyz
x,y,z
-x,1/2+y,1/2-z
-x,-y,-z
x,1/2-y,1/2+z
loop_
_atom_site_type_symbol
_atom_site_label
_atom_site_fract_x
_atom_site_fract_y
_atom_site_fract_z
Si Si1 0.554776 0.495111 0.783560
Si Si2 0.536723 0.566755 0.656743
Si Si3 0.310483 0.560379 0.399682
Si Si4 0.177421 0.066534 0.857137
Si Si5 0.577224 0.434067 0.142186
Si Si6 0.022566 0.030387 0.300473
Si Si7 0.774596 0.066596 0.535836
Si Si8 0.649882 0.560508 0.115281
O O1 0.492256 0.249586 0.739557
O O2 0.549285 0.518654 0.723001
O O3 0.666784 0.463662 0.909854
O O4 0.419575 0.559818 0.529827
O O5 0.588115 0.343098 0.676474
O O6 0.579656 0.841213 0.682605
O O7 0.231739 0.488065 0.362092
O O8 0.311621 0.341887 0.361139
O O9 0.297365 0.839192 0.363496
O O10 0.212700 0.845159 0.927667
O O11 0.058186 0.034668 0.739229
O O12 0.205666 0.344531 0.906237
O O13 0.647500 0.493044 0.167135
O O14 0.465083 0.442084 0.012914
O O15 0.138733 0.974473 0.417889
O O16 0.008586 0.326536 0.270556
#
# Coordination Sequence:
#
# PCOD9239290 Si02
#       8
#     4   4   4   4   4   4   4   4
#     4  12  23  33  45  65  93 124 157 185 212 247
#     4  10  19  29  42  59  83 117 148 175 206 251
#     4  10  17  26  41  63  88 109 137 173 220 266
#     4  10  18  30  47  67  90 117 146 183 228 267
#     4   9  17  30  43  57  81 111 146 177 210 255
#     4   8  16  29  46  64  83 113 149 183 222 262
#     4  10  19  32  46  62  90 123 154 184 214 253
#     4   9  17  27  42  61  82 110 137 175 220 261
#
# _framework density 15.863642
#
# number of rings (size 3 to 8) (size 9 to 14) (size 15 to 20)
#    0.000    2.250    0.000    4.500    0.000    5.000 
#    0.000    0.000    0.000    0.000    0.000    0.000 
#    0.000    6.000    0.000    0.000    0.000    0.000 
#
# Total GULP energy -178384.335154 kJ/mol
# GULP energy per Si atom -5574.510474 kJ/mol
# Density = 1.582754 g / cm^3
# Si number density = 15.863642 Si / 1000 Ang^3
#
#
#
# Elastic Constant Matrix: (Units=GPa)
#
#
# Indices 1 2 3 4 5 6 
#
# 1 50.6323 -25.2964 13.5792 0.0000 5.7014 0.0000
# 2 -25.2964 55.0949 1.0013 0.0000 1.7520 0.0000
# 3 13.5792 1.0013 53.5374 0.0000 18.6652 0.0000
# 4 0.0000 0.0000 0.0000 20.9976 0.0000 82.3976
# 5 5.7014 1.7520 18.6652 0.0000 27.3450 0.0000
# 6 0.0000 0.0000 0.0000 82.3976 0.0000 767.6902
#
#
#
# Elastic Compliance Matrix: (Units=1/GPa)
#
#
# Indices 1 2 3 4 5 6 
#
# 1 0.028402 0.013232 -0.006681 0.000000 -0.002209 0.000000
# 2 0.013232 0.024353 -0.003026 0.000000 -0.002254 0.000000
# 3 -0.006681 -0.003026 0.026084 0.000000 -0.016217 0.000000
# 4 0.000000 0.000000 0.000000 0.082280 0.000000 -0.008831
# 5 -0.002209 -0.002254 -0.016217 0.000000 0.048244 0.000000
# 6 0.000000 0.000000 0.000000 -0.008831 0.000000 0.002250
#
#
# Mechanical properties :
#
#
# Convention : Reuss Voigt Hill
#
# Bulk Modulus (GPa) = 11.64305 15.31476 13.47890
# Shear Modulus (GPa) = 21.44158 174.53858 97.99008
#
# Velocity S-wave (km/s) = 3.68042 10.50063 7.86793
# Velocity P-wave (km/s) = 5.04144 12.51769 9.54224
#
# Compressibility (1/GPa) = 0.08588816
#
# Stress axis : x y z
#
# Youngs Moduli (GPa) = 35.20916 41.06344 38.33805
#
# Poissons Ratio (x) = -0.54336 0.25614
# Poissons Ratio (y) = -0.46589 0.11601
# Poissons Ratio (z) = 0.23524 0.12425
#
# Static dielectric constant tensor:
#      x y z
#    x 1.537040 0.000000 0.023490 
#    y 0.000000 1.539560 0.000000 
#    z 0.023490 0.000000 1.504400 
# 
# From -- ./inp_files/72750.got.cif
#   From: 2010.05.17/outbox.cif.g08.bks.cpg/sg14_37_cif.got.tgz:72750.got - 2010.06.03 17:49:19.
