data_PCOD9239136
_publ_section_title
;
Structure prediction by ZEFSAII (Michael W. Deem and Ramdas Pophale) SiO2 
 PCOD9239136
Probable space group: P 21/C
;
_chemical_formula_sum "Si O2"
_cell_formula_units_Z 32
_cell_length_a 12.170728
_cell_length_b 15.670226
_cell_length_c 6.427059
_cell_angle_alpha 90.000000
_cell_angle_beta 88.479116
_cell_angle_gamma 90.000000
_cell_volume 1225.324401
_symmetry_space_group_name_H-M "P 21/C"
_symmetry_group_IT_number 14
_symmetry_cell_setting 'monoclinic'
loop_
_space_group_symop_operation_xyz
x,y,z
-x,1/2+y,1/2-z
-x,-y,-z
x,1/2-y,1/2+z
loop_
_atom_site_type_symbol
_atom_site_label
_atom_site_fract_x
_atom_site_fract_y
_atom_site_fract_z
Si Si1 0.598434 0.319104 0.153232
Si Si2 0.572060 0.955880 0.307609
Si Si3 0.204228 0.909876 0.166051
Si Si4 0.045504 0.371784 0.202606
Si Si5 0.454495 0.628216 0.297394
Si Si6 0.295772 0.409876 0.833949
Si Si7 0.927940 0.455880 0.692391
Si Si8 0.901566 0.680896 0.346768
O O1 0.500388 0.375812 0.261319
O O2 0.707928 0.339183 0.274043
O O3 0.567188 0.221846 0.112918
O O4 0.607379 0.358154 0.922367
O O5 0.677691 0.920548 0.422260
O O6 0.500000 0.000000 0.500000
O O7 0.586263 0.032450 0.144028
O O8 0.086374 0.882358 0.266409
O O9 0.250000 0.000000 0.249999
O O10 0.177691 0.920548 0.922260
O O11 0.086263 0.467550 0.144028
O O12 0.067188 0.278154 0.112918
O O13 0.107379 0.358154 0.422367
O O14 0.586374 0.617642 0.266409
O O15 0.207928 0.339183 0.774042
O O16 0.000000 0.500000 0.500000
O O17 0.000388 0.375812 0.761319
#
# Coordination Sequence:
#
# PCOD9239136 Si02
#       8
#     4   4   4   4   4   4   4   4
#     4  10  19  33  53  79 104 133 171 215 252 301
#     4   8  16  31  49  74  98 131 175 201 237 314
#     4  10  15  33  58  70  96 144 174 201 250 306
#     4  10  20  32  53  82 103 128 178 214 248 306
#     4  10  20  32  53  82 103 128 178 214 248 306
#     4  10  15  33  58  70  96 144 174 201 250 306
#     4   8  16  31  49  74  98 131 175 201 237 314
#     4  10  19  33  53  79 104 133 171 215 252 301
#
# _framework density 26.115531000000001
#
# number of rings (size 3 to 8) (size 9 to 14) (size 15 to 20)
#    0.000    3.000    7.500    0.000    0.000    4.000 
#    0.000    1.250    0.000    3.000    0.000    0.000 
#    0.000    0.000    0.000    0.000    0.000    0.000 
#
# Total GULP energy -178652.660334 kJ/mol
# GULP energy per Si atom -5582.895635 kJ/mol
# Density = 2.605609 g / cm^3
# Si number density = 26.115531 Si / 1000 Ang^3
#
#
#
# Elastic Constant Matrix: (Units=GPa)
#
#
# Indices 1 2 3 4 5 6 
#
# 1 139.4989 45.4481 48.5469 0.0000 40.0146 0.0000
# 2 45.4481 162.8465 69.3882 0.0000 15.7910 0.0000
# 3 48.5469 69.3882 79.9675 0.0000 45.2869 0.0000
# 4 0.0000 0.0000 0.0000 51.9555 0.0000 16.1362
# 5 40.0146 15.7910 45.2869 0.0000 52.8480 0.0000
# 6 0.0000 0.0000 0.0000 16.1362 0.0000 38.4169
#
#
#
# Elastic Compliance Matrix: (Units=1/GPa)
#
#
# Indices 1 2 3 4 5 6 
#
# 1 0.009820 -0.001687 -0.001112 0.000000 -0.005978 0.000000
# 2 -0.001687 0.012436 -0.016293 0.000000 0.011523 0.000000
# 3 -0.001112 -0.016293 0.046791 0.000000 -0.034386 0.000000
# 4 0.000000 0.000000 0.000000 0.022135 0.000000 -0.009297
# 5 -0.005978 0.011523 -0.034386 0.000000 0.049472 0.000000
# 6 0.000000 0.000000 0.000000 -0.009297 0.000000 0.029935
#
#
# Mechanical properties :
#
#
# Convention : Reuss Voigt Hill
#
# Bulk Modulus (GPa) = 32.40058 78.78658 55.59358
# Shear Modulus (GPa) = 22.82473 43.23939 33.03206
#
# Velocity S-wave (km/s) = 2.95954 4.07344 3.56032
# Velocity P-wave (km/s) = 4.91040 7.23587 6.18344
#
# Compressibility (1/GPa) = 0.03086364
#
# Stress axis : x y z
#
# Youngs Moduli (GPa) = 101.83293 80.40898 21.37175
#
# Poissons Ratio (x) = 0.13565 0.02377
# Poissons Ratio (y) = 0.17180 0.34820
# Poissons Ratio (z) = 0.11325 1.31007
#
# Static dielectric constant tensor:
#      x y z
#    x 2.123260 0.000000 -0.167340 
#    y 0.000000 2.140650 0.000000 
#    z -0.167340 0.000000 2.287150 
# 
# From -- ./inp_files/32480.got.cif
#   From: 2010.05.17/outbox.cif.g08.bks.cpg/sg14_17_cif.got.tgz:32480.got - 2010.06.03 17:49:19.
