data_PCOD9239400
_publ_section_title
;
Structure prediction by ZEFSAII (Michael W. Deem and Ramdas Pophale) SiO2 
 PCOD9239400
Probable space group: P 21/C
;
_chemical_formula_sum "Si O2"
_cell_formula_units_Z 32
_cell_length_a 12.330472
_cell_length_b 7.659914
_cell_length_c 18.551995
_cell_angle_alpha 90.000000
_cell_angle_beta 79.919661
_cell_angle_gamma 90.000000
_cell_volume 1725.193672
_symmetry_space_group_name_H-M "P 21/C"
_symmetry_group_IT_number 14
_symmetry_cell_setting 'monoclinic'
loop_
_space_group_symop_operation_xyz
x,y,z
-x,1/2+y,1/2-z
-x,-y,-z
x,1/2-y,1/2+z
loop_
_atom_site_type_symbol
_atom_site_label
_atom_site_fract_x
_atom_site_fract_y
_atom_site_fract_z
Si Si1 0.248397 0.079366 0.456878
Si Si2 0.123614 0.431317 0.490896
Si Si3 0.265710 0.790613 0.888404
Si Si4 0.611771 0.619129 0.927668
Si Si5 0.532592 0.618702 0.157108
Si Si6 0.642751 0.126527 0.760661
Si Si7 0.427002 0.832699 0.994028
Si Si8 0.267004 0.013151 0.111738
O O1 0.156240 0.230033 0.469475
O O2 0.293895 0.039246 0.532160
O O3 0.357314 0.152885 0.403006
O O4 0.219280 0.896482 0.422359
O O5 0.190794 0.552473 0.426112
O O6 0.165639 0.456327 0.568924
O O7 0.000000 0.500000 0.500000
O O8 0.298676 0.761070 0.801777
O O9 0.378112 0.820576 0.920083
O O10 0.556206 0.510924 0.870325
O O11 0.664316 0.804702 0.896349
O O12 0.508955 0.674197 0.990203
O O13 0.459381 0.784059 0.186271
O O14 0.585991 0.524070 0.219919
O O15 0.732241 0.051242 0.806408
O O16 0.330491 0.858928 0.061540
O O17 0.500000 0.000000 0.000000
#
# Coordination Sequence:
#
# PCOD9239400 Si02
#       8
#     4   4   4   4   4   4   4   4
#     4  10  21  35  59  88 112 151 192 245 288 349
#     4  10  23  43  67  83 103 148 212 269 303 327
#     4  10  22  38  56  84 120 150 197 242 295 354
#     4  10  17  32  50  84 115 150 192 223 278 352
#     4  11  22  30  52  83 129 162 185 213 285 374
#     4  11  22  33  51  85 126 161 181 218 289 362
#     4   9  16  29  51  76 110 154 188 229 269 336
#     4   9  20  34  57  78 111 147 195 246 293 347
#
# _framework density 18.548642000000001
#
# number of rings (size 3 to 8) (size 9 to 14) (size 15 to 20)
#    0.000    2.000    2.500    2.625    7.000    1.500 
#    0.000    0.000    5.500    0.000    0.000    0.000 
#    0.000    0.000    0.000    0.000    0.000    0.000 
#
# Total GULP energy -178210.720344 kJ/mol
# GULP energy per Si atom -5569.085011 kJ/mol
# Density = 1.850642 g / cm^3
# Si number density = 18.548642 Si / 1000 Ang^3
#
#
#
# Elastic Constant Matrix: (Units=GPa)
#
#
# Indices 1 2 3 4 5 6 
#
# 1 74.1055 26.8784 14.6272 0.0000 13.4774 0.0000
# 2 26.8784 77.0453 15.3466 0.0000 2.6833 0.0000
# 3 14.6272 15.3466 71.8899 0.0000 25.8710 0.0000
# 4 0.0000 0.0000 0.0000 27.8813 0.0000 2.8138
# 5 13.4774 2.6833 25.8710 0.0000 18.8839 0.0000
# 6 0.0000 0.0000 0.0000 2.8138 0.0000 23.4826
#
#
#
# Elastic Compliance Matrix: (Units=1/GPa)
#
#
# Indices 1 2 3 4 5 6 
#
# 1 0.018290 -0.006569 0.004029 0.000000 -0.017639 0.000000
# 2 -0.006569 0.016071 -0.005838 0.000000 0.010402 0.000000
# 3 0.004029 -0.005838 0.029731 0.000000 -0.042777 0.000000
# 4 0.000000 0.000000 0.000000 0.036305 0.000000 -0.004350
# 5 -0.017639 0.010402 -0.042777 0.000000 0.122670 0.000000
# 6 0.000000 0.000000 0.000000 -0.004350 0.000000 0.043106
#
#
# Mechanical properties :
#
#
# Convention : Reuss Voigt Hill
#
# Bulk Modulus (GPa) = 21.12544 37.41611 29.27077
# Shear Modulus (GPa) = 16.73881 25.12880 20.93381
#
# Velocity S-wave (km/s) = 3.00730 3.68469 3.36309
# Velocity P-wave (km/s) = 4.84484 6.19017 5.55836
#
# Compressibility (1/GPa) = 0.04733630
#
# Stress axis : x y z
#
# Youngs Moduli (GPa) = 54.67601 62.22197 33.63534
#
# Poissons Ratio (x) = 0.40872 -0.13551
# Poissons Ratio (y) = 0.35915 0.19635
# Poissons Ratio (z) = -0.22027 0.36323
#
# Static dielectric constant tensor:
#      x y z
#    x 1.568230 0.000000 -0.056750 
#    y 0.000000 1.507960 0.000000 
#    z -0.056750 0.000000 1.630820 
# 
# From -- ./inp_files/57063.got.cif
#   From: 2010.05.17/outbox.cif.g08.bks.cpg/sg14_29_cif.got.tgz:57063.got - 2010.06.03 17:49:19.
