data_PCOD9239606
_publ_section_title
;
Structure prediction by ZEFSAII (Michael W. Deem and Ramdas Pophale) SiO2 
 PCOD9239606
Probable space group: P 21/C
;
_chemical_formula_sum "Si O2"
_cell_formula_units_Z 32
_cell_length_a 9.187987
_cell_length_b 12.037182
_cell_length_c 15.420766
_cell_angle_alpha 90.000000
_cell_angle_beta 129.240399
_cell_angle_gamma 90.000000
_cell_volume 1320.905699
_symmetry_space_group_name_H-M "P 21/C"
_symmetry_group_IT_number 14
_symmetry_cell_setting 'monoclinic'
loop_
_space_group_symop_operation_xyz
x,y,z
-x,1/2+y,1/2-z
-x,-y,-z
x,1/2-y,1/2+z
loop_
_atom_site_type_symbol
_atom_site_label
_atom_site_fract_x
_atom_site_fract_y
_atom_site_fract_z
Si Si1 0.009176 0.269459 0.529604
Si Si2 0.293902 0.460881 0.892916
Si Si3 0.144274 0.572672 0.114606
Si Si4 0.958925 0.610915 0.797406
Si Si5 0.441530 0.016133 0.276540
Si Si6 0.708822 0.447630 0.460542
Si Si7 0.624635 0.860044 0.063648
Si Si8 0.633430 0.691979 0.928936
O O1 0.987664 0.192007 0.605182
O O2 0.226065 0.256167 0.582290
O O3 0.907430 0.201969 0.412839
O O4 0.900873 0.381650 0.513434
O O5 0.325411 0.420269 0.806957
O O6 0.147180 0.560096 0.829824
O O7 0.500000 0.500000 0.000000
O O8 0.245036 0.382629 0.955970
O O9 0.146074 0.499528 0.203126
O O10 0.352591 0.566843 0.154930
O O11 0.000000 0.500000 0.000000
O O12 0.818488 0.674790 0.681643
O O13 0.342413 0.008285 0.147621
O O14 0.491443 0.889785 0.326904
O O15 0.531878 0.370724 0.421072
O O16 0.697125 0.531545 0.537653
O O17 0.541673 0.779809 0.959097
#
# Coordination Sequence:
#
# PCOD9239606 Si02
#       8
#     4   4   4   4   4   4   4   4
#     4  11  22  40  70  97 126 174 231 268 331 408
#     4  10  22  38  69 106 132 164 225 287 326 392
#     4  10  17  38  70  94 124 167 218 276 330 396
#     4  11  21  44  68  96 137 177 215 280 345 396
#     4  11  22  43  67 100 137 172 220 280 341 393
#     4  11  27  47  63  95 137 181 222 272 338 409
#     4  11  27  46  64  93 141 176 221 279 336 404
#     4  11  22  42  66  99 130 171 227 278 323 401
#
# _framework density 24.225804
#
# number of rings (size 3 to 8) (size 9 to 14) (size 15 to 20)
#    0.000    1.250    5.000    2.250    7.000    2.500 
#    2.250    0.000    0.000    0.000    0.000    0.000 
#    0.000    0.000    0.000    0.000    0.000    0.000 
#
# Total GULP energy -178658.833786 kJ/mol
# GULP energy per Si atom -5583.088556 kJ/mol
# Density = 2.417066 g / cm^3
# Si number density = 24.225804 Si / 1000 Ang^3
#
#
#
# Elastic Constant Matrix: (Units=GPa)
#
#
# Indices 1 2 3 4 5 6 
#
# 1 118.9222 15.6600 20.6347 0.0000 -9.4842 0.0000
# 2 15.6600 65.0860 4.8895 0.0000 3.1800 0.0000
# 3 20.6347 4.8895 51.0777 0.0000 -6.4778 0.0000
# 4 0.0000 0.0000 0.0000 27.5023 0.0000 -2.9438
# 5 -9.4842 3.1800 -6.4778 0.0000 28.6665 0.0000
# 6 0.0000 0.0000 0.0000 -2.9438 0.0000 31.1761
#
#
#
# Elastic Compliance Matrix: (Units=1/GPa)
#
#
# Indices 1 2 3 4 5 6 
#
# 1 0.009474 -0.002161 -0.003287 0.000000 0.002631 0.000000
# 2 -0.002161 0.016094 -0.001014 0.000000 -0.002729 0.000000
# 3 -0.003287 -0.001014 0.021495 0.000000 0.003882 0.000000
# 4 0.000000 0.000000 0.000000 0.036732 0.000000 0.003468
# 5 0.002631 -0.002729 0.003882 0.000000 0.036935 0.000000
# 6 0.000000 0.000000 0.000000 0.003468 0.000000 0.032403
#
#
# Mechanical properties :
#
#
# Convention : Reuss Voigt Hill
#
# Bulk Modulus (GPa) = 29.29136 35.27270 32.28203
# Shear Modulus (GPa) = 28.17935 30.39576 29.28755
#
# Velocity S-wave (km/s) = 3.41427 3.54600 3.48075
# Velocity P-wave (km/s) = 5.25929 5.59974 5.43218
#
# Compressibility (1/GPa) = 0.03413976
#
# Stress axis : x y z
#
# Youngs Moduli (GPa) = 105.55698 62.13593 46.52208
#
# Poissons Ratio (x) = 0.13428 0.15290
# Poissons Ratio (y) = 0.22811 0.04716
# Poissons Ratio (z) = 0.34692 0.06299
#
# Static dielectric constant tensor:
#      x y z
#    x 1.940420 0.000000 -0.021760 
#    y 0.000000 2.077390 0.000000 
#    z -0.021760 0.000000 1.944960 
# 
# From -- ./inp_files/41253.got.cif
#   From: 2010.05.17/outbox.cif.g08.bks.cpg/sg14_21_cif.got.tgz:41253.got - 2010.06.03 17:49:19.
