data_PCOD9239775
_publ_section_title
;
Structure prediction by ZEFSAII (Michael W. Deem and Ramdas Pophale) SiO2 
 PCOD9239775
Probable space group: P 21/C
;
_chemical_formula_sum "Si O2"
_cell_formula_units_Z 32
_cell_length_a 9.211812
_cell_length_b 8.998302
_cell_length_c 21.896135
_cell_angle_alpha 90.000000
_cell_angle_beta 63.412346
_cell_angle_gamma 90.000000
_cell_volume 1623.051801
_symmetry_space_group_name_H-M "P 21/C"
_symmetry_group_IT_number 14
_symmetry_cell_setting 'monoclinic'
loop_
_space_group_symop_operation_xyz
x,y,z
-x,1/2+y,1/2-z
-x,-y,-z
x,1/2-y,1/2+z
loop_
_atom_site_type_symbol
_atom_site_label
_atom_site_fract_x
_atom_site_fract_y
_atom_site_fract_z
Si Si1 0.325368 0.131742 0.794174
Si Si2 0.978988 0.456103 0.402115
Si Si3 0.483891 0.822903 0.499523
Si Si4 0.367529 0.051936 0.076597
Si Si5 0.487335 0.375494 0.686170
Si Si6 0.293792 0.852589 0.419205
Si Si7 0.030178 0.257431 0.510677
Si Si8 0.617547 0.820196 0.594948
O O1 0.361820 0.253792 0.735713
O O2 0.365835 0.218777 0.849538
O O3 0.139462 0.074463 0.831304
O O4 0.448367 0.992202 0.775861
O O5 0.804534 0.473117 0.402300
O O6 0.991860 0.610412 0.436803
O O7 0.988461 0.330285 0.452804
O O8 0.627770 0.729923 0.439553
O O9 0.337419 0.801930 0.479988
O O10 0.480205 0.777679 0.571441
O O11 0.500000 0.000000 0.500000
O O12 0.423624 0.045298 0.136407
O O13 0.500000 0.000000 0.000000
O O14 0.640846 0.277744 0.635770
O O15 0.102139 0.866356 0.448894
O O16 0.385927 0.005728 0.389118
O O17 0.212962 0.201692 0.473136
#
# Coordination Sequence:
#
# PCOD9239775 Si02
#       8
#     4   4   4   4   4   4   4   4
#     4  11  23  40  59  82 119 160 209 247 303 375
#     4  10  20  35  58  87 121 156 194 254 305 365
#     4   9  18  30  50  83 120 147 180 244 301 346
#     4  11  21  37  65  93 118 153 207 260 313 368
#     4  11  23  39  61  85 118 165 209 252 301 376
#     4  10  19  33  54  87 118 150 198 246 300 353
#     4  10  18  31  56  89 117 150 189 246 306 354
#     4  10  19  33  56  84 121 153 192 247 304 357
#
# _framework density 19.715945000000001
#
# number of rings (size 3 to 8) (size 9 to 14) (size 15 to 20)
#    0.000    1.750    2.500    3.375    1.750    0.000 
#    0.000    1.250    0.000    4.500    0.000    0.000 
#    0.000    0.000    0.000    0.000    0.000    0.000 
#
# Total GULP energy -178251.486572 kJ/mol
# GULP energy per Si atom -5570.358955 kJ/mol
# Density = 1.967107 g / cm^3
# Si number density = 19.715945 Si / 1000 Ang^3
#
#
#
# Elastic Constant Matrix: (Units=GPa)
#
#
# Indices 1 2 3 4 5 6 
#
# 1 82.6208 24.0501 41.7995 0.0000 -11.2761 0.0000
# 2 24.0501 70.1948 22.5673 0.0000 -1.3688 0.0000
# 3 41.7995 22.5673 79.9714 0.0000 -4.0836 0.0000
# 4 0.0000 0.0000 0.0000 35.7215 0.0000 -1.6174
# 5 -11.2761 -1.3688 -4.0836 0.0000 19.0144 0.0000
# 6 0.0000 0.0000 0.0000 -1.6174 0.0000 31.1012
#
#
#
# Elastic Compliance Matrix: (Units=1/GPa)
#
#
# Indices 1 2 3 4 5 6 
#
# 1 0.018513 -0.003524 -0.008224 0.000000 0.008959 0.000000
# 2 -0.003524 0.016339 -0.002847 0.000000 -0.001525 0.000000
# 3 -0.008224 -0.002847 0.017539 0.000000 -0.001315 0.000000
# 4 0.000000 0.000000 0.000000 0.028060 0.000000 0.001459
# 5 0.008959 -0.001525 -0.001315 0.000000 0.057512 0.000000
# 6 0.000000 0.000000 0.000000 0.001459 0.000000 0.032229
#
#
# Mechanical properties :
#
#
# Convention : Reuss Voigt Hill
#
# Bulk Modulus (GPa) = 43.10169 45.51343 44.30756
# Shear Modulus (GPa) = 24.14099 26.79209 25.46654
#
# Velocity S-wave (km/s) = 3.50300 3.69033 3.59788
# Velocity P-wave (km/s) = 6.18628 6.42594 6.30725
#
# Compressibility (1/GPa) = 0.02320094
#
# Stress axis : x y z
#
# Youngs Moduli (GPa) = 54.01646 61.20356 57.01476
#
# Poissons Ratio (x) = 0.21569 0.46891
# Poissons Ratio (y) = 0.19036 0.16230
# Poissons Ratio (z) = 0.44425 0.17422
#
# Static dielectric constant tensor:
#      x y z
#    x 1.708760 0.000000 0.005300 
#    y 0.000000 1.759930 0.000000 
#    z 0.005300 0.000000 1.697060 
# 
# From -- ./inp_files/72056.got.cif
#   From: 2010.05.17/outbox.cif.g08.bks.cpg/sg14_37_cif.got.tgz:72056.got - 2010.06.03 17:49:19.
